# generated using pymatgen
data_In86Cu29Se144
_symmetry_space_group_name_H-M   'P 1'
_cell_length_a   17.59323795
_cell_length_b   17.59145157
_cell_length_c   23.45545901
_cell_angle_alpha   90.00777721
_cell_angle_beta   89.99616690
_cell_angle_gamma   89.99536130
_symmetry_Int_Tables_number   1
_chemical_formula_structural   In86Cu29Se144
_chemical_formula_sum   'In86 Cu29 Se144'
_cell_volume   7259.24381911
_cell_formula_units_Z   1
loop_
 _symmetry_equiv_pos_site_id
 _symmetry_equiv_pos_as_xyz
  1  'x, y, z'
loop_
 _atom_site_type_symbol
 _atom_site_label
 _atom_site_symmetry_multiplicity
 _atom_site_fract_x
 _atom_site_fract_y
 _atom_site_fract_z
 _atom_site_occupancy
  In  In0  1  -0.00286638  0.16777450  0.12629125  1
  In  In1  1  -0.00101726  0.16729892  0.63369116  1
  In  In2  1  0.00546411  0.49064214  0.12637254  1
  In  In3  1  0.00351264  0.49520461  0.62932140  1
  In  In4  1  0.01907647  0.83172400  0.12585716  1
  In  In5  1  -0.01132373  0.84579053  0.63669690  1
  In  In6  1  0.32225477  0.15668985  0.12859670  1
  In  In7  1  0.33784375  0.15069928  0.62720389  1
  In  In8  1  0.33918683  0.50881978  0.11536596  1
  In  In9  1  0.33158377  0.50350982  0.61382662  1
  In  In10  1  0.33752567  0.83182130  0.13208512  1
  In  In11  1  0.33480389  0.82703570  0.62593957  1
  In  In12  1  0.68022242  0.16196932  0.12303159  1
  In  In13  1  0.64617748  0.17801360  0.64151468  1
  In  In14  1  0.65092227  0.49671856  0.12610663  1
  In  In15  1  0.65459371  0.51111938  0.63344809  1
  In  In16  1  0.65171016  0.84258186  0.12375589  1
  In  In17  1  0.66220948  0.83263674  0.62630516  1
  In  In18  1  0.16790678  -0.00930545  0.36090794  1
  In  In19  1  0.15774215  -0.01860262  0.86029825  1
  In  In20  1  0.16702987  0.35552281  0.36617743  1
  In  In21  1  0.16507737  0.34752542  0.87741533  1
  In  In22  1  0.17284688  0.65737008  0.37016551  1
  In  In23  1  0.15800702  0.68465387  0.89222759  1
  In  In24  1  0.50029513  -0.00223291  0.37890471  1
  In  In25  1  0.48489488  -0.00906522  0.85696851  1
  In  In26  1  0.50862459  0.32423550  0.38133270  1
  In  In27  1  0.51507339  0.34051612  0.86995307  1
  In  In28  1  0.48815429  0.67637510  0.38082044  1
  In  In29  1  0.49996939  0.66170430  0.88087656  1
  In  In30  1  0.82873162  -0.00898474  0.38126722  1
  In  In31  1  0.84452268  0.01131090  0.87568282  1
  In  In32  1  0.83472095  0.33002354  0.36893956  1
  In  In33  1  0.82627202  0.32150356  0.86952008  1
  In  In34  1  0.84144936  0.67600039  0.38066392  1
  In  In35  1  0.83470332  0.66811970  0.86351412  1
  In  In36  1  -0.00021195  0.16696334  0.37132213  1
  In  In37  1  -0.01223336  0.15052898  0.87248347  1
  In  In38  1  0.01879514  0.50452542  0.37129728  1
  In  In39  1  0.00857513  0.50836090  0.86712808  1
  In  In40  1  -0.00594409  0.83140673  0.37626634  1
  In  In41  1  0.01856328  0.84453552  0.86358718  1
  In  In42  1  0.34751336  0.16402937  0.37559337  1
  In  In43  1  0.34190593  0.14838819  0.87001673  1
  In  In44  1  0.32666466  0.50840828  0.37961645  1
  In  In45  1  0.32498354  0.52002037  0.89524578  1
  In  In46  1  0.35065392  0.84541656  0.35188858  1
  In  In47  1  0.32137230  0.84380873  0.88663571  1
  In  In48  1  0.65496747  0.16584761  0.38000998  1
  In  In49  1  0.66863380  0.17517661  0.86545823  1
  In  In50  1  0.66608852  0.48447651  0.37564729  1
  In  In51  1  0.66361328  0.49802907  0.86882022  1
  In  In52  1  0.66360743  0.83802990  0.38584759  1
  In  In53  1  0.65802702  0.82421647  0.86690498  1
  In  In54  1  0.17649997  -0.01660812  0.14050215  1
  In  In55  1  0.16451312  -0.00581602  0.64099133  1
  In  In56  1  0.15676518  0.33229554  0.12422033  1
  In  In57  1  0.15757867  0.33928013  0.62272735  1
  In  In58  1  0.19375771  0.68854868  0.10178862  1
  In  In59  1  0.17145953  0.66123030  0.62772971  1
  In  In60  1  0.48555960  -0.01607060  0.12021724  1
  In  In61  1  0.50023187  -0.00186995  0.62491029  1
  In  In62  1  0.49659730  0.34446876  0.12774189  1
  In  In63  1  0.50483929  0.34478210  0.62027723  1
  In  In64  1  0.48891425  0.66484171  0.11737466  1
  In  In65  1  0.49864810  0.67355134  0.61872041  1
  In  In66  1  0.83314961  0.01443989  0.11934776  1
  In  In67  1  0.83371378  -0.00478358  0.63181967  1
  In  In68  1  0.84191368  0.32207779  0.12937412  1
  In  In69  1  0.83321398  0.32897905  0.63246347  1
  In  In70  1  0.83612655  0.66866216  0.12274399  1
  In  In71  1  0.82070037  0.67661866  0.63266558  1
  In  In72  1  0.50740361  0.17216407  -0.01093561  1
  In  In73  1  0.33165778  0.33123969  0.24986919  1
  In  In74  1  0.83139330  0.49711518  -0.00586060  1
  In  In75  1  0.00939579  0.66191036  0.24755645  1
  In  In76  1  0.66575849  0.00288885  0.25500823  1
  In  In77  1  0.33792683  0.33245238  0.75626174  1
  In  In78  1  0.83042381  0.50610692  0.50213057  1
  In  In79  1  0.16980676  0.82566620  0.49846535  1
  In  In80  1  0.17453408  0.16928404  0.50105105  1
  In  In81  1  0.66153143  0.66544167  0.24586818  1
  In  In82  1  0.83850656  0.83686460  -0.00426679  1
  In  In83  1  0.83136612  0.16396435  0.51427710  1
  In  In84  1  0.16235860  0.16343121  0.00350207  1
  In  In85  1  0.32785326  0.67432079  0.75227854  1
  Cu  Cu86  1  0.00884576  0.66687837  -0.00515152  1
  Cu  Cu87  1  0.16093435  0.16368537  0.24846209  1
  Cu  Cu88  1  -0.00009515  -0.00286486  0.50871914  1
  Cu  Cu89  1  0.65998777  0.66802080  0.50697891  1
  Cu  Cu90  1  0.66438185  0.33236212  0.50566466  1
  Cu  Cu91  1  0.65856851  0.67311858  -0.00174357  1
  Cu  Cu92  1  0.83392115  0.16258151  0.75076431  1
  Cu  Cu93  1  0.83392386  0.49228694  0.75020076  1
  Cu  Cu94  1  0.82954736  0.83125009  0.75171908  1
  Cu  Cu95  1  0.66153413  -0.00498703  0.50553274  1
  Cu  Cu96  1  0.83526428  0.49124450  0.25030391  1
  Cu  Cu97  1  0.16480191  0.16927229  0.75001581  1
  Cu  Cu98  1  0.50655292  0.16102016  0.25450340  1
  Cu  Cu99  1  0.33853447  -0.00612753  0.49787808  1
  Cu  Cu100  1  0.83541748  0.84036012  0.25444137  1
  Cu  Cu101  1  0.00913202  0.34603513  0.49741760  1
  Cu  Cu102  1  0.33963712  0.33949687  -0.00171995  1
  Cu  Cu103  1  0.66452645  0.00039099  -0.00377128  1
  Cu  Cu104  1  0.50009160  0.83015861  0.74511397  1
  Cu  Cu105  1  0.49852730  0.49669111  0.24946709  1
  Cu  Cu106  1  0.83744448  0.17253708  0.24739193  1
  Cu  Cu107  1  -0.00069055  0.67235333  0.50018475  1
  Cu  Cu108  1  0.33762758  0.33437189  0.49437834  1
  Cu  Cu109  1  0.33044824  -0.00314563  0.00030615  1
  Cu  Cu110  1  0.16472203  0.50071016  0.75037155  1
  Cu  Cu111  1  -0.00504688  0.32946328  0.00144142  1
  Cu  Cu112  1  0.49752962  0.50298461  0.75316674  1
  Cu  Cu113  1  0.66957683  0.33417831  -0.00558409  1
  Cu  Cu114  1  0.33382701  0.66704623  0.49702186  1
  Se  Se115  1  0.08673231  0.07196126  0.06955874  1
  Se  Se116  1  0.08343363  0.07963127  0.56248975  1
  Se  Se117  1  0.08093725  0.41325671  0.05032729  1
  Se  Se118  1  0.08908477  0.42968199  0.55147735  1
  Se  Se119  1  0.08686769  0.75850527  0.04449802  1
  Se  Se120  1  0.07616018  0.75031342  0.56507063  1
  Se  Se121  1  0.41191394  0.08654710  0.05241385  1
  Se  Se122  1  0.41812527  0.07970624  0.55173981  1
  Se  Se123  1  0.42508760  0.41977078  0.05110415  1
  Se  Se124  1  0.41783613  0.41980682  0.55000221  1
  Se  Se125  1  0.42819856  0.77008996  0.05711709  1
  Se  Se126  1  0.41308558  0.75355026  0.55048740  1
  Se  Se127  1  0.74974056  0.08508944  0.04459500  1
  Se  Se128  1  0.73510663  0.07837223  0.56867338  1
  Se  Se129  1  0.74635324  0.41112831  0.06097498  1
  Se  Se130  1  0.74498557  0.41371681  0.56393656  1
  Se  Se131  1  0.74175912  0.74935478  0.05866104  1
  Se  Se132  1  0.74738056  0.75120973  0.55513134  1
  Se  Se133  1  0.26065815  0.25714831  0.05763378  1
  Se  Se134  1  0.26240182  0.25902481  0.56304461  1
  Se  Se135  1  0.24677327  0.57510058  0.04581655  1
  Se  Se136  1  0.24545076  0.58803277  0.54921521  1
  Se  Se137  1  0.25373972  0.91682836  0.06070177  1
  Se  Se138  1  0.25062292  0.92486656  0.55958099  1
  Se  Se139  1  0.58967726  0.25692935  0.05954941  1
  Se  Se140  1  0.58091661  0.24720114  0.55664878  1
  Se  Se141  1  0.58459633  0.58537379  0.05479569  1
  Se  Se142  1  0.57723825  0.57956385  0.55430219  1
  Se  Se143  1  0.57852496  0.91991343  0.04791139  1
  Se  Se144  1  0.57661667  0.90935891  0.55490933  1
  Se  Se145  1  0.91361918  0.24392081  0.05251737  1
  Se  Se146  1  0.93108874  0.26289170  0.55727734  1
  Se  Se147  1  0.92379566  0.58904261  0.05370317  1
  Se  Se148  1  0.92033331  0.59331000  0.56293117  1
  Se  Se149  1  0.92360455  0.91919164  0.06241007  1
  Se  Se150  1  0.91234802  0.91579282  0.55733669  1
  Se  Se151  1  0.08363851  0.25774483  0.43972282  1
  Se  Se152  1  0.07702305  0.25225028  0.93888967  1
  Se  Se153  1  0.08356622  0.59185733  0.44577944  1
  Se  Se154  1  0.08729937  0.57485765  0.94627901  1
  Se  Se155  1  0.08085305  0.92501836  0.44355716  1
  Se  Se156  1  0.08873522  0.91561359  0.94335357  1
  Se  Se157  1  0.42100332  0.24448254  0.44939016  1
  Se  Se158  1  0.40912892  0.25901139  0.93322505  1
  Se  Se159  1  0.41886884  0.58015111  0.44778222  1
  Se  Se160  1  0.42778999  0.58193190  0.95628839  1
  Se  Se161  1  0.41410737  0.90835843  0.44055379  1
  Se  Se162  1  0.42077496  0.92463495  0.94386197  1
  Se  Se163  1  0.74846716  0.25426151  0.44683173  1
  Se  Se164  1  0.74815252  0.24497488  0.94461651  1
  Se  Se165  1  0.73856562  0.59336311  0.43960456  1
  Se  Se166  1  0.74349331  0.59528427  0.93997182  1
  Se  Se167  1  0.75077710  0.91501824  0.45481912  1
  Se  Se168  1  0.74320602  0.91882627  0.93493577  1
  Se  Se169  1  0.25410303  0.07191791  0.43828332  1
  Se  Se170  1  0.25064028  0.07626752  0.94042283  1
  Se  Se171  1  0.24880301  0.41585202  0.44588239  1
  Se  Se172  1  0.24674676  0.41865427  0.95157341  1
  Se  Se173  1  0.26139285  0.74920433  0.43256233  1
  Se  Se174  1  0.27559857  0.73035599  0.94661814  1
  Se  Se175  1  0.58193640  0.07941897  0.44949514  1
  Se  Se176  1  0.58640582  0.07471926  0.93011119  1
  Se  Se177  1  0.58298216  0.41557863  0.45062733  1
  Se  Se178  1  0.58690334  0.42110942  0.94572802  1
  Se  Se179  1  0.57978606  0.75028811  0.44836447  1
  Se  Se180  1  0.57802921  0.75729834  0.94503989  1
  Se  Se181  1  0.92246585  0.08055981  0.44809041  1
  Se  Se182  1  0.92324040  0.07751044  0.95382786  1
  Se  Se183  1  0.92017085  0.41797991  0.43886529  1
  Se  Se184  1  0.92225393  0.40927112  0.93489185  1
  Se  Se185  1  0.91418261  0.75915729  0.45302654  1
  Se  Se186  1  0.92282345  0.74288313  0.93619014  1
  Se  Se187  1  0.24227620  0.24083546  0.31279206  1
  Se  Se188  1  0.24346783  0.24330103  0.81493336  1
  Se  Se189  1  0.24143170  0.56593080  0.30151521  1
  Se  Se190  1  0.24310051  0.57975582  0.81166984  1
  Se  Se191  1  0.24622681  0.90947270  0.29253878  1
  Se  Se192  1  0.26953212  0.92527023  0.80376278  1
  Se  Se193  1  0.58698906  0.24924790  0.30437886  1
  Se  Se194  1  0.57542212  0.24824361  0.79951628  1
  Se  Se195  1  0.57875842  0.57607107  0.31173583  1
  Se  Se196  1  0.58103492  0.58792653  0.80513060  1
  Se  Se197  1  0.57863432  0.90463727  0.30718169  1
  Se  Se198  1  0.58409954  0.91406729  0.79762721  1
  Se  Se199  1  0.92277251  0.25301329  0.30204967  1
  Se  Se200  1  0.91927612  0.24582887  0.80401241  1
  Se  Se201  1  0.90872603  0.57905601  0.30938468  1
  Se  Se202  1  0.91686985  0.58038514  0.79948406  1
  Se  Se203  1  0.91656444  0.92178448  0.30928320  1
  Se  Se204  1  0.91125940  0.91316967  0.80786126  1
  Se  Se205  1  0.07871223  0.08105886  0.30377752  1
  Se  Se206  1  0.08277474  0.08364820  0.80305931  1
  Se  Se207  1  0.07852804  0.42020658  0.29436659  1
  Se  Se208  1  0.08224370  0.41303573  0.80038343  1
  Se  Se209  1  0.08966748  0.75713830  0.31004463  1
  Se  Se210  1  0.08100450  0.73492986  0.80754036  1
  Se  Se211  1  0.42140098  0.07808146  0.30495647  1
  Se  Se212  1  0.43002252  0.09761847  0.79275957  1
  Se  Se213  1  0.42260589  0.41576745  0.31326457  1
  Se  Se214  1  0.41372524  0.43333794  0.81731460  1
  Se  Se215  1  0.40833472  0.73016423  0.29883970  1
  Se  Se216  1  0.42150179  0.75755285  0.81222714  1
  Se  Se217  1  0.75930687  0.09462748  0.31290175  1
  Se  Se218  1  0.75200196  0.08070907  0.80601478  1
  Se  Se219  1  0.74841226  0.41142913  0.30247071  1
  Se  Se220  1  0.74781284  0.41223900  0.80400037  1
  Se  Se221  1  0.75274926  0.75631641  0.30921225  1
  Se  Se222  1  0.74323649  0.74417652  0.79833142  1
  Se  Se223  1  0.25246627  0.08030292  0.20509380  1
  Se  Se224  1  0.25014669  0.08489447  0.70027139  1
  Se  Se225  1  0.25039342  0.41924823  0.18454333  1
  Se  Se226  1  0.24987678  0.42340678  0.69187794  1
  Se  Se227  1  0.24810835  0.74572089  0.19336130  1
  Se  Se228  1  0.23364950  0.76458791  0.69613498  1
  Se  Se229  1  0.57797515  0.08362709  0.18526290  1
  Se  Se230  1  0.58849072  0.06723731  0.69747882  1
  Se  Se231  1  0.58474855  0.41104830  0.20182457  1
  Se  Se232  1  0.57944795  0.41803304  0.69957238  1
  Se  Se233  1  0.57093450  0.75762838  0.19257278  1
  Se  Se234  1  0.58157135  0.74290177  0.69389274  1
  Se  Se235  1  0.91458341  0.08291384  0.19559314  1
  Se  Se236  1  0.91846710  0.07972685  0.69808584  1
  Se  Se237  1  0.91985600  0.41332594  0.19473813  1
  Se  Se238  1  0.91994777  0.41204804  0.69663976  1
  Se  Se239  1  0.91060619  0.75636748  0.19392678  1
  Se  Se240  1  0.91499144  0.74784633  0.69935868  1
  Se  Se241  1  0.08129283  0.24954492  0.19567464  1
  Se  Se242  1  0.08608239  0.25433067  0.69532239  1
  Se  Se243  1  0.09323888  0.59243535  0.17369467  1
  Se  Se244  1  0.08356377  0.58430819  0.69565519  1
  Se  Se245  1  0.07550684  0.91606229  0.20372828  1
  Se  Se246  1  0.07642294  0.91837980  0.70596351  1
  Se  Se247  1  0.42434174  0.23772052  0.19103847  1
  Se  Se248  1  0.42000515  0.25102679  0.68655491  1
  Se  Se249  1  0.41998779  0.57895392  0.19245639  1
  Se  Se250  1  0.41555785  0.57964430  0.69098526  1
  Se  Se251  1  0.41261080  0.92338508  0.20152649  1
  Se  Se252  1  0.41462739  0.91269992  0.69255811  1
  Se  Se253  1  0.74676200  0.25000333  0.19637978  1
  Se  Se254  1  0.74989077  0.24889600  0.70047997  1
  Se  Se255  1  0.75858858  0.57331798  0.18937603  1
  Se  Se256  1  0.75124917  0.57954639  0.69857107  1
  Se  Se257  1  0.75479991  0.91408741  0.19007576  1
  Se  Se258  1  0.74630044  0.91283222  0.69668751  1
