# generated using pymatgen
data_In86Cu29Se144
_symmetry_space_group_name_H-M   'P 1'
_cell_length_a   17.58595471
_cell_length_b   17.58456631
_cell_length_c   23.44070391
_cell_angle_alpha   90.00517031
_cell_angle_beta   89.98959361
_cell_angle_gamma   90.01063509
_symmetry_Int_Tables_number   1
_chemical_formula_structural   In86Cu29Se144
_chemical_formula_sum   'In86 Cu29 Se144'
_cell_volume   7248.83550511
_cell_formula_units_Z   1
loop_
 _symmetry_equiv_pos_site_id
 _symmetry_equiv_pos_as_xyz
  1  'x, y, z'
loop_
 _atom_site_type_symbol
 _atom_site_label
 _atom_site_symmetry_multiplicity
 _atom_site_fract_x
 _atom_site_fract_y
 _atom_site_fract_z
 _atom_site_occupancy
  In  In0  1  0.00476329  0.17616732  0.12675749  1
  In  In1  1  -0.01391517  0.17212976  0.62114096  1
  In  In2  1  -0.02242149  0.52076468  0.14572474  1
  In  In3  1  -0.00903807  0.51228107  0.62543285  1
  In  In4  1  -0.01359126  0.82385272  0.11149753  1
  In  In5  1  0.00850781  0.81655556  0.63391198  1
  In  In6  1  0.34219049  0.16290308  0.14171146  1
  In  In7  1  0.33475870  0.16654377  0.62789703  1
  In  In8  1  0.34363758  0.49287428  0.12850052  1
  In  In9  1  0.33717704  0.50213183  0.63154407  1
  In  In10  1  0.33167407  0.82940093  0.11950069  1
  In  In11  1  0.33222448  0.84125905  0.63459415  1
  In  In12  1  0.65824415  0.16686843  0.14189799  1
  In  In13  1  0.67962769  0.16088286  0.61310157  1
  In  In14  1  0.66571421  0.51042311  0.12722430  1
  In  In15  1  0.67752827  0.50472880  0.62114760  1
  In  In16  1  0.66571063  0.83000498  0.12531454  1
  In  In17  1  0.65788451  0.83377495  0.63117450  1
  In  In18  1  0.17016744  -0.01585681  0.38043919  1
  In  In19  1  0.15428586  -0.01238353  0.86508432  1
  In  In20  1  0.17278583  0.34041675  0.37054417  1
  In  In21  1  0.16905537  0.32164934  0.87591978  1
  In  In22  1  0.16706970  0.67154981  0.36875666  1
  In  In23  1  0.18104307  0.67956111  0.87021801  1
  In  In24  1  0.50463530  0.00735202  0.35772671  1
  In  In25  1  0.48529811  -0.00515651  0.87183220  1
  In  In26  1  0.50562391  0.33309036  0.36386872  1
  In  In27  1  0.50225398  0.34700346  0.87946595  1
  In  In28  1  0.49978226  0.66549755  0.36568697  1
  In  In29  1  0.49917445  0.66907635  0.87882310  1
  In  In30  1  0.82790404  0.00875804  0.37977264  1
  In  In31  1  0.82693866  -0.03524571  0.86584673  1
  In  In32  1  0.82684002  0.33224727  0.37050912  1
  In  In33  1  0.84223721  0.34429081  0.87911539  1
  In  In34  1  0.82341836  0.65127873  0.35837167  1
  In  In35  1  0.83105258  0.66862811  0.87445408  1
  In  In36  1  -0.01604921  0.16623466  0.37911638  1
  In  In37  1  0.01185478  0.16345056  0.87578974  1
  In  In38  1  -0.01672757  0.48794656  0.35819336  1
  In  In39  1  -0.01648311  0.50395444  0.88081655  1
  In  In40  1  0.01097845  0.83172169  0.37789005  1
  In  In41  1  -0.00138209  0.82884028  0.87238822  1
  In  In42  1  0.35067395  0.17281469  0.36179777  1
  In  In43  1  0.33099853  0.16274440  0.86708445  1
  In  In44  1  0.33075165  0.50040428  0.36855869  1
  In  In45  1  0.34271148  0.51221251  0.87017601  1
  In  In46  1  0.32977692  0.83064998  0.36844283  1
  In  In47  1  0.33375807  0.82850170  0.87886962  1
  In  In48  1  0.67243019  0.17038891  0.36426463  1
  In  In49  1  0.66588646  0.16196315  0.87840779  1
  In  In50  1  0.67368873  0.49960463  0.36448919  1
  In  In51  1  0.65514929  0.51671207  0.88690622  1
  In  In52  1  0.66724594  0.82978293  0.36539191  1
  In  In53  1  0.67727806  0.81900106  0.88419279  1
  In  In54  1  0.17253945  -0.00342850  0.12327486  1
  In  In55  1  0.17952965  -0.01435665  0.62801207  1
  In  In56  1  0.16741422  0.33436569  0.13546121  1
  In  In57  1  0.17361958  0.34397692  0.62057738  1
  In  In58  1  0.15755553  0.67613487  0.12499620  1
  In  In59  1  0.15897140  0.67392191  0.63068943  1
  In  In60  1  0.50705593  -0.00921797  0.13177970  1
  In  In61  1  0.49359039  -0.00795125  0.62756452  1
  In  In62  1  0.49205382  0.34024571  0.13304558  1
  In  In63  1  0.49763237  0.32577119  0.62231646  1
  In  In64  1  0.49984973  0.66740950  0.12257322  1
  In  In65  1  0.49958311  0.67633542  0.64099939  1
  In  In66  1  0.82957477  -0.01289980  0.12331841  1
  In  In67  1  0.83032210  0.01229994  0.62462474  1
  In  In68  1  0.80163825  0.37867146  0.16553252  1
  In  In69  1  0.82743193  0.33926373  0.60739172  1
  In  In70  1  0.82974873  0.66613999  0.12633618  1
  In  In71  1  0.84017799  0.66338916  0.63294206  1
  In  In72  1  0.00670649  0.33663355  0.74367566  1
  In  In73  1  0.16774355  0.49983110  0.00320056  1
  In  In74  1  0.66402981  -0.00411277  0.74662875  1
  In  In75  1  0.51178656  0.17185848  0.48757389  1
  In  In76  1  0.50576188  0.49931624  0.49310440  1
  In  In77  1  0.83885875  0.16465116  0.00516098  1
  In  In78  1  0.83543586  0.83156755  0.50160313  1
  In  In79  1  0.16065103  0.50393193  0.49209051  1
  In  In80  1  0.16895565  0.16461394  0.00760852  1
  In  In81  1  0.16924576  0.16358088  0.50298227  1
  In  In82  1  -0.00221510  -0.00194661  0.25498607  1
  In  In83  1  0.49855077  0.16708396  0.01472945  1
  In  In84  1  0.66494950  0.33922889  0.74313078  1
  In  In85  1  0.49963157  0.83840988  0.50767399  1
  Cu  Cu86  1  -0.00790561  0.33564869  0.49133117  1
  Cu  Cu87  1  0.49592650  0.50509272  0.75723797  1
  Cu  Cu88  1  0.67160910  0.66634680  0.00366099  1
  Cu  Cu89  1  0.67581884  0.34472879  0.00692902  1
  Cu  Cu90  1  0.32319088  0.67319377  0.49783146  1
  Cu  Cu91  1  0.33906150  0.66554494  -0.00248565  1
  Cu  Cu92  1  0.32745007  -0.00945528  -0.00232838  1
  Cu  Cu93  1  0.50354826  0.50600259  0.24707785  1
  Cu  Cu94  1  0.17025381  0.83087528  0.75359497  1
  Cu  Cu95  1  -0.00758721  0.34449219  0.01169542  1
  Cu  Cu96  1  0.82931218  0.83122419  0.24502781  1
  Cu  Cu97  1  0.33712063  -0.00102021  0.49827098  1
  Cu  Cu98  1  0.17697975  0.16093688  0.74701044  1
  Cu  Cu99  1  0.66203098  -0.00643748  0.00379966  1
  Cu  Cu100  1  0.00390656  -0.00724850  0.50140476  1
  Cu  Cu101  1  -0.00012095  0.66661955  -0.00046299  1
  Cu  Cu102  1  0.82627319  0.50688631  0.75247876  1
  Cu  Cu103  1  -0.00841750  0.66294856  0.50073088  1
  Cu  Cu104  1  0.34034596  0.33589352  0.00309168  1
  Cu  Cu105  1  0.49654719  0.17060028  0.74803963  1
  Cu  Cu106  1  0.83378799  0.16683674  0.25440916  1
  Cu  Cu107  1  0.83830483  0.16333986  0.74787593  1
  Cu  Cu108  1  0.16684019  0.49826330  0.74854853  1
  Cu  Cu109  1  -0.00503676  -0.00783234  -0.01064379  1
  Cu  Cu110  1  0.16835506  0.16646130  0.25525463  1
  Cu  Cu111  1  0.16633345  0.83335524  0.24699302  1
  Cu  Cu112  1  0.66845127  0.66450440  0.49584728  1
  Cu  Cu113  1  0.49541340  0.82751696  0.24386570  1
  Cu  Cu114  1  0.17356776  0.50430323  0.24734285  1
  Se  Se115  1  0.06762590  0.07214634  0.05621009  1
  Se  Se116  1  0.08025987  0.07513719  0.56403794  1
  Se  Se117  1  0.07860978  0.41994370  0.06956912  1
  Se  Se118  1  0.06959946  0.41325756  0.55587715  1
  Se  Se119  1  0.08520862  0.75305524  0.04748991  1
  Se  Se120  1  0.07930180  0.74332498  0.55279920  1
  Se  Se121  1  0.40252797  0.07122658  0.06195923  1
  Se  Se122  1  0.41881995  0.08242292  0.55382582  1
  Se  Se123  1  0.42491313  0.41924731  0.05310738  1
  Se  Se124  1  0.41260468  0.41546231  0.55599532  1
  Se  Se125  1  0.42008195  0.75105382  0.05165309  1
  Se  Se126  1  0.40891096  0.74202079  0.56104485  1
  Se  Se127  1  0.73669507  0.08184151  0.06245213  1
  Se  Se128  1  0.75988144  0.08166894  0.54448133  1
  Se  Se129  1  0.75745060  0.42300309  0.06441642  1
  Se  Se130  1  0.74353959  0.42421575  0.54544807  1
  Se  Se131  1  0.75339178  0.75276918  0.05568960  1
  Se  Se132  1  0.74117861  0.74483191  0.56092647  1
  Se  Se133  1  0.26237702  0.25518778  0.06385817  1
  Se  Se134  1  0.26252267  0.25883798  0.55425231  1
  Se  Se135  1  0.25863456  0.58906402  0.06193111  1
  Se  Se136  1  0.25069404  0.58684365  0.55880828  1
  Se  Se137  1  0.24208895  0.91023472  0.05113673  1
  Se  Se138  1  0.25955497  0.91178917  0.55286420  1
  Se  Se139  1  0.59525130  0.26084728  0.06400379  1
  Se  Se140  1  0.59741887  0.26166797  0.55406859  1
  Se  Se141  1  0.58316774  0.58400737  0.05308845  1
  Se  Se142  1  0.58098907  0.59600521  0.55961503  1
  Se  Se143  1  0.57817261  0.91051718  0.05584426  1
  Se  Se144  1  0.59679907  0.93202613  0.55728216  1
  Se  Se145  1  0.91119431  0.26191117  0.06823615  1
  Se  Se146  1  0.91256723  0.24981501  0.54602399  1
  Se  Se147  1  0.91876513  0.58566523  0.05698195  1
  Se  Se148  1  0.90530049  0.58239395  0.55260797  1
  Se  Se149  1  0.90879787  0.91659373  0.04682281  1
  Se  Se150  1  0.92508762  0.91604587  0.56554691  1
  Se  Se151  1  0.08169276  0.25587698  0.44003609  1
  Se  Se152  1  0.07210850  0.26104483  0.95283008  1
  Se  Se153  1  0.06805142  0.58829800  0.43307517  1
  Se  Se154  1  0.08306941  0.58912938  0.93867856  1
  Se  Se155  1  0.08867078  0.90814278  0.45344940  1
  Se  Se156  1  0.08534731  0.91062387  0.94322647  1
  Se  Se157  1  0.41242562  0.26289567  0.44022373  1
  Se  Se158  1  0.41321245  0.24875812  0.94204309  1
  Se  Se159  1  0.40752817  0.59391655  0.44153104  1
  Se  Se160  1  0.42207971  0.57774528  0.94875130  1
  Se  Se161  1  0.41841168  0.92150678  0.43646851  1
  Se  Se162  1  0.41838739  0.91273198  0.94813005  1
  Se  Se163  1  0.75496113  0.24000187  0.43847638  1
  Se  Se164  1  0.74523236  0.25868324  0.94311183  1
  Se  Se165  1  0.74819912  0.58321806  0.43931885  1
  Se  Se166  1  0.75673537  0.58379312  0.94903848  1
  Se  Se167  1  0.74041048  0.91555130  0.44161561  1
  Se  Se168  1  0.75050188  0.91459548  0.95166047  1
  Se  Se169  1  0.26069747  0.08195806  0.43787561  1
  Se  Se170  1  0.24969883  0.07683174  0.93942570  1
  Se  Se171  1  0.26116717  0.41220148  0.44588813  1
  Se  Se172  1  0.25683569  0.40964009  0.94072271  1
  Se  Se173  1  0.24465880  0.75498961  0.44135880  1
  Se  Se174  1  0.24984300  0.75007725  0.95184454  1
  Se  Se175  1  0.59364120  0.07122206  0.43499825  1
  Se  Se176  1  0.58213286  0.07708707  0.94614786  1
  Se  Se177  1  0.59515948  0.40791977  0.43630299  1
  Se  Se178  1  0.58543061  0.41850119  0.95226490  1
  Se  Se179  1  0.58425796  0.74633061  0.44145293  1
  Se  Se180  1  0.58402358  0.74664301  0.95059220  1
  Se  Se181  1  0.91875205  0.07622026  0.45149283  1
  Se  Se182  1  0.91470055  0.07743809  0.93331834  1
  Se  Se183  1  0.91002701  0.42004317  0.43922045  1
  Se  Se184  1  0.90962730  0.42457356  0.95624899  1
  Se  Se185  1  0.91487332  0.74083944  0.43538531  1
  Se  Se186  1  0.91725785  0.74900282  0.94402989  1
  Se  Se187  1  0.25270006  0.25301764  0.30418919  1
  Se  Se188  1  0.25113154  0.25189122  0.80100886  1
  Se  Se189  1  0.25373098  0.58951221  0.30236062  1
  Se  Se190  1  0.24849011  0.58175003  0.80339030  1
  Se  Se191  1  0.24748722  0.91764345  0.30089334  1
  Se  Se192  1  0.25535999  0.91452298  0.80635626  1
  Se  Se193  1  0.56576926  0.22878474  0.30195716  1
  Se  Se194  1  0.58002489  0.24559401  0.80867015  1
  Se  Se195  1  0.58874917  0.58716218  0.30064270  1
  Se  Se196  1  0.58375468  0.58696339  0.80703060  1
  Se  Se197  1  0.58113207  0.90928671  0.29782138  1
  Se  Se198  1  0.58618562  0.91162727  0.81723702  1
  Se  Se199  1  0.91944493  0.25062290  0.30405261  1
  Se  Se200  1  0.91510080  0.24782432  0.80830828  1
  Se  Se201  1  0.92863739  0.59425013  0.29500437  1
  Se  Se202  1  0.91628896  0.58410797  0.80419392  1
  Se  Se203  1  0.90603538  0.90663106  0.31317438  1
  Se  Se204  1  0.94052066  0.93216663  0.80417247  1
  Se  Se205  1  0.08871986  0.08687525  0.31725713  1
  Se  Se206  1  0.08545789  0.08708544  0.80003254  1
  Se  Se207  1  0.09080784  0.41986845  0.30130911  1
  Se  Se208  1  0.08748961  0.42284379  0.81386026  1
  Se  Se209  1  0.08049860  0.75288092  0.30051736  1
  Se  Se210  1  0.08410559  0.74614994  0.80339719  1
  Se  Se211  1  0.39502980  0.06283588  0.29870036  1
  Se  Se212  1  0.41654685  0.08244284  0.79943341  1
  Se  Se213  1  0.42088232  0.42315849  0.30292604  1
  Se  Se214  1  0.41616605  0.41368706  0.80570104  1
  Se  Se215  1  0.41266134  0.74695529  0.30084841  1
  Se  Se216  1  0.40204290  0.73377767  0.81142352  1
  Se  Se217  1  0.75132715  0.07541220  0.29999556  1
  Se  Se218  1  0.75771765  0.08691930  0.80947273  1
  Se  Se219  1  0.75581942  0.41668924  0.29541411  1
  Se  Se220  1  0.74834328  0.42392940  0.81250266  1
  Se  Se221  1  0.74511397  0.74568695  0.29605805  1
  Se  Se222  1  0.76249935  0.76217554  0.80565651  1
  Se  Se223  1  0.24194912  0.08165659  0.19656594  1
  Se  Se224  1  0.25897841  0.07597015  0.69393355  1
  Se  Se225  1  0.25682003  0.41626557  0.19840338  1
  Se  Se226  1  0.25157884  0.41562534  0.69656287  1
  Se  Se227  1  0.24933090  0.75008887  0.19250276  1
  Se  Se228  1  0.25149630  0.74799876  0.69691254  1
  Se  Se229  1  0.56723860  0.08685406  0.20194496  1
  Se  Se230  1  0.58025025  0.09605996  0.68622617  1
  Se  Se231  1  0.58524283  0.42037928  0.19501271  1
  Se  Se232  1  0.57118421  0.43052532  0.68766042  1
  Se  Se233  1  0.58427008  0.74540353  0.19409987  1
  Se  Se234  1  0.58550508  0.75642847  0.70542185  1
  Se  Se235  1  0.91091277  0.08708889  0.18985311  1
  Se  Se236  1  0.92250345  0.08250128  0.69502129  1
  Se  Se237  1  0.94051706  0.39667304  0.19672649  1
  Se  Se238  1  0.90139839  0.41970174  0.69155490  1
  Se  Se239  1  0.91735155  0.75244205  0.19277350  1
  Se  Se240  1  0.91526718  0.74829993  0.70158706  1
  Se  Se241  1  0.08458269  0.24799983  0.20163860  1
  Se  Se242  1  0.09647835  0.24156159  0.68512765  1
  Se  Se243  1  0.08807573  0.58871300  0.19791247  1
  Se  Se244  1  0.08144021  0.57981449  0.69568489  1
  Se  Se245  1  0.07956662  0.91040614  0.18769556  1
  Se  Se246  1  0.08876309  0.91190667  0.69544182  1
  Se  Se247  1  0.41850724  0.25444741  0.20349476  1
  Se  Se248  1  0.41380527  0.25503420  0.69572796  1
  Se  Se249  1  0.41690027  0.58687848  0.19447440  1
  Se  Se250  1  0.41286382  0.58729200  0.70132814  1
  Se  Se251  1  0.41098983  0.91155403  0.19195381  1
  Se  Se252  1  0.43383430  0.90325472  0.70016810  1
  Se  Se253  1  0.74754588  0.24983802  0.20407688  1
  Se  Se254  1  0.75998357  0.24552729  0.68903947  1
  Se  Se255  1  0.76369590  0.57282462  0.19675243  1
  Se  Se256  1  0.74304287  0.58765041  0.69744583  1
  Se  Se257  1  0.74484456  0.91783426  0.19640037  1
  Se  Se258  1  0.76252405  0.91074447  0.69141246  1
