# generated using pymatgen
data_In86Cu29Se144
_symmetry_space_group_name_H-M   'P 1'
_cell_length_a   17.58562350
_cell_length_b   17.58759985
_cell_length_c   23.44829606
_cell_angle_alpha   90.02519905
_cell_angle_beta   90.04086140
_cell_angle_gamma   90.00449020
_symmetry_Int_Tables_number   1
_chemical_formula_structural   In86Cu29Se144
_chemical_formula_sum   'In86 Cu29 Se144'
_cell_volume   7252.29534484
_cell_formula_units_Z   1
loop_
 _symmetry_equiv_pos_site_id
 _symmetry_equiv_pos_as_xyz
  1  'x, y, z'
loop_
 _atom_site_type_symbol
 _atom_site_label
 _atom_site_symmetry_multiplicity
 _atom_site_fract_x
 _atom_site_fract_y
 _atom_site_fract_z
 _atom_site_occupancy
  In  In0  1  -0.00076825  0.15576327  0.11740101  1
  In  In1  1  -0.00155250  0.18119956  0.62982622  1
  In  In2  1  0.00272202  0.51708781  0.12910077  1
  In  In3  1  -0.00107893  0.50303816  0.62464913  1
  In  In4  1  -0.01158990  0.82552787  0.11561010  1
  In  In5  1  -0.00662302  0.82579278  0.62257106  1
  In  In6  1  0.33735414  0.16381896  0.12588279  1
  In  In7  1  0.32805974  0.16496597  0.62741849  1
  In  In8  1  0.31994455  0.49632860  0.13178294  1
  In  In9  1  0.33111263  0.49565356  0.60656057  1
  In  In10  1  0.34136252  0.84760594  0.12531759  1
  In  In11  1  0.33222074  0.84650664  0.62381512  1
  In  In12  1  0.65648547  0.17461547  0.12967498  1
  In  In13  1  0.67000714  0.14907466  0.62373261  1
  In  In14  1  0.67753749  0.49733287  0.12872166  1
  In  In15  1  0.68006094  0.51109748  0.61284794  1
  In  In16  1  0.67856943  0.82629993  0.14456452  1
  In  In17  1  0.66723415  0.82629452  0.63064173  1
  In  In18  1  0.16234044  -0.01280591  0.37412994  1
  In  In19  1  0.17869048  -0.00963358  0.87821643  1
  In  In20  1  0.18143540  0.33421226  0.37662525  1
  In  In21  1  0.14876154  0.33063025  0.87658475  1
  In  In22  1  0.15627915  0.67463670  0.37992438  1
  In  In23  1  0.15681645  0.68913479  0.87509736  1
  In  In24  1  0.50725315  0.00157247  0.36431672  1
  In  In25  1  0.50784058  0.01000542  0.86698971  1
  In  In26  1  0.50126432  0.33529764  0.37086415  1
  In  In27  1  0.49167597  0.32641381  0.87966674  1
  In  In28  1  0.50250831  0.65409760  0.37331746  1
  In  In29  1  0.51405053  0.66548069  0.87173801  1
  In  In30  1  0.81606502  0.00393817  0.39227342  1
  In  In31  1  0.81558093  -0.00056472  0.87275905  1
  In  In32  1  0.82077437  0.34463539  0.38116703  1
  In  In33  1  0.85241102  0.34027255  0.87515784  1
  In  In34  1  0.83334292  0.66616704  0.37433161  1
  In  In35  1  0.83413980  0.66582766  0.87330739  1
  In  In36  1  -0.00792184  0.15256870  0.37664321  1
  In  In37  1  0.00298882  0.18520290  0.87705349  1
  In  In38  1  -0.01405542  0.51117185  0.38338066  1
  In  In39  1  -0.01500961  0.49091523  0.86629042  1
  In  In40  1  0.00368947  0.82452881  0.38189987  1
  In  In41  1  0.00885678  0.82208854  0.87428604  1
  In  In42  1  0.33928991  0.16970676  0.36672792  1
  In  In43  1  0.34374553  0.15116840  0.88308953  1
  In  In44  1  0.34113680  0.48781740  0.38790840  1
  In  In45  1  0.33693212  0.49950761  0.87420251  1
  In  In46  1  0.32286996  0.83380857  0.37202554  1
  In  In47  1  0.31400213  0.84462465  0.87711668  1
  In  In48  1  0.66414238  0.16735186  0.37247058  1
  In  In49  1  0.66391520  0.15491825  0.87409244  1
  In  In50  1  0.66709607  0.49979774  0.37158365  1
  In  In51  1  0.67748886  0.51693094  0.87060719  1
  In  In52  1  0.68100477  0.84486961  0.36536139  1
  In  In53  1  0.67383041  0.83519472  0.87511906  1
  In  In54  1  0.17534889  0.00655291  0.11621968  1
  In  In55  1  0.17888807  -0.00024322  0.62649748  1
  In  In56  1  0.17986332  0.33617615  0.12914262  1
  In  In57  1  0.15787029  0.33343608  0.62519998  1
  In  In58  1  0.15212984  0.66331165  0.12472751  1
  In  In59  1  0.16061829  0.66221140  0.62101729  1
  In  In60  1  0.49082322  0.00071054  0.13461169  1
  In  In61  1  0.50467959  0.00140143  0.63801326  1
  In  In62  1  0.50771667  0.32290741  0.12856154  1
  In  In63  1  0.48816253  0.33929895  0.61880974  1
  In  In64  1  0.52479692  0.67434371  0.12916395  1
  In  In65  1  0.51313306  0.66536587  0.62284752  1
  In  In66  1  0.83610957  -0.01390718  0.12351705  1
  In  In67  1  0.81893983  -0.01443382  0.61400546  1
  In  In68  1  0.81838800  0.32663103  0.12482968  1
  In  In69  1  0.84076466  0.34437123  0.61650020  1
  In  In70  1  0.83289521  0.67281461  0.12754123  1
  In  In71  1  0.83368994  0.66782488  0.62513665  1
  In  In72  1  -0.00212106  0.33474154  0.24967626  1
  In  In73  1  0.33589720  0.66286260  0.25213907  1
  In  In74  1  0.50329484  0.83155923  0.50059109  1
  In  In75  1  0.00021012  -0.00028835  0.74872312  1
  In  In76  1  -0.00151397  -0.00887346  0.24721209  1
  In  In77  1  0.16453364  0.16982713  0.50635959  1
  In  In78  1  0.50837206  0.49397552  0.01239791  1
  In  In79  1  0.50487752  0.83604804  0.00294121  1
  In  In80  1  0.83261381  0.16732956  -0.00447181  1
  In  In81  1  0.32870798  0.32927670  0.74426327  1
  In  In82  1  0.15771402  0.49658499  -0.00132977  1
  In  In83  1  0.50503724  0.16861008  0.49375891  1
  In  In84  1  0.66395173  0.32815521  0.74924014  1
  In  In85  1  0.33407629  0.67077143  0.74986590  1
  Cu  Cu86  1  -0.00432486  -0.00545145  0.50092274  1
  Cu  Cu87  1  0.15841975  0.50855429  0.74990648  1
  Cu  Cu88  1  0.17660606  0.16405819  0.24471451  1
  Cu  Cu89  1  0.32707740  0.66971137  0.49406310  1
  Cu  Cu90  1  0.16862627  0.83436764  0.24894462  1
  Cu  Cu91  1  0.49800524  0.16628226  0.24930652  1
  Cu  Cu92  1  0.83461793  0.16672687  0.75120573  1
  Cu  Cu93  1  0.00218655  0.33653607  0.50164802  1
  Cu  Cu94  1  0.66469743  0.33510176  0.00215070  1
  Cu  Cu95  1  0.32844921  0.32029921  0.00294107  1
  Cu  Cu96  1  0.66551118  0.33347614  0.49414301  1
  Cu  Cu97  1  0.16909587  0.16527049  0.75096486  1
  Cu  Cu98  1  0.50162629  0.83509285  0.75208047  1
  Cu  Cu99  1  0.16636852  0.50022971  0.25664151  1
  Cu  Cu100  1  0.33384101  0.00310643  0.00286460  1
  Cu  Cu101  1  -0.00775363  0.66799241  -0.00112059  1
  Cu  Cu102  1  0.83147785  0.50538150  0.25415684  1
  Cu  Cu103  1  0.50629954  0.50350868  0.74335960  1
  Cu  Cu104  1  0.33717460  0.66898728  -0.00384468  1
  Cu  Cu105  1  0.67093835  0.66365993  0.49757421  1
  Cu  Cu106  1  0.83648930  0.50378122  0.74202908  1
  Cu  Cu107  1  -0.00441762  0.66483153  0.50317559  1
  Cu  Cu108  1  0.82301113  0.16604502  0.25460867  1
  Cu  Cu109  1  0.84046348  0.83167916  0.25240940  1
  Cu  Cu110  1  0.82980863  0.83074931  0.74779224  1
  Cu  Cu111  1  0.66256618  -0.00080417  0.00098331  1
  Cu  Cu112  1  0.00267006  -0.00466255  -0.00531604  1
  Cu  Cu113  1  0.33243666  0.00276293  0.49839449  1
  Cu  Cu114  1  0.50320431  0.49654993  0.25122112  1
  Se  Se115  1  0.08352059  0.08012477  0.04793255  1
  Se  Se116  1  0.07364327  0.07632843  0.56382532  1
  Se  Se117  1  0.07637807  0.41152035  0.06740451  1
  Se  Se118  1  0.08426729  0.41982855  0.55522188  1
  Se  Se119  1  0.08235946  0.74767688  0.05093408  1
  Se  Se120  1  0.08165307  0.74992806  0.55288736  1
  Se  Se121  1  0.42141921  0.08125612  0.05685519  1
  Se  Se122  1  0.41480257  0.07880817  0.55864412  1
  Se  Se123  1  0.40428346  0.40817370  0.06219038  1
  Se  Se124  1  0.42310807  0.42052176  0.54318048  1
  Se  Se125  1  0.41651912  0.73983907  0.06251464  1
  Se  Se126  1  0.40881814  0.74289878  0.56024445  1
  Se  Se127  1  0.74610875  0.08075512  0.06128789  1
  Se  Se128  1  0.75580324  0.08674764  0.54921913  1
  Se  Se129  1  0.75092731  0.41607448  0.05268793  1
  Se  Se130  1  0.75140679  0.41683527  0.54680646  1
  Se  Se131  1  0.75425652  0.76536704  0.06371284  1
  Se  Se132  1  0.74610959  0.74854149  0.55674741  1
  Se  Se133  1  0.24481873  0.24293672  0.05919419  1
  Se  Se134  1  0.26081259  0.26236566  0.55822837  1
  Se  Se135  1  0.25479772  0.58837989  0.05565260  1
  Se  Se136  1  0.24475440  0.58633758  0.54876905  1
  Se  Se137  1  0.25307741  0.91240775  0.05158549  1
  Se  Se138  1  0.24834915  0.91829424  0.54930488  1
  Se  Se139  1  0.58205832  0.24778795  0.05051155  1
  Se  Se140  1  0.59156256  0.25589681  0.56065224  1
  Se  Se141  1  0.60260905  0.59325386  0.05550282  1
  Se  Se142  1  0.58154351  0.58191962  0.54785140  1
  Se  Se143  1  0.59036405  0.92155885  0.06811406  1
  Se  Se144  1  0.58694420  0.92267574  0.56296034  1
  Se  Se145  1  0.92026820  0.25653920  0.05787468  1
  Se  Se146  1  0.91923248  0.25000557  0.55240132  1
  Se  Se147  1  0.91514242  0.58670112  0.05794053  1
  Se  Se148  1  0.91164239  0.58082937  0.55550648  1
  Se  Se149  1  0.91491296  0.91617213  0.04676748  1
  Se  Se150  1  0.91331331  0.90823178  0.55204142  1
  Se  Se151  1  0.07541172  0.25290597  0.43818201  1
  Se  Se152  1  0.08350365  0.25121807  0.95373508  1
  Se  Se153  1  0.08135884  0.58462793  0.44814462  1
  Se  Se154  1  0.07440567  0.58969263  0.93691001  1
  Se  Se155  1  0.08345382  0.91490678  0.44895861  1
  Se  Se156  1  0.08632859  0.91152693  0.94217593  1
  Se  Se157  1  0.40708429  0.25766007  0.44259232  1
  Se  Se158  1  0.41835459  0.24323951  0.95135375  1
  Se  Se159  1  0.41726002  0.58733265  0.44781491  1
  Se  Se160  1  0.42019347  0.58529467  0.94364459  1
  Se  Se161  1  0.41396006  0.92315220  0.43874206  1
  Se  Se162  1  0.41508253  0.92345106  0.94050862  1
  Se  Se163  1  0.74766379  0.24619781  0.44368292  1
  Se  Se164  1  0.74340039  0.25956823  0.93465400  1
  Se  Se165  1  0.75161281  0.57941031  0.44201765  1
  Se  Se166  1  0.76128425  0.57857220  0.94552462  1
  Se  Se167  1  0.74829533  0.90195033  0.45255830  1
  Se  Se168  1  0.74862856  0.91764042  0.94981492  1
  Se  Se169  1  0.25126964  0.08304886  0.43880564  1
  Se  Se170  1  0.24647546  0.08288622  0.94909656  1
  Se  Se171  1  0.24129973  0.42066449  0.45171803  1
  Se  Se172  1  0.25782037  0.40811230  0.94150959  1
  Se  Se173  1  0.24483333  0.75740135  0.44580396  1
  Se  Se174  1  0.24956755  0.75145528  0.94829778  1
  Se  Se175  1  0.59223342  0.06888719  0.44348523  1
  Se  Se176  1  0.58067202  0.08287701  0.94802216  1
  Se  Se177  1  0.58293370  0.41671050  0.44078780  1
  Se  Se178  1  0.58925411  0.41466463  0.93645738  1
  Se  Se179  1  0.59069457  0.74478907  0.43741039  1
  Se  Se180  1  0.59475354  0.74221820  0.94639169  1
  Se  Se181  1  0.91349386  0.08330891  0.45261659  1
  Se  Se182  1  0.92196660  0.07612858  0.93400082  1
  Se  Se183  1  0.91403732  0.41616697  0.44856730  1
  Se  Se184  1  0.92217686  0.41994079  0.95003552  1
  Se  Se185  1  0.91305801  0.74742922  0.44745898  1
  Se  Se186  1  0.91468887  0.75367812  0.94242486  1
  Se  Se187  1  0.25101775  0.25128436  0.30127178  1
  Se  Se188  1  0.24713185  0.24601109  0.81452886  1
  Se  Se189  1  0.24747013  0.57963301  0.31744537  1
  Se  Se190  1  0.24228250  0.58072376  0.81215301  1
  Se  Se191  1  0.24965106  0.92061122  0.30006234  1
  Se  Se192  1  0.24723266  0.91760981  0.79743845  1
  Se  Se193  1  0.58170432  0.24938243  0.30363871  1
  Se  Se194  1  0.57105948  0.24129180  0.80811538  1
  Se  Se195  1  0.58687315  0.58322601  0.29982263  1
  Se  Se196  1  0.58839993  0.58518496  0.79769240  1
  Se  Se197  1  0.58305004  0.91120353  0.30005907  1
  Se  Se198  1  0.58774959  0.91509693  0.80663770  1
  Se  Se199  1  0.90874873  0.24470518  0.31150017  1
  Se  Se200  1  0.91831953  0.25181891  0.80100275  1
  Se  Se201  1  0.91986117  0.58724195  0.30295535  1
  Se  Se202  1  0.91652684  0.58652648  0.80001017  1
  Se  Se203  1  0.91221581  0.91509747  0.31762166  1
  Se  Se204  1  0.90850917  0.91228102  0.80977897  1
  Se  Se205  1  0.09031480  0.08830516  0.30389045  1
  Se  Se206  1  0.08690041  0.08891311  0.81289850  1
  Se  Se207  1  0.08276222  0.42115273  0.31553316  1
  Se  Se208  1  0.08276378  0.41749785  0.80240985  1
  Se  Se209  1  0.08362798  0.75454775  0.30335526  1
  Se  Se210  1  0.08297555  0.75305441  0.79447836  1
  Se  Se211  1  0.41500783  0.08026186  0.30049746  1
  Se  Se212  1  0.40934497  0.07840393  0.80270934  1
  Se  Se213  1  0.41468675  0.42048614  0.30538264  1
  Se  Se214  1  0.42658584  0.42300537  0.80282245  1
  Se  Se215  1  0.42256570  0.75454757  0.31147069  1
  Se  Se216  1  0.42112815  0.75842137  0.81548397  1
  Se  Se217  1  0.74896647  0.07692667  0.30941876  1
  Se  Se218  1  0.74619994  0.08425903  0.79851239  1
  Se  Se219  1  0.74850734  0.41527301  0.30079998  1
  Se  Se220  1  0.75833830  0.42069484  0.80391256  1
  Se  Se221  1  0.75334446  0.74716501  0.30212126  1
  Se  Se222  1  0.74818366  0.74802937  0.80442003  1
  Se  Se223  1  0.25544844  0.07565881  0.19358649  1
  Se  Se224  1  0.25335643  0.08272193  0.69976137  1
  Se  Se225  1  0.25030419  0.41472416  0.20703923  1
  Se  Se226  1  0.24375055  0.43096448  0.69049086  1
  Se  Se227  1  0.24640302  0.75081490  0.18807044  1
  Se  Se228  1  0.24533456  0.75576047  0.68798716  1
  Se  Se229  1  0.58361240  0.08324555  0.19734265  1
  Se  Se230  1  0.58707998  0.08801727  0.70097360  1
  Se  Se231  1  0.58459874  0.41710413  0.19173849  1
  Se  Se232  1  0.58378026  0.42147242  0.68371912  1
  Se  Se233  1  0.57423488  0.76287977  0.20661781  1
  Se  Se234  1  0.58041833  0.74702830  0.69959831  1
  Se  Se235  1  0.90716688  0.09087584  0.19352537  1
  Se  Se236  1  0.90835900  0.08488602  0.68660686  1
  Se  Se237  1  0.90732259  0.42365820  0.18956316  1
  Se  Se238  1  0.91956443  0.41481219  0.69408015  1
  Se  Se239  1  0.92365690  0.75024776  0.19710911  1
  Se  Se240  1  0.91557474  0.74847737  0.69697051  1
  Se  Se241  1  0.08570833  0.23964471  0.18994637  1
  Se  Se242  1  0.08673296  0.25261235  0.70122100  1
  Se  Se243  1  0.08524828  0.58637608  0.20484366  1
  Se  Se244  1  0.07714433  0.58993987  0.69510321  1
  Se  Se245  1  0.08973749  0.90973194  0.18295695  1
  Se  Se246  1  0.08787602  0.91136008  0.68792595  1
  Se  Se247  1  0.41477149  0.25129999  0.19609555  1
  Se  Se248  1  0.42801362  0.24139712  0.69212474  1
  Se  Se249  1  0.42680501  0.57685900  0.18625165  1
  Se  Se250  1  0.41589851  0.57618271  0.68604620  1
  Se  Se251  1  0.41810414  0.91111374  0.20388673  1
  Se  Se252  1  0.41617117  0.91506976  0.69863466  1
  Se  Se253  1  0.74346189  0.25164133  0.20048320  1
  Se  Se254  1  0.75858181  0.24761912  0.68664487  1
  Se  Se255  1  0.75019075  0.58855588  0.19725748  1
  Se  Se256  1  0.74709077  0.58527328  0.69393802  1
  Se  Se257  1  0.75889551  0.92322005  0.20438737  1
  Se  Se258  1  0.74756139  0.91730398  0.69648331  1
