# generated using pymatgen
data_In86Cu29Se144
_symmetry_space_group_name_H-M   'P 1'
_cell_length_a   17.57780078
_cell_length_b   17.57759378
_cell_length_c   23.43415312
_cell_angle_alpha   89.99166396
_cell_angle_beta   90.00755480
_cell_angle_gamma   90.00869959
_symmetry_Int_Tables_number   1
_chemical_formula_structural   In86Cu29Se144
_chemical_formula_sum   'In86 Cu29 Se144'
_cell_volume   7240.57758743
_cell_formula_units_Z   1
loop_
 _symmetry_equiv_pos_site_id
 _symmetry_equiv_pos_as_xyz
  1  'x, y, z'
loop_
 _atom_site_type_symbol
 _atom_site_label
 _atom_site_symmetry_multiplicity
 _atom_site_fract_x
 _atom_site_fract_y
 _atom_site_fract_z
 _atom_site_occupancy
  In  In0  1  -0.00514014  0.16721898  0.12589268  1
  In  In1  1  0.01010503  0.17228229  0.62736572  1
  In  In2  1  0.01002187  0.49580960  0.13674920  1
  In  In3  1  0.00562868  0.48943221  0.62692115  1
  In  In4  1  -0.00992724  0.83641795  0.13488493  1
  In  In5  1  -0.00171687  0.82607711  0.61410405  1
  In  In6  1  0.36428280  0.17022587  0.11505165  1
  In  In7  1  0.32916496  0.17052640  0.64020746  1
  In  In8  1  0.32814913  0.50423537  0.12354272  1
  In  In9  1  0.32479016  0.50700422  0.62620083  1
  In  In10  1  0.33208666  0.82305783  0.11719957  1
  In  In11  1  0.33866988  0.82988940  0.62138071  1
  In  In12  1  0.66216293  0.16489884  0.12095097  1
  In  In13  1  0.66146962  0.16633178  0.62569407  1
  In  In14  1  0.65245319  0.50817835  0.12599892  1
  In  In15  1  0.68228602  0.50475895  0.62839577  1
  In  In16  1  0.67130378  0.83140357  0.12275644  1
  In  In17  1  0.66322876  0.82929260  0.61986135  1
  In  In18  1  0.15276374  0.00032799  0.37074718  1
  In  In19  1  0.17023131  -0.00839820  0.87314914  1
  In  In20  1  0.17785521  0.34945553  0.35331568  1
  In  In21  1  0.18130725  0.34181524  0.87194741  1
  In  In22  1  0.17248138  0.66954765  0.37067408  1
  In  In23  1  0.15584826  0.66234854  0.87952253  1
  In  In24  1  0.49824452  -0.01891139  0.36953866  1
  In  In25  1  0.48206106  0.00335111  0.89563813  1
  In  In26  1  0.50024744  0.33935111  0.36244614  1
  In  In27  1  0.49241946  0.34298494  0.89177054  1
  In  In28  1  0.50761757  0.67502479  0.36218916  1
  In  In29  1  0.50583897  0.65676270  0.88610213  1
  In  In30  1  0.81982085  -0.00799110  0.36479189  1
  In  In31  1  0.83681303  0.00436373  0.88911350  1
  In  In32  1  0.84594903  0.34649482  0.36098629  1
  In  In33  1  0.82613633  0.32565468  0.88319186  1
  In  In34  1  0.83849521  0.67546826  0.36848062  1
  In  In35  1  0.82243131  0.68421997  0.88185253  1
  In  In36  1  0.00230703  0.16745707  0.36097458  1
  In  In37  1  -0.01853050  0.17468182  0.88330212  1
  In  In38  1  0.03225238  0.52886545  0.33926967  1
  In  In39  1  0.01673707  0.50284343  0.88091742  1
  In  In40  1  -0.00349625  0.83248955  0.37429959  1
  In  In41  1  -0.00782063  0.83109294  0.88164097  1
  In  In42  1  0.32301708  0.17024051  0.36886783  1
  In  In43  1  0.33454675  0.17154860  0.87636195  1
  In  In44  1  0.32031350  0.49676939  0.36172110  1
  In  In45  1  0.35546248  0.48809770  0.89524742  1
  In  In46  1  0.34356863  0.82445387  0.37619781  1
  In  In47  1  0.33071042  0.84248632  0.87914491  1
  In  In48  1  0.67466451  0.17167296  0.36141338  1
  In  In49  1  0.66649820  0.17738154  0.89610935  1
  In  In50  1  0.67001431  0.50342453  0.35697455  1
  In  In51  1  0.63450865  0.50087203  0.88170871  1
  In  In52  1  0.66452265  0.83218510  0.36968052  1
  In  In53  1  0.67307816  0.82900071  0.87556065  1
  In  In54  1  0.16190723  -0.01011632  0.12990496  1
  In  In55  1  0.17495241  0.00122186  0.62668893  1
  In  In56  1  0.16100645  0.35131002  0.13641490  1
  In  In57  1  0.16538889  0.33803775  0.62980552  1
  In  In58  1  0.18169232  0.64318670  0.15050436  1
  In  In59  1  0.16772454  0.66195037  0.61187594  1
  In  In60  1  0.50558176  0.01085938  0.11020729  1
  In  In61  1  0.50427138  -0.01845558  0.62816363  1
  In  In62  1  0.49957220  0.33417959  0.12436175  1
  In  In63  1  0.50054843  0.32206223  0.62878028  1
  In  In64  1  0.49473824  0.67361622  0.11321874  1
  In  In65  1  0.49323730  0.67976241  0.62834911  1
  In  In66  1  0.83639414  -0.00698211  0.12049598  1
  In  In67  1  0.84468016  -0.00397986  0.62608518  1
  In  In68  1  0.83478663  0.32025921  0.12293316  1
  In  In69  1  0.84343149  0.35104439  0.62874962  1
  In  In70  1  0.82364422  0.67771852  0.13473839  1
  In  In71  1  0.82520503  0.67195406  0.62808515  1
  In  In72  1  0.00224833  0.00075071  0.76241692  1
  In  In73  1  0.33671448  0.00297787  0.24383265  1
  In  In74  1  0.83068310  0.49867951  0.01343905  1
  In  In75  1  0.15922758  0.82858189  0.00435374  1
  In  In76  1  -0.00262976  0.66430167  0.74763743  1
  In  In77  1  0.66466879  0.33927461  0.75939204  1
  In  In78  1  0.66778223  -0.00087717  0.75601887  1
  In  In79  1  0.33937438  0.66156702  0.75355661  1
  In  In80  1  0.84370882  0.51028433  0.49479288  1
  In  In81  1  0.49325415  0.50852807  0.50190163  1
  In  In82  1  0.49590653  0.15280520  0.49847161  1
  In  In83  1  0.16609357  0.16817260  0.00715974  1
  In  In84  1  0.16564323  0.16143214  0.49722357  1
  In  In85  1  0.83574150  0.16062397  0.50374789  1
  Cu  Cu86  1  0.00596219  0.33815751  0.00782504  1
  Cu  Cu87  1  0.16439004  0.83188270  0.25136031  1
  Cu  Cu88  1  0.49324868  0.50387699  0.24098671  1
  Cu  Cu89  1  0.48913037  0.16614070  0.76192220  1
  Cu  Cu90  1  0.66892835  0.33668675  0.48576182  1
  Cu  Cu91  1  0.00367735  0.67013363  0.01127370  1
  Cu  Cu92  1  0.16907521  0.16995077  0.24127836  1
  Cu  Cu93  1  0.32935230  0.66509655  0.49408467  1
  Cu  Cu94  1  0.83116993  0.17377026  0.75734686  1
  Cu  Cu95  1  0.83720452  0.50418679  0.75598970  1
  Cu  Cu96  1  0.66723839  0.66614794  0.00256218  1
  Cu  Cu97  1  0.66399421  -0.01382283  0.49211036  1
  Cu  Cu98  1  0.83161433  0.83310533  0.25059577  1
  Cu  Cu99  1  0.49942611  0.83697371  0.75117272  1
  Cu  Cu100  1  0.32796244  0.34046690  0.00508116  1
  Cu  Cu101  1  0.33397531  -0.01331441  0.50488157  1
  Cu  Cu102  1  -0.00757115  -0.01133875  0.49251268  1
  Cu  Cu103  1  0.17636777  0.49305347  0.75491030  1
  Cu  Cu104  1  0.67136706  -0.00391754  0.00225490  1
  Cu  Cu105  1  0.50607129  0.83191006  0.24106981  1
  Cu  Cu106  1  0.82590085  0.49144182  0.23881987  1
  Cu  Cu107  1  0.82804903  0.15834034  0.24052700  1
  Cu  Cu108  1  0.16564863  0.17604073  0.75324747  1
  Cu  Cu109  1  0.01147196  0.33997748  0.49498804  1
  Cu  Cu110  1  0.50561901  0.16944625  0.24266412  1
  Cu  Cu111  1  0.66276017  0.67387285  0.49541783  1
  Cu  Cu112  1  0.32853618  0.33606976  0.49329669  1
  Cu  Cu113  1  0.17024976  0.83535704  0.74788439  1
  Cu  Cu114  1  0.00507141  0.66444097  0.48946669  1
  Se  Se115  1  0.07590306  0.07183443  0.05960988  1
  Se  Se116  1  0.07039537  0.07008885  0.55602591  1
  Se  Se117  1  0.08640336  0.42526676  0.05723179  1
  Se  Se118  1  0.09175276  0.41906762  0.55398637  1
  Se  Se119  1  0.08494623  0.74238813  0.07617229  1
  Se  Se120  1  0.08587792  0.74856111  0.54731508  1
  Se  Se121  1  0.40534907  0.07018113  0.04255209  1
  Se  Se122  1  0.40540122  0.07456231  0.56653473  1
  Se  Se123  1  0.41567984  0.42026420  0.05710199  1
  Se  Se124  1  0.41106584  0.40618606  0.55893122  1
  Se  Se125  1  0.42605713  0.76841819  0.04271596  1
  Se  Se126  1  0.41449405  0.74467304  0.54958688  1
  Se  Se127  1  0.75144276  0.08144958  0.05640045  1
  Se  Se128  1  0.73623933  0.06891596  0.55811030  1
  Se  Se129  1  0.73606548  0.40768155  0.06488400  1
  Se  Se130  1  0.74856274  0.41186717  0.55083094  1
  Se  Se131  1  0.75490460  0.74814412  0.05227058  1
  Se  Se132  1  0.75132421  0.74909349  0.55198517  1
  Se  Se133  1  0.25271611  0.25909225  0.06842970  1
  Se  Se134  1  0.25705073  0.25070673  0.55785592  1
  Se  Se135  1  0.23907352  0.58821170  0.05948998  1
  Se  Se136  1  0.25133383  0.57594362  0.54632289  1
  Se  Se137  1  0.25394841  0.92506672  0.05594367  1
  Se  Se138  1  0.24478727  0.91010353  0.55785007  1
  Se  Se139  1  0.55658193  0.22851079  0.05933012  1
  Se  Se140  1  0.59112380  0.25685740  0.54894552  1
  Se  Se141  1  0.57786064  0.58224224  0.04837945  1
  Se  Se142  1  0.59268460  0.59161624  0.56111756  1
  Se  Se143  1  0.58702112  0.91270133  0.05338856  1
  Se  Se144  1  0.57871621  0.91053207  0.54989899  1
  Se  Se145  1  0.92138977  0.24832280  0.05026544  1
  Se  Se146  1  0.92745051  0.26261280  0.55607954  1
  Se  Se147  1  0.92175194  0.59016118  0.07067202  1
  Se  Se148  1  0.93093710  0.59406646  0.56361246  1
  Se  Se149  1  0.91698809  0.90396829  0.05459078  1
  Se  Se150  1  0.90965511  0.91085989  0.55077660  1
  Se  Se151  1  0.08338547  0.25269361  0.43454731  1
  Se  Se152  1  0.08356209  0.26057142  0.94138283  1
  Se  Se153  1  0.08543704  0.58001418  0.43569458  1
  Se  Se154  1  0.08417748  0.58564923  0.95744019  1
  Se  Se155  1  0.08557149  0.91278945  0.44346348  1
  Se  Se156  1  0.07369925  0.92612788  0.94424529  1
  Se  Se157  1  0.41247948  0.25427054  0.43853741  1
  Se  Se158  1  0.40739761  0.25206459  0.95192502  1
  Se  Se159  1  0.40996462  0.58824107  0.43072989  1
  Se  Se160  1  0.41356042  0.59229225  0.95703577  1
  Se  Se161  1  0.41960645  0.91209094  0.44728313  1
  Se  Se162  1  0.42431993  0.89283786  0.95612927  1
  Se  Se163  1  0.75629355  0.25453568  0.43579795  1
  Se  Se164  1  0.76226374  0.24643443  0.96076106  1
  Se  Se165  1  0.74064926  0.58845219  0.43731606  1
  Se  Se166  1  0.74535434  0.58133471  0.94271334  1
  Se  Se167  1  0.75310001  0.90824845  0.44140438  1
  Se  Se168  1  0.75268906  0.91182914  0.94753833  1
  Se  Se169  1  0.26055078  0.06902076  0.44025714  1
  Se  Se170  1  0.25145360  0.07781334  0.94283672  1
  Se  Se171  1  0.24604810  0.41601060  0.43826661  1
  Se  Se172  1  0.24425651  0.42314812  0.95079250  1
  Se  Se173  1  0.24913497  0.75354080  0.44336358  1
  Se  Se174  1  0.25122649  0.74344216  0.94140458  1
  Se  Se175  1  0.59212597  0.07707938  0.43294233  1
  Se  Se176  1  0.58474688  0.07917701  0.95143164  1
  Se  Se177  1  0.58524736  0.42205708  0.43620847  1
  Se  Se178  1  0.60565227  0.39283743  0.95072995  1
  Se  Se179  1  0.57824520  0.75260621  0.44064230  1
  Se  Se180  1  0.58872935  0.75068754  0.94577390  1
  Se  Se181  1  0.92068917  0.07885758  0.43443856  1
  Se  Se182  1  0.92290426  0.08315107  0.95507324  1
  Se  Se183  1  0.93029523  0.41940595  0.43606148  1
  Se  Se184  1  0.92339568  0.41687029  0.94597460  1
  Se  Se185  1  0.91480916  0.74839791  0.44559729  1
  Se  Se186  1  0.91896677  0.74579693  0.95281710  1
  Se  Se187  1  0.25565615  0.25138166  0.29305316  1
  Se  Se188  1  0.25694044  0.25358308  0.80375205  1
  Se  Se189  1  0.24539458  0.58660649  0.29609264  1
  Se  Se190  1  0.24785816  0.57804728  0.81609979  1
  Se  Se191  1  0.24954003  0.91532224  0.30873004  1
  Se  Se192  1  0.25414583  0.91724037  0.80097907  1
  Se  Se193  1  0.58561930  0.25452944  0.29836116  1
  Se  Se194  1  0.57859147  0.24285254  0.81724214  1
  Se  Se195  1  0.58126501  0.58494966  0.29397262  1
  Se  Se196  1  0.58141734  0.58973292  0.80568941  1
  Se  Se197  1  0.58598743  0.91630629  0.29630722  1
  Se  Se198  1  0.57270098  0.91765429  0.81649523  1
  Se  Se199  1  0.90901960  0.24291918  0.29703850  1
  Se  Se200  1  0.91430751  0.25995889  0.80740716  1
  Se  Se201  1  0.89985371  0.57289830  0.30257553  1
  Se  Se202  1  0.91449746  0.58375733  0.81980200  1
  Se  Se203  1  0.91708350  0.91646870  0.30335671  1
  Se  Se204  1  0.90303792  0.91123932  0.81106573  1
  Se  Se205  1  0.08790253  0.08441260  0.29453473  1
  Se  Se206  1  0.08835299  0.09925504  0.81805185  1
  Se  Se207  1  0.05675319  0.39284763  0.30239500  1
  Se  Se208  1  0.08477389  0.41685735  0.80680717  1
  Se  Se209  1  0.08084464  0.75076441  0.30576553  1
  Se  Se210  1  0.08734184  0.76041505  0.80762608  1
  Se  Se211  1  0.42749884  0.09171096  0.30854565  1
  Se  Se212  1  0.41229855  0.07509196  0.81305952  1
  Se  Se213  1  0.41356082  0.41921307  0.29711659  1
  Se  Se214  1  0.42451268  0.42032413  0.81371546  1
  Se  Se215  1  0.41747681  0.75469305  0.29609036  1
  Se  Se216  1  0.42272674  0.75578484  0.81343939  1
  Se  Se217  1  0.74231424  0.07655726  0.29454861  1
  Se  Se218  1  0.75235431  0.09401488  0.81743570  1
  Se  Se219  1  0.74375452  0.40683189  0.29486241  1
  Se  Se220  1  0.75461199  0.42985929  0.81866555  1
  Se  Se221  1  0.74571719  0.74722915  0.30066216  1
  Se  Se222  1  0.75120979  0.75184543  0.80158574  1
  Se  Se223  1  0.25160636  0.09348837  0.18053874  1
  Se  Se224  1  0.24294778  0.08413309  0.70261537  1
  Se  Se225  1  0.25271596  0.42579286  0.20054651  1
  Se  Se226  1  0.25787870  0.41406726  0.69628191  1
  Se  Se227  1  0.25421448  0.75703832  0.19742672  1
  Se  Se228  1  0.24305218  0.74644765  0.68997242  1
  Se  Se229  1  0.58105435  0.07802589  0.19150015  1
  Se  Se230  1  0.57012287  0.09079033  0.69653942  1
  Se  Se231  1  0.58051978  0.41634850  0.19538310  1
  Se  Se232  1  0.58249978  0.42249261  0.68818548  1
  Se  Se233  1  0.58378474  0.74518383  0.18663823  1
  Se  Se234  1  0.58232038  0.75567604  0.69586335  1
  Se  Se235  1  0.91747628  0.07670937  0.19259178  1
  Se  Se236  1  0.91281711  0.09418926  0.69739535  1
  Se  Se237  1  0.91363373  0.40895232  0.19089400  1
  Se  Se238  1  0.92274717  0.42238841  0.70447733  1
  Se  Se239  1  0.91813146  0.74452920  0.20442055  1
  Se  Se240  1  0.91170814  0.76241558  0.69413859  1
  Se  Se241  1  0.08030481  0.25084239  0.19216552  1
  Se  Se242  1  0.08120294  0.25651112  0.69938346  1
  Se  Se243  1  0.07683751  0.58058877  0.21282838  1
  Se  Se244  1  0.09817852  0.57699649  0.69409243  1
  Se  Se245  1  0.07966349  0.91736541  0.20274337  1
  Se  Se246  1  0.08261341  0.91213343  0.69125218  1
  Se  Se247  1  0.41539726  0.25292371  0.19748368  1
  Se  Se248  1  0.41648052  0.25417612  0.70381740  1
  Se  Se249  1  0.41675502  0.59228142  0.18684013  1
  Se  Se250  1  0.42872754  0.57260961  0.69201813  1
  Se  Se251  1  0.42361589  0.91349208  0.18295817  1
  Se  Se252  1  0.41082930  0.91338687  0.69676731  1
  Se  Se253  1  0.74520998  0.24590051  0.19212477  1
  Se  Se254  1  0.75506658  0.25034175  0.69041492  1
  Se  Se255  1  0.74304252  0.58221233  0.19465364  1
  Se  Se256  1  0.75519889  0.58668497  0.70215694  1
  Se  Se257  1  0.75152892  0.91479934  0.19310666  1
  Se  Se258  1  0.75392850  0.91432438  0.69049543  1
