# generated using pymatgen
data_In86Cu29Se144
_symmetry_space_group_name_H-M   'P 1'
_cell_length_a   17.58721169
_cell_length_b   17.58448418
_cell_length_c   23.44993572
_cell_angle_alpha   90.01413204
_cell_angle_beta   90.03370879
_cell_angle_gamma   89.98700375
_symmetry_Int_Tables_number   1
_chemical_formula_structural   In86Cu29Se144
_chemical_formula_sum   'In86 Cu29 Se144'
_cell_volume   7252.17343010
_cell_formula_units_Z   1
loop_
 _symmetry_equiv_pos_site_id
 _symmetry_equiv_pos_as_xyz
  1  'x, y, z'
loop_
 _atom_site_type_symbol
 _atom_site_label
 _atom_site_symmetry_multiplicity
 _atom_site_fract_x
 _atom_site_fract_y
 _atom_site_fract_z
 _atom_site_occupancy
  In  In0  1  0.00378303  0.15192225  0.11909282  1
  In  In1  1  -0.01050528  0.16491311  0.62024001  1
  In  In2  1  -0.00276998  0.51658202  0.11693563  1
  In  In3  1  0.01436844  0.49930578  0.62205952  1
  In  In4  1  0.00378682  0.82398398  0.11831589  1
  In  In5  1  0.00551126  0.82995875  0.62459737  1
  In  In6  1  0.33169408  0.16924771  0.12732530  1
  In  In7  1  0.32677317  0.16652824  0.62786863  1
  In  In8  1  0.33791652  0.49274335  0.12663284  1
  In  In9  1  0.34219454  0.51017200  0.62552763  1
  In  In10  1  0.33166210  0.83294295  0.12852533  1
  In  In11  1  0.33484899  0.83683048  0.62379373  1
  In  In12  1  0.65550580  0.16562825  0.12805938  1
  In  In13  1  0.66836246  0.15071452  0.61942388  1
  In  In14  1  0.66875837  0.51181495  0.12226899  1
  In  In15  1  0.65831546  0.51882086  0.63034308  1
  In  In16  1  0.64748579  0.84204423  0.14763746  1
  In  In17  1  0.64840526  0.81056855  0.61321185  1
  In  In18  1  0.17307363  -0.01572805  0.38058193  1
  In  In19  1  0.17336621  -0.00153141  0.87323223  1
  In  In20  1  0.18964289  0.33469003  0.37903857  1
  In  In21  1  0.16913062  0.32351764  0.87862490  1
  In  In22  1  0.17883709  0.65366995  0.39206761  1
  In  In23  1  0.18151918  0.68085993  0.86629127  1
  In  In24  1  0.47974270  -0.02670631  0.35506795  1
  In  In25  1  0.48221765  -0.00710457  0.87032238  1
  In  In26  1  0.49115799  0.34985785  0.38329822  1
  In  In27  1  0.50429845  0.34974445  0.87133023  1
  In  In28  1  0.49256593  0.67574893  0.36949563  1
  In  In29  1  0.49771999  0.66893285  0.87322994  1
  In  In30  1  0.82888099  -0.00304900  0.38184397  1
  In  In31  1  0.83218371  -0.01696760  0.87112516  1
  In  In32  1  0.81635931  0.33008061  0.38101952  1
  In  In33  1  0.85350872  0.35183455  0.87429346  1
  In  In34  1  0.83264814  0.68362215  0.38163365  1
  In  In35  1  0.82421051  0.65728146  0.86748260  1
  In  In36  1  -0.00227846  0.15049001  0.37707504  1
  In  In37  1  0.02193090  0.17310258  0.87444332  1
  In  In38  1  0.01457779  0.52011467  0.38321126  1
  In  In39  1  -0.00897284  0.49715197  0.87612483  1
  In  In40  1  0.00629853  0.81271050  0.39571939  1
  In  In41  1  0.00991917  0.84684391  0.86005772  1
  In  In42  1  0.33644018  0.16701580  0.37148406  1
  In  In43  1  0.32029712  0.15918999  0.86680282  1
  In  In44  1  0.33273550  0.50594686  0.37761505  1
  In  In45  1  0.35730867  0.52060946  0.85278198  1
  In  In46  1  0.34246679  0.83107074  0.37382949  1
  In  In47  1  0.33709349  0.82498350  0.87435797  1
  In  In48  1  0.67670156  0.15871937  0.38050396  1
  In  In49  1  0.66338449  0.16319785  0.88118404  1
  In  In50  1  0.64318602  0.49800736  0.37880402  1
  In  In51  1  0.64843392  0.52817617  0.88784621  1
  In  In52  1  0.66125849  0.83349520  0.37315415  1
  In  In53  1  0.66396146  0.81763268  0.87310878  1
  In  In54  1  0.17055881  0.00814684  0.11741435  1
  In  In55  1  0.18784468  -0.02491843  0.63305152  1
  In  In56  1  0.18547227  0.33629090  0.11972306  1
  In  In57  1  0.17573401  0.35004799  0.61599018  1
  In  In58  1  0.16443958  0.67766013  0.11991206  1
  In  In59  1  0.16764784  0.67490845  0.62139594  1
  In  In60  1  0.49846809  -0.01274255  0.14166099  1
  In  In61  1  0.48668774  -0.01943044  0.61969656  1
  In  In62  1  0.48839620  0.33383416  0.12246484  1
  In  In63  1  0.47898308  0.34792048  0.63295960  1
  In  In64  1  0.49662885  0.67074404  0.12996680  1
  In  In65  1  0.49798300  0.67201397  0.63070491  1
  In  In66  1  0.82968775  -0.01047965  0.12564671  1
  In  In67  1  0.83911938  0.00259425  0.62182044  1
  In  In68  1  0.82038583  0.33810214  0.12391755  1
  In  In69  1  0.84399255  0.32580579  0.62204605  1
  In  In70  1  0.82877986  0.66099186  0.12152160  1
  In  In71  1  0.82561678  0.67772560  0.62804232  1
  In  In72  1  0.16217900  0.16174396  0.50231599  1
  In  In73  1  0.84144225  0.17618258  -0.00446206  1
  In  In74  1  0.65338722  0.33112743  0.25623412  1
  In  In75  1  0.66764293  0.33916556  0.74609462  1
  In  In76  1  0.16873509  0.49367978  -0.00750995  1
  In  In77  1  0.00211181  0.66917897  0.25026257  1
  In  In78  1  0.50483228  0.16025067  0.49799040  1
  In  In79  1  0.00900018  0.33522995  0.74735919  1
  In  In80  1  0.82675974  0.49366981  0.50453606  1
  In  In81  1  0.83196824  0.82337499  -0.00093851  1
  In  In82  1  0.66182131  -0.01434646  0.74585979  1
  In  In83  1  0.00480518  -0.00771516  0.26036055  1
  In  In84  1  0.00605136  0.33482765  0.24748532  1
  In  In85  1  0.49348290  0.16773708  0.00601662  1
  Cu  Cu86  1  0.82964052  0.50552686  0.75186167  1
  Cu  Cu87  1  0.49093734  0.50642018  0.25226217  1
  Cu  Cu88  1  0.65847686  -0.00395624  0.01227449  1
  Cu  Cu89  1  0.17208051  0.50376142  0.74074015  1
  Cu  Cu90  1  0.83581206  0.15871952  0.74936265  1
  Cu  Cu91  1  0.18036755  0.17077021  0.24629139  1
  Cu  Cu92  1  0.33112552  -0.01036023  -0.00262648  1
  Cu  Cu93  1  0.49466437  0.16646125  0.74850053  1
  Cu  Cu94  1  0.65731314  0.66925473  0.00272850  1
  Cu  Cu95  1  0.33726513  0.33458184  -0.00540404  1
  Cu  Cu96  1  0.82636695  0.83627634  0.25630818  1
  Cu  Cu97  1  0.33884258  0.66603884  -0.00393907  1
  Cu  Cu98  1  0.65923819  0.32779235  0.50476941  1
  Cu  Cu99  1  0.83716580  0.83379616  0.74341503  1
  Cu  Cu100  1  0.01096956  0.00197403  -0.00961528  1
  Cu  Cu101  1  0.49983146  0.16222510  0.25233825  1
  Cu  Cu102  1  0.33978620  0.67037538  0.50327403  1
  Cu  Cu103  1  0.16246849  0.16089258  0.74637977  1
  Cu  Cu104  1  0.17735354  0.49946904  0.25517120  1
  Cu  Cu105  1  0.17041438  0.83617727  0.74770445  1
  Cu  Cu106  1  0.65662697  0.66638833  0.49982232  1
  Cu  Cu107  1  0.00062004  0.67241373  -0.00949970  1
  Cu  Cu108  1  0.67260156  -0.00953385  0.49949859  1
  Cu  Cu109  1  0.83592617  0.16209898  0.25753350  1
  Cu  Cu110  1  -0.00113895  0.33100766  0.49844781  1
  Cu  Cu111  1  0.67395695  0.35289377  -0.00317265  1
  Cu  Cu112  1  0.82967456  0.50598588  0.24681957  1
  Cu  Cu113  1  -0.00594722  -0.00386400  0.50337726  1
  Cu  Cu114  1  0.17221739  0.83261379  0.25150167  1
  Se  Se115  1  0.09011258  0.08795456  0.04471006  1
  Se  Se116  1  0.07996288  0.06992525  0.56438760  1
  Se  Se117  1  0.07944101  0.41360752  0.06192278  1
  Se  Se118  1  0.08304944  0.41732046  0.54613333  1
  Se  Se119  1  0.08549644  0.75284890  0.04430746  1
  Se  Se120  1  0.09712974  0.76635083  0.55186148  1
  Se  Se121  1  0.41114962  0.06820237  0.06247989  1
  Se  Se122  1  0.40769603  0.07875050  0.55724158  1
  Se  Se123  1  0.41705489  0.41848628  0.04981337  1
  Se  Se124  1  0.41700414  0.42352384  0.55338266  1
  Se  Se125  1  0.41352184  0.74931705  0.05788845  1
  Se  Se126  1  0.42250799  0.75384003  0.55615443  1
  Se  Se127  1  0.74745751  0.08360631  0.05787436  1
  Se  Se128  1  0.75411895  0.07958354  0.54863280  1
  Se  Se129  1  0.75569603  0.43068234  0.05398978  1
  Se  Se130  1  0.73675206  0.40692617  0.56929248  1
  Se  Se131  1  0.73510749  0.75243263  0.06467733  1
  Se  Se132  1  0.74936934  0.74605002  0.54754460  1
  Se  Se133  1  0.25836233  0.24822840  0.04937769  1
  Se  Se134  1  0.25785626  0.25702937  0.55184733  1
  Se  Se135  1  0.25362022  0.58647254  0.05635856  1
  Se  Se136  1  0.25370981  0.58838933  0.55616120  1
  Se  Se137  1  0.24767359  0.91192402  0.05639765  1
  Se  Se138  1  0.25467657  0.91429192  0.54863997  1
  Se  Se139  1  0.59520866  0.26449343  0.05481685  1
  Se  Se140  1  0.58055188  0.25292573  0.56941258  1
  Se  Se141  1  0.57518755  0.58559350  0.05715061  1
  Se  Se142  1  0.57489049  0.58566255  0.55575249  1
  Se  Se143  1  0.57767293  0.91292252  0.06544141  1
  Se  Se144  1  0.58223461  0.91426833  0.55172684  1
  Se  Se145  1  0.92346685  0.25903665  0.06558359  1
  Se  Se146  1  0.91360225  0.24570382  0.54579171  1
  Se  Se147  1  0.91568461  0.59457213  0.04628189  1
  Se  Se148  1  0.91336042  0.58113317  0.56566208  1
  Se  Se149  1  0.92620020  0.92516513  0.05178257  1
  Se  Se150  1  0.91463624  0.91013612  0.55676231  1
  Se  Se151  1  0.07809959  0.25384300  0.43493024  1
  Se  Se152  1  0.07419665  0.26451223  0.94924525  1
  Se  Se153  1  0.07535316  0.60084353  0.46013820  1
  Se  Se154  1  0.08451596  0.59262797  0.93400639  1
  Se  Se155  1  0.08124264  0.91732642  0.45030380  1
  Se  Se156  1  0.08849997  0.91188783  0.94019794  1
  Se  Se157  1  0.40908878  0.25542927  0.44636794  1
  Se  Se158  1  0.41508280  0.25046762  0.93370587  1
  Se  Se159  1  0.41969574  0.58977467  0.44292604  1
  Se  Se160  1  0.41839068  0.58000984  0.94284608  1
  Se  Se161  1  0.42199647  0.91529581  0.44414813  1
  Se  Se162  1  0.41835037  0.90938479  0.94666997  1
  Se  Se163  1  0.74583441  0.24623342  0.45453581  1
  Se  Se164  1  0.74612104  0.26612544  0.93624481  1
  Se  Se165  1  0.73985195  0.58328513  0.44047161  1
  Se  Se166  1  0.75124630  0.59270135  0.95159950  1
  Se  Se167  1  0.75322027  0.90413948  0.44604915  1
  Se  Se168  1  0.73750029  0.92073522  0.94573084  1
  Se  Se169  1  0.25742516  0.07821408  0.44299807  1
  Se  Se170  1  0.25361919  0.08059206  0.94627365  1
  Se  Se171  1  0.24163026  0.43384407  0.44743793  1
  Se  Se172  1  0.26619405  0.41733429  0.93030488  1
  Se  Se173  1  0.25853938  0.75369327  0.44689014  1
  Se  Se174  1  0.25134850  0.75020741  0.94827234  1
  Se  Se175  1  0.58813014  0.06607008  0.43857352  1
  Se  Se176  1  0.58187437  0.07180015  0.94607490  1
  Se  Se177  1  0.57778129  0.41757576  0.45727812  1
  Se  Se178  1  0.57838634  0.42541045  0.94806693  1
  Se  Se179  1  0.57911354  0.75101054  0.44264336  1
  Se  Se180  1  0.57761769  0.75190662  0.94690590  1
  Se  Se181  1  0.91313363  0.08134904  0.44965043  1
  Se  Se182  1  0.92082093  0.07659463  0.93385323  1
  Se  Se183  1  0.91996489  0.41313383  0.43631502  1
  Se  Se184  1  0.92544136  0.41829536  0.95475494  1
  Se  Se185  1  0.92060648  0.73221022  0.46015603  1
  Se  Se186  1  0.92073365  0.75078396  0.92831614  1
  Se  Se187  1  0.25925953  0.25541457  0.30177657  1
  Se  Se188  1  0.24155517  0.24892269  0.80028665  1
  Se  Se189  1  0.25082169  0.59167286  0.30746749  1
  Se  Se190  1  0.25025998  0.58782808  0.79657983  1
  Se  Se191  1  0.25343018  0.91593173  0.30483415  1
  Se  Se192  1  0.25506902  0.91304310  0.80631080  1
  Se  Se193  1  0.57063538  0.24102193  0.32088002  1
  Se  Se194  1  0.58090540  0.24058474  0.80702430  1
  Se  Se195  1  0.57860697  0.58431165  0.30486611  1
  Se  Se196  1  0.58926875  0.59442271  0.80327194  1
  Se  Se197  1  0.59838985  0.92790313  0.30169397  1
  Se  Se198  1  0.57098778  0.90157053  0.80751173  1
  Se  Se199  1  0.91316674  0.24853541  0.31224857  1
  Se  Se200  1  0.91363926  0.24528273  0.80631186  1
  Se  Se201  1  0.91115308  0.57939823  0.31188200  1
  Se  Se202  1  0.92118956  0.58320458  0.80333868  1
  Se  Se203  1  0.91802538  0.89955694  0.31895491  1
  Se  Se204  1  0.91661662  0.92297682  0.79386842  1
  Se  Se205  1  0.10065935  0.09110724  0.30840739  1
  Se  Se206  1  0.08407790  0.07953534  0.80423827  1
  Se  Se207  1  0.08930329  0.42486952  0.31296415  1
  Se  Se208  1  0.09550181  0.42685177  0.80831374  1
  Se  Se209  1  0.09234303  0.75267468  0.31320167  1
  Se  Se210  1  0.08528067  0.74962412  0.79864761  1
  Se  Se211  1  0.40940129  0.08111783  0.29960065  1
  Se  Se212  1  0.41212855  0.08197715  0.80104413  1
  Se  Se213  1  0.41236058  0.41884751  0.30624920  1
  Se  Se214  1  0.40958341  0.40279760  0.79938851  1
  Se  Se215  1  0.42867334  0.76817858  0.29540271  1
  Se  Se216  1  0.39795073  0.72811088  0.80347397  1
  Se  Se217  1  0.75221654  0.07748074  0.30724046  1
  Se  Se218  1  0.74958334  0.08391711  0.80787597  1
  Se  Se219  1  0.75071455  0.42600155  0.30867577  1
  Se  Se220  1  0.75200199  0.42527870  0.81301264  1
  Se  Se221  1  0.74740844  0.74612444  0.30568332  1
  Se  Se222  1  0.75528601  0.75428729  0.80080170  1
  Se  Se223  1  0.25322163  0.07805571  0.19317493  1
  Se  Se224  1  0.25109708  0.07909969  0.69695054  1
  Se  Se225  1  0.25350702  0.41329250  0.19830145  1
  Se  Se226  1  0.25581630  0.41891970  0.69142938  1
  Se  Se227  1  0.24628626  0.74495374  0.19533787  1
  Se  Se228  1  0.25137532  0.75303731  0.69294448  1
  Se  Se229  1  0.58554256  0.08158978  0.20009178  1
  Se  Se230  1  0.57299027  0.08333223  0.68966115  1
  Se  Se231  1  0.57377368  0.42406106  0.19174148  1
  Se  Se232  1  0.57155618  0.43237532  0.69816947  1
  Se  Se233  1  0.58725924  0.73442907  0.20437778  1
  Se  Se234  1  0.59329610  0.74241407  0.69935434  1
  Se  Se235  1  0.91402041  0.08304155  0.19570610  1
  Se  Se236  1  0.92087346  0.08043461  0.69531395  1
  Se  Se237  1  0.91240850  0.42750577  0.18966100  1
  Se  Se238  1  0.90977730  0.42446957  0.69192056  1
  Se  Se239  1  0.90646263  0.76004452  0.19169673  1
  Se  Se240  1  0.92176164  0.74777452  0.69462849  1
  Se  Se241  1  0.09176126  0.24106428  0.18639743  1
  Se  Se242  1  0.09223660  0.24598044  0.68156512  1
  Se  Se243  1  0.09407502  0.57472190  0.19249943  1
  Se  Se244  1  0.08582924  0.58667608  0.69160050  1
  Se  Se245  1  0.08675232  0.90808675  0.19015449  1
  Se  Se246  1  0.08151338  0.91782554  0.69719691  1
  Se  Se247  1  0.42135401  0.24726058  0.19532501  1
  Se  Se248  1  0.41029674  0.24901914  0.69646069  1
  Se  Se249  1  0.40821979  0.58468693  0.19517525  1
  Se  Se250  1  0.40921062  0.59650197  0.70056544  1
  Se  Se251  1  0.41930743  0.89680342  0.20594952  1
  Se  Se252  1  0.41195035  0.91773876  0.69899951  1
  Se  Se253  1  0.75416190  0.24307526  0.19813578  1
  Se  Se254  1  0.75606257  0.23874877  0.69066300  1
  Se  Se255  1  0.74659060  0.59036272  0.19685732  1
  Se  Se256  1  0.74914063  0.58958163  0.69812902  1
  Se  Se257  1  0.74952643  0.92366410  0.20220361  1
  Se  Se258  1  0.75111892  0.90554320  0.68059751  1
