# generated using pymatgen
data_In86Cu29Se144
_symmetry_space_group_name_H-M   'P 1'
_cell_length_a   17.58378320
_cell_length_b   17.58535708
_cell_length_c   23.44909061
_cell_angle_alpha   90.01130569
_cell_angle_beta   89.98840611
_cell_angle_gamma   90.00896736
_symmetry_Int_Tables_number   1
_chemical_formula_structural   In86Cu29Se144
_chemical_formula_sum   'In86 Cu29 Se144'
_cell_volume   7250.85956653
_cell_formula_units_Z   1
loop_
 _symmetry_equiv_pos_site_id
 _symmetry_equiv_pos_as_xyz
  1  'x, y, z'
loop_
 _atom_site_type_symbol
 _atom_site_label
 _atom_site_symmetry_multiplicity
 _atom_site_fract_x
 _atom_site_fract_y
 _atom_site_fract_z
 _atom_site_occupancy
  In  In0  1  0.00618482  0.17472919  0.12456817  1
  In  In1  1  0.00100433  0.16713045  0.62593666  1
  In  In2  1  -0.00541244  0.50198198  0.12951666  1
  In  In3  1  0.01186031  0.48809921  0.62812544  1
  In  In4  1  -0.00115009  0.83863848  0.13044064  1
  In  In5  1  -0.00720765  0.84399942  0.63020326  1
  In  In6  1  0.33687047  0.17325819  0.10434114  1
  In  In7  1  0.31335997  0.16867198  0.62510834  1
  In  In8  1  0.35056697  0.48892309  0.14089320  1
  In  In9  1  0.33005417  0.51255979  0.62255240  1
  In  In10  1  0.31846138  0.83369487  0.12891194  1
  In  In11  1  0.33598113  0.82745533  0.62620287  1
  In  In12  1  0.66855777  0.16891611  0.11778387  1
  In  In13  1  0.68159862  0.16018876  0.63170235  1
  In  In14  1  0.66353246  0.49606080  0.11596098  1
  In  In15  1  0.65796819  0.49378407  0.63100743  1
  In  In16  1  0.68069116  0.82559506  0.12422621  1
  In  In17  1  0.67074253  0.83577248  0.61689025  1
  In  In18  1  0.16398241  0.02228837  0.37973550  1
  In  In19  1  0.16823898  0.00625613  0.87363019  1
  In  In20  1  0.16226462  0.33250198  0.36882355  1
  In  In21  1  0.15858063  0.33414542  0.87761753  1
  In  In22  1  0.16018675  0.66183053  0.37470782  1
  In  In23  1  0.17054384  0.66638039  0.86401861  1
  In  In24  1  0.47915037  -0.00529339  0.37885252  1
  In  In25  1  0.49383478  0.01050426  0.87765785  1
  In  In26  1  0.48413908  0.34485094  0.37062030  1
  In  In27  1  0.50565142  0.31712847  0.88500898  1
  In  In28  1  0.49863298  0.67108181  0.37290382  1
  In  In29  1  0.48327421  0.66865593  0.87397688  1
  In  In30  1  0.84391558  -0.00871156  0.37918813  1
  In  In31  1  0.84977532  -0.01039393  0.89075229  1
  In  In32  1  0.83570744  0.31545269  0.37459092  1
  In  In33  1  0.83864063  0.33221072  0.87812075  1
  In  In34  1  0.84137993  0.67272086  0.37563276  1
  In  In35  1  0.84364937  0.65366004  0.88008031  1
  In  In36  1  0.00648437  0.16105995  0.36939263  1
  In  In37  1  -0.00071147  0.16480754  0.88047413  1
  In  In38  1  0.00449041  0.51275275  0.36863504  1
  In  In39  1  0.00104817  0.48936934  0.86873715  1
  In  In40  1  -0.00640850  0.83047438  0.37291803  1
  In  In41  1  0.00118178  0.82848517  0.86905865  1
  In  In42  1  0.29925647  0.16693988  0.37108311  1
  In  In43  1  0.33944118  0.15379492  0.89200434  1
  In  In44  1  0.32465618  0.48669085  0.36272315  1
  In  In45  1  0.32837314  0.50722979  0.88049011  1
  In  In46  1  0.34386859  0.83734612  0.38509682  1
  In  In47  1  0.33064127  0.83223766  0.86570257  1
  In  In48  1  0.67179470  0.17794705  0.37538579  1
  In  In49  1  0.66667515  0.17305954  0.87947185  1
  In  In50  1  0.64911199  0.50286516  0.37097500  1
  In  In51  1  0.67699273  0.48580371  0.88179180  1
  In  In52  1  0.66432365  0.83550967  0.38163691  1
  In  In53  1  0.67305638  0.84365604  0.87455583  1
  In  In54  1  0.15845054  0.00775072  0.12305300  1
  In  In55  1  0.15489629  0.00754890  0.63291947  1
  In  In56  1  0.17929820  0.31282902  0.13858759  1
  In  In57  1  0.15597312  0.32115712  0.61426183  1
  In  In58  1  0.16932881  0.66191326  0.13758368  1
  In  In59  1  0.17636043  0.65578264  0.62620753  1
  In  In60  1  0.48671152  0.01305402  0.11940618  1
  In  In61  1  0.49492353  -0.01313729  0.62472289  1
  In  In62  1  0.49382051  0.33252072  0.11428608  1
  In  In63  1  0.50186755  0.34374701  0.63224179  1
  In  In64  1  0.49849803  0.65327660  0.12473817  1
  In  In65  1  0.48065145  0.66672959  0.62458403  1
  In  In66  1  0.88514148  0.03017984  0.08592710  1
  In  In67  1  0.84228343  0.00907202  0.62018392  1
  In  In68  1  0.84095627  0.34238306  0.11970474  1
  In  In69  1  0.84578289  0.32008435  0.63653781  1
  In  In70  1  0.84567126  0.67526741  0.11652483  1
  In  In71  1  0.83277657  0.68176855  0.62528041  1
  In  In72  1  0.66743437  0.00492523  0.75807949  1
  In  In73  1  0.16955449  0.49223057  0.00437090  1
  In  In74  1  0.50429188  0.83691174  -0.00655905  1
  In  In75  1  0.49491767  0.50088416  0.49994727  1
  In  In76  1  0.83752573  0.49955190  0.49982264  1
  In  In77  1  0.67633744  -0.00272654  0.24232735  1
  In  In78  1  0.66908439  0.33401094  0.24147733  1
  In  In79  1  0.16796124  0.83453383  0.50505376  1
  In  In80  1  0.32969900  0.33303765  0.75323931  1
  In  In81  1  0.50216460  0.16423785  0.49938527  1
  In  In82  1  0.66751858  0.66797304  0.25416549  1
  In  In83  1  0.16368274  0.84161224  0.00290788  1
  In  In84  1  0.32051717  0.00115207  0.25228447  1
  In  In85  1  0.66871686  0.66128906  0.74964350  1
  Cu  Cu86  1  0.67583658  0.32777661  0.50471053  1
  Cu  Cu87  1  0.84752726  0.15751056  0.24673395  1
  Cu  Cu88  1  0.66949946  -0.00185830  -0.00105757  1
  Cu  Cu89  1  0.16345824  0.83322707  0.74517893  1
  Cu  Cu90  1  0.50252792  0.49437326  0.75349740  1
  Cu  Cu91  1  0.15689895  0.50048312  0.25115518  1
  Cu  Cu92  1  0.66892355  0.33455788  -0.00087549  1
  Cu  Cu93  1  0.83795555  0.83701152  0.75101975  1
  Cu  Cu94  1  0.66608567  0.67215632  0.49779570  1
  Cu  Cu95  1  0.67098613  0.66120193  0.00019672  1
  Cu  Cu96  1  0.16025934  0.16746650  0.75254915  1
  Cu  Cu97  1  0.84731589  0.84183359  0.24496598  1
  Cu  Cu98  1  -0.00015697  0.00520506  0.50204393  1
  Cu  Cu99  1  0.16833601  0.50079022  0.74775388  1
  Cu  Cu100  1  0.00365219  0.32762018  0.49826443  1
  Cu  Cu101  1  0.67074122  0.00210469  0.50192910  1
  Cu  Cu102  1  -0.00193515  0.33395991  -0.00011081  1
  Cu  Cu103  1  0.49094570  0.82755176  0.74568406  1
  Cu  Cu104  1  0.84241663  0.49645192  0.75668898  1
  Cu  Cu105  1  0.16135503  0.83023690  0.25541271  1
  Cu  Cu106  1  0.49594887  0.83307958  0.25495320  1
  Cu  Cu107  1  -0.00044421  0.67005279  0.49739884  1
  Cu  Cu108  1  0.82801720  0.50170268  0.24835729  1
  Cu  Cu109  1  0.33377949  0.66697273  0.00233052  1
  Cu  Cu110  1  0.00367180  0.66441562  -0.00182490  1
  Cu  Cu111  1  0.49437823  0.16404815  0.75959200  1
  Cu  Cu112  1  0.48919129  0.17513283  0.24334827  1
  Cu  Cu113  1  0.84047067  0.16924530  0.75483895  1
  Cu  Cu114  1  0.32206383  0.33093671  0.49294610  1
  Se  Se115  1  0.06926027  0.07717474  0.05375325  1
  Se  Se116  1  0.08475715  0.08690226  0.55485133  1
  Se  Se117  1  0.07808339  0.40787443  0.06536499  1
  Se  Se118  1  0.08478451  0.41742051  0.54782381  1
  Se  Se119  1  0.08427002  0.73949960  0.06089266  1
  Se  Se120  1  0.07532616  0.74641708  0.56431948  1
  Se  Se121  1  0.42297721  0.08782822  0.04030313  1
  Se  Se122  1  0.41129314  0.08306120  0.56311878  1
  Se  Se123  1  0.41655015  0.42995076  0.05428695  1
  Se  Se124  1  0.40517862  0.40397924  0.55711191  1
  Se  Se125  1  0.41246394  0.75342576  0.05934322  1
  Se  Se126  1  0.41269039  0.74884904  0.55166439  1
  Se  Se127  1  0.75062796  0.08049013  0.05419905  1
  Se  Se128  1  0.75299518  0.08768745  0.55277919  1
  Se  Se129  1  0.75349575  0.41910358  0.05062388  1
  Se  Se130  1  0.75020733  0.41179253  0.56452430  1
  Se  Se131  1  0.75383268  0.74865998  0.04824019  1
  Se  Se132  1  0.75351407  0.75267233  0.54890028  1
  Se  Se133  1  0.23418597  0.24968946  0.04924300  1
  Se  Se134  1  0.24340031  0.24309919  0.54572523  1
  Se  Se135  1  0.25498156  0.58766919  0.06294695  1
  Se  Se136  1  0.25025600  0.58284138  0.54855028  1
  Se  Se137  1  0.26033925  0.93167984  0.05715950  1
  Se  Se138  1  0.25039957  0.92624067  0.56684931  1
  Se  Se139  1  0.58458216  0.25046812  0.05131829  1
  Se  Se140  1  0.58875883  0.25432830  0.56488773  1
  Se  Se141  1  0.58099699  0.58282716  0.05005849  1
  Se  Se142  1  0.59023914  0.59057265  0.55994881  1
  Se  Se143  1  0.58895177  0.92196916  0.06307578  1
  Se  Se144  1  0.58480424  0.91975854  0.55288055  1
  Se  Se145  1  0.91520605  0.25016962  0.05411376  1
  Se  Se146  1  0.91823969  0.25082351  0.55535831  1
  Se  Se147  1  0.92061407  0.58016146  0.05190368  1
  Se  Se148  1  0.92271952  0.58955767  0.56219542  1
  Se  Se149  1  0.91575640  0.89512863  0.05075006  1
  Se  Se150  1  0.91661955  0.91778437  0.55239297  1
  Se  Se151  1  0.08524271  0.24680903  0.44059031  1
  Se  Se152  1  0.08266349  0.25070139  0.94850739  1
  Se  Se153  1  0.08013870  0.58215248  0.44814319  1
  Se  Se154  1  0.08618371  0.58542879  0.93878500  1
  Se  Se155  1  0.07855025  0.92276436  0.44145174  1
  Se  Se156  1  0.07282046  0.92328962  0.94064228  1
  Se  Se157  1  0.40938855  0.25118331  0.43802182  1
  Se  Se158  1  0.41627665  0.24716059  0.95350692  1
  Se  Se159  1  0.40791385  0.58114600  0.43431515  1
  Se  Se160  1  0.41726138  0.58379689  0.94959784  1
  Se  Se161  1  0.42024422  0.91575723  0.45830541  1
  Se  Se162  1  0.40324805  0.92060039  0.94108168  1
  Se  Se163  1  0.75607542  0.24372501  0.45135633  1
  Se  Se164  1  0.75392175  0.25078350  0.94745361  1
  Se  Se165  1  0.74043670  0.58659043  0.43818829  1
  Se  Se166  1  0.75472303  0.57739228  0.94703632  1
  Se  Se167  1  0.75171626  0.91724330  0.44622376  1
  Se  Se168  1  0.75279765  0.91011848  0.95148430  1
  Se  Se169  1  0.27261873  0.06565267  0.44641167  1
  Se  Se170  1  0.23325253  0.08965167  0.95031508  1
  Se  Se171  1  0.24379661  0.41766969  0.43983309  1
  Se  Se172  1  0.26089740  0.40383835  0.94425244  1
  Se  Se173  1  0.25197171  0.74356849  0.44283328  1
  Se  Se174  1  0.25255549  0.74530603  0.94227493  1
  Se  Se175  1  0.59132723  0.07473764  0.43505305  1
  Se  Se176  1  0.58740304  0.08019983  0.94414106  1
  Se  Se177  1  0.58963259  0.40321892  0.44528296  1
  Se  Se178  1  0.58087975  0.41558974  0.94726191  1
  Se  Se179  1  0.57815398  0.75050702  0.44512529  1
  Se  Se180  1  0.59336902  0.74007404  0.93591281  1
  Se  Se181  1  0.91969576  0.08624153  0.44245019  1
  Se  Se182  1  0.91180643  0.09205703  0.95349346  1
  Se  Se183  1  0.92288540  0.40909243  0.43760107  1
  Se  Se184  1  0.91969717  0.42144512  0.94584274  1
  Se  Se185  1  0.91410088  0.75506330  0.44916811  1
  Se  Se186  1  0.92254927  0.74742592  0.94248031  1
  Se  Se187  1  0.26004151  0.26718532  0.29992726  1
  Se  Se188  1  0.24578994  0.24098417  0.81397884  1
  Se  Se189  1  0.24273375  0.58268201  0.30357426  1
  Se  Se190  1  0.25630131  0.57978203  0.80036233  1
  Se  Se191  1  0.24006504  0.90945559  0.31812110  1
  Se  Se192  1  0.24259573  0.91595277  0.80373691  1
  Se  Se193  1  0.57420299  0.24840541  0.30574058  1
  Se  Se194  1  0.58293323  0.24754925  0.80569613  1
  Se  Se195  1  0.56423928  0.57506509  0.29710221  1
  Se  Se196  1  0.57970808  0.57756169  0.81439571  1
  Se  Se197  1  0.57830729  0.91791876  0.30840533  1
  Se  Se198  1  0.56911580  0.90793688  0.80782721  1
  Se  Se199  1  0.92097263  0.24763368  0.30160056  1
  Se  Se200  1  0.92363181  0.25250374  0.80845073  1
  Se  Se201  1  0.90925023  0.58687041  0.30278656  1
  Se  Se202  1  0.92529896  0.58498986  0.80352108  1
  Se  Se203  1  0.92659032  0.92473745  0.30196904  1
  Se  Se204  1  0.91721730  0.92099210  0.80647827  1
  Se  Se205  1  0.09421198  0.08798562  0.29847089  1
  Se  Se206  1  0.07777353  0.08342249  0.80648489  1
  Se  Se207  1  0.07352822  0.41609290  0.30334664  1
  Se  Se208  1  0.08891473  0.41290211  0.79986631  1
  Se  Se209  1  0.07715902  0.74591432  0.30677034  1
  Se  Se210  1  0.08268237  0.74674944  0.79927790  1
  Se  Se211  1  0.41650676  0.09410499  0.30842462  1
  Se  Se212  1  0.40600531  0.08234243  0.80705002  1
  Se  Se213  1  0.42007674  0.42188445  0.29309625  1
  Se  Se214  1  0.42170275  0.41730949  0.81586074  1
  Se  Se215  1  0.41111220  0.75408453  0.30788019  1
  Se  Se216  1  0.40790511  0.74297746  0.79761786  1
  Se  Se217  1  0.75734625  0.08959212  0.30794046  1
  Se  Se218  1  0.76377668  0.08624903  0.81687111  1
  Se  Se219  1  0.75189623  0.42252115  0.31234660  1
  Se  Se220  1  0.75535746  0.41344489  0.80571582  1
  Se  Se221  1  0.75968504  0.76735287  0.30572878  1
  Se  Se222  1  0.75728176  0.75413052  0.80889482  1
  Se  Se223  1  0.25093746  0.09488159  0.18442873  1
  Se  Se224  1  0.24657466  0.08517014  0.70058159  1
  Se  Se225  1  0.24268025  0.42188127  0.19656116  1
  Se  Se226  1  0.24438199  0.41678584  0.68519371  1
  Se  Se227  1  0.24995423  0.75112077  0.20364220  1
  Se  Se228  1  0.24843683  0.74861373  0.69428795  1
  Se  Se229  1  0.57573587  0.09182516  0.19222446  1
  Se  Se230  1  0.57365019  0.08729433  0.69339388  1
  Se  Se231  1  0.57431006  0.42311855  0.18878411  1
  Se  Se232  1  0.58949334  0.41013807  0.70621088  1
  Se  Se233  1  0.57759657  0.75904846  0.19158413  1
  Se  Se234  1  0.58128773  0.75428687  0.68911627  1
  Se  Se235  1  0.92458769  0.07696141  0.18724023  1
  Se  Se236  1  0.91718084  0.08480258  0.69631317  1
  Se  Se237  1  0.91258709  0.41644116  0.19873667  1
  Se  Se238  1  0.92322280  0.41474260  0.69821467  1
  Se  Se239  1  0.92130397  0.74499440  0.19632128  1
  Se  Se240  1  0.91827534  0.75031990  0.69840315  1
  Se  Se241  1  0.07081298  0.26044560  0.20068507  1
  Se  Se242  1  0.08292194  0.25249885  0.69531907  1
  Se  Se243  1  0.07368271  0.58624354  0.19981813  1
  Se  Se244  1  0.08362099  0.58334322  0.69455985  1
  Se  Se245  1  0.09091674  0.91612657  0.19476778  1
  Se  Se246  1  0.07631048  0.92109435  0.70116657  1
  Se  Se247  1  0.41016857  0.25090962  0.18325497  1
  Se  Se248  1  0.42043538  0.24180403  0.69131803  1
  Se  Se249  1  0.39763242  0.60813170  0.19525674  1
  Se  Se250  1  0.41977990  0.57492900  0.69794041  1
  Se  Se251  1  0.42079845  0.91541933  0.19242838  1
  Se  Se252  1  0.40949320  0.91744745  0.69794008  1
  Se  Se253  1  0.76320704  0.23893108  0.19028252  1
  Se  Se254  1  0.75013975  0.24845103  0.70344424  1
  Se  Se255  1  0.75149263  0.58209264  0.18642103  1
  Se  Se256  1  0.76314283  0.57222209  0.69040136  1
  Se  Se257  1  0.76971806  0.91732412  0.18136035  1
  Se  Se258  1  0.75339719  0.91579484  0.69239828  1
