# generated using pymatgen
data_In86Cu29Se144
_symmetry_space_group_name_H-M   'P 1'
_cell_length_a   17.57976834
_cell_length_b   17.58202748
_cell_length_c   23.43836910
_cell_angle_alpha   90.00118476
_cell_angle_beta   89.99844148
_cell_angle_gamma   89.98510124
_symmetry_Int_Tables_number   1
_chemical_formula_structural   In86Cu29Se144
_chemical_formula_sum   'In86 Cu29 Se144'
_cell_volume   7244.51767731
_cell_formula_units_Z   1
loop_
 _symmetry_equiv_pos_site_id
 _symmetry_equiv_pos_as_xyz
  1  'x, y, z'
loop_
 _atom_site_type_symbol
 _atom_site_label
 _atom_site_symmetry_multiplicity
 _atom_site_fract_x
 _atom_site_fract_y
 _atom_site_fract_z
 _atom_site_occupancy
  In  In0  1  -0.00408365  0.16484780  0.11391218  1
  In  In1  1  0.01176971  0.18314002  0.62047425  1
  In  In2  1  -0.00197316  0.51205429  0.11946921  1
  In  In3  1  0.00006047  0.49624032  0.62913495  1
  In  In4  1  0.00336450  0.82084253  0.10785459  1
  In  In5  1  -0.01335373  0.82879140  0.63427394  1
  In  In6  1  0.33446958  0.16673368  0.12362583  1
  In  In7  1  0.33274768  0.16959380  0.62477639  1
  In  In8  1  0.33819501  0.49427523  0.14888049  1
  In  In9  1  0.32233842  0.48741177  0.61394424  1
  In  In10  1  0.33429509  0.83778423  0.12079179  1
  In  In11  1  0.33974856  0.84674700  0.63297255  1
  In  In12  1  0.66610005  0.17718515  0.11841964  1
  In  In13  1  0.67915155  0.18016377  0.61764032  1
  In  In14  1  0.66277062  0.48490401  0.12573571  1
  In  In15  1  0.65921995  0.49055270  0.61980186  1
  In  In16  1  0.66807445  0.84022594  0.11628321  1
  In  In17  1  0.66672926  0.82597215  0.62961836  1
  In  In18  1  0.17944139  0.00518141  0.37072732  1
  In  In19  1  0.17810703  -0.00582720  0.88052905  1
  In  In20  1  0.17279659  0.33188434  0.37910130  1
  In  In21  1  0.16016629  0.32855713  0.86876257  1
  In  In22  1  0.17051698  0.65255332  0.37269385  1
  In  In23  1  0.16489090  0.67890925  0.88510383  1
  In  In24  1  0.49724834  0.01283387  0.37270991  1
  In  In25  1  0.49470158  0.00568462  0.87802249  1
  In  In26  1  0.49382695  0.33655687  0.37208107  1
  In  In27  1  0.49263044  0.32377105  0.86450511  1
  In  In28  1  0.48443575  0.66213596  0.36856530  1
  In  In29  1  0.49990158  0.66863587  0.88334620  1
  In  In30  1  0.84154213  0.00802778  0.37247333  1
  In  In31  1  0.83314107  0.00097857  0.88397533  1
  In  In32  1  0.82726368  0.33920292  0.38141635  1
  In  In33  1  0.83195506  0.33377465  0.86952421  1
  In  In34  1  0.82403776  0.65698415  0.37333061  1
  In  In35  1  0.85564536  0.64493393  0.90066112  1
  In  In36  1  -0.00588722  0.17988212  0.38496563  1
  In  In37  1  -0.00665435  0.17394181  0.88071228  1
  In  In38  1  0.00545009  0.49223105  0.38616292  1
  In  In39  1  -0.01209657  0.48859106  0.86219885  1
  In  In40  1  -0.00191845  0.83606010  0.37199358  1
  In  In41  1  0.00744304  0.82002351  0.88683140  1
  In  In42  1  0.33302758  0.17002959  0.37371683  1
  In  In43  1  0.33633554  0.16696023  0.87579283  1
  In  In44  1  0.33134234  0.49786432  0.37270925  1
  In  In45  1  0.34317063  0.49327706  0.87336394  1
  In  In46  1  0.33496339  0.83597521  0.36015975  1
  In  In47  1  0.32392428  0.83458064  0.88475152  1
  In  In48  1  0.64832800  0.18121919  0.38276586  1
  In  In49  1  0.66000363  0.17592648  0.87600038  1
  In  In50  1  0.67647476  0.48560169  0.38075604  1
  In  In51  1  0.68125484  0.49801254  0.86991665  1
  In  In52  1  0.66542548  0.81815888  0.37120577  1
  In  In53  1  0.66433408  0.83481320  0.88725655  1
  In  In54  1  0.17399448  0.01123870  0.11687688  1
  In  In55  1  0.16733444  0.01834428  0.62586954  1
  In  In56  1  0.18556260  0.33559126  0.12816757  1
  In  In57  1  0.16956371  0.33448126  0.62699507  1
  In  In58  1  0.17176505  0.67319354  0.11683600  1
  In  In59  1  0.16901631  0.64944624  0.62576651  1
  In  In60  1  0.48645351  -0.00638571  0.11724104  1
  In  In61  1  0.48278197  0.00569643  0.63060950  1
  In  In62  1  0.50883880  0.33376238  0.13435291  1
  In  In63  1  0.49847837  0.33016275  0.62253481  1
  In  In64  1  0.47000732  0.66597496  0.12368151  1
  In  In65  1  0.50933750  0.66188870  0.62501870  1
  In  In66  1  0.82822477  -0.00006763  0.11626850  1
  In  In67  1  0.82017394  0.00177547  0.62768043  1
  In  In68  1  0.82568966  0.32788942  0.11918326  1
  In  In69  1  0.83652156  0.33975738  0.62829995  1
  In  In70  1  0.84272169  0.66590297  0.11069213  1
  In  In71  1  0.84705174  0.66015149  0.63504948  1
  In  In72  1  0.32857052  0.66382033  0.75499231  1
  In  In73  1  0.66171219  0.00357915  0.24017787  1
  In  In74  1  0.66473916  0.66735152  0.75384139  1
  In  In75  1  0.16208752  0.83231397  0.49412579  1
  In  In76  1  0.49864938  0.83546090  0.50802274  1
  In  In77  1  0.00563745  0.00397665  0.75251401  1
  In  In78  1  0.66732016  0.66293616  0.24456062  1
  In  In79  1  0.00679123  0.33537115  0.25472341  1
  In  In80  1  0.82964477  0.83405570  0.50030031  1
  In  In81  1  0.16631756  0.49890564  0.00501400  1
  In  In82  1  0.00845868  0.66494942  0.23788297  1
  In  In83  1  0.66335294  0.00438792  0.76005811  1
  In  In84  1  0.50241232  0.49764238  0.00438767  1
  In  In85  1  0.00428141  -0.00175747  0.24313977  1
  Cu  Cu86  1  0.16866699  0.16383647  0.24844509  1
  Cu  Cu87  1  0.17875191  0.16851381  0.75066833  1
  Cu  Cu88  1  0.66575830  0.65295444  0.49857226  1
  Cu  Cu89  1  0.81871011  0.16971488  0.24590247  1
  Cu  Cu90  1  0.49130570  0.17050344  0.25247010  1
  Cu  Cu91  1  0.66355619  0.01254756  -0.00033261  1
  Cu  Cu92  1  -0.00242640  0.01549992  0.50191753  1
  Cu  Cu93  1  0.50130960  0.16888330  0.74852683  1
  Cu  Cu94  1  0.83553049  0.82360901  0.76345803  1
  Cu  Cu95  1  0.33109873  0.00791261  0.49872073  1
  Cu  Cu96  1  0.84288534  0.17620663  0.74729593  1
  Cu  Cu97  1  0.00043995  0.33662795  0.50746931  1
  Cu  Cu98  1  -0.00303369  0.33387518  -0.00725805  1
  Cu  Cu99  1  0.33304448  0.00490121  -0.00065285  1
  Cu  Cu100  1  0.49655936  0.49298316  0.74444470  1
  Cu  Cu101  1  0.33672961  0.33085035  0.49747297  1
  Cu  Cu102  1  0.33736040  0.32631917  0.00151194  1
  Cu  Cu103  1  0.00053467  0.65953245  0.50475659  1
  Cu  Cu104  1  0.17331180  0.83123765  0.24137535  1
  Cu  Cu105  1  0.16502671  0.83241392  0.75972363  1
  Cu  Cu106  1  0.83680499  0.49770486  0.25242340  1
  Cu  Cu107  1  0.33551969  0.65798412  0.49681111  1
  Cu  Cu108  1  0.66391269  0.32919987  0.50100925  1
  Cu  Cu109  1  0.66497226  0.66940928  0.00130249  1
  Cu  Cu110  1  0.66664268  0.00735668  0.49941063  1
  Cu  Cu111  1  0.66765828  0.33421161  -0.00377588  1
  Cu  Cu112  1  0.00646269  -0.00030358  -0.00411389  1
  Cu  Cu113  1  0.16216275  0.49821321  0.74727442  1
  Cu  Cu114  1  0.49837133  0.83638305  0.24235451  1
  Se  Se115  1  0.08587858  0.08770143  0.04854150  1
  Se  Se116  1  0.08821816  0.09259217  0.55211812  1
  Se  Se117  1  0.07614837  0.40291671  0.06280736  1
  Se  Se118  1  0.08655719  0.41939366  0.55871300  1
  Se  Se119  1  0.07974353  0.73052387  0.04329262  1
  Se  Se120  1  0.07516222  0.74791010  0.56207141  1
  Se  Se121  1  0.41790443  0.08980877  0.05054088  1
  Se  Se122  1  0.41620764  0.08638383  0.55354208  1
  Se  Se123  1  0.40902151  0.41140504  0.06410654  1
  Se  Se124  1  0.41985350  0.41537829  0.55112171  1
  Se  Se125  1  0.42485164  0.76341196  0.05173158  1
  Se  Se126  1  0.40374049  0.74186917  0.56275480  1
  Se  Se127  1  0.75067994  0.09214353  0.05256497  1
  Se  Se128  1  0.75492169  0.08490625  0.55198688  1
  Se  Se129  1  0.74886430  0.41819893  0.05111556  1
  Se  Se130  1  0.74889741  0.41210741  0.55412038  1
  Se  Se131  1  0.75134702  0.75260683  0.05198014  1
  Se  Se132  1  0.74421758  0.73644787  0.55973148  1
  Se  Se133  1  0.24796878  0.24761647  0.05347096  1
  Se  Se134  1  0.25124941  0.25267855  0.55536344  1
  Se  Se135  1  0.26663570  0.57462841  0.06611060  1
  Se  Se136  1  0.24543374  0.57984246  0.54778054  1
  Se  Se137  1  0.24937036  0.91897027  0.05145229  1
  Se  Se138  1  0.25281584  0.92159580  0.55645522  1
  Se  Se139  1  0.57856017  0.25952261  0.05274907  1
  Se  Se140  1  0.57914439  0.24500204  0.55241210  1
  Se  Se141  1  0.58720466  0.59196926  0.06582862  1
  Se  Se142  1  0.57662608  0.57657643  0.55145075  1
  Se  Se143  1  0.58312618  0.92387763  0.05127766  1
  Se  Se144  1  0.59287672  0.92658173  0.56435829  1
  Se  Se145  1  0.91317955  0.25201267  0.04983083  1
  Se  Se146  1  0.91347735  0.25229465  0.55663003  1
  Se  Se147  1  0.91847211  0.57822032  0.04304140  1
  Se  Se148  1  0.91546201  0.57994060  0.55840769  1
  Se  Se149  1  0.92185196  0.92145904  0.05348147  1
  Se  Se150  1  0.92322506  0.92633183  0.55960609  1
  Se  Se151  1  0.08402160  0.25634025  0.44974296  1
  Se  Se152  1  0.08674875  0.25131163  0.94601636  1
  Se  Se153  1  0.08723695  0.58426791  0.44824515  1
  Se  Se154  1  0.07886116  0.57365672  0.93442147  1
  Se  Se155  1  0.07191335  0.93182356  0.43975887  1
  Se  Se156  1  0.09030805  0.91325172  0.94672811  1
  Se  Se157  1  0.41933311  0.24719902  0.44334876  1
  Se  Se158  1  0.42262631  0.24963327  0.94478258  1
  Se  Se159  1  0.41990819  0.57737871  0.44401173  1
  Se  Se160  1  0.40592543  0.58655229  0.94786457  1
  Se  Se161  1  0.40924389  0.92009578  0.44088389  1
  Se  Se162  1  0.41510321  0.91953442  0.94636121  1
  Se  Se163  1  0.74976535  0.24710279  0.44662781  1
  Se  Se164  1  0.75168280  0.25128349  0.94234557  1
  Se  Se165  1  0.75664527  0.57514217  0.44860025  1
  Se  Se166  1  0.74201240  0.57790228  0.95086730  1
  Se  Se167  1  0.73878678  0.92161451  0.43689503  1
  Se  Se168  1  0.74661011  0.92293705  0.95141126  1
  Se  Se169  1  0.24663007  0.08927804  0.44502009  1
  Se  Se170  1  0.24996716  0.08933836  0.94623922  1
  Se  Se171  1  0.25200879  0.41771461  0.44733736  1
  Se  Se172  1  0.25684362  0.40883712  0.94256924  1
  Se  Se173  1  0.26206051  0.74883170  0.43883522  1
  Se  Se174  1  0.25684788  0.74183586  0.95469562  1
  Se  Se175  1  0.57640651  0.08431032  0.44829891  1
  Se  Se176  1  0.57953209  0.09068207  0.94358156  1
  Se  Se177  1  0.58185656  0.41130690  0.44464069  1
  Se  Se178  1  0.58462317  0.41204315  0.93530018  1
  Se  Se179  1  0.58365961  0.74041087  0.44502248  1
  Se  Se180  1  0.57724238  0.75209917  0.95318439  1
  Se  Se181  1  0.90885068  0.09089858  0.44767779  1
  Se  Se182  1  0.91808601  0.08481898  0.94901799  1
  Se  Se183  1  0.91486061  0.41583972  0.45067536  1
  Se  Se184  1  0.91285687  0.41668584  0.94171405  1
  Se  Se185  1  0.92332979  0.74121934  0.44166203  1
  Se  Se186  1  0.89781004  0.76876974  0.94849584  1
  Se  Se187  1  0.24565508  0.24902826  0.30483784  1
  Se  Se188  1  0.25747361  0.25408551  0.80594055  1
  Se  Se189  1  0.26642355  0.59687352  0.30381429  1
  Se  Se190  1  0.23836713  0.57378790  0.81469449  1
  Se  Se191  1  0.24808395  0.92073337  0.29663796  1
  Se  Se192  1  0.25375510  0.91452638  0.80596678  1
  Se  Se193  1  0.57946414  0.25251934  0.30224468  1
  Se  Se194  1  0.58842182  0.25268815  0.79768913  1
  Se  Se195  1  0.58907294  0.57946620  0.31534955  1
  Se  Se196  1  0.56922690  0.57387312  0.80991894  1
  Se  Se197  1  0.57815716  0.90984060  0.30779002  1
  Se  Se198  1  0.57598745  0.90755012  0.81223140  1
  Se  Se199  1  0.90607033  0.24459095  0.30575824  1
  Se  Se200  1  0.92608390  0.25477190  0.80335013  1
  Se  Se201  1  0.92127921  0.57758261  0.30792807  1
  Se  Se202  1  0.90472776  0.58691382  0.80773665  1
  Se  Se203  1  0.90751065  0.90990595  0.30156696  1
  Se  Se204  1  0.91673102  0.91447085  0.81373280  1
  Se  Se205  1  0.08085076  0.09319239  0.31006122  1
  Se  Se206  1  0.09496691  0.09184672  0.81305284  1
  Se  Se207  1  0.09544560  0.42955539  0.30925303  1
  Se  Se208  1  0.08070530  0.41092452  0.79845962  1
  Se  Se209  1  0.09179651  0.75826047  0.30568351  1
  Se  Se210  1  0.08223640  0.74651694  0.80790043  1
  Se  Se211  1  0.40974337  0.08198617  0.30161844  1
  Se  Se212  1  0.41939050  0.08624311  0.80361669  1
  Se  Se213  1  0.40103667  0.40525437  0.30312571  1
  Se  Se214  1  0.41106117  0.41141844  0.79750390  1
  Se  Se215  1  0.41765142  0.74979685  0.29535337  1
  Se  Se216  1  0.41838440  0.75312111  0.81324283  1
  Se  Se217  1  0.74446778  0.09002489  0.31009442  1
  Se  Se218  1  0.76409340  0.09452051  0.80840738  1
  Se  Se219  1  0.75307726  0.41263062  0.30246995  1
  Se  Se220  1  0.74736362  0.41115721  0.79864176  1
  Se  Se221  1  0.76398423  0.75582632  0.30089741  1
  Se  Se222  1  0.75151584  0.74781971  0.82140840  1
  Se  Se223  1  0.25179823  0.08214655  0.19431742  1
  Se  Se224  1  0.25778136  0.08086766  0.69798983  1
  Se  Se225  1  0.25167245  0.40683194  0.20907344  1
  Se  Se226  1  0.25245606  0.41912001  0.69654640  1
  Se  Se227  1  0.25559187  0.74724490  0.18928782  1
  Se  Se228  1  0.24132542  0.75617218  0.69041988  1
  Se  Se229  1  0.56904676  0.09406532  0.18561074  1
  Se  Se230  1  0.58565390  0.09071965  0.68837161  1
  Se  Se231  1  0.58112486  0.42431177  0.20325958  1
  Se  Se232  1  0.58265334  0.41138244  0.69348885  1
  Se  Se233  1  0.57958849  0.75581836  0.18486715  1
  Se  Se234  1  0.56833691  0.76041147  0.69856311  1
  Se  Se235  1  0.90569885  0.09182839  0.19086741  1
  Se  Se236  1  0.91525899  0.08817982  0.68778140  1
  Se  Se237  1  0.91681994  0.41985699  0.18909128  1
  Se  Se238  1  0.92359107  0.41178947  0.69920451  1
  Se  Se239  1  0.91268738  0.75658269  0.18678743  1
  Se  Se240  1  0.91990237  0.74400241  0.70868503  1
  Se  Se241  1  0.08508985  0.24086733  0.18864023  1
  Se  Se242  1  0.09079767  0.24925906  0.69890505  1
  Se  Se243  1  0.10194306  0.57076303  0.18779215  1
  Se  Se244  1  0.07973116  0.58652501  0.69850519  1
  Se  Se245  1  0.08929483  0.90683732  0.18118473  1
  Se  Se246  1  0.09277009  0.91067815  0.69017611  1
  Se  Se247  1  0.41260178  0.25267104  0.19381640  1
  Se  Se248  1  0.41611238  0.25075239  0.69435229  1
  Se  Se249  1  0.44408570  0.56834748  0.20154239  1
  Se  Se250  1  0.41587867  0.57752998  0.68791721  1
  Se  Se251  1  0.41155289  0.92145054  0.19528111  1
  Se  Se252  1  0.42207862  0.91779360  0.70470186  1
  Se  Se253  1  0.74083094  0.25759241  0.19406111  1
  Se  Se254  1  0.75174909  0.25304112  0.69596709  1
  Se  Se255  1  0.76422480  0.57735847  0.18615621  1
  Se  Se256  1  0.74733231  0.57645735  0.69080770  1
  Se  Se257  1  0.75883436  0.90998755  0.19224812  1
  Se  Se258  1  0.75682581  0.90440475  0.70187614  1
