# generated using pymatgen
data_In86Cu29Se144
_symmetry_space_group_name_H-M   'P 1'
_cell_length_a   17.58883694
_cell_length_b   17.58846533
_cell_length_c   23.44757865
_cell_angle_alpha   90.01086884
_cell_angle_beta   89.99656322
_cell_angle_gamma   89.98558280
_symmetry_Int_Tables_number   1
_chemical_formula_structural   In86Cu29Se144
_chemical_formula_sum   'In86 Cu29 Se144'
_cell_volume   7253.75776766
_cell_formula_units_Z   1
loop_
 _symmetry_equiv_pos_site_id
 _symmetry_equiv_pos_as_xyz
  1  'x, y, z'
loop_
 _atom_site_type_symbol
 _atom_site_label
 _atom_site_symmetry_multiplicity
 _atom_site_fract_x
 _atom_site_fract_y
 _atom_site_fract_z
 _atom_site_occupancy
  In  In0  1  -0.01938215  0.15655281  0.13491514  1
  In  In1  1  0.00341018  0.16815711  0.61502640  1
  In  In2  1  0.00461736  0.51664639  0.12603883  1
  In  In3  1  0.01251824  0.50459864  0.61983377  1
  In  In4  1  0.01724384  0.82299248  0.13286296  1
  In  In5  1  0.00764056  0.82061447  0.62975653  1
  In  In6  1  0.33912355  0.16437342  0.12625690  1
  In  In7  1  0.33702046  0.18417831  0.62152700  1
  In  In8  1  0.34915921  0.49271663  0.14665635  1
  In  In9  1  0.33529556  0.50150347  0.62305216  1
  In  In10  1  0.32264983  0.83896881  0.13210831  1
  In  In11  1  0.31809710  0.81314954  0.61421529  1
  In  In12  1  0.66304831  0.18720702  0.13055529  1
  In  In13  1  0.66897373  0.16356484  0.62577241  1
  In  In14  1  0.66876945  0.49335032  0.13001418  1
  In  In15  1  0.66044824  0.50816347  0.62652426  1
  In  In16  1  0.65279521  0.82952459  0.12489583  1
  In  In17  1  0.66312467  0.84000827  0.62797733  1
  In  In18  1  0.17029430  -0.00437301  0.37944033  1
  In  In19  1  0.15523066  -0.00656386  0.87664983  1
  In  In20  1  0.17866364  0.32417013  0.37912241  1
  In  In21  1  0.17701041  0.33128638  0.87078891  1
  In  In22  1  0.16794310  0.66885311  0.38001234  1
  In  In23  1  0.17569459  0.67807493  0.86312626  1
  In  In24  1  0.48351831  0.00099327  0.37460121  1
  In  In25  1  0.50509068  -0.00486911  0.87497086  1
  In  In26  1  0.50464085  0.34653632  0.36107091  1
  In  In27  1  0.49200940  0.32486835  0.86786888  1
  In  In28  1  0.49919884  0.66203669  0.37778453  1
  In  In29  1  0.49954003  0.66582050  0.86533478  1
  In  In30  1  0.84692490  0.00144489  0.37313998  1
  In  In31  1  0.82800357  0.01233175  0.87538047  1
  In  In32  1  0.81325909  0.33083797  0.37679453  1
  In  In33  1  0.83153668  0.34940931  0.87708369  1
  In  In34  1  0.83140264  0.66451897  0.36719057  1
  In  In35  1  0.82314812  0.65972318  0.86269810  1
  In  In36  1  0.00676790  0.15960943  0.38080723  1
  In  In37  1  0.00259841  0.16048849  0.87618786  1
  In  In38  1  0.00019028  0.51707254  0.37566584  1
  In  In39  1  -0.01437045  0.50121771  0.87720877  1
  In  In40  1  0.00808795  0.84117456  0.37317932  1
  In  In41  1  0.01351546  0.83035024  0.87650024  1
  In  In42  1  0.32874367  0.15771217  0.36762344  1
  In  In43  1  0.33657068  0.18263187  0.87677024  1
  In  In44  1  0.33583819  0.49906487  0.37449261  1
  In  In45  1  0.33473376  0.50079771  0.87008545  1
  In  In46  1  0.33364897  0.83093807  0.37985968  1
  In  In47  1  0.33164011  0.82170092  0.87667856  1
  In  In48  1  0.66510350  0.18636871  0.37862930  1
  In  In49  1  0.65264067  0.16043507  0.86603477  1
  In  In50  1  0.64748542  0.48465142  0.35720391  1
  In  In51  1  0.67125434  0.50608791  0.86593210  1
  In  In52  1  0.66829319  0.81558174  0.37803567  1
  In  In53  1  0.66400435  0.82941035  0.85773493  1
  In  In54  1  0.18390492  -0.01668621  0.13407260  1
  In  In55  1  0.16334888  -0.00471143  0.61690777  1
  In  In56  1  0.17236318  0.33461623  0.13155671  1
  In  In57  1  0.17799803  0.34829409  0.61262630  1
  In  In58  1  0.16725442  0.67133281  0.13260777  1
  In  In59  1  0.17274949  0.66731758  0.62579760  1
  In  In60  1  0.47297583  0.00299976  0.12482567  1
  In  In61  1  0.51412102  -0.00327563  0.62355640  1
  In  In62  1  0.50563137  0.33169054  0.12999185  1
  In  In63  1  0.49450258  0.34354795  0.62730959  1
  In  In64  1  0.50192373  0.65700982  0.14272209  1
  In  In65  1  0.49737760  0.66420472  0.62054449  1
  In  In66  1  0.84057988  0.01713184  0.13312346  1
  In  In67  1  0.81977246  -0.00100673  0.62507189  1
  In  In68  1  0.81167979  0.33623996  0.12768113  1
  In  In69  1  0.82947795  0.32208311  0.61912721  1
  In  In70  1  0.83948723  0.66261662  0.12699419  1
  In  In71  1  0.83046311  0.67975382  0.63974963  1
  In  In72  1  0.00225614  0.33625578  0.75209987  1
  In  In73  1  0.83477594  0.83871039  -0.00606811  1
  In  In74  1  0.82831414  0.17290478  0.00382089  1
  In  In75  1  0.83530549  0.50026548  0.49978763  1
  In  In76  1  0.66757566  -0.00348389  0.25094917  1
  In  In77  1  0.49904941  0.16899521  0.49689605  1
  In  In78  1  0.50200127  0.49752875  0.00863408  1
  In  In79  1  -0.00714005  -0.00883849  0.74435653  1
  In  In80  1  0.16925804  0.15978684  0.00664110  1
  In  In81  1  0.48917742  0.83245786  -0.00089086  1
  In  In82  1  -0.00168670  0.33186470  0.25651627  1
  In  In83  1  0.83574188  0.83375908  0.50867129  1
  In  In84  1  0.33514621  -0.00500222  0.75094982  1
  In  In85  1  0.17273357  0.50823483  -0.00242222  1
  Cu  Cu86  1  0.83943945  0.82996506  0.24842215  1
  Cu  Cu87  1  0.83350306  0.50086966  0.24946671  1
  Cu  Cu88  1  0.66885679  -0.00105794  0.50190204  1
  Cu  Cu89  1  0.17324034  0.17182459  0.74422626  1
  Cu  Cu90  1  0.00077610  0.33835194  -0.00057093  1
  Cu  Cu91  1  0.33267429  -0.00213752  0.49739863  1
  Cu  Cu92  1  0.33308769  0.66189788  0.49831873  1
  Cu  Cu93  1  0.50321037  0.17165688  0.74397222  1
  Cu  Cu94  1  0.82320117  0.17026796  0.74936370  1
  Cu  Cu95  1  0.17025916  0.50613461  0.25473902  1
  Cu  Cu96  1  0.49841903  0.16662209  0.25041221  1
  Cu  Cu97  1  0.65745535  0.00903200  -0.00336150  1
  Cu  Cu98  1  0.49656722  0.82665190  0.25339756  1
  Cu  Cu99  1  0.83315228  0.49758768  0.74710474  1
  Cu  Cu100  1  0.65933570  0.65673428  0.49686303  1
  Cu  Cu101  1  0.49602076  0.82885628  0.74369002  1
  Cu  Cu102  1  0.00537129  0.00182269  0.49683172  1
  Cu  Cu103  1  0.00264926  0.33134172  0.49604250  1
  Cu  Cu104  1  0.66076118  0.33779669  0.00088914  1
  Cu  Cu105  1  0.33163327  0.66559884  0.00452879  1
  Cu  Cu106  1  0.17006391  0.83131766  0.25792952  1
  Cu  Cu107  1  0.16556228  0.15796778  0.25567502  1
  Cu  Cu108  1  0.17133718  0.50573088  0.74227988  1
  Cu  Cu109  1  0.50079710  0.50268952  0.74657876  1
  Cu  Cu110  1  0.00466546  0.67080031  0.50171583  1
  Cu  Cu111  1  0.00006070  0.66783126  0.00441738  1
  Cu  Cu112  1  0.67223057  0.66488608  -0.00788689  1
  Cu  Cu113  1  0.00650498  -0.01027859  0.00942017  1
  Cu  Cu114  1  0.33329442  0.33562766  0.49589379  1
  Se  Se115  1  0.07747903  0.07640987  0.06992146  1
  Se  Se116  1  0.08967385  0.08658553  0.54953224  1
  Se  Se117  1  0.08284087  0.41519644  0.05989651  1
  Se  Se118  1  0.08273346  0.42009111  0.54668670  1
  Se  Se119  1  0.08920959  0.74594722  0.05502759  1
  Se  Se120  1  0.08965697  0.75164061  0.55467197  1
  Se  Se121  1  0.40515234  0.08182581  0.04928481  1
  Se  Se122  1  0.41199515  0.07724020  0.56020999  1
  Se  Se123  1  0.40649679  0.41006499  0.06216293  1
  Se  Se124  1  0.41558607  0.41706959  0.55166202  1
  Se  Se125  1  0.41532006  0.73921169  0.06711733  1
  Se  Se126  1  0.41814279  0.74791305  0.54922063  1
  Se  Se127  1  0.73869886  0.07946987  0.06175224  1
  Se  Se128  1  0.75060387  0.08535780  0.55209227  1
  Se  Se129  1  0.74661428  0.42087575  0.05155489  1
  Se  Se130  1  0.74228762  0.41401591  0.55781862  1
  Se  Se131  1  0.74441014  0.74933280  0.05523277  1
  Se  Se132  1  0.74056238  0.73758243  0.55768082  1
  Se  Se133  1  0.25541552  0.25982250  0.05747491  1
  Se  Se134  1  0.24958151  0.25016186  0.54779771  1
  Se  Se135  1  0.26197243  0.58209211  0.06905904  1
  Se  Se136  1  0.24863973  0.58126942  0.55446040  1
  Se  Se137  1  0.25099078  0.91126280  0.05325972  1
  Se  Se138  1  0.24942654  0.91422857  0.55081877  1
  Se  Se139  1  0.58052222  0.25212643  0.05340992  1
  Se  Se140  1  0.58430035  0.25539176  0.56060768  1
  Se  Se141  1  0.59129737  0.59634541  0.06018995  1
  Se  Se142  1  0.57607512  0.57565588  0.55097935  1
  Se  Se143  1  0.58107141  0.92664137  0.05746685  1
  Se  Se144  1  0.58503063  0.91216234  0.54969882  1
  Se  Se145  1  0.92297251  0.26078258  0.06312036  1
  Se  Se146  1  0.91765413  0.25017051  0.54898457  1
  Se  Se147  1  0.91537608  0.58212034  0.05236693  1
  Se  Se148  1  0.91686225  0.59788939  0.56184064  1
  Se  Se149  1  0.91816988  0.91712414  0.06735761  1
  Se  Se150  1  0.92933258  0.92546819  0.56456535  1
  Se  Se151  1  0.08834224  0.24717811  0.44600455  1
  Se  Se152  1  0.07974982  0.25678355  0.94217046  1
  Se  Se153  1  0.08518981  0.58378693  0.45022995  1
  Se  Se154  1  0.07836219  0.59159545  0.93789176  1
  Se  Se155  1  0.08728255  0.91217964  0.44961079  1
  Se  Se156  1  0.08684335  0.91016553  0.95244902  1
  Se  Se157  1  0.41098562  0.25463553  0.43346599  1
  Se  Se158  1  0.42181223  0.25347365  0.94764549  1
  Se  Se159  1  0.41779488  0.57836033  0.44695973  1
  Se  Se160  1  0.41518197  0.58992014  0.94394030  1
  Se  Se161  1  0.41958842  0.91410629  0.44925204  1
  Se  Se162  1  0.40241980  0.92565072  0.94057699  1
  Se  Se163  1  0.74779706  0.25128692  0.45429459  1
  Se  Se164  1  0.74020336  0.25634497  0.93824783  1
  Se  Se165  1  0.74463725  0.58362454  0.43654886  1
  Se  Se166  1  0.75373313  0.58012212  0.94090717  1
  Se  Se167  1  0.74920917  0.91894179  0.44019805  1
  Se  Se168  1  0.73383321  0.92479710  0.93846783  1
  Se  Se169  1  0.25214885  0.08512936  0.44563540  1
  Se  Se170  1  0.25094872  0.08012787  0.93431561  1
  Se  Se171  1  0.24812754  0.42049873  0.44507624  1
  Se  Se172  1  0.26087939  0.40997453  0.94392198  1
  Se  Se173  1  0.24952934  0.75096027  0.45018452  1
  Se  Se174  1  0.24811854  0.74348047  0.94773226  1
  Se  Se175  1  0.58895153  0.07545190  0.43742676  1
  Se  Se176  1  0.57386122  0.08997017  0.94364612  1
  Se  Se177  1  0.58482639  0.41158736  0.43924522  1
  Se  Se178  1  0.58574237  0.41769717  0.93670810  1
  Se  Se179  1  0.57922906  0.74902385  0.44946199  1
  Se  Se180  1  0.58809816  0.74742915  0.93828340  1
  Se  Se181  1  0.91546005  0.08309448  0.44941193  1
  Se  Se182  1  0.92580064  0.07442206  0.95161692  1
  Se  Se183  1  0.92253404  0.41092782  0.43508821  1
  Se  Se184  1  0.91250307  0.42095461  0.95229397  1
  Se  Se185  1  0.91902251  0.74554715  0.44150495  1
  Se  Se186  1  0.91930058  0.74054513  0.93852185  1
  Se  Se187  1  0.24972302  0.24789294  0.30064684  1
  Se  Se188  1  0.25581272  0.25273535  0.79903124  1
  Se  Se189  1  0.25129811  0.58872136  0.30989472  1
  Se  Se190  1  0.25494079  0.58415256  0.80140047  1
  Se  Se191  1  0.25454197  0.91667920  0.30894776  1
  Se  Se192  1  0.24104451  0.90832835  0.80888243  1
  Se  Se193  1  0.58469181  0.25022132  0.29942359  1
  Se  Se194  1  0.58571047  0.25628602  0.79833422  1
  Se  Se195  1  0.60242971  0.60690104  0.30925386  1
  Se  Se196  1  0.58599369  0.58727413  0.79843612  1
  Se  Se197  1  0.57768493  0.90859158  0.31313027  1
  Se  Se198  1  0.57542490  0.91681909  0.79781830  1
  Se  Se199  1  0.91057263  0.24389414  0.31657982  1
  Se  Se200  1  0.90922466  0.24250331  0.81129672  1
  Se  Se201  1  0.91867591  0.58503411  0.29917265  1
  Se  Se202  1  0.91805084  0.57997469  0.79969776  1
  Se  Se203  1  0.91904218  0.91418384  0.30277518  1
  Se  Se204  1  0.91013647  0.91366296  0.81732383  1
  Se  Se205  1  0.08404659  0.07629725  0.30960706  1
  Se  Se206  1  0.08955388  0.09010488  0.80069709  1
  Se  Se207  1  0.08965937  0.42323741  0.31390228  1
  Se  Se208  1  0.09324057  0.43000259  0.81011135  1
  Se  Se209  1  0.08326503  0.74782550  0.30823620  1
  Se  Se210  1  0.07426881  0.74446984  0.80096508  1
  Se  Se211  1  0.41417418  0.07880646  0.29718542  1
  Se  Se212  1  0.42329505  0.09188823  0.80689128  1
  Se  Se213  1  0.40300872  0.41167882  0.30003313  1
  Se  Se214  1  0.41840338  0.41968734  0.80235099  1
  Se  Se215  1  0.41415473  0.74701473  0.31006274  1
  Se  Se216  1  0.41341616  0.75044076  0.80171727  1
  Se  Se217  1  0.74867943  0.08706620  0.31471085  1
  Se  Se218  1  0.74480754  0.08136383  0.80136206  1
  Se  Se219  1  0.75046861  0.41245736  0.29737721  1
  Se  Se220  1  0.74990487  0.41384733  0.79958349  1
  Se  Se221  1  0.75119659  0.75159964  0.30009645  1
  Se  Se222  1  0.75197881  0.75012176  0.79537506  1
  Se  Se223  1  0.25211531  0.08529649  0.19547917  1
  Se  Se224  1  0.24983092  0.08715934  0.68595021  1
  Se  Se225  1  0.24725788  0.41561526  0.20349081  1
  Se  Se226  1  0.25207257  0.41622220  0.69326673  1
  Se  Se227  1  0.25319267  0.74809941  0.20264993  1
  Se  Se228  1  0.25392778  0.74634192  0.69794696  1
  Se  Se229  1  0.57686114  0.08383198  0.18790963  1
  Se  Se230  1  0.58530346  0.08239727  0.69567585  1
  Se  Se231  1  0.57260321  0.42824095  0.19589788  1
  Se  Se232  1  0.58504132  0.41819616  0.69553542  1
  Se  Se233  1  0.58739950  0.74954704  0.20206077  1
  Se  Se234  1  0.58129449  0.74791778  0.68999648  1
  Se  Se235  1  0.91914983  0.07639345  0.21370473  1
  Se  Se236  1  0.91106128  0.09551949  0.69031863  1
  Se  Se237  1  0.91596559  0.42084011  0.18822944  1
  Se  Se238  1  0.91441887  0.41980649  0.68505298  1
  Se  Se239  1  0.92218223  0.74544491  0.19498428  1
  Se  Se240  1  0.91825666  0.75996063  0.70277302  1
  Se  Se241  1  0.08625095  0.23897111  0.19340462  1
  Se  Se242  1  0.09015834  0.25196121  0.68639668  1
  Se  Se243  1  0.08471492  0.58694448  0.20141320  1
  Se  Se244  1  0.08216545  0.58674298  0.69416686  1
  Se  Se245  1  0.08775321  0.91514833  0.20162215  1
  Se  Se246  1  0.09840048  0.90910586  0.69569026  1
  Se  Se247  1  0.41654651  0.25029099  0.19558685  1
  Se  Se248  1  0.41552905  0.25600607  0.69700623  1
  Se  Se249  1  0.41527005  0.58708532  0.21284448  1
  Se  Se250  1  0.41572357  0.58496409  0.69335610  1
  Se  Se251  1  0.41557446  0.91254467  0.20029725  1
  Se  Se252  1  0.41755854  0.90964723  0.68262923  1
  Se  Se253  1  0.76638216  0.23549673  0.19830429  1
  Se  Se254  1  0.74514936  0.25477032  0.69452444  1
  Se  Se255  1  0.75144725  0.58354622  0.19351522  1
  Se  Se256  1  0.74898309  0.58277269  0.69627972  1
  Se  Se257  1  0.75734375  0.90777181  0.18647975  1
  Se  Se258  1  0.75772955  0.90832612  0.69578224  1
