# generated using pymatgen
data_In86Cu29Se144
_symmetry_space_group_name_H-M   'P 1'
_cell_length_a   17.58404980
_cell_length_b   17.58718035
_cell_length_c   23.44880103
_cell_angle_alpha   90.00420123
_cell_angle_beta   89.98295925
_cell_angle_gamma   90.00667282
_symmetry_Int_Tables_number   1
_chemical_formula_structural   In86Cu29Se144
_chemical_formula_sum   'In86 Cu29 Se144'
_cell_volume   7251.63172931
_cell_formula_units_Z   1
loop_
 _symmetry_equiv_pos_site_id
 _symmetry_equiv_pos_as_xyz
  1  'x, y, z'
loop_
 _atom_site_type_symbol
 _atom_site_label
 _atom_site_symmetry_multiplicity
 _atom_site_fract_x
 _atom_site_fract_y
 _atom_site_fract_z
 _atom_site_occupancy
  In  In0  1  -0.00184617  0.16654732  0.12620598  1
  In  In1  1  -0.00840074  0.17847877  0.63209954  1
  In  In2  1  -0.00947125  0.51174889  0.13052141  1
  In  In3  1  -0.01231317  0.49497289  0.62544104  1
  In  In4  1  0.00703131  0.82742204  0.12964148  1
  In  In5  1  0.01148937  0.84082774  0.62569900  1
  In  In6  1  0.31389678  0.16597294  0.12192212  1
  In  In7  1  0.34326326  0.16242963  0.62741693  1
  In  In8  1  0.33707168  0.49842111  0.12408410  1
  In  In9  1  0.33491002  0.48702170  0.62434343  1
  In  In10  1  0.33911192  0.84621416  0.11983319  1
  In  In11  1  0.32723239  0.83960550  0.61530205  1
  In  In12  1  0.67520817  0.16571434  0.12413668  1
  In  In13  1  0.67904513  0.15398457  0.63166592  1
  In  In14  1  0.67300442  0.48513727  0.12788743  1
  In  In15  1  0.66763106  0.49929071  0.62675018  1
  In  In16  1  0.67242345  0.84993828  0.12441190  1
  In  In17  1  0.65729425  0.84788765  0.64149930  1
  In  In18  1  0.16541494  -0.00269168  0.37095614  1
  In  In19  1  0.15500522  0.00964028  0.88211305  1
  In  In20  1  0.14614984  0.34103167  0.37160494  1
  In  In21  1  0.13454199  0.29331602  0.84413198  1
  In  In22  1  0.16897926  0.67627672  0.37252377  1
  In  In23  1  0.16971737  0.67604167  0.87808279  1
  In  In24  1  0.49517929  -0.00460545  0.36816009  1
  In  In25  1  0.50168699  -0.01306073  0.87632172  1
  In  In26  1  0.51835559  0.32284130  0.37845339  1
  In  In27  1  0.50603712  0.33605643  0.86590660  1
  In  In28  1  0.49212891  0.67117768  0.38744840  1
  In  In29  1  0.51622651  0.67117307  0.87237085  1
  In  In30  1  0.83742440  0.00809433  0.37194001  1
  In  In31  1  0.84763075  0.01004422  0.86024191  1
  In  In32  1  0.83559312  0.33239839  0.37542354  1
  In  In33  1  0.82819050  0.32638355  0.88168047  1
  In  In34  1  0.83256085  0.65415253  0.37792805  1
  In  In35  1  0.81680627  0.66937654  0.87396887  1
  In  In36  1  -0.00982588  0.15844031  0.36873506  1
  In  In37  1  -0.00747331  0.16124879  0.88086287  1
  In  In38  1  -0.00968338  0.48608946  0.36123705  1
  In  In39  1  -0.00145735  0.48039074  0.87704422  1
  In  In40  1  0.00985928  0.84348553  0.36904147  1
  In  In41  1  0.00103043  0.85447485  0.86991572  1
  In  In42  1  0.34311628  0.16007159  0.37042718  1
  In  In43  1  0.31711069  0.16155227  0.87282038  1
  In  In44  1  0.33217212  0.50899389  0.37967963  1
  In  In45  1  0.34039493  0.49277946  0.87399182  1
  In  In46  1  0.32687655  0.84418487  0.38714267  1
  In  In47  1  0.32886559  0.84365056  0.88398572  1
  In  In48  1  0.67501697  0.17715397  0.36887514  1
  In  In49  1  0.68401444  0.17967804  0.86680079  1
  In  In50  1  0.68068605  0.48970033  0.38617637  1
  In  In51  1  0.67434758  0.50133243  0.87299192  1
  In  In52  1  0.65351444  0.84049570  0.37861872  1
  In  In53  1  0.66922659  0.82668696  0.86601324  1
  In  In54  1  0.16381130  0.00091852  0.12672612  1
  In  In55  1  0.16472570  -0.01020772  0.62988530  1
  In  In56  1  0.16480653  0.32065139  0.12288831  1
  In  In57  1  0.16639659  0.32459883  0.64045052  1
  In  In58  1  0.14793476  0.66809292  0.12383442  1
  In  In59  1  0.15854354  0.68451839  0.62416868  1
  In  In60  1  0.51008513  -0.00503705  0.12796735  1
  In  In61  1  0.51415818  -0.00409267  0.61811127  1
  In  In62  1  0.50584971  0.34317328  0.12670424  1
  In  In63  1  0.49975984  0.33895322  0.62909969  1
  In  In64  1  0.48877144  0.67083681  0.12610716  1
  In  In65  1  0.51152248  0.68041934  0.61783426  1
  In  In66  1  0.82573026  0.01168186  0.13165087  1
  In  In67  1  0.81858725  0.01175527  0.62982851  1
  In  In68  1  0.83189510  0.33519556  0.11885966  1
  In  In69  1  0.82976402  0.33148262  0.62704764  1
  In  In70  1  0.84665510  0.66705127  0.12542255  1
  In  In71  1  0.83364259  0.64819897  0.62078260  1
  In  In72  1  0.50767382  0.15952904  0.50612863  1
  In  In73  1  0.50691426  0.50562176  -0.00794459  1
  In  In74  1  0.16836045  0.15742890  0.49615574  1
  In  In75  1  0.50545616  0.16564387  0.00298688  1
  In  In76  1  0.33561250  0.66791818  0.74071790  1
  In  In77  1  0.66582565  0.66995966  0.26310727  1
  In  In78  1  -0.00505724  0.66635251  0.75135603  1
  In  In79  1  0.32978937  0.00401404  0.74922708  1
  In  In80  1  0.16208411  0.50337666  0.49950324  1
  In  In81  1  0.16907168  0.49382087  0.00057813  1
  In  In82  1  0.82895429  0.83390151  0.50306048  1
  In  In83  1  0.32662074  0.66952474  0.25631860  1
  In  In84  1  0.83550957  0.83673018  -0.00503494  1
  In  In85  1  0.33199195  0.32710929  0.24688474  1
  Cu  Cu86  1  0.00201339  0.67028759  0.50094980  1
  Cu  Cu87  1  0.16147150  0.16336784  0.24815719  1
  Cu  Cu88  1  -0.00012470  0.00209692  0.00326713  1
  Cu  Cu89  1  0.66635743  0.66254721  0.50247659  1
  Cu  Cu90  1  -0.00383030  0.66664909  0.00171747  1
  Cu  Cu91  1  0.50224031  0.83928543  0.24943517  1
  Cu  Cu92  1  0.33530780  0.66749294  0.50155097  1
  Cu  Cu93  1  0.67436853  0.33598339  0.50202763  1
  Cu  Cu94  1  0.50397475  0.16836707  0.74646890  1
  Cu  Cu95  1  0.83028284  0.49645742  0.25175501  1
  Cu  Cu96  1  0.83424019  0.16938882  0.75219246  1
  Cu  Cu97  1  0.16796143  0.49901931  0.74960172  1
  Cu  Cu98  1  0.66871380  -0.00010357  -0.00040179  1
  Cu  Cu99  1  0.33541083  0.33421007  0.50512750  1
  Cu  Cu100  1  0.83671346  0.17471927  0.24740192  1
  Cu  Cu101  1  0.83145048  0.48980564  0.74956148  1
  Cu  Cu102  1  -0.00152212  0.00330188  0.49492113  1
  Cu  Cu103  1  0.32698054  0.00012501  -0.00016252  1
  Cu  Cu104  1  0.32909508  0.32956242  -0.00882105  1
  Cu  Cu105  1  0.16655063  0.83607364  0.24988199  1
  Cu  Cu106  1  -0.00970409  0.33408422  0.50255382  1
  Cu  Cu107  1  0.50781508  0.49812707  0.74966858  1
  Cu  Cu108  1  0.50515744  0.49199583  0.25906585  1
  Cu  Cu109  1  0.66334811  0.66968888  -0.00366897  1
  Cu  Cu110  1  -0.00367263  0.32503372  -0.00165136  1
  Cu  Cu111  1  0.33326620  0.68082579  0.00110615  1
  Cu  Cu112  1  0.50132204  0.83120817  0.74990085  1
  Cu  Cu113  1  0.83925709  0.83892994  0.24875663  1
  Cu  Cu114  1  0.50606707  0.16115717  0.24830080  1
  Se  Se115  1  0.08362744  0.08547345  0.05682566  1
  Se  Se116  1  0.07399021  0.08181019  0.56159568  1
  Se  Se117  1  0.07311937  0.41019029  0.05987325  1
  Se  Se118  1  0.08230899  0.40488245  0.56132030  1
  Se  Se119  1  0.08023165  0.75334225  0.04963225  1
  Se  Se120  1  0.08329572  0.75926196  0.54846987  1
  Se  Se121  1  0.40995552  0.07810030  0.06105983  1
  Se  Se122  1  0.40799725  0.06779415  0.55541866  1
  Se  Se123  1  0.41066945  0.41021263  0.05008505  1
  Se  Se124  1  0.42267963  0.41701698  0.55258826  1
  Se  Se125  1  0.42190021  0.75780028  0.05374950  1
  Se  Se126  1  0.41594317  0.75409558  0.55390792  1
  Se  Se127  1  0.75255682  0.08291237  0.05162595  1
  Se  Se128  1  0.74297313  0.07866187  0.55088955  1
  Se  Se129  1  0.75317822  0.42384535  0.05086344  1
  Se  Se130  1  0.75476626  0.42052236  0.55696923  1
  Se  Se131  1  0.74636357  0.74607780  0.05949741  1
  Se  Se132  1  0.74269604  0.74406990  0.56471853  1
  Se  Se133  1  0.24569041  0.24997333  0.04675176  1
  Se  Se134  1  0.25295960  0.25261630  0.56022300  1
  Se  Se135  1  0.25779584  0.59281624  0.05866462  1
  Se  Se136  1  0.25240054  0.59141332  0.56376338  1
  Se  Se137  1  0.24360364  0.91726681  0.05464104  1
  Se  Se138  1  0.24236689  0.92325593  0.55180355  1
  Se  Se139  1  0.59196942  0.26261320  0.05787576  1
  Se  Se140  1  0.59438886  0.25475216  0.56317809  1
  Se  Se141  1  0.58838025  0.59132434  0.06318553  1
  Se  Se142  1  0.58223083  0.57964212  0.55611568  1
  Se  Se143  1  0.58446819  0.91646921  0.05097058  1
  Se  Se144  1  0.59144108  0.90639339  0.55437793  1
  Se  Se145  1  0.91413149  0.24423706  0.05477623  1
  Se  Se146  1  0.91069105  0.24793821  0.55554406  1
  Se  Se147  1  0.91297628  0.58087658  0.05072719  1
  Se  Se148  1  0.92247960  0.57880713  0.54846571  1
  Se  Se149  1  0.91899491  0.92084744  0.06392498  1
  Se  Se150  1  0.92009226  0.92599173  0.55977233  1
  Se  Se151  1  0.07347645  0.25328787  0.44428415  1
  Se  Se152  1  0.08426515  0.24893743  0.94254947  1
  Se  Se153  1  0.07459834  0.58791688  0.43515634  1
  Se  Se154  1  0.07747079  0.58609759  0.93989657  1
  Se  Se155  1  0.08495828  0.92035203  0.44551394  1
  Se  Se156  1  0.08106610  0.91621590  0.95026202  1
  Se  Se157  1  0.41309829  0.25208518  0.44493358  1
  Se  Se158  1  0.41706801  0.25124391  0.93644958  1
  Se  Se159  1  0.41660643  0.57791437  0.45329778  1
  Se  Se160  1  0.40915003  0.59843136  0.93906694  1
  Se  Se161  1  0.43565943  0.90595891  0.44334349  1
  Se  Se162  1  0.41805633  0.91896876  0.95209029  1
  Se  Se163  1  0.75257684  0.25068476  0.44585146  1
  Se  Se164  1  0.75176746  0.23967443  0.95180911  1
  Se  Se165  1  0.75520460  0.58079385  0.45380727  1
  Se  Se166  1  0.74826500  0.58401517  0.94809803  1
  Se  Se167  1  0.74565122  0.92611635  0.44084027  1
  Se  Se168  1  0.74728978  0.92428577  0.93407600  1
  Se  Se169  1  0.26507630  0.07178280  0.44053563  1
  Se  Se170  1  0.24460752  0.08691512  0.95055635  1
  Se  Se171  1  0.25136287  0.40578944  0.44142286  1
  Se  Se172  1  0.24670711  0.40636006  0.93192355  1
  Se  Se173  1  0.24858193  0.74736142  0.44811061  1
  Se  Se174  1  0.24400082  0.75863686  0.94996631  1
  Se  Se175  1  0.58854715  0.08278124  0.43291772  1
  Se  Se176  1  0.59065934  0.08017059  0.93685470  1
  Se  Se177  1  0.58417708  0.41382691  0.44964561  1
  Se  Se178  1  0.59376751  0.40646751  0.94208740  1
  Se  Se179  1  0.58643370  0.74877045  0.44925163  1
  Se  Se180  1  0.58556008  0.75838125  0.94472351  1
  Se  Se181  1  0.91320407  0.08857503  0.44735604  1
  Se  Se182  1  0.90971655  0.07517587  0.94795875  1
  Se  Se183  1  0.91729595  0.42027652  0.44390313  1
  Se  Se184  1  0.91299899  0.41278776  0.94995778  1
  Se  Se185  1  0.92168101  0.74938049  0.43860878  1
  Se  Se186  1  0.92398894  0.74494273  0.93429228  1
  Se  Se187  1  0.23968393  0.24295637  0.31217809  1
  Se  Se188  1  0.26518394  0.25980030  0.80251734  1
  Se  Se189  1  0.23677391  0.57012043  0.30639823  1
  Se  Se190  1  0.24632691  0.58072587  0.80822006  1
  Se  Se191  1  0.25327207  0.91285341  0.30567447  1
  Se  Se192  1  0.24187919  0.91743416  0.81217874  1
  Se  Se193  1  0.58593436  0.25138518  0.29734293  1
  Se  Se194  1  0.58802559  0.25047015  0.80012112  1
  Se  Se195  1  0.57676840  0.57657759  0.32064269  1
  Se  Se196  1  0.58809469  0.58224054  0.80418522  1
  Se  Se197  1  0.58903911  0.92152996  0.29980773  1
  Se  Se198  1  0.58417376  0.91639831  0.80192362  1
  Se  Se199  1  0.92050350  0.25544752  0.30339398  1
  Se  Se200  1  0.91412360  0.24928315  0.81112217  1
  Se  Se201  1  0.91291437  0.58531976  0.30124737  1
  Se  Se202  1  0.90972425  0.57188330  0.81196476  1
  Se  Se203  1  0.91997534  0.92312988  0.30428445  1
  Se  Se204  1  0.89679186  0.89625738  0.80038770  1
  Se  Se205  1  0.08105588  0.07977903  0.30409631  1
  Se  Se206  1  0.07570055  0.08263593  0.80926995  1
  Se  Se207  1  0.08295584  0.41734684  0.29301466  1
  Se  Se208  1  0.07949525  0.41701394  0.79853754  1
  Se  Se209  1  0.08357641  0.75041464  0.30129445  1
  Se  Se210  1  0.08871589  0.75754206  0.80645894  1
  Se  Se211  1  0.41681230  0.08039867  0.29670020  1
  Se  Se212  1  0.42576603  0.08923288  0.81050900  1
  Se  Se213  1  0.41779751  0.41422557  0.31525282  1
  Se  Se214  1  0.41903004  0.41800456  0.79989125  1
  Se  Se215  1  0.42266888  0.75829357  0.31001711  1
  Se  Se216  1  0.41627089  0.75655935  0.81091758  1
  Se  Se217  1  0.75469271  0.08927835  0.30158319  1
  Se  Se218  1  0.74639808  0.08076807  0.79874090  1
  Se  Se219  1  0.74797066  0.41391288  0.30628107  1
  Se  Se220  1  0.74997570  0.40921000  0.80756910  1
  Se  Se221  1  0.76098032  0.76325447  0.31565008  1
  Se  Se222  1  0.75169892  0.74702184  0.79649153  1
  Se  Se223  1  0.24935068  0.08175483  0.19789541  1
  Se  Se224  1  0.23918416  0.09560940  0.69183304  1
  Se  Se225  1  0.24421486  0.42098615  0.18887214  1
  Se  Se226  1  0.25352390  0.41614149  0.69865256  1
  Se  Se227  1  0.24586869  0.75590971  0.18701536  1
  Se  Se228  1  0.24230488  0.76676251  0.69518392  1
  Se  Se229  1  0.59162166  0.08255070  0.19256619  1
  Se  Se230  1  0.58112904  0.07857081  0.69457651  1
  Se  Se231  1  0.58716618  0.41465276  0.20172351  1
  Se  Se232  1  0.59027714  0.41279722  0.69744425  1
  Se  Se233  1  0.58155575  0.75432527  0.19227862  1
  Se  Se234  1  0.58505820  0.74391566  0.70097322  1
  Se  Se235  1  0.91866129  0.08430458  0.19838542  1
  Se  Se236  1  0.91338640  0.08505508  0.69577722  1
  Se  Se237  1  0.91140494  0.41776216  0.19215770  1
  Se  Se238  1  0.91846958  0.40918163  0.69789140  1
  Se  Se239  1  0.91851626  0.74965552  0.19874712  1
  Se  Se240  1  0.91411175  0.74883473  0.68166140  1
  Se  Se241  1  0.08114800  0.25042907  0.19667600  1
  Se  Se242  1  0.07867736  0.24774273  0.70543759  1
  Se  Se243  1  0.08626389  0.58093182  0.19661100  1
  Se  Se244  1  0.08961714  0.57858064  0.68791628  1
  Se  Se245  1  0.08133829  0.91864218  0.19716203  1
  Se  Se246  1  0.07770308  0.92253497  0.70211324  1
  Se  Se247  1  0.42417510  0.23915080  0.18492237  1
  Se  Se248  1  0.41810563  0.25045672  0.69512108  1
  Se  Se249  1  0.42453365  0.57350059  0.20029977  1
  Se  Se250  1  0.42858573  0.57668610  0.68630523  1
  Se  Se251  1  0.41749596  0.92010572  0.19543184  1
  Se  Se252  1  0.42072114  0.91165486  0.69022198  1
  Se  Se253  1  0.75126358  0.25452669  0.19253519  1
  Se  Se254  1  0.74828657  0.24993067  0.69805458  1
  Se  Se255  1  0.75133806  0.58477104  0.19474850  1
  Se  Se256  1  0.75303765  0.57911207  0.69773975  1
  Se  Se257  1  0.75022022  0.92062644  0.20045312  1
  Se  Se258  1  0.76372852  0.90999135  0.69946475  1
