# generated using pymatgen
data_In86Cu29Se144
_symmetry_space_group_name_H-M   'P 1'
_cell_length_a   17.59024901
_cell_length_b   17.58287591
_cell_length_c   23.45023302
_cell_angle_alpha   90.00839225
_cell_angle_beta   89.98115525
_cell_angle_gamma   89.99651276
_symmetry_Int_Tables_number   1
_chemical_formula_structural   In86Cu29Se144
_chemical_formula_sum   'In86 Cu29 Se144'
_cell_volume   7252.85562007
_cell_formula_units_Z   1
loop_
 _symmetry_equiv_pos_site_id
 _symmetry_equiv_pos_as_xyz
  1  'x, y, z'
loop_
 _atom_site_type_symbol
 _atom_site_label
 _atom_site_symmetry_multiplicity
 _atom_site_fract_x
 _atom_site_fract_y
 _atom_site_fract_z
 _atom_site_occupancy
  In  In0  1  0.00525900  0.16249826  0.12680005  1
  In  In1  1  -0.00205554  0.16580776  0.62402589  1
  In  In2  1  -0.00637678  0.50527579  0.12777657  1
  In  In3  1  -0.01305080  0.49244398  0.62929544  1
  In  In4  1  -0.00139573  0.83074026  0.12705354  1
  In  In5  1  0.00966456  0.85867748  0.62370531  1
  In  In6  1  0.33364081  0.16364684  0.12583194  1
  In  In7  1  0.32979828  0.17388434  0.61648675  1
  In  In8  1  0.33374454  0.48256923  0.12546022  1
  In  In9  1  0.35115288  0.50493613  0.62853477  1
  In  In10  1  0.33041635  0.86281594  0.13230877  1
  In  In11  1  0.33454129  0.82686191  0.62797913  1
  In  In12  1  0.66505247  0.16629615  0.12589005  1
  In  In13  1  0.67437148  0.17384211  0.61372549  1
  In  In14  1  0.66059103  0.49069255  0.11604885  1
  In  In15  1  0.65217297  0.49641442  0.62424878  1
  In  In16  1  0.67204000  0.84317427  0.13000965  1
  In  In17  1  0.68305104  0.85527468  0.59744152  1
  In  In18  1  0.17805274  0.00971936  0.36302755  1
  In  In19  1  0.15351620  0.01010635  0.89218864  1
  In  In20  1  0.15046220  0.31932109  0.36451699  1
  In  In21  1  0.15102736  0.32885225  0.87441796  1
  In  In22  1  0.15701197  0.67664607  0.37048934  1
  In  In23  1  0.17982589  0.66568204  0.87678076  1
  In  In24  1  0.50038761  0.00527636  0.37489434  1
  In  In25  1  0.50657623  0.00942503  0.87374736  1
  In  In26  1  0.50242249  0.33473639  0.38451544  1
  In  In27  1  0.51687191  0.31823848  0.87877851  1
  In  In28  1  0.50124103  0.66061491  0.38214865  1
  In  In29  1  0.48717584  0.66577340  0.87269507  1
  In  In30  1  0.82966158  0.00250925  0.37107056  1
  In  In31  1  0.85259803  0.00278302  0.87445883  1
  In  In32  1  0.82611620  0.28711273  0.37129701  1
  In  In33  1  0.83490930  0.32419085  0.87885957  1
  In  In34  1  0.84407613  0.67575198  0.37041073  1
  In  In35  1  0.82244734  0.66145527  0.87720451  1
  In  In36  1  0.00104063  0.16307169  0.37018404  1
  In  In37  1  -0.00269472  0.16241393  0.88178119  1
  In  In38  1  -0.00940089  0.49549954  0.36525901  1
  In  In39  1  0.00180584  0.47880874  0.87626215  1
  In  In40  1  -0.00859703  0.83677128  0.36633329  1
  In  In41  1  0.00703701  0.85219827  0.87375986  1
  In  In42  1  0.33172728  0.16777604  0.37393623  1
  In  In43  1  0.33631961  0.16167906  0.87954926  1
  In  In44  1  0.34771037  0.49375824  0.37606572  1
  In  In45  1  0.33290571  0.51241676  0.87580960  1
  In  In46  1  0.33670211  0.84393042  0.36805732  1
  In  In47  1  0.33215212  0.82212522  0.87322706  1
  In  In48  1  0.68093554  0.14653942  0.40711303  1
  In  In49  1  0.65810621  0.17840539  0.88060735  1
  In  In50  1  0.65873929  0.48407521  0.37970410  1
  In  In51  1  0.67998712  0.48201825  0.88464812  1
  In  In52  1  0.64415832  0.86933917  0.39654868  1
  In  In53  1  0.66771347  0.83601727  0.87160996  1
  In  In54  1  0.16323823  0.00546041  0.12168658  1
  In  In55  1  0.15097688  -0.00093420  0.62690736  1
  In  In56  1  0.17974528  0.32173967  0.13095076  1
  In  In57  1  0.16330528  0.31936962  0.62517093  1
  In  In58  1  0.14897219  0.66738941  0.12137250  1
  In  In59  1  0.17619688  0.68970157  0.63446763  1
  In  In60  1  0.48578052  0.00976746  0.14209706  1
  In  In61  1  0.51312901  0.01306289  0.60323631  1
  In  In62  1  0.49126395  0.32138990  0.12057598  1
  In  In63  1  0.50567251  0.33343939  0.61681221  1
  In  In64  1  0.50850207  0.66460604  0.12444605  1
  In  In65  1  0.49926496  0.67073056  0.62105011  1
  In  In66  1  0.83269656  0.01298789  0.13428588  1
  In  In67  1  0.84305039  0.01563911  0.61256180  1
  In  In68  1  0.83607141  0.33273841  0.12389338  1
  In  In69  1  0.84256222  0.32008859  0.63073125  1
  In  In70  1  0.84051772  0.66661105  0.12530867  1
  In  In71  1  0.82246434  0.66382148  0.62286358  1
  In  In72  1  0.65448437  0.66464419  0.74224197  1
  In  In73  1  0.82842738  0.49370839  0.49743448  1
  In  In74  1  0.49569303  0.83446394  0.00228571  1
  In  In75  1  0.17000806  0.49483027  0.50630092  1
  In  In76  1  0.83473653  0.83752418  0.00622779  1
  In  In77  1  0.33149034  -0.00377814  0.75236878  1
  In  In78  1  0.33501606  0.33732987  0.74734160  1
  In  In79  1  0.32928958  0.66737688  0.25541651  1
  In  In80  1  0.67262030  0.67608663  0.25147406  1
  In  In81  1  0.16499547  0.49711816  -0.00073174  1
  In  In82  1  0.66764332  0.32067880  0.25721883  1
  In  In83  1  0.67550220  0.01164329  0.73404710  1
  In  In84  1  0.16959804  0.84114559  0.49641444  1
  In  In85  1  0.00192962  0.66332628  0.75181055  1
  Cu  Cu86  1  0.00371605  0.66896691  0.49367019  1
  Cu  Cu87  1  -0.00143589  0.00810638  0.49461493  1
  Cu  Cu88  1  0.33512008  0.66833001  0.00098129  1
  Cu  Cu89  1  0.83137076  0.84553678  0.25029816  1
  Cu  Cu90  1  0.83136231  0.49665206  0.24905694  1
  Cu  Cu91  1  0.33909830  0.66710352  0.50189837  1
  Cu  Cu92  1  0.84466872  0.83197613  0.74637500  1
  Cu  Cu93  1  -0.00676515  0.66857288  0.00084613  1
  Cu  Cu94  1  0.33169104  0.00431401  0.00451556  1
  Cu  Cu95  1  0.15989631  0.83257133  0.24647701  1
  Cu  Cu96  1  0.67070684  0.32903018  0.00237953  1
  Cu  Cu97  1  0.34042510  0.33132635  -0.00035925  1
  Cu  Cu98  1  0.66661425  0.00820715  0.00315331  1
  Cu  Cu99  1  0.32858991  0.33261462  0.49889671  1
  Cu  Cu100  1  0.50177387  0.49949830  0.75081804  1
  Cu  Cu101  1  0.66847849  0.66830239  0.49884692  1
  Cu  Cu102  1  -0.00842594  0.31871739  0.49560030  1
  Cu  Cu103  1  0.15777985  0.16397579  0.75236952  1
  Cu  Cu104  1  -0.00193203  0.32703921  0.00326016  1
  Cu  Cu105  1  0.16760805  0.50230544  0.75534762  1
  Cu  Cu106  1  0.16458325  0.49882870  0.24379823  1
  Cu  Cu107  1  0.16788814  0.16358385  0.24587743  1
  Cu  Cu108  1  0.50316528  0.83830743  0.74093174  1
  Cu  Cu109  1  0.49545739  0.16750104  0.25452830  1
  Cu  Cu110  1  0.66271332  0.65481299  -0.00116532  1
  Cu  Cu111  1  0.49862782  0.49190355  0.25163940  1
  Cu  Cu112  1  0.82989265  0.48125862  0.75548222  1
  Cu  Cu113  1  0.83857105  0.16299953  0.75153481  1
  Cu  Cu114  1  0.33264935  0.00403024  0.49149120  1
  Se  Se115  1  0.09975909  0.10269884  0.05357035  1
  Se  Se116  1  0.08259435  0.08442103  0.55342327  1
  Se  Se117  1  0.08063285  0.40882491  0.06309198  1
  Se  Se118  1  0.06661449  0.40510616  0.55621916  1
  Se  Se119  1  0.07732821  0.75371124  0.05015680  1
  Se  Se120  1  0.08059426  0.74764869  0.55765263  1
  Se  Se121  1  0.42140309  0.08100638  0.05810698  1
  Se  Se122  1  0.41028581  0.08972394  0.54820821  1
  Se  Se123  1  0.42135459  0.41734288  0.05181796  1
  Se  Se124  1  0.41075074  0.41508046  0.55460486  1
  Se  Se125  1  0.40631690  0.74947017  0.06696294  1
  Se  Se126  1  0.41719126  0.75613096  0.55325631  1
  Se  Se127  1  0.75205683  0.08556426  0.05791784  1
  Se  Se128  1  0.73031679  0.06351937  0.55329661  1
  Se  Se129  1  0.75420990  0.41476990  0.05320224  1
  Se  Se130  1  0.74837546  0.40974431  0.56640119  1
  Se  Se131  1  0.73757753  0.74164125  0.05882836  1
  Se  Se132  1  0.75960676  0.74796508  0.54645659  1
  Se  Se133  1  0.25639899  0.24997874  0.05375613  1
  Se  Se134  1  0.24050912  0.24971936  0.54785270  1
  Se  Se135  1  0.25483445  0.58660420  0.06201392  1
  Se  Se136  1  0.25429956  0.59555928  0.56382331  1
  Se  Se137  1  0.24731409  0.91772528  0.05272975  1
  Se  Se138  1  0.25778690  0.92780202  0.56026546  1
  Se  Se139  1  0.58420505  0.24729292  0.05511369  1
  Se  Se140  1  0.57967801  0.24645281  0.54866662  1
  Se  Se141  1  0.57526143  0.57703456  0.05170161  1
  Se  Se142  1  0.58511659  0.58765577  0.55439414  1
  Se  Se143  1  0.58581468  0.92479231  0.06023328  1
  Se  Se144  1  0.56925524  0.90523303  0.54185180  1
  Se  Se145  1  0.91678606  0.24461823  0.05840641  1
  Se  Se146  1  0.90852538  0.23907440  0.55203128  1
  Se  Se147  1  0.91342777  0.58193237  0.05260108  1
  Se  Se148  1  0.92368473  0.58819274  0.55446904  1
  Se  Se149  1  0.92122104  0.92961283  0.06243213  1
  Se  Se150  1  0.92149138  0.91978762  0.54935869  1
  Se  Se151  1  0.08357260  0.24299020  0.44446465  1
  Se  Se152  1  0.08432427  0.24683428  0.94995767  1
  Se  Se153  1  0.08022228  0.58124458  0.43987369  1
  Se  Se154  1  0.07375657  0.58802065  0.93827785  1
  Se  Se155  1  0.07994471  0.92670357  0.43425743  1
  Se  Se156  1  0.08090363  0.91270861  0.95538120  1
  Se  Se157  1  0.41174868  0.24949273  0.44573686  1
  Se  Se158  1  0.42076127  0.24670936  0.94468911  1
  Se  Se159  1  0.41733163  0.57841476  0.45022100  1
  Se  Se160  1  0.41788499  0.58415431  0.94942618  1
  Se  Se161  1  0.41475228  0.91652107  0.44265470  1
  Se  Se162  1  0.41012664  0.92592637  0.93890612  1
  Se  Se163  1  0.72879245  0.27370006  0.45083751  1
  Se  Se164  1  0.75331653  0.24314829  0.95021058  1
  Se  Se165  1  0.74558351  0.58909127  0.43476028  1
  Se  Se166  1  0.75416014  0.57666563  0.95043042  1
  Se  Se167  1  0.76905161  0.90787889  0.44377557  1
  Se  Se168  1  0.74290381  0.92443977  0.94193480  1
  Se  Se169  1  0.24441974  0.08596814  0.44312287  1
  Se  Se170  1  0.25058995  0.08989642  0.95135592  1
  Se  Se171  1  0.24811656  0.40934479  0.43615358  1
  Se  Se172  1  0.25605992  0.40746090  0.93776483  1
  Se  Se173  1  0.25834084  0.74312953  0.43903308  1
  Se  Se174  1  0.25075030  0.75141992  0.94994646  1
  Se  Se175  1  0.56306090  0.08974423  0.45354576  1
  Se  Se176  1  0.58058289  0.08683221  0.94836146  1
  Se  Se177  1  0.57070157  0.42794202  0.45456894  1
  Se  Se178  1  0.58349346  0.41160514  0.94966850  1
  Se  Se179  1  0.58375970  0.74908002  0.44548422  1
  Se  Se180  1  0.58917555  0.74344436  0.93997034  1
  Se  Se181  1  0.91305679  0.08803029  0.44095311  1
  Se  Se182  1  0.91589577  0.08100849  0.95206687  1
  Se  Se183  1  0.91598548  0.40424792  0.43610171  1
  Se  Se184  1  0.91586774  0.41143379  0.94914975  1
  Se  Se185  1  0.92178268  0.75504550  0.44393881  1
  Se  Se186  1  0.91686658  0.74855450  0.93670223  1
  Se  Se187  1  0.24928314  0.24842109  0.30150811  1
  Se  Se188  1  0.24503279  0.24419811  0.80785167  1
  Se  Se189  1  0.24041168  0.57270411  0.31337741  1
  Se  Se190  1  0.25433250  0.58716529  0.80067849  1
  Se  Se191  1  0.24852630  0.91279379  0.29701879  1
  Se  Se192  1  0.24322615  0.92000434  0.82060911  1
  Se  Se193  1  0.57865425  0.23634911  0.31942676  1
  Se  Se194  1  0.58835478  0.24771886  0.79959502  1
  Se  Se195  1  0.58222388  0.57500055  0.30606652  1
  Se  Se196  1  0.58377054  0.57482587  0.81507564  1
  Se  Se197  1  0.58690955  0.92583866  0.30635336  1
  Se  Se198  1  0.58427909  0.91806328  0.80026501  1
  Se  Se199  1  0.93593370  0.26470293  0.30416632  1
  Se  Se200  1  0.91988407  0.24546204  0.80869502  1
  Se  Se201  1  0.91326588  0.58623676  0.29898093  1
  Se  Se202  1  0.90833172  0.57172726  0.80998599  1
  Se  Se203  1  0.91940447  0.92900389  0.29889429  1
  Se  Se204  1  0.92181242  0.91961464  0.79874597  1
  Se  Se205  1  0.08238956  0.08112870  0.29836496  1
  Se  Se206  1  0.08179052  0.08093378  0.81075252  1
  Se  Se207  1  0.08100090  0.41807468  0.30009945  1
  Se  Se208  1  0.08294409  0.41291367  0.79850685  1
  Se  Se209  1  0.07496126  0.74990296  0.29863841  1
  Se  Se210  1  0.08924754  0.75233116  0.81202668  1
  Se  Se211  1  0.41068734  0.08119541  0.30468139  1
  Se  Se212  1  0.42580555  0.09376570  0.80254202  1
  Se  Se213  1  0.42030763  0.40673640  0.30584027  1
  Se  Se214  1  0.42246562  0.42101519  0.81388572  1
  Se  Se215  1  0.42905307  0.75125410  0.30886448  1
  Se  Se216  1  0.42435425  0.75777432  0.80016871  1
  Se  Se217  1  0.74842704  0.10302915  0.31608673  1
  Se  Se218  1  0.75467671  0.08579026  0.81182248  1
  Se  Se219  1  0.75991752  0.41584340  0.31369834  1
  Se  Se220  1  0.74525384  0.40032683  0.80743930  1
  Se  Se221  1  0.75249035  0.76800765  0.31394252  1
  Se  Se222  1  0.75633877  0.75475408  0.80047507  1
  Se  Se223  1  0.25247993  0.07838484  0.19422451  1
  Se  Se224  1  0.24380970  0.09133663  0.69110262  1
  Se  Se225  1  0.25379166  0.41300249  0.20086649  1
  Se  Se226  1  0.24262138  0.42606541  0.68618914  1
  Se  Se227  1  0.24342607  0.75194671  0.18743289  1
  Se  Se228  1  0.25780952  0.75995673  0.70697005  1
  Se  Se229  1  0.58338566  0.08983700  0.19938160  1
  Se  Se230  1  0.57421605  0.09640193  0.68501862  1
  Se  Se231  1  0.58034643  0.41215223  0.19278520  1
  Se  Se232  1  0.57799229  0.41279139  0.69602662  1
  Se  Se233  1  0.57505769  0.76106460  0.19369285  1
  Se  Se234  1  0.59054173  0.76873957  0.67908496  1
  Se  Se235  1  0.92921696  0.08022931  0.20010218  1
  Se  Se236  1  0.91883241  0.07971051  0.69455741  1
  Se  Se237  1  0.91562681  0.41615360  0.19458338  1
  Se  Se238  1  0.91969492  0.40615294  0.70201167  1
  Se  Se239  1  0.90866280  0.75524331  0.19667994  1
  Se  Se240  1  0.91824656  0.74995813  0.68364066  1
  Se  Se241  1  0.08453314  0.25179173  0.19664419  1
  Se  Se242  1  0.07781463  0.24880995  0.69711454  1
  Se  Se243  1  0.07987754  0.58573372  0.19654363  1
  Se  Se244  1  0.09172716  0.57727884  0.68591979  1
  Se  Se245  1  0.08296957  0.91799469  0.19065263  1
  Se  Se246  1  0.09752448  0.90687715  0.70234488  1
  Se  Se247  1  0.41382722  0.24919324  0.19718048  1
  Se  Se248  1  0.42039355  0.24542548  0.68870399  1
  Se  Se249  1  0.42060122  0.57650306  0.19319304  1
  Se  Se250  1  0.42545451  0.59086892  0.69899010  1
  Se  Se251  1  0.42595312  0.90715707  0.20634580  1
  Se  Se252  1  0.42772745  0.92480245  0.68313933  1
  Se  Se253  1  0.76146408  0.24004304  0.19532977  1
  Se  Se254  1  0.75182090  0.23980562  0.69513223  1
  Se  Se255  1  0.74910950  0.57392733  0.18903645  1
  Se  Se256  1  0.75560050  0.56794120  0.69529069  1
  Se  Se257  1  0.74518925  0.92807929  0.19999065  1
  Se  Se258  1  0.76460191  0.91078978  0.68439337  1
