# generated using pymatgen
data_In86Cu29Se144
_symmetry_space_group_name_H-M   'P 1'
_cell_length_a   17.56672656
_cell_length_b   17.57343893
_cell_length_c   23.43057732
_cell_angle_alpha   89.99959205
_cell_angle_beta   90.00854636
_cell_angle_gamma   90.00778627
_symmetry_Int_Tables_number   1
_chemical_formula_structural   In86Cu29Se144
_chemical_formula_sum   'In86 Cu29 Se144'
_cell_volume   7233.20174433
_cell_formula_units_Z   1
loop_
 _symmetry_equiv_pos_site_id
 _symmetry_equiv_pos_as_xyz
  1  'x, y, z'
loop_
 _atom_site_type_symbol
 _atom_site_label
 _atom_site_symmetry_multiplicity
 _atom_site_fract_x
 _atom_site_fract_y
 _atom_site_fract_z
 _atom_site_occupancy
  In  In0  1  0.00021218  0.16973861  0.12608225  1
  In  In1  1  0.01759188  0.17280312  0.62962915  1
  In  In2  1  0.00795264  0.51081330  0.11721766  1
  In  In3  1  -0.00270146  0.50437619  0.63366012  1
  In  In4  1  -0.00932628  0.81839087  0.11703866  1
  In  In5  1  -0.01285305  0.82558060  0.62947114  1
  In  In6  1  0.34111644  0.14976404  0.13739381  1
  In  In7  1  0.34867199  0.16441415  0.62136894  1
  In  In8  1  0.33603019  0.49655276  0.12844188  1
  In  In9  1  0.33811109  0.49831480  0.62123004  1
  In  In10  1  0.32935193  0.83435484  0.12905085  1
  In  In11  1  0.35390648  0.84091766  0.61682269  1
  In  In12  1  0.65518634  0.18116981  0.13682683  1
  In  In13  1  0.63265337  0.16380056  0.60985675  1
  In  In14  1  0.66371043  0.49654880  0.12401855  1
  In  In15  1  0.66128990  0.48060522  0.60662752  1
  In  In16  1  0.67333746  0.82496206  0.13444245  1
  In  In17  1  0.65673485  0.84236503  0.62077196  1
  In  In18  1  0.18176942  0.00519313  0.36613682  1
  In  In19  1  0.17142840  -0.01469390  0.87647975  1
  In  In20  1  0.19633233  0.33426408  0.36693537  1
  In  In21  1  0.17754575  0.34374550  0.87226054  1
  In  In22  1  0.17255141  0.67241368  0.36164476  1
  In  In23  1  0.16177876  0.67391017  0.88143748  1
  In  In24  1  0.49922212  -0.00277483  0.38167534  1
  In  In25  1  0.50747370  0.00952270  0.86922888  1
  In  In26  1  0.49718640  0.33434862  0.37832272  1
  In  In27  1  0.48416979  0.34405063  0.87997691  1
  In  In28  1  0.49936519  0.66086807  0.37519031  1
  In  In29  1  0.48821141  0.65787776  0.87731621  1
  In  In30  1  0.81606608  0.00302802  0.37538274  1
  In  In31  1  0.81853519  0.00253553  0.87645762  1
  In  In32  1  0.82912378  0.35189850  0.38084930  1
  In  In33  1  0.84138922  0.33776541  0.87234263  1
  In  In34  1  0.81920220  0.65404298  0.36249230  1
  In  In35  1  0.84036254  0.65526961  0.88435771  1
  In  In36  1  0.00176085  0.17009148  0.38001461  1
  In  In37  1  -0.00925474  0.17385410  0.87039885  1
  In  In38  1  -0.01266944  0.50251226  0.37290714  1
  In  In39  1  -0.00024193  0.50284996  0.87597230  1
  In  In40  1  0.01284795  0.82304042  0.37253995  1
  In  In41  1  0.00676550  0.82121951  0.87961189  1
  In  In42  1  0.35278360  0.17245199  0.37114876  1
  In  In43  1  0.34417965  0.17763479  0.87068239  1
  In  In44  1  0.34849747  0.50581674  0.37303700  1
  In  In45  1  0.34207431  0.48625102  0.88443852  1
  In  In46  1  0.34750361  0.83662249  0.37264723  1
  In  In47  1  0.32133146  0.83248926  0.87366835  1
  In  In48  1  0.63985957  0.15441847  0.37215718  1
  In  In49  1  0.66190919  0.15322898  0.87119418  1
  In  In50  1  0.65896007  0.49717397  0.37562289  1
  In  In51  1  0.66142242  0.50291887  0.88272998  1
  In  In52  1  0.65893581  0.82885155  0.36949554  1
  In  In53  1  0.66304303  0.84882136  0.87854349  1
  In  In54  1  0.18737296  -0.00488555  0.12592087  1
  In  In55  1  0.17658612  0.01353970  0.62552255  1
  In  In56  1  0.16468059  0.34437954  0.12596864  1
  In  In57  1  0.17520352  0.33187883  0.63580137  1
  In  In58  1  0.16764451  0.66223448  0.12600114  1
  In  In59  1  0.16043776  0.65831585  0.62856288  1
  In  In60  1  0.49348739  0.00556141  0.13290067  1
  In  In61  1  0.49995464  0.00390829  0.62170665  1
  In  In62  1  0.49955533  0.33102766  0.12656900  1
  In  In63  1  0.49391650  0.33405760  0.60924826  1
  In  In64  1  0.51209089  0.65297204  0.13623980  1
  In  In65  1  0.49304886  0.66989448  0.60889269  1
  In  In66  1  0.83193437  -0.01126453  0.12552810  1
  In  In67  1  0.82107745  -0.00495880  0.62691661  1
  In  In68  1  0.81537858  0.33138793  0.12631872  1
  In  In69  1  0.82966214  0.34590859  0.62669197  1
  In  In70  1  0.83014777  0.66485725  0.12482527  1
  In  In71  1  0.84174171  0.66045927  0.63054544  1
  In  In72  1  0.32792614  0.66805797  0.74645374  1
  In  In73  1  0.81973578  0.17815483  0.50920812  1
  In  In74  1  0.66709083  0.66357236  0.75405742  1
  In  In75  1  0.17023276  0.16564689  0.00167514  1
  In  In76  1  0.82157902  0.82863458  0.48861060  1
  In  In77  1  0.00063286  0.33768436  0.24517738  1
  In  In78  1  0.17842989  0.50396590  0.49457227  1
  In  In79  1  0.66056661  0.32711308  0.73714731  1
  In  In80  1  0.00452624  0.00165737  0.75702260  1
  In  In81  1  0.82731648  0.16684203  -0.00508779  1
  In  In82  1  0.49946901  0.82686591  0.00364596  1
  In  In83  1  -0.00302387  -0.00589273  0.24955716  1
  In  In84  1  0.18005835  0.17086155  0.49324806  1
  In  In85  1  0.17640976  0.83634808  0.49794712  1
  Cu  Cu86  1  -0.00449911  0.65994332  0.50197472  1
  Cu  Cu87  1  0.83059821  0.16604729  0.75020253  1
  Cu  Cu88  1  0.33577710  0.33213093  0.00405641  1
  Cu  Cu89  1  0.82933018  0.83016654  0.74969212  1
  Cu  Cu90  1  0.49639796  0.83460801  0.25307101  1
  Cu  Cu91  1  0.82428849  0.17013775  0.25754913  1
  Cu  Cu92  1  0.17220664  0.49816374  0.24674322  1
  Cu  Cu93  1  0.66842215  0.66533117  0.00833219  1
  Cu  Cu94  1  -0.00184077  0.34232835  -0.00350122  1
  Cu  Cu95  1  0.16864980  0.83541115  0.75172260  1
  Cu  Cu96  1  0.50004185  0.49273176  0.25228597  1
  Cu  Cu97  1  0.34097381  -0.00164525  0.00459633  1
  Cu  Cu98  1  0.17798310  0.17608101  0.75052527  1
  Cu  Cu99  1  0.49983997  0.16479381  0.25465112  1
  Cu  Cu100  1  0.50180625  0.84144346  0.74551069  1
  Cu  Cu101  1  -0.00066082  0.66597726  0.00120652  1
  Cu  Cu102  1  0.67300421  0.66347479  0.49274283  1
  Cu  Cu103  1  0.32950011  0.65874840  0.00366810  1
  Cu  Cu104  1  -0.00590650  -0.00155704  0.49717110  1
  Cu  Cu105  1  0.82797230  0.50559639  0.24837421  1
  Cu  Cu106  1  0.83239320  0.49900310  0.75160436  1
  Cu  Cu107  1  0.49676908  0.16793442  0.74567982  1
  Cu  Cu108  1  0.82924981  0.83157123  0.24744853  1
  Cu  Cu109  1  0.16608115  0.82694270  0.24603598  1
  Cu  Cu110  1  0.65986947  0.33431701  0.00386899  1
  Cu  Cu111  1  0.00380937  -0.01189909  0.00108588  1
  Cu  Cu112  1  0.00859360  0.34325693  0.50280597  1
  Cu  Cu113  1  0.66262569  0.00191182  0.00229442  1
  Cu  Cu114  1  0.16501921  0.50146872  0.75442513  1
  Se  Se115  1  0.07790243  0.07240253  0.06121789  1
  Se  Se116  1  0.07845998  0.07986724  0.55200681  1
  Se  Se117  1  0.08536412  0.41856380  0.05149209  1
  Se  Se118  1  0.08989082  0.41943208  0.56348184  1
  Se  Se119  1  0.08799688  0.74622246  0.05379899  1
  Se  Se120  1  0.07525616  0.74732229  0.55605343  1
  Se  Se121  1  0.42001152  0.08519859  0.05657270  1
  Se  Se122  1  0.44375727  0.10494151  0.54816976  1
  Se  Se123  1  0.41937014  0.41652582  0.05715100  1
  Se  Se124  1  0.42471422  0.43493937  0.54608428  1
  Se  Se125  1  0.41346639  0.73649133  0.06494824  1
  Se  Se126  1  0.41587690  0.75639498  0.54127013  1
  Se  Se127  1  0.74290513  0.08382188  0.06349647  1
  Se  Se128  1  0.73386277  0.07196687  0.55573375  1
  Se  Se129  1  0.74884293  0.41636138  0.05191840  1
  Se  Se130  1  0.76118132  0.41180972  0.54411507  1
  Se  Se131  1  0.75039392  0.75426211  0.05610301  1
  Se  Se132  1  0.74656102  0.74115701  0.56179191  1
  Se  Se133  1  0.25710910  0.25126854  0.06555964  1
  Se  Se134  1  0.26033324  0.26100620  0.55904576  1
  Se  Se135  1  0.24822300  0.57497322  0.05836427  1
  Se  Se136  1  0.25857682  0.60011187  0.55720596  1
  Se  Se137  1  0.25499604  0.91139344  0.05037676  1
  Se  Se138  1  0.26152209  0.93396826  0.55479712  1
  Se  Se139  1  0.58085841  0.24603861  0.05504149  1
  Se  Se140  1  0.61665383  0.28872744  0.55629777  1
  Se  Se141  1  0.58031653  0.58069756  0.05435454  1
  Se  Se142  1  0.58990021  0.58745735  0.55214497  1
  Se  Se143  1  0.58634380  0.91916320  0.06420251  1
  Se  Se144  1  0.56294469  0.90515830  0.55262122  1
  Se  Se145  1  0.92045265  0.25720469  0.05582342  1
  Se  Se146  1  0.93161169  0.25671831  0.56034396  1
  Se  Se147  1  0.91232943  0.58368433  0.05301371  1
  Se  Se148  1  0.91607893  0.57747940  0.55741222  1
  Se  Se149  1  0.91284514  0.91307751  0.05322850  1
  Se  Se150  1  0.91533966  0.91738162  0.55528795  1
  Se  Se151  1  0.08594494  0.26767449  0.43893504  1
  Se  Se152  1  0.07723513  0.25476164  0.94099610  1
  Se  Se153  1  0.08070888  0.59127173  0.43737353  1
  Se  Se154  1  0.08296265  0.58325172  0.94651651  1
  Se  Se155  1  0.08051939  0.92693349  0.43765368  1
  Se  Se156  1  0.08852445  0.90877153  0.94656295  1
  Se  Se157  1  0.42426659  0.24358535  0.44952706  1
  Se  Se158  1  0.41847101  0.24812200  0.95028014  1
  Se  Se159  1  0.42605884  0.57571029  0.44951221  1
  Se  Se160  1  0.41754723  0.57813607  0.95254122  1
  Se  Se161  1  0.42429203  0.90505481  0.45033064  1
  Se  Se162  1  0.41641259  0.91849482  0.93901988  1
  Se  Se163  1  0.74255306  0.24757546  0.43049496  1
  Se  Se164  1  0.73748587  0.25884828  0.93572086  1
  Se  Se165  1  0.75418620  0.57677700  0.44196704  1
  Se  Se166  1  0.74820294  0.58077658  0.95060942  1
  Se  Se167  1  0.72731223  0.92772826  0.44568809  1
  Se  Se168  1  0.74950181  0.91902899  0.95216510  1
  Se  Se169  1  0.26768217  0.07319206  0.44158780  1
  Se  Se170  1  0.26049275  0.07691803  0.94050985  1
  Se  Se171  1  0.27026048  0.40738690  0.44563940  1
  Se  Se172  1  0.24856210  0.41507786  0.95317300  1
  Se  Se173  1  0.25749904  0.74144576  0.43802031  1
  Se  Se174  1  0.25421835  0.74878121  0.94920715  1
  Se  Se175  1  0.56188387  0.09424077  0.45479767  1
  Se  Se176  1  0.58032178  0.08484457  0.94842582  1
  Se  Se177  1  0.56684400  0.43022462  0.44595362  1
  Se  Se178  1  0.57795180  0.41665231  0.94731953  1
  Se  Se179  1  0.58639968  0.74539376  0.44236216  1
  Se  Se180  1  0.59048281  0.73946155  0.93989731  1
  Se  Se181  1  0.91205517  0.08317691  0.44391519  1
  Se  Se182  1  0.92685034  0.07345451  0.94183774  1
  Se  Se183  1  0.92053233  0.42185123  0.45089388  1
  Se  Se184  1  0.91076998  0.42281974  0.94540335  1
  Se  Se185  1  0.91992280  0.73857233  0.43663768  1
  Se  Se186  1  0.91462742  0.75102664  0.94878548  1
  Se  Se187  1  0.24726827  0.22834958  0.30457925  1
  Se  Se188  1  0.25969250  0.26061735  0.80406862  1
  Se  Se189  1  0.25500821  0.57814083  0.30378882  1
  Se  Se190  1  0.24739382  0.58062883  0.81491796  1
  Se  Se191  1  0.24898930  0.90519036  0.30419617  1
  Se  Se192  1  0.25499237  0.92046782  0.79880197  1
  Se  Se193  1  0.58011991  0.25514778  0.30458173  1
  Se  Se194  1  0.57574003  0.24678237  0.80909472  1
  Se  Se195  1  0.58261651  0.58114096  0.30311739  1
  Se  Se196  1  0.57058992  0.57245765  0.80682622  1
  Se  Se197  1  0.57942028  0.92002912  0.30563093  1
  Se  Se198  1  0.58650277  0.92070890  0.80145112  1
  Se  Se199  1  0.91168311  0.24998781  0.31186866  1
  Se  Se200  1  0.91341573  0.25337418  0.79813169  1
  Se  Se201  1  0.91933663  0.58561398  0.29720296  1
  Se  Se202  1  0.91429446  0.58360422  0.80518281  1
  Se  Se203  1  0.90710787  0.90729025  0.31449993  1
  Se  Se204  1  0.90970292  0.91143293  0.81199189  1
  Se  Se205  1  0.08346553  0.09074923  0.30681462  1
  Se  Se206  1  0.09871034  0.09496098  0.81291139  1
  Se  Se207  1  0.09156825  0.42173982  0.31171571  1
  Se  Se208  1  0.08163669  0.41684663  0.80755193  1
  Se  Se209  1  0.07751828  0.74356613  0.29413407  1
  Se  Se210  1  0.08659451  0.74999015  0.80283899  1
  Se  Se211  1  0.41994614  0.07390334  0.30495259  1
  Se  Se212  1  0.41573078  0.08459441  0.80243765  1
  Se  Se213  1  0.41313630  0.40971386  0.30337187  1
  Se  Se214  1  0.41088993  0.41796303  0.80264453  1
  Se  Se215  1  0.41694354  0.74374730  0.30362550  1
  Se  Se216  1  0.42376873  0.75911470  0.80639503  1
  Se  Se217  1  0.73877788  0.08383985  0.30517626  1
  Se  Se218  1  0.74727823  0.07945018  0.79875698  1
  Se  Se219  1  0.74923973  0.42081501  0.30430532  1
  Se  Se220  1  0.74469715  0.41888555  0.80644727  1
  Se  Se221  1  0.74397784  0.74905891  0.30008407  1
  Se  Se222  1  0.75314602  0.75440591  0.81637496  1
  Se  Se223  1  0.24626842  0.07798119  0.20299804  1
  Se  Se224  1  0.25802700  0.09261769  0.69430261  1
  Se  Se225  1  0.25445187  0.41021801  0.19845510  1
  Se  Se226  1  0.25261011  0.42881503  0.69595809  1
  Se  Se227  1  0.25248097  0.74334108  0.19552945  1
  Se  Se228  1  0.24556453  0.76311884  0.68291809  1
  Se  Se229  1  0.58459379  0.08191352  0.19982804  1
  Se  Se230  1  0.58329031  0.08491362  0.69443815  1
  Se  Se231  1  0.58452073  0.41307152  0.19515432  1
  Se  Se232  1  0.57256580  0.42611232  0.68738810  1
  Se  Se233  1  0.58178394  0.75080625  0.20092522  1
  Se  Se234  1  0.57572247  0.74978392  0.69072459  1
  Se  Se235  1  0.90489283  0.09350073  0.19437763  1
  Se  Se236  1  0.91478908  0.08592886  0.68900669  1
  Se  Se237  1  0.90821984  0.42493742  0.18599494  1
  Se  Se238  1  0.91682935  0.41431624  0.69952127  1
  Se  Se239  1  0.91352248  0.74852790  0.19513342  1
  Se  Se240  1  0.91641524  0.74415157  0.70414684  1
  Se  Se241  1  0.09384903  0.24127760  0.19397572  1
  Se  Se242  1  0.08499229  0.25641312  0.70438005  1
  Se  Se243  1  0.08378277  0.57960893  0.19670329  1
  Se  Se244  1  0.08055093  0.58685260  0.70326059  1
  Se  Se245  1  0.08539415  0.90800161  0.18575396  1
  Se  Se246  1  0.08833081  0.91440398  0.68715912  1
  Se  Se247  1  0.41857828  0.24712326  0.19737121  1
  Se  Se248  1  0.42330950  0.25674822  0.68868494  1
  Se  Se249  1  0.41642838  0.57890881  0.20007858  1
  Se  Se250  1  0.42532485  0.58566337  0.68951726  1
  Se  Se251  1  0.41248635  0.91648025  0.19762604  1
  Se  Se252  1  0.41627558  0.92451972  0.69470451  1
  Se  Se253  1  0.74470177  0.25750807  0.20522534  1
  Se  Se254  1  0.75312288  0.23551123  0.68110198  1
  Se  Se255  1  0.74286617  0.58499740  0.19270526  1
  Se  Se256  1  0.74690426  0.57009920  0.68874120  1
  Se  Se257  1  0.74705117  0.92176009  0.20034987  1
  Se  Se258  1  0.74457815  0.91001837  0.69613153  1
