# generated using pymatgen
data_In86Cu29Se144
_symmetry_space_group_name_H-M   'P 1'
_cell_length_a   17.57402587
_cell_length_b   17.57292838
_cell_length_c   23.42473005
_cell_angle_alpha   89.96192000
_cell_angle_beta   90.00007535
_cell_angle_gamma   90.00399170
_symmetry_Int_Tables_number   1
_chemical_formula_structural   In86Cu29Se144
_chemical_formula_sum   'In86 Cu29 Se144'
_cell_volume   7234.18978797
_cell_formula_units_Z   1
loop_
 _symmetry_equiv_pos_site_id
 _symmetry_equiv_pos_as_xyz
  1  'x, y, z'
loop_
 _atom_site_type_symbol
 _atom_site_label
 _atom_site_symmetry_multiplicity
 _atom_site_fract_x
 _atom_site_fract_y
 _atom_site_fract_z
 _atom_site_occupancy
  In  In0  1  0.00838650  0.16178984  0.13509238  1
  In  In1  1  -0.01418133  0.16131046  0.61392775  1
  In  In2  1  -0.00104287  0.49771235  0.12436724  1
  In  In3  1  0.00866235  0.48967152  0.62160402  1
  In  In4  1  0.00214166  0.84374598  0.12610229  1
  In  In5  1  -0.00444181  0.84992269  0.62457332  1
  In  In6  1  0.34160767  0.16918236  0.12205598  1
  In  In7  1  0.35623708  0.19359469  0.60450566  1
  In  In8  1  0.36074706  0.53043560  0.09179958  1
  In  In9  1  0.33546917  0.48981875  0.61926249  1
  In  In10  1  0.35100285  0.81135837  0.14858308  1
  In  In11  1  0.34941521  0.82079696  0.62643335  1
  In  In12  1  0.65892885  0.17713708  0.12233699  1
  In  In13  1  0.67206845  0.16662405  0.62937437  1
  In  In14  1  0.66741559  0.51701035  0.10835540  1
  In  In15  1  0.65063099  0.51679415  0.63849224  1
  In  In16  1  0.64484012  0.80535797  0.09921203  1
  In  In17  1  0.66735069  0.83341298  0.62262241  1
  In  In18  1  0.16539484  0.01410678  0.37474330  1
  In  In19  1  0.16686609  0.00974789  0.86599704  1
  In  In20  1  0.16806193  0.34007658  0.37880744  1
  In  In21  1  0.17802508  0.33726298  0.87190404  1
  In  In22  1  0.16927736  0.65278964  0.37257707  1
  In  In23  1  0.17121745  0.64850721  0.88230864  1
  In  In24  1  0.50931952  -0.00557271  0.39180430  1
  In  In25  1  0.51063623  -0.00993953  0.87997333  1
  In  In26  1  0.49105390  0.33608427  0.39410585  1
  In  In27  1  0.49937875  0.32480396  0.86859289  1
  In  In28  1  0.49716636  0.66931129  0.36354094  1
  In  In29  1  0.52893806  0.63904574  0.90883926  1
  In  In30  1  0.83039068  -0.00594623  0.38283576  1
  In  In31  1  0.82360336  -0.00711429  0.86426638  1
  In  In32  1  0.82919384  0.32201317  0.37546356  1
  In  In33  1  0.82644100  0.34616874  0.87524782  1
  In  In34  1  0.83268859  0.68378832  0.37480504  1
  In  In35  1  0.80628773  0.68473638  0.90068792  1
  In  In36  1  -0.00226567  0.16753798  0.37344128  1
  In  In37  1  0.01234223  0.15901613  0.86713001  1
  In  In38  1  0.01901431  0.50209127  0.37055315  1
  In  In39  1  -0.01006773  0.49642398  0.88541040  1
  In  In40  1  -0.02073744  0.83474758  0.37401647  1
  In  In41  1  -0.01233087  0.83381188  0.87463255  1
  In  In42  1  0.33405871  0.17050140  0.39550879  1
  In  In43  1  0.33530266  0.18430284  0.86609870  1
  In  In44  1  0.33091252  0.50140666  0.37547445  1
  In  In45  1  0.36841837  0.46578363  0.91504395  1
  In  In46  1  0.34565163  0.82862442  0.36536118  1
  In  In47  1  0.34947742  0.82535733  0.88279529  1
  In  In48  1  0.66642793  0.15840226  0.39764881  1
  In  In49  1  0.65465986  0.15722167  0.86061236  1
  In  In50  1  0.65053379  0.50416619  0.37350752  1
  In  In51  1  0.66845193  0.49972254  0.87069013  1
  In  In52  1  0.66971750  0.83019182  0.37840869  1
  In  In53  1  0.66327634  0.83101842  0.87571129  1
  In  In54  1  0.15950101  -0.01499832  0.13459035  1
  In  In55  1  0.15408631  0.00487231  0.62613782  1
  In  In56  1  0.16510467  0.33436187  0.12800032  1
  In  In57  1  0.18008756  0.34041512  0.61219831  1
  In  In58  1  0.20132925  0.66629221  0.12828141  1
  In  In59  1  0.18312229  0.66075563  0.62120268  1
  In  In60  1  0.50211327  0.00359838  0.11942328  1
  In  In61  1  0.52793915  0.01479223  0.60570016  1
  In  In62  1  0.49320821  0.34311984  0.11185908  1
  In  In63  1  0.49947967  0.34125422  0.62990844  1
  In  In64  1  0.50305916  0.66916098  0.12148460  1
  In  In65  1  0.50950613  0.67548883  0.61809285  1
  In  In66  1  0.84460547  -0.00775052  0.12748531  1
  In  In67  1  0.82805185  0.00226985  0.62283307  1
  In  In68  1  0.83248794  0.34986507  0.12768467  1
  In  In69  1  0.83405350  0.32183784  0.62433857  1
  In  In70  1  0.82067782  0.66271577  0.11668879  1
  In  In71  1  0.81452236  0.66613433  0.62610426  1
  In  In72  1  0.33163631  0.33853767  0.24931238  1
  In  In73  1  0.00086172  0.67124066  0.25010824  1
  In  In74  1  0.16558454  0.83123814  0.49876029  1
  In  In75  1  -0.00670547  0.32709125  0.74609385  1
  In  In76  1  0.66233734  0.33465254  0.25367914  1
  In  In77  1  0.67113171  -0.00692699  0.25698706  1
  In  In78  1  0.82976561  0.16594793  -0.00181056  1
  In  In79  1  0.17212774  0.17183351  0.00409651  1
  In  In80  1  0.34340782  0.66031495  0.76202475  1
  In  In81  1  0.33099596  0.00294404  0.25316252  1
  In  In82  1  0.83536795  0.49686650  0.50447461  1
  In  In83  1  0.16838167  0.83587261  0.01366419  1
  In  In84  1  0.33547153  0.00227204  0.74245165  1
  In  In85  1  -0.00343443  0.66728388  0.75968375  1
  Cu  Cu86  1  -0.00381144  0.66160997  0.00483600  1
  Cu  Cu87  1  -0.00801029  0.00347952  0.49913398  1
  Cu  Cu88  1  0.00086328  0.66808353  0.49425389  1
  Cu  Cu89  1  0.82586571  0.50634463  0.75493451  1
  Cu  Cu90  1  0.16699676  0.49471280  0.74622651  1
  Cu  Cu91  1  -0.00390437  0.33098663  0.00469346  1
  Cu  Cu92  1  0.50117708  0.50557180  0.24251549  1
  Cu  Cu93  1  0.84132891  0.16671827  0.25355651  1
  Cu  Cu94  1  0.65690208  0.33389174  -0.00428451  1
  Cu  Cu95  1  0.66367501  0.33527825  0.50884089  1
  Cu  Cu96  1  0.16485315  0.16720989  0.73965674  1
  Cu  Cu97  1  0.49938506  0.16567198  0.74079093  1
  Cu  Cu98  1  0.50174158  0.16559949  0.26182855  1
  Cu  Cu99  1  0.17597429  0.49841564  0.24814801  1
  Cu  Cu100  1  0.83314000  0.50541127  0.24315989  1
  Cu  Cu101  1  0.66471421  0.66768173  0.49857129  1
  Cu  Cu102  1  0.49299284  0.50267668  0.76003862  1
  Cu  Cu103  1  0.33803320  0.00412260  0.00161167  1
  Cu  Cu104  1  0.16121649  0.17096692  0.25402411  1
  Cu  Cu105  1  0.16742535  0.83575348  0.75194681  1
  Cu  Cu106  1  -0.00358199  -0.00625374  -0.00177522  1
  Cu  Cu107  1  0.34016523  0.65522919  0.49623047  1
  Cu  Cu108  1  0.67193977  -0.00085254  -0.00748121  1
  Cu  Cu109  1  0.32714650  -0.01060786  0.49774966  1
  Cu  Cu110  1  0.51429706  0.83363655  0.74855435  1
  Cu  Cu111  1  0.83029176  0.83382671  0.75208120  1
  Cu  Cu112  1  0.83273301  0.16094891  0.74344980  1
  Cu  Cu113  1  0.82444734  0.83589704  0.24921696  1
  Cu  Cu114  1  0.00743558  0.33362103  0.49653737  1
  Se  Se115  1  0.07962094  0.07232515  0.05744613  1
  Se  Se116  1  0.08039360  0.08309924  0.55036649  1
  Se  Se117  1  0.08148927  0.41211947  0.05709674  1
  Se  Se118  1  0.08942931  0.42138264  0.54620540  1
  Se  Se119  1  0.07786531  0.73828879  0.06700813  1
  Se  Se120  1  0.07753140  0.74302698  0.56378027  1
  Se  Se121  1  0.42248377  0.09037799  0.05150147  1
  Se  Se122  1  0.40563540  0.06810226  0.55900903  1
  Se  Se123  1  0.41545481  0.41653797  0.03536939  1
  Se  Se124  1  0.42284346  0.41495672  0.55225689  1
  Se  Se125  1  0.40460878  0.74812732  0.06040536  1
  Se  Se126  1  0.41829929  0.74596240  0.54715211  1
  Se  Se127  1  0.74349803  0.07617923  0.06215332  1
  Se  Se128  1  0.75879435  0.09721257  0.55630799  1
  Se  Se129  1  0.74235643  0.41030252  0.05384381  1
  Se  Se130  1  0.74124747  0.41938453  0.56945533  1
  Se  Se131  1  0.75507373  0.74857951  0.04126356  1
  Se  Se132  1  0.75026815  0.75018252  0.55034604  1
  Se  Se133  1  0.26423168  0.26534530  0.05686753  1
  Se  Se134  1  0.23673575  0.23493654  0.54952549  1
  Se  Se135  1  0.23277533  0.57308699  0.04838270  1
  Se  Se136  1  0.25328624  0.57600004  0.54951127  1
  Se  Se137  1  0.26421703  0.92619912  0.06744059  1
  Se  Se138  1  0.25350021  0.91291525  0.56658734  1
  Se  Se139  1  0.57588411  0.24988427  0.05057685  1
  Se  Se140  1  0.58435200  0.25251101  0.56515879  1
  Se  Se141  1  0.56709325  0.58029497  0.04427581  1
  Se  Se142  1  0.58448019  0.58099936  0.55196120  1
  Se  Se143  1  0.58441169  0.92345498  0.04973235  1
  Se  Se144  1  0.56741882  0.89295056  0.55390338  1
  Se  Se145  1  0.91974713  0.24829683  0.06512799  1
  Se  Se146  1  0.91553109  0.25654917  0.54652449  1
  Se  Se147  1  0.91249925  0.57710601  0.05663936  1
  Se  Se148  1  0.92457479  0.59207324  0.56317733  1
  Se  Se149  1  0.91452426  0.91031690  0.05097020  1
  Se  Se150  1  0.91024940  0.91736468  0.55117674  1
  Se  Se151  1  0.08580463  0.24801065  0.44115634  1
  Se  Se152  1  0.07527304  0.25428977  0.94105632  1
  Se  Se153  1  0.08688981  0.58223205  0.44848811  1
  Se  Se154  1  0.07725521  0.57929860  0.94964089  1
  Se  Se155  1  0.07378654  0.92148560  0.43971492  1
  Se  Se156  1  0.08625046  0.92152490  0.93930426  1
  Se  Se157  1  0.42846905  0.23876445  0.46116528  1
  Se  Se158  1  0.41525348  0.24914016  0.94196819  1
  Se  Se159  1  0.42501309  0.58093605  0.43709482  1
  Se  Se160  1  0.39172668  0.60776635  0.93759911  1
  Se  Se161  1  0.41078713  0.90807692  0.44461066  1
  Se  Se162  1  0.42019665  0.91816091  0.94990674  1
  Se  Se163  1  0.74940380  0.25635925  0.45377129  1
  Se  Se164  1  0.73857650  0.25154121  0.93667941  1
  Se  Se165  1  0.74928782  0.58669054  0.43998882  1
  Se  Se166  1  0.75807388  0.56234178  0.94619945  1
  Se  Se167  1  0.72614696  0.93398621  0.44417367  1
  Se  Se168  1  0.75492138  0.91478748  0.94182484  1
  Se  Se169  1  0.24424248  0.08001323  0.45292985  1
  Se  Se170  1  0.25743194  0.08052644  0.93906611  1
  Se  Se171  1  0.27314114  0.39842719  0.44083781  1
  Se  Se172  1  0.23332433  0.42455294  0.94759134  1
  Se  Se173  1  0.25689947  0.74122609  0.44023343  1
  Se  Se174  1  0.24891248  0.74870305  0.94506462  1
  Se  Se175  1  0.57036284  0.08938302  0.46156758  1
  Se  Se176  1  0.58717476  0.08627748  0.94363223  1
  Se  Se177  1  0.58773524  0.41962696  0.45041011  1
  Se  Se178  1  0.58010234  0.41471551  0.93589619  1
  Se  Se179  1  0.58070642  0.74320593  0.43905544  1
  Se  Se180  1  0.57878996  0.76356120  0.95186467  1
  Se  Se181  1  0.91221850  0.08820139  0.44340367  1
  Se  Se182  1  0.92261726  0.07819209  0.93709915  1
  Se  Se183  1  0.92484316  0.41535874  0.43655664  1
  Se  Se184  1  0.90845215  0.41110248  0.95311451  1
  Se  Se185  1  0.91223750  0.75408117  0.45203544  1
  Se  Se186  1  0.92145604  0.75098942  0.95043758  1
  Se  Se187  1  0.25320404  0.23957243  0.31117585  1
  Se  Se188  1  0.24325588  0.25179564  0.79570432  1
  Se  Se189  1  0.25766782  0.58382610  0.30023899  1
  Se  Se190  1  0.24831275  0.56633026  0.81028838  1
  Se  Se191  1  0.24026860  0.91290586  0.31166544  1
  Se  Se192  1  0.25515020  0.90853014  0.81160460  1
  Se  Se193  1  0.58034899  0.24684092  0.32140751  1
  Se  Se194  1  0.58282526  0.25115633  0.79403801  1
  Se  Se195  1  0.58655201  0.58648176  0.29608412  1
  Se  Se196  1  0.57718153  0.58853963  0.81114747  1
  Se  Se197  1  0.57083730  0.90944017  0.31044011  1
  Se  Se198  1  0.59187427  0.92132084  0.80306114  1
  Se  Se199  1  0.91993614  0.25707649  0.30347615  1
  Se  Se200  1  0.90571806  0.23962370  0.81173767  1
  Se  Se201  1  0.91074500  0.57969407  0.31144001  1
  Se  Se202  1  0.90348118  0.58269767  0.81857086  1
  Se  Se203  1  0.90528257  0.92091161  0.30310211  1
  Se  Se204  1  0.91998590  0.91762697  0.79945587  1
  Se  Se205  1  0.07803663  0.08288801  0.30209319  1
  Se  Se206  1  0.08355232  0.07985759  0.79075307  1
  Se  Se207  1  0.09192090  0.41476038  0.30017401  1
  Se  Se208  1  0.07821790  0.42165584  0.80650442  1
  Se  Se209  1  0.08526560  0.75647959  0.31662463  1
  Se  Se210  1  0.09552317  0.75415287  0.81652996  1
  Se  Se211  1  0.41932877  0.08717043  0.31963386  1
  Se  Se212  1  0.42402419  0.08656362  0.80799307  1
  Se  Se213  1  0.43242933  0.41920709  0.30698397  1
  Se  Se214  1  0.40850821  0.42039695  0.81324227  1
  Se  Se215  1  0.40694246  0.73998328  0.29220312  1
  Se  Se216  1  0.43840485  0.75380701  0.81128115  1
  Se  Se217  1  0.75113596  0.09667994  0.31312327  1
  Se  Se218  1  0.74641780  0.07911638  0.79615722  1
  Se  Se219  1  0.75643447  0.42724783  0.31006025  1
  Se  Se220  1  0.74458188  0.41224414  0.79834234  1
  Se  Se221  1  0.74423766  0.74995034  0.30200546  1
  Se  Se222  1  0.75286168  0.74895847  0.80938074  1
  Se  Se223  1  0.24214529  0.09522495  0.18954354  1
  Se  Se224  1  0.25233862  0.09416436  0.68039448  1
  Se  Se225  1  0.25792260  0.43007689  0.18170132  1
  Se  Se226  1  0.25094013  0.41438242  0.69229482  1
  Se  Se227  1  0.22261000  0.77942213  0.19469453  1
  Se  Se228  1  0.24880473  0.75236570  0.69751660  1
  Se  Se229  1  0.58089108  0.09056316  0.19737067  1
  Se  Se230  1  0.58616447  0.07853432  0.69493986  1
  Se  Se231  1  0.58057300  0.42126729  0.18456596  1
  Se  Se232  1  0.57808920  0.42216223  0.70400002  1
  Se  Se233  1  0.58858016  0.74883225  0.19034535  1
  Se  Se234  1  0.59123345  0.74437925  0.69450054  1
  Se  Se235  1  0.91717116  0.08023946  0.19779135  1
  Se  Se236  1  0.91943759  0.08020159  0.69211044  1
  Se  Se237  1  0.92086914  0.41855852  0.19982369  1
  Se  Se238  1  0.90574727  0.42913704  0.69183815  1
  Se  Se239  1  0.90490392  0.75351819  0.18875171  1
  Se  Se240  1  0.91222217  0.75316672  0.69094448  1
  Se  Se241  1  0.08215673  0.25671753  0.19953594  1
  Se  Se242  1  0.08328389  0.24826178  0.68011857  1
  Se  Se243  1  0.09351858  0.58297447  0.19054226  1
  Se  Se244  1  0.08850526  0.58210346  0.69258670  1
  Se  Se245  1  0.06893783  0.91979243  0.20490662  1
  Se  Se246  1  0.08399582  0.91596679  0.69848380  1
  Se  Se247  1  0.43112867  0.24700132  0.19478564  1
  Se  Se248  1  0.41266278  0.25363140  0.69596587  1
  Se  Se249  1  0.41413529  0.58180819  0.18679699  1
  Se  Se250  1  0.42378560  0.58018280  0.68784162  1
  Se  Se251  1  0.43259249  0.91968062  0.19838653  1
  Se  Se252  1  0.43215861  0.91236979  0.68931753  1
  Se  Se253  1  0.75749887  0.24443965  0.19344967  1
  Se  Se254  1  0.75117998  0.25418093  0.69980988  1
  Se  Se255  1  0.74466095  0.58199094  0.19072964  1
  Se  Se256  1  0.74288265  0.59314473  0.70497816  1
  Se  Se257  1  0.74489879  0.90802018  0.18334998  1
  Se  Se258  1  0.75076421  0.91454836  0.69292092  1
