# generated using pymatgen
data_In86Cu29Se144
_symmetry_space_group_name_H-M   'P 1'
_cell_length_a   17.58416654
_cell_length_b   17.58319349
_cell_length_c   23.44229959
_cell_angle_alpha   90.00912817
_cell_angle_beta   90.01347225
_cell_angle_gamma   90.00634843
_symmetry_Int_Tables_number   1
_chemical_formula_structural   In86Cu29Se144
_chemical_formula_sum   'In86 Cu29 Se144'
_cell_volume   7248.02587689
_cell_formula_units_Z   1
loop_
 _symmetry_equiv_pos_site_id
 _symmetry_equiv_pos_as_xyz
  1  'x, y, z'
loop_
 _atom_site_type_symbol
 _atom_site_label
 _atom_site_symmetry_multiplicity
 _atom_site_fract_x
 _atom_site_fract_y
 _atom_site_fract_z
 _atom_site_occupancy
  In  In0  1  -0.01239841  0.17049908  0.12644003  1
  In  In1  1  0.01435718  0.17269462  0.61097681  1
  In  In2  1  0.01238201  0.50498157  0.12436960  1
  In  In3  1  -0.00259490  0.50439675  0.61682264  1
  In  In4  1  0.00087899  0.83248391  0.13264598  1
  In  In5  1  0.00097079  0.81803000  0.62022542  1
  In  In6  1  0.33227623  0.16924646  0.12281227  1
  In  In7  1  0.32955151  0.17796886  0.63746959  1
  In  In8  1  0.32499428  0.51656535  0.12501286  1
  In  In9  1  0.33072514  0.50260670  0.62616015  1
  In  In10  1  0.32622757  0.82389992  0.11300621  1
  In  In11  1  0.33320613  0.83287349  0.62869365  1
  In  In12  1  0.65282049  0.14360711  0.12591939  1
  In  In13  1  0.66873998  0.15625111  0.63223871  1
  In  In14  1  0.68073455  0.49565816  0.12798021  1
  In  In15  1  0.65598842  0.49817566  0.61111949  1
  In  In16  1  0.66848860  0.83369568  0.12932526  1
  In  In17  1  0.67249859  0.84562810  0.62456183  1
  In  In18  1  0.15045701  0.00317947  0.39750327  1
  In  In19  1  0.16933233  -0.01610936  0.87089305  1
  In  In20  1  0.15441364  0.34335988  0.38561267  1
  In  In21  1  0.17488694  0.34630147  0.86214555  1
  In  In22  1  0.14986106  0.68449363  0.39426761  1
  In  In23  1  0.16290969  0.66251054  0.86862952  1
  In  In24  1  0.49639203  -0.00931380  0.37382099  1
  In  In25  1  0.49231082  -0.01116437  0.86410758  1
  In  In26  1  0.51246071  0.34311040  0.37805524  1
  In  In27  1  0.49368326  0.32378403  0.85388072  1
  In  In28  1  0.51442329  0.65843364  0.39479302  1
  In  In29  1  0.50129227  0.68400176  0.87405431  1
  In  In30  1  0.84069850  0.00591657  0.37438458  1
  In  In31  1  0.82667606  -0.00762197  0.87501512  1
  In  In32  1  0.83181985  0.32994015  0.38556635  1
  In  In33  1  0.83143307  0.33072104  0.86068381  1
  In  In34  1  0.82508711  0.66100091  0.36998049  1
  In  In35  1  0.84743093  0.66778548  0.87325428  1
  In  In36  1  0.00232841  0.15570386  0.39097164  1
  In  In37  1  -0.01304457  0.17029519  0.86975070  1
  In  In38  1  -0.01885499  0.52332167  0.39678117  1
  In  In39  1  0.01276031  0.51792278  0.85820009  1
  In  In40  1  0.00573182  0.84148307  0.37109208  1
  In  In41  1  0.01941788  0.81338297  0.89160909  1
  In  In42  1  0.32602464  0.15474836  0.38197403  1
  In  In43  1  0.33747226  0.16744025  0.85909891  1
  In  In44  1  0.33573948  0.50010682  0.38229610  1
  In  In45  1  0.32182353  0.49482278  0.86202846  1
  In  In46  1  0.33562841  0.83441767  0.38286610  1
  In  In47  1  0.33310159  0.82907050  0.86671872  1
  In  In48  1  0.67488971  0.16926003  0.37536082  1
  In  In49  1  0.64153224  0.14369022  0.84044609  1
  In  In50  1  0.65818895  0.52108596  0.40247593  1
  In  In51  1  0.67504692  0.49045177  0.87050617  1
  In  In52  1  0.65685910  0.82423182  0.37141131  1
  In  In53  1  0.66111219  0.83627957  0.88292615  1
  In  In54  1  0.17232487  -0.01877007  0.12811380  1
  In  In55  1  0.16801474  0.01054427  0.61663039  1
  In  In56  1  0.15357744  0.34657899  0.12169317  1
  In  In57  1  0.16689554  0.33533054  0.62691075  1
  In  In58  1  0.16285210  0.66680635  0.11961049  1
  In  In59  1  0.16346997  0.67200813  0.61955470  1
  In  In60  1  0.51642812  -0.00457082  0.13368478  1
  In  In61  1  0.51100143  -0.00147916  0.63490805  1
  In  In62  1  0.50503126  0.32756599  0.12400095  1
  In  In63  1  0.48904869  0.34003078  0.63661024  1
  In  In64  1  0.49283466  0.67696713  0.12542474  1
  In  In65  1  0.49416363  0.65462712  0.61082310  1
  In  In66  1  0.84631848  -0.01490125  0.14141741  1
  In  In67  1  0.82231146  -0.00212451  0.62465652  1
  In  In68  1  0.83157724  0.33568377  0.12360460  1
  In  In69  1  0.83685627  0.33457542  0.62304414  1
  In  In70  1  0.82786034  0.67305020  0.13613599  1
  In  In71  1  0.84758249  0.66694711  0.61766692  1
  In  In72  1  0.49442936  0.17192718  0.50794616  1
  In  In73  1  0.66582186  0.66414686  0.74492332  1
  In  In74  1  -0.00148709  0.33275702  0.24892017  1
  In  In75  1  -0.00267608  -0.00304735  0.74951975  1
  In  In76  1  0.33785320  0.66307553  0.25187076  1
  In  In77  1  0.49504431  0.15581306  -0.01172405  1
  In  In78  1  0.33766595  0.33171811  0.25901694  1
  In  In79  1  0.84160465  0.50869543  -0.00061100  1
  In  In80  1  0.49471857  0.50223065  0.00144529  1
  In  In81  1  0.16508201  0.15984645  -0.00820439  1
  In  In82  1  0.67269256  0.33278444  0.25267701  1
  In  In83  1  0.33387396  -0.00572115  0.25666084  1
  In  In84  1  0.82970139  0.16891191  -0.00181310  1
  In  In85  1  0.83095240  0.83594934  0.49923140  1
  Cu  Cu86  1  0.16824636  0.50874011  0.25365447  1
  Cu  Cu87  1  0.66089510  0.00243313  0.50391093  1
  Cu  Cu88  1  0.16281111  0.50383604  0.73946998  1
  Cu  Cu89  1  0.33285437  0.33295159  0.50950642  1
  Cu  Cu90  1  0.16164196  0.15694021  0.26151036  1
  Cu  Cu91  1  0.83903121  0.17084639  0.74443168  1
  Cu  Cu92  1  0.66762362  0.33485911  0.50425901  1
  Cu  Cu93  1  0.66849308  0.67271208  0.00498206  1
  Cu  Cu94  1  0.83132292  0.83367582  0.25626578  1
  Cu  Cu95  1  0.83674976  0.49804675  0.74261052  1
  Cu  Cu96  1  0.33390939  0.66706341  0.50478666  1
  Cu  Cu97  1  0.32941011  -0.00117649  0.50697394  1
  Cu  Cu98  1  0.66440487  0.32408562  -0.01609928  1
  Cu  Cu99  1  0.16460990  0.16725671  0.74302698  1
  Cu  Cu100  1  0.34088528  -0.01088289  -0.00663517  1
  Cu  Cu101  1  0.00076960  -0.00712399  0.00903382  1
  Cu  Cu102  1  0.00531207  0.32815871  0.50651968  1
  Cu  Cu103  1  0.83489898  0.15951621  0.25390847  1
  Cu  Cu104  1  0.50003046  0.83033423  0.74692637  1
  Cu  Cu105  1  0.49910705  0.50414366  0.74277892  1
  Cu  Cu106  1  0.83421301  0.83372608  0.74870758  1
  Cu  Cu107  1  0.16086700  0.83398775  0.25567623  1
  Cu  Cu108  1  0.66902654  -0.01097279  0.00193418  1
  Cu  Cu109  1  0.00793529  0.34962176  -0.01205009  1
  Cu  Cu110  1  0.32238573  0.34328231  -0.00811394  1
  Cu  Cu111  1  0.83025482  0.50744255  0.26080448  1
  Cu  Cu112  1  0.50309674  0.83161172  0.25022089  1
  Cu  Cu113  1  0.32644364  0.66706623  -0.00863492  1
  Cu  Cu114  1  0.16778805  0.82998327  0.74882213  1
  Se  Se115  1  0.07902852  0.08106324  0.06426622  1
  Se  Se116  1  0.07563540  0.07302970  0.54522797  1
  Se  Se117  1  0.08741925  0.42999811  0.04607877  1
  Se  Se118  1  0.08733623  0.41669806  0.55503746  1
  Se  Se119  1  0.09994890  0.77358612  0.06283927  1
  Se  Se120  1  0.08000528  0.74653435  0.54521541  1
  Se  Se121  1  0.41202331  0.07170751  0.05971316  1
  Se  Se122  1  0.41020300  0.07886196  0.56819743  1
  Se  Se123  1  0.40486292  0.40823159  0.06142370  1
  Se  Se124  1  0.41754638  0.41761660  0.55909479  1
  Se  Se125  1  0.41390255  0.74350248  0.04698067  1
  Se  Se126  1  0.41596618  0.75554134  0.55494620  1
  Se  Se127  1  0.75007398  0.07133322  0.06049265  1
  Se  Se128  1  0.74705570  0.08494839  0.55399194  1
  Se  Se129  1  0.74221854  0.40538702  0.04646828  1
  Se  Se130  1  0.75458697  0.41831347  0.55328342  1
  Se  Se131  1  0.75234467  0.75106717  0.06041816  1
  Se  Se132  1  0.74238751  0.74475525  0.55912971  1
  Se  Se133  1  0.24908621  0.25911945  0.05447773  1
  Se  Se134  1  0.25046617  0.24737387  0.55976303  1
  Se  Se135  1  0.24643657  0.58486241  0.04884824  1
  Se  Se136  1  0.24897588  0.58300071  0.55533255  1
  Se  Se137  1  0.24939848  0.91613090  0.04776825  1
  Se  Se138  1  0.24799050  0.91254894  0.55818352  1
  Se  Se139  1  0.59000796  0.24541014  0.05066802  1
  Se  Se140  1  0.58719828  0.25762993  0.56743256  1
  Se  Se141  1  0.59201076  0.58515924  0.06200192  1
  Se  Se142  1  0.59259916  0.59430576  0.54329933  1
  Se  Se143  1  0.58172364  0.91258356  0.05739615  1
  Se  Se144  1  0.57952644  0.91815594  0.55648831  1
  Se  Se145  1  0.92795954  0.26838419  0.04950829  1
  Se  Se146  1  0.91294301  0.24687801  0.55217122  1
  Se  Se147  1  0.92419536  0.59703366  0.06388247  1
  Se  Se148  1  0.91911143  0.58609258  0.54374553  1
  Se  Se149  1  0.91487027  0.91299855  0.06099361  1
  Se  Se150  1  0.92126838  0.92212784  0.56144901  1
  Se  Se151  1  0.08884264  0.24531286  0.45155527  1
  Se  Se152  1  0.07988909  0.25654252  0.93359322  1
  Se  Se153  1  0.10950521  0.55890297  0.44187350  1
  Se  Se154  1  0.07157925  0.59321039  0.93986455  1
  Se  Se155  1  0.09014961  0.89337618  0.45361416  1
  Se  Se156  1  0.08751105  0.92076777  0.94925513  1
  Se  Se157  1  0.40948006  0.25947814  0.43982387  1
  Se  Se158  1  0.40698644  0.26037962  0.93748403  1
  Se  Se159  1  0.41637365  0.57982975  0.45351276  1
  Se  Se160  1  0.41038803  0.58627832  0.93339712  1
  Se  Se161  1  0.41515496  0.92291752  0.44989074  1
  Se  Se162  1  0.42087206  0.90703587  0.93854026  1
  Se  Se163  1  0.74645071  0.24675620  0.45204743  1
  Se  Se164  1  0.74265027  0.24227396  0.92638408  1
  Se  Se165  1  0.77820354  0.57160231  0.45148079  1
  Se  Se166  1  0.74076783  0.59159493  0.94005385  1
  Se  Se167  1  0.73891151  0.92430189  0.43858260  1
  Se  Se168  1  0.75621667  0.90959716  0.94951525  1
  Se  Se169  1  0.24604652  0.08536112  0.45699278  1
  Se  Se170  1  0.26534837  0.07649231  0.93502784  1
  Se  Se171  1  0.25479567  0.41286388  0.44799928  1
  Se  Se172  1  0.24092517  0.42777114  0.94090381  1
  Se  Se173  1  0.25372176  0.75362405  0.45236967  1
  Se  Se174  1  0.24692196  0.75015633  0.93576770  1
  Se  Se175  1  0.58117420  0.08375749  0.44297008  1
  Se  Se176  1  0.59514397  0.06974246  0.93558623  1
  Se  Se177  1  0.57871516  0.41886904  0.45735171  1
  Se  Se178  1  0.57761729  0.40952269  0.93528045  1
  Se  Se179  1  0.57360836  0.76852699  0.45172160  1
  Se  Se180  1  0.58044933  0.75153862  0.95222747  1
  Se  Se181  1  0.90204603  0.08854697  0.45295532  1
  Se  Se182  1  0.92523657  0.07362864  0.94525034  1
  Se  Se183  1  0.92225152  0.40848001  0.44999234  1
  Se  Se184  1  0.91806825  0.41937142  0.92951505  1
  Se  Se185  1  0.91532740  0.75049145  0.43390663  1
  Se  Se186  1  0.90719184  0.75532762  0.94746614  1
  Se  Se187  1  0.23955658  0.24472402  0.31484514  1
  Se  Se188  1  0.24873151  0.25113491  0.79733105  1
  Se  Se189  1  0.24492594  0.58588724  0.31680146  1
  Se  Se190  1  0.24596197  0.58581929  0.79565152  1
  Se  Se191  1  0.23832215  0.91409115  0.31771699  1
  Se  Se192  1  0.25374177  0.91679278  0.79645277  1
  Se  Se193  1  0.57541195  0.24393684  0.30873806  1
  Se  Se194  1  0.60890848  0.27367243  0.79914785  1
  Se  Se195  1  0.58618923  0.58127889  0.31879846  1
  Se  Se196  1  0.57648506  0.57699250  0.81085154  1
  Se  Se197  1  0.58285346  0.91810519  0.30302988  1
  Se  Se198  1  0.58711907  0.90765658  0.80308513  1
  Se  Se199  1  0.91387185  0.24356636  0.31277366  1
  Se  Se200  1  0.92405633  0.25577029  0.79379028  1
  Se  Se201  1  0.92442271  0.58608504  0.30653045  1
  Se  Se202  1  0.91318804  0.58854949  0.79475215  1
  Se  Se203  1  0.91722003  0.92009431  0.30421805  1
  Se  Se204  1  0.91884675  0.90361064  0.81410014  1
  Se  Se205  1  0.08024180  0.07706978  0.31626541  1
  Se  Se206  1  0.09044406  0.08923074  0.81054973  1
  Se  Se207  1  0.08298127  0.42589654  0.30825546  1
  Se  Se208  1  0.08156995  0.41811509  0.79484819  1
  Se  Se209  1  0.08246708  0.74465470  0.30675692  1
  Se  Se210  1  0.07962352  0.75214903  0.80222720  1
  Se  Se211  1  0.42203424  0.09356798  0.30919747  1
  Se  Se212  1  0.43840174  0.09651007  0.80133615  1
  Se  Se213  1  0.42890181  0.42911682  0.30732772  1
  Se  Se214  1  0.41403460  0.41989855  0.79538095  1
  Se  Se215  1  0.42375621  0.75384837  0.31282908  1
  Se  Se216  1  0.41621516  0.74482916  0.79712203  1
  Se  Se217  1  0.74757770  0.08034661  0.30616647  1
  Se  Se218  1  0.76424660  0.08186827  0.80026070  1
  Se  Se219  1  0.75297665  0.42237715  0.31790517  1
  Se  Se220  1  0.74935657  0.41704929  0.79383069  1
  Se  Se221  1  0.74439131  0.74720644  0.30317030  1
  Se  Se222  1  0.75137243  0.75347522  0.80890647  1
  Se  Se223  1  0.24504137  0.08857888  0.19477023  1
  Se  Se224  1  0.24699522  0.07953784  0.69493759  1
  Se  Se225  1  0.24437930  0.42194630  0.19523304  1
  Se  Se226  1  0.25144730  0.41659333  0.69586035  1
  Se  Se227  1  0.24684240  0.75787350  0.19569585  1
  Se  Se228  1  0.24855381  0.74589405  0.69409855  1
  Se  Se229  1  0.57736441  0.08463854  0.20729996  1
  Se  Se230  1  0.58660055  0.08358504  0.70582015  1
  Se  Se231  1  0.57842805  0.42086009  0.19142216  1
  Se  Se232  1  0.58726524  0.42463588  0.69197313  1
  Se  Se233  1  0.58231223  0.74644738  0.19533221  1
  Se  Se234  1  0.57837154  0.75238735  0.68355614  1
  Se  Se235  1  0.92468702  0.08319969  0.20101239  1
  Se  Se236  1  0.91780855  0.08856152  0.68453245  1
  Se  Se237  1  0.90590868  0.42950065  0.19307660  1
  Se  Se238  1  0.92267660  0.41774830  0.69000043  1
  Se  Se239  1  0.91674600  0.75194049  0.20263408  1
  Se  Se240  1  0.91476541  0.74946525  0.69478291  1
  Se  Se241  1  0.09487472  0.24054470  0.19253666  1
  Se  Se242  1  0.07937514  0.24941085  0.69226931  1
  Se  Se243  1  0.08723455  0.58907270  0.19595915  1
  Se  Se244  1  0.07893501  0.58759304  0.68777699  1
  Se  Se245  1  0.08211709  0.92136473  0.20202619  1
  Se  Se246  1  0.08698382  0.91045508  0.68735120  1
  Se  Se247  1  0.42406127  0.23997956  0.19384935  1
  Se  Se248  1  0.42611816  0.24325511  0.70392976  1
  Se  Se249  1  0.42997676  0.57105040  0.19324338  1
  Se  Se250  1  0.41718591  0.58942531  0.69176912  1
  Se  Se251  1  0.41474069  0.90310534  0.18909935  1
  Se  Se252  1  0.41778802  0.91737554  0.69685344  1
  Se  Se253  1  0.75676331  0.23719845  0.18775286  1
  Se  Se254  1  0.75324839  0.24996597  0.69130897  1
  Se  Se255  1  0.74563838  0.58285058  0.20130463  1
  Se  Se256  1  0.75533768  0.57839412  0.68271795  1
  Se  Se257  1  0.74514385  0.91664390  0.20291781  1
  Se  Se258  1  0.74875854  0.92031093  0.70189713  1
