# generated using pymatgen
data_In86Cu29Se144
_symmetry_space_group_name_H-M   'P 1'
_cell_length_a   17.57883988
_cell_length_b   17.58312933
_cell_length_c   23.43818919
_cell_angle_alpha   89.99965683
_cell_angle_beta   90.03816256
_cell_angle_gamma   90.01147392
_symmetry_Int_Tables_number   1
_chemical_formula_structural   In86Cu29Se144
_chemical_formula_sum   'In86 Cu29 Se144'
_cell_volume   7244.53193852
_cell_formula_units_Z   1
loop_
 _symmetry_equiv_pos_site_id
 _symmetry_equiv_pos_as_xyz
  1  'x, y, z'
loop_
 _atom_site_type_symbol
 _atom_site_label
 _atom_site_symmetry_multiplicity
 _atom_site_fract_x
 _atom_site_fract_y
 _atom_site_fract_z
 _atom_site_occupancy
  In  In0  1  -0.00010556  0.16945726  0.11816702  1
  In  In1  1  0.01523517  0.17678246  0.62036221  1
  In  In2  1  -0.00006810  0.49769722  0.11232237  1
  In  In3  1  0.00293162  0.48646800  0.62655885  1
  In  In4  1  -0.00001507  0.81947396  0.12189698  1
  In  In5  1  -0.00203470  0.84614055  0.62538936  1
  In  In6  1  0.34092896  0.17703294  0.12141520  1
  In  In7  1  0.34119321  0.17923651  0.62046264  1
  In  In8  1  0.33369361  0.50043129  0.11621416  1
  In  In9  1  0.32514875  0.49928882  0.62715591  1
  In  In10  1  0.32903996  0.81796761  0.10814737  1
  In  In11  1  0.33179772  0.82802160  0.63381276  1
  In  In12  1  0.66438626  0.16146084  0.11977592  1
  In  In13  1  0.65976282  0.17481062  0.63544875  1
  In  In14  1  0.67525172  0.51006718  0.11593659  1
  In  In15  1  0.66421324  0.49978536  0.63808962  1
  In  In16  1  0.65890062  0.83835060  0.12508856  1
  In  In17  1  0.67858234  0.82081289  0.64742765  1
  In  In18  1  0.17995860  0.00441448  0.37599667  1
  In  In19  1  0.17291787  -0.00497357  0.88405845  1
  In  In20  1  0.17449888  0.32255399  0.39167668  1
  In  In21  1  0.16799859  0.33117973  0.87157902  1
  In  In22  1  0.17134175  0.64801059  0.37341044  1
  In  In23  1  0.19376597  0.64496113  0.89565169  1
  In  In24  1  0.51267648  0.00083401  0.37389784  1
  In  In25  1  0.51239960  -0.00821848  0.87910519  1
  In  In26  1  0.48834674  0.33854900  0.37715340  1
  In  In27  1  0.49913540  0.33251095  0.87794095  1
  In  In28  1  0.49841575  0.66551515  0.36207983  1
  In  In29  1  0.49679359  0.65653310  0.87982115  1
  In  In30  1  0.81095903  0.00085249  0.37358407  1
  In  In31  1  0.82907084  0.00474971  0.87313540  1
  In  In32  1  0.84255827  0.33225122  0.37648199  1
  In  In33  1  0.83200913  0.33303131  0.87518513  1
  In  In34  1  0.83846472  0.67916385  0.37729446  1
  In  In35  1  0.81388111  0.66893352  0.87183181  1
  In  In36  1  0.01101562  0.17992132  0.37491382  1
  In  In37  1  -0.00827117  0.17084611  0.87798338  1
  In  In38  1  0.01910568  0.50238096  0.38201547  1
  In  In39  1  0.01052200  0.48690906  0.87854921  1
  In  In40  1  -0.00790135  0.81087167  0.38243958  1
  In  In41  1  0.00477434  0.84201710  0.87348623  1
  In  In42  1  0.32675297  0.18362041  0.38578461  1
  In  In43  1  0.32421577  0.17605784  0.88084713  1
  In  In44  1  0.32732682  0.49166934  0.36119896  1
  In  In45  1  0.34043775  0.49935666  0.88014118  1
  In  In46  1  0.34721259  0.83180312  0.36867046  1
  In  In47  1  0.36350422  0.79824619  0.90436832  1
  In  In48  1  0.66931570  0.14979035  0.37398556  1
  In  In49  1  0.66574371  0.16914647  0.87531781  1
  In  In50  1  0.65414444  0.50048926  0.36937556  1
  In  In51  1  0.66367540  0.49687350  0.87724738  1
  In  In52  1  0.66611725  0.83961043  0.37046868  1
  In  In53  1  0.63469946  0.80358741  0.84101073  1
  In  In54  1  0.17334182  0.00659269  0.11542966  1
  In  In55  1  0.15636855  0.00712218  0.62638940  1
  In  In56  1  0.17594478  0.34227905  0.11663775  1
  In  In57  1  0.16862537  0.33552466  0.62940954  1
  In  In58  1  0.17921245  0.66871620  0.10780336  1
  In  In59  1  0.18385871  0.66565863  0.62957786  1
  In  In60  1  0.51020916  0.00643208  0.11539381  1
  In  In61  1  0.49757778  0.00877579  0.62922410  1
  In  In62  1  0.48976874  0.32273583  0.11747636  1
  In  In63  1  0.49620450  0.33442603  0.63134203  1
  In  In64  1  0.49826825  0.66976371  0.11437614  1
  In  In65  1  0.50222427  0.66828990  0.63837729  1
  In  In66  1  0.81664375  0.00102855  0.12669179  1
  In  In67  1  0.83102486  -0.00845309  0.62839166  1
  In  In68  1  0.82813722  0.33090343  0.11372286  1
  In  In69  1  0.83376107  0.33307770  0.63651072  1
  In  In70  1  0.83563658  0.65429027  0.12409207  1
  In  In71  1  0.82067147  0.66702657  0.62956795  1
  In  In72  1  -0.00047424  0.66746403  0.75084885  1
  In  In73  1  0.83003775  0.84098360  -0.00430813  1
  In  In74  1  -0.00604443  -0.00680899  0.24572291  1
  In  In75  1  0.00131955  0.65953070  0.25369261  1
  In  In76  1  0.65812460  0.33020701  0.23806800  1
  In  In77  1  0.83793895  0.16684705  0.49842235  1
  In  In78  1  0.34790044  0.00123641  0.24200064  1
  In  In79  1  0.50105905  0.84042635  0.50496152  1
  In  In80  1  0.49020472  0.49782153  0.50998619  1
  In  In81  1  -0.00117251  0.33460243  0.25450261  1
  In  In82  1  0.83892841  0.50878662  0.50027262  1
  In  In83  1  0.16602435  0.83437790  0.50437524  1
  In  In84  1  0.33890724  -0.00618310  0.75486345  1
  In  In85  1  -0.00347898  0.00552688  0.75078478  1
  Cu  Cu86  1  -0.00532294  -0.00319182  0.49869021  1
  Cu  Cu87  1  0.33222156  0.01488112  0.50351950  1
  Cu  Cu88  1  0.66663824  -0.00197271  0.50158538  1
  Cu  Cu89  1  0.33142931  0.66062819  0.49854994  1
  Cu  Cu90  1  0.00007260  0.32935956  -0.00573122  1
  Cu  Cu91  1  0.66449431  0.66785496  -0.00583970  1
  Cu  Cu92  1  0.16892273  0.17089718  0.74932983  1
  Cu  Cu93  1  0.66449174  0.33562430  -0.00365943  1
  Cu  Cu94  1  0.83094393  0.49946126  0.75433252  1
  Cu  Cu95  1  0.17334913  0.82676668  0.24050318  1
  Cu  Cu96  1  0.82065828  0.83368443  0.25410171  1
  Cu  Cu97  1  0.49811720  0.17024991  0.75406662  1
  Cu  Cu98  1  0.17462759  0.49669815  0.75780339  1
  Cu  Cu99  1  0.66717529  0.67476141  0.50354117  1
  Cu  Cu100  1  0.33729391  0.00478638  -0.00114442  1
  Cu  Cu101  1  0.17658570  0.50235408  0.24068260  1
  Cu  Cu102  1  0.83327537  0.17312383  0.75351559  1
  Cu  Cu103  1  0.66620742  0.33154308  0.51016019  1
  Cu  Cu104  1  0.82788422  0.49887466  0.24721375  1
  Cu  Cu105  1  0.33196813  0.33180866  -0.00330094  1
  Cu  Cu106  1  0.17484092  0.82185921  0.76016168  1
  Cu  Cu107  1  0.50068883  0.82466403  0.24110131  1
  Cu  Cu108  1  0.49786224  0.49614378  0.75561403  1
  Cu  Cu109  1  0.17118512  0.17705824  0.25503583  1
  Cu  Cu110  1  0.50007619  0.16766375  0.24647061  1
  Cu  Cu111  1  -0.00128033  0.00711812  -0.00100302  1
  Cu  Cu112  1  0.49545953  0.50846573  0.24105174  1
  Cu  Cu113  1  0.66725586  0.00066174  -0.00402901  1
  Cu  Cu114  1  -0.00023731  0.66515693  -0.00291654  1
  Se  Se115  1  0.08511130  0.08842446  0.05134457  1
  Se  Se116  1  0.07894953  0.08016307  0.55027574  1
  Se  Se117  1  0.08376173  0.41303572  0.04806235  1
  Se  Se118  1  0.09564231  0.42383895  0.55756831  1
  Se  Se119  1  0.08247233  0.75074681  0.04835699  1
  Se  Se120  1  0.08141119  0.74595444  0.56787922  1
  Se  Se121  1  0.41892275  0.08884609  0.05396179  1
  Se  Se122  1  0.42301428  0.08953812  0.55574584  1
  Se  Se123  1  0.41788424  0.41417661  0.04921581  1
  Se  Se124  1  0.39841724  0.40101763  0.55761610  1
  Se  Se125  1  0.41693519  0.74464819  0.03923736  1
  Se  Se126  1  0.41127742  0.74083123  0.55892838  1
  Se  Se127  1  0.75152647  0.08313183  0.04933725  1
  Se  Se128  1  0.74477955  0.08393985  0.56082111  1
  Se  Se129  1  0.75080724  0.41967716  0.04808376  1
  Se  Se130  1  0.74769775  0.41741529  0.56247047  1
  Se  Se131  1  0.74749720  0.74481518  0.05750634  1
  Se  Se132  1  0.74587788  0.75633192  0.56043151  1
  Se  Se133  1  0.24929399  0.24719722  0.05152984  1
  Se  Se134  1  0.22881566  0.23143028  0.56340885  1
  Se  Se135  1  0.24199474  0.56828497  0.04470186  1
  Se  Se136  1  0.24769507  0.58091154  0.55263180  1
  Se  Se137  1  0.25225874  0.91909526  0.05006517  1
  Se  Se138  1  0.25974805  0.92673301  0.56336432  1
  Se  Se139  1  0.58575466  0.24966442  0.05303881  1
  Se  Se140  1  0.58012399  0.25183226  0.56156584  1
  Se  Se141  1  0.58363881  0.58311625  0.04842556  1
  Se  Se142  1  0.58896905  0.59070422  0.56176317  1
  Se  Se143  1  0.58459469  0.91394355  0.04824927  1
  Se  Se144  1  0.59342583  0.91988500  0.56809939  1
  Se  Se145  1  0.91522980  0.24823331  0.04917632  1
  Se  Se146  1  0.91988897  0.26312496  0.55828069  1
  Se  Se147  1  0.91319086  0.58228611  0.04804463  1
  Se  Se148  1  0.92341368  0.59196074  0.56784438  1
  Se  Se149  1  0.92233748  0.92480545  0.06249978  1
  Se  Se150  1  0.91165588  0.91756606  0.55304751  1
  Se  Se151  1  0.07544806  0.25406715  0.45400197  1
  Se  Se152  1  0.08583434  0.24709731  0.94191989  1
  Se  Se153  1  0.06554598  0.61380374  0.44344634  1
  Se  Se154  1  0.08289043  0.57731864  0.94839351  1
  Se  Se155  1  0.07811631  0.92029134  0.43641264  1
  Se  Se156  1  0.07911018  0.91840750  0.94931560  1
  Se  Se157  1  0.42692428  0.24871250  0.44923633  1
  Se  Se158  1  0.41909083  0.24691121  0.94813968  1
  Se  Se159  1  0.41441593  0.58610575  0.43696098  1
  Se  Se160  1  0.40347912  0.59402258  0.95195150  1
  Se  Se161  1  0.40777667  0.92997572  0.44297291  1
  Se  Se162  1  0.42212936  0.92041082  0.94944760  1
  Se  Se163  1  0.74107903  0.25789797  0.44131281  1
  Se  Se164  1  0.74978928  0.25054220  0.94554637  1
  Se  Se165  1  0.73755204  0.58879623  0.44044556  1
  Se  Se166  1  0.74929630  0.58137949  0.94597764  1
  Se  Se167  1  0.74617095  0.91217952  0.44739617  1
  Se  Se168  1  0.73604371  0.91579150  0.93180905  1
  Se  Se169  1  0.24457737  0.09145863  0.44925635  1
  Se  Se170  1  0.24843937  0.08676837  0.94977119  1
  Se  Se171  1  0.24220635  0.43559155  0.43929781  1
  Se  Se172  1  0.24849140  0.41385107  0.94226699  1
  Se  Se173  1  0.25854768  0.74983622  0.43931818  1
  Se  Se174  1  0.23029238  0.77024368  0.94501598  1
  Se  Se175  1  0.58412243  0.08275318  0.44942519  1
  Se  Se176  1  0.58273551  0.08753750  0.94616258  1
  Se  Se177  1  0.58931321  0.41417976  0.44828599  1
  Se  Se178  1  0.57772686  0.41954161  0.94787900  1
  Se  Se179  1  0.58082202  0.74459825  0.44089821  1
  Se  Se180  1  0.58675476  0.75194812  0.93749033  1
  Se  Se181  1  0.92204305  0.07615274  0.43252222  1
  Se  Se182  1  0.91122344  0.08301481  0.94455281  1
  Se  Se183  1  0.92909312  0.41137111  0.44536471  1
  Se  Se184  1  0.91527188  0.41593089  0.94518051  1
  Se  Se185  1  0.90887774  0.74752716  0.45812412  1
  Se  Se186  1  0.91907668  0.74550905  0.93718047  1
  Se  Se187  1  0.25129673  0.26022849  0.30903888  1
  Se  Se188  1  0.25498386  0.25233976  0.80143795  1
  Se  Se189  1  0.25568427  0.58914792  0.29521590  1
  Se  Se190  1  0.25764962  0.58296213  0.80819333  1
  Se  Se191  1  0.24874399  0.91179038  0.30131284  1
  Se  Se192  1  0.25365833  0.90575216  0.81764893  1
  Se  Se193  1  0.57920056  0.24633953  0.31089391  1
  Se  Se194  1  0.58349612  0.25363576  0.80658379  1
  Se  Se195  1  0.58500526  0.58408956  0.29550405  1
  Se  Se196  1  0.58217251  0.58012247  0.80731880  1
  Se  Se197  1  0.57589077  0.91149713  0.30003256  1
  Se  Se198  1  0.58937715  0.93054394  0.79774177  1
  Se  Se199  1  0.90564585  0.23516964  0.30442814  1
  Se  Se200  1  0.91993577  0.25463762  0.80440283  1
  Se  Se201  1  0.90975449  0.56918153  0.31358299  1
  Se  Se202  1  0.91346482  0.57765231  0.81464016  1
  Se  Se203  1  0.91106941  0.90482217  0.31336554  1
  Se  Se204  1  0.90748717  0.90887606  0.80384345  1
  Se  Se205  1  0.08988746  0.08600250  0.30474966  1
  Se  Se206  1  0.09287007  0.08712344  0.81085175  1
  Se  Se207  1  0.09624203  0.42566350  0.30469702  1
  Se  Se208  1  0.08363587  0.41247059  0.80092477  1
  Se  Se209  1  0.09368132  0.75638202  0.30788205  1
  Se  Se210  1  0.09181595  0.74382058  0.81836089  1
  Se  Se211  1  0.42012171  0.09242314  0.31266504  1
  Se  Se212  1  0.42037235  0.08949930  0.81631388  1
  Se  Se213  1  0.42355896  0.41808047  0.29772187  1
  Se  Se214  1  0.41426458  0.41287549  0.80797518  1
  Se  Se215  1  0.41252413  0.74654270  0.29422791  1
  Se  Se216  1  0.41947195  0.74785035  0.81164669  1
  Se  Se217  1  0.74595511  0.08101702  0.29697175  1
  Se  Se218  1  0.74997075  0.08858910  0.80379496  1
  Se  Se219  1  0.75194137  0.41455948  0.30728065  1
  Se  Se220  1  0.74698202  0.41519010  0.80683922  1
  Se  Se221  1  0.74452818  0.74408498  0.30752303  1
  Se  Se222  1  0.75928117  0.75591613  0.79504457  1
  Se  Se223  1  0.24610633  0.09256682  0.19342527  1
  Se  Se224  1  0.24812463  0.08460101  0.69358656  1
  Se  Se225  1  0.25812739  0.41443020  0.19072305  1
  Se  Se226  1  0.25443168  0.41318083  0.70053780  1
  Se  Se227  1  0.25292329  0.74394480  0.18633092  1
  Se  Se228  1  0.25972654  0.74219368  0.70557868  1
  Se  Se229  1  0.58228718  0.08412552  0.19356200  1
  Se  Se230  1  0.57985330  0.08577297  0.70116804  1
  Se  Se231  1  0.57470245  0.42644994  0.18037621  1
  Se  Se232  1  0.58138044  0.41288116  0.70114309  1
  Se  Se233  1  0.58546287  0.74218116  0.18883966  1
  Se  Se234  1  0.58163087  0.74700165  0.70856072  1
  Se  Se235  1  0.91067811  0.08959568  0.18915660  1
  Se  Se236  1  0.91245319  0.09790676  0.68688224  1
  Se  Se237  1  0.91039524  0.42114412  0.18814409  1
  Se  Se238  1  0.91755107  0.41921285  0.70135992  1
  Se  Se239  1  0.90638098  0.75459877  0.19676741  1
  Se  Se240  1  0.91216601  0.76034423  0.69204362  1
  Se  Se241  1  0.08944972  0.24954420  0.19055872  1
  Se  Se242  1  0.08131669  0.25382970  0.69989868  1
  Se  Se243  1  0.08762664  0.57918410  0.18459362  1
  Se  Se244  1  0.09442845  0.57653404  0.69527184  1
  Se  Se245  1  0.09205875  0.90920286  0.18550156  1
  Se  Se246  1  0.09635099  0.90718018  0.70115439  1
  Se  Se247  1  0.41513047  0.25357392  0.19863097  1
  Se  Se248  1  0.41265466  0.25140167  0.70070202  1
  Se  Se249  1  0.41346051  0.58835520  0.18454429  1
  Se  Se250  1  0.41698675  0.57526905  0.69485622  1
  Se  Se251  1  0.42357133  0.90531136  0.17838959  1
  Se  Se252  1  0.43086779  0.90414029  0.69526557  1
  Se  Se253  1  0.75856229  0.24262470  0.18933764  1
  Se  Se254  1  0.74544474  0.25604706  0.70281746  1
  Se  Se255  1  0.74752850  0.58515343  0.19634803  1
  Se  Se256  1  0.74762474  0.58538091  0.70348082  1
  Se  Se257  1  0.74226233  0.91663987  0.19760437  1
  Se  Se258  1  0.74094932  0.93278859  0.70156772  1
