# generated using pymatgen
data_In86Cu29Se144
_symmetry_space_group_name_H-M   'P 1'
_cell_length_a   17.72366095
_cell_length_b   17.70191247
_cell_length_c   23.55781467
_cell_angle_alpha   89.96197207
_cell_angle_beta   90.01950358
_cell_angle_gamma   89.97952076
_symmetry_Int_Tables_number   1
_chemical_formula_structural   In86Cu29Se144
_chemical_formula_sum   'In86 Cu29 Se144'
_cell_volume   7391.08972609
_cell_formula_units_Z   1
loop_
 _symmetry_equiv_pos_site_id
 _symmetry_equiv_pos_as_xyz
  1  'x, y, z'
loop_
 _atom_site_type_symbol
 _atom_site_label
 _atom_site_symmetry_multiplicity
 _atom_site_fract_x
 _atom_site_fract_y
 _atom_site_fract_z
 _atom_site_occupancy
  In  In0  1  -0.00055264  0.17330413  0.12015120  1
  In  In1  1  -0.00221658  0.19317594  0.61560527  1
  In  In2  1  0.00291732  0.50869754  0.12144403  1
  In  In3  1  -0.00389983  0.48630120  0.62684551  1
  In  In4  1  -0.00400976  0.85086216  0.12936015  1
  In  In5  1  0.00692200  0.83651868  0.62419119  1
  In  In6  1  0.33561753  0.19061149  0.12292217  1
  In  In7  1  0.34032531  0.16035307  0.63572328  1
  In  In8  1  0.32616997  0.49569050  0.11371077  1
  In  In9  1  0.37472518  0.47514036  0.67864900  1
  In  In10  1  0.33984666  0.82719331  0.11636921  1
  In  In11  1  0.34987030  0.81450951  0.63911976  1
  In  In12  1  0.67646865  0.18207468  0.11720825  1
  In  In13  1  0.67011691  0.16250948  0.62406354  1
  In  In14  1  0.67569835  0.50263928  0.11191110  1
  In  In15  1  0.63140321  0.52116693  0.67136524  1
  In  In16  1  0.66265054  0.83461708  0.11992195  1
  In  In17  1  0.65229389  0.84664147  0.63516251  1
  In  In18  1  0.16096039  0.01601685  0.37274291  1
  In  In19  1  0.18377112  0.00972256  0.87537838  1
  In  In20  1  0.16739414  0.33499188  0.36600721  1
  In  In21  1  0.16963578  0.32891950  0.87415374  1
  In  In22  1  0.16172828  0.67071264  0.37028662  1
  In  In23  1  0.16263809  0.64842085  0.88745658  1
  In  In24  1  0.49896842  0.00508820  0.38967337  1
  In  In25  1  0.49934836  -0.00964380  0.86756774  1
  In  In26  1  0.49016619  0.33818829  0.38911290  1
  In  In27  1  0.51575897  0.34179688  0.83676176  1
  In  In28  1  0.50009083  0.66197385  0.39075319  1
  In  In29  1  0.50634545  0.65796213  0.86296736  1
  In  In30  1  0.84265295  0.00806415  0.37021580  1
  In  In31  1  0.82249206  0.00439257  0.88296923  1
  In  In32  1  0.83641110  0.32807809  0.37069385  1
  In  In33  1  0.82913997  0.32782665  0.87884689  1
  In  In34  1  0.83286488  0.65247842  0.36486358  1
  In  In35  1  0.83038364  0.65764829  0.88933556  1
  In  In36  1  -0.00140702  0.16758858  0.36857421  1
  In  In37  1  -0.00646204  0.18268831  0.88780247  1
  In  In38  1  0.00124721  0.49839011  0.35687576  1
  In  In39  1  0.03552516  0.46334175  0.92988510  1
  In  In40  1  -0.00699630  0.83490895  0.36251935  1
  In  In41  1  -0.00676222  0.81761732  0.89103417  1
  In  In42  1  0.32938066  0.17736145  0.38018381  1
  In  In43  1  0.32812727  0.17546809  0.86394965  1
  In  In44  1  0.34156378  0.49839861  0.38112848  1
  In  In45  1  0.33636703  0.49741715  0.86556314  1
  In  In46  1  0.33827666  0.83889182  0.38213900  1
  In  In47  1  0.34444154  0.84350133  0.86523626  1
  In  In48  1  0.66656086  0.17282869  0.38911320  1
  In  In49  1  0.66588486  0.17188755  0.85419232  1
  In  In50  1  0.66495593  0.48965087  0.37989943  1
  In  In51  1  0.66276526  0.50224724  0.86707571  1
  In  In52  1  0.66076412  0.82321623  0.37912962  1
  In  In53  1  0.67106764  0.82423675  0.87131240  1
  In  In54  1  0.15251675  0.00641375  0.12327324  1
  In  In55  1  0.17302847  0.01084752  0.62928653  1
  In  In56  1  0.16346914  0.34239206  0.11326158  1
  In  In57  1  0.17170657  0.32643221  0.64076077  1
  In  In58  1  0.17005695  0.65910245  0.11926050  1
  In  In59  1  0.16953582  0.66178372  0.63052505  1
  In  In60  1  0.51052896  0.00225794  0.12265084  1
  In  In61  1  0.50655839  -0.00021374  0.62520142  1
  In  In62  1  0.49257712  0.33794219  0.12346891  1
  In  In63  1  0.51104154  0.32667267  0.63252769  1
  In  In64  1  0.50225893  0.66134469  0.11484148  1
  In  In65  1  0.49647946  0.66707462  0.62754635  1
  In  In66  1  0.85352800  0.03189774  0.10700211  1
  In  In67  1  0.81759707  0.00632798  0.63245428  1
  In  In68  1  0.87549570  0.36642259  0.07185525  1
  In  In69  1  0.82680916  0.33310782  0.63190405  1
  In  In70  1  0.85243539  0.68792410  0.10067776  1
  In  In71  1  0.83290338  0.65234514  0.62819957  1
  In  In72  1  0.66940989  0.66218048  0.24646702  1
  In  In73  1  0.82986749  0.48507808  0.50014978  1
  In  In74  1  0.48915349  0.16489171  -0.02255334  1
  In  In75  1  0.32633965  0.00330107  0.25581668  1
  In  In76  1  0.17322628  0.49023410  0.50942325  1
  In  In77  1  0.66779196  0.33388349  0.25066164  1
  In  In78  1  0.16759303  0.83705704  0.49597529  1
  In  In79  1  0.66933082  -0.00005697  0.24985079  1
  In  In80  1  -0.00945631  0.66013115  0.77120400  1
  In  In81  1  0.17420471  0.84196359  -0.00153345  1
  In  In82  1  0.17175800  0.17083440  0.50596848  1
  In  In83  1  0.82815833  0.83296075  0.49896333  1
  In  In84  1  -0.00792533  0.00756746  0.76760545  1
  In  In85  1  0.32924886  0.66174857  0.24819153  1
  Cu  Cu86  1  0.50601182  0.83243326  0.74973481  1
  Cu  Cu87  1  0.66995964  0.00171895  0.50771039  1
  Cu  Cu88  1  0.83780911  0.49019508  0.75911038  1
  Cu  Cu89  1  0.66267920  0.66057177  0.51269799  1
  Cu  Cu90  1  0.15378199  0.49797568  0.76450048  1
  Cu  Cu91  1  0.15620371  0.83103844  0.24925644  1
  Cu  Cu92  1  0.84397280  0.49548617  0.23348540  1
  Cu  Cu93  1  0.34630037  0.66821258  -0.01022084  1
  Cu  Cu94  1  0.34132632  0.66250712  0.50891874  1
  Cu  Cu95  1  0.16792066  0.49433397  0.23771962  1
  Cu  Cu96  1  0.83790521  0.16542913  0.75107732  1
  Cu  Cu97  1  0.65174922  0.33014838  -0.01600074  1
  Cu  Cu98  1  0.50000113  0.17294247  0.25120960  1
  Cu  Cu99  1  0.83996641  0.17035798  0.24461789  1
  Cu  Cu100  1  0.49641095  0.49567093  0.25454427  1
  Cu  Cu101  1  0.83336843  0.83878946  0.23834987  1
  Cu  Cu102  1  -0.01051642  0.00745150  0.49554051  1
  Cu  Cu103  1  0.33997758  -0.00743474  0.50962755  1
  Cu  Cu104  1  -0.00159312  0.00508855  0.00033206  1
  Cu  Cu105  1  0.49347563  0.83427897  0.25217345  1
  Cu  Cu106  1  0.66576864  0.34045975  0.50801038  1
  Cu  Cu107  1  0.34289309  0.00780844  -0.00801179  1
  Cu  Cu108  1  0.65964758  -0.01456955  -0.00420142  1
  Cu  Cu109  1  0.83772271  0.81785176  0.75686705  1
  Cu  Cu110  1  0.33736773  0.34087728  -0.00648968  1
  Cu  Cu111  1  0.00238837  0.66057704  0.49009631  1
  Cu  Cu112  1  0.16253181  0.84171137  0.75721997  1
  Cu  Cu113  1  0.16137226  0.17260238  0.24436488  1
  Cu  Cu114  1  0.65660643  0.65834092  -0.00872406  1
  Se  Se115  1  0.08365137  0.08930971  0.05023883  1
  Se  Se116  1  0.07370105  0.07821269  0.55846821  1
  Se  Se117  1  0.09122982  0.43845162  0.04738140  1
  Se  Se118  1  0.07805983  0.39947888  0.56026102  1
  Se  Se119  1  0.08652946  0.76074665  0.06382786  1
  Se  Se120  1  0.07741551  0.74057932  0.55291905  1
  Se  Se121  1  0.41555896  0.08666562  0.05983507  1
  Se  Se122  1  0.41649577  0.08138009  0.56096261  1
  Se  Se123  1  0.42069191  0.42033943  0.05007483  1
  Se  Se124  1  0.42160684  0.42301029  0.58276259  1
  Se  Se125  1  0.42353389  0.75007798  0.04846255  1
  Se  Se126  1  0.42127887  0.75411721  0.55476829  1
  Se  Se127  1  0.72995165  0.07286095  0.05633143  1
  Se  Se128  1  0.75845159  0.08587370  0.55174257  1
  Se  Se129  1  0.72575190  0.38224590  0.06291805  1
  Se  Se130  1  0.73614520  0.42394626  0.57072077  1
  Se  Se131  1  0.73159274  0.74090272  0.05279627  1
  Se  Se132  1  0.74747408  0.74352360  0.56506223  1
  Se  Se133  1  0.25445609  0.25968732  0.04868649  1
  Se  Se134  1  0.26137933  0.25656388  0.56612761  1
  Se  Se135  1  0.25940502  0.59345089  0.04774410  1
  Se  Se136  1  0.25829420  0.58440120  0.56470901  1
  Se  Se137  1  0.26254388  0.93435496  0.05956410  1
  Se  Se138  1  0.25286333  0.91601415  0.56515126  1
  Se  Se139  1  0.57262907  0.24953478  0.05027586  1
  Se  Se140  1  0.58869590  0.24869444  0.55716370  1
  Se  Se141  1  0.57871014  0.57344332  0.04840162  1
  Se  Se142  1  0.58926694  0.57742007  0.57266487  1
  Se  Se143  1  0.57342528  0.91080318  0.05196826  1
  Se  Se144  1  0.58466013  0.91391629  0.55234946  1
  Se  Se145  1  0.88730953  0.22059499  0.05842037  1
  Se  Se146  1  0.90142877  0.26041558  0.55315752  1
  Se  Se147  1  0.89462675  0.56288480  0.05667511  1
  Se  Se148  1  0.92512900  0.58361200  0.55326257  1
  Se  Se149  1  0.91606659  0.92003411  0.05237616  1
  Se  Se150  1  0.91859298  0.92306713  0.55888367  1
  Se  Se151  1  0.08401396  0.25301543  0.43863692  1
  Se  Se152  1  0.08476872  0.26081468  0.94974390  1
  Se  Se153  1  0.08378571  0.57733038  0.43705427  1
  Se  Se154  1  0.05752937  0.60507308  0.95367181  1
  Se  Se155  1  0.07036320  0.92542766  0.43795448  1
  Se  Se156  1  0.07921118  0.92786320  0.93851751  1
  Se  Se157  1  0.42332611  0.23643922  0.44909747  1
  Se  Se158  1  0.41595598  0.27197616  0.92489144  1
  Se  Se159  1  0.41927907  0.57534710  0.45471071  1
  Se  Se160  1  0.42004328  0.58073779  0.93378491  1
  Se  Se161  1  0.42141054  0.91193205  0.45275095  1
  Se  Se162  1  0.41929932  0.91698032  0.94352676  1
  Se  Se163  1  0.74915888  0.26628920  0.44665476  1
  Se  Se164  1  0.73448100  0.24174110  0.93661445  1
  Se  Se165  1  0.74300943  0.59053200  0.44421104  1
  Se  Se166  1  0.74069401  0.56816391  0.94768488  1
  Se  Se167  1  0.74295550  0.92693579  0.43676022  1
  Se  Se168  1  0.74836272  0.90756437  0.94478825  1
  Se  Se169  1  0.25850769  0.07071485  0.44736620  1
  Se  Se170  1  0.26066996  0.09463098  0.94423136  1
  Se  Se171  1  0.25701246  0.40367415  0.44243966  1
  Se  Se172  1  0.25379181  0.42074595  0.93781762  1
  Se  Se173  1  0.25939904  0.73605944  0.44403104  1
  Se  Se174  1  0.25920714  0.75043928  0.93621998  1
  Se  Se175  1  0.58636304  0.08526080  0.45349690  1
  Se  Se176  1  0.59203513  0.07461183  0.93396608  1
  Se  Se177  1  0.58101867  0.42038583  0.45185028  1
  Se  Se178  1  0.57394872  0.40871122  0.92529957  1
  Se  Se179  1  0.58666657  0.74575834  0.45370127  1
  Se  Se180  1  0.58036897  0.74352884  0.93565804  1
  Se  Se181  1  0.91306413  0.09361689  0.44181629  1
  Se  Se182  1  0.91275764  0.08470206  0.94626494  1
  Se  Se183  1  0.92792099  0.41524600  0.43451554  1
  Se  Se184  1  0.90331796  0.40481593  0.95921958  1
  Se  Se185  1  0.91751246  0.74085080  0.43578660  1
  Se  Se186  1  0.90554158  0.74625260  0.95819473  1
  Se  Se187  1  0.24893920  0.24430250  0.30314909  1
  Se  Se188  1  0.25013627  0.26137377  0.79709228  1
  Se  Se189  1  0.24152876  0.56960773  0.30793676  1
  Se  Se190  1  0.24084324  0.58453069  0.80858933  1
  Se  Se191  1  0.23706753  0.90581790  0.31322442  1
  Se  Se192  1  0.25257937  0.92425662  0.80257653  1
  Se  Se193  1  0.57941857  0.24829082  0.31443145  1
  Se  Se194  1  0.54464709  0.20654483  0.79539181  1
  Se  Se195  1  0.57670300  0.57795996  0.31179021  1
  Se  Se196  1  0.58371200  0.57547017  0.78991762  1
  Se  Se197  1  0.57480191  0.91270261  0.31129360  1
  Se  Se198  1  0.59097273  0.91202056  0.80378643  1
  Se  Se199  1  0.92067067  0.25458317  0.29952290  1
  Se  Se200  1  0.91417690  0.24887504  0.80865751  1
  Se  Se201  1  0.91763408  0.58389760  0.29196634  1
  Se  Se202  1  0.91262894  0.56201924  0.82684266  1
  Se  Se203  1  0.91092774  0.92111371  0.29789559  1
  Se  Se204  1  0.91028087  0.90172134  0.81841761  1
  Se  Se205  1  0.08190409  0.08692744  0.29840697  1
  Se  Se206  1  0.08585574  0.09621632  0.81989884  1
  Se  Se207  1  0.08574808  0.41249285  0.29433866  1
  Se  Se208  1  0.07365363  0.42524623  0.82569364  1
  Se  Se209  1  0.07622064  0.74505318  0.30089940  1
  Se  Se210  1  0.08970870  0.75665631  0.81726116  1
  Se  Se211  1  0.42523163  0.08790517  0.31085475  1
  Se  Se212  1  0.42430200  0.08959992  0.80770001  1
  Se  Se213  1  0.41716555  0.41451547  0.31034878  1
  Se  Se214  1  0.40768208  0.41710134  0.78747654  1
  Se  Se215  1  0.42001770  0.74982935  0.31219827  1
  Se  Se216  1  0.42064346  0.75057868  0.80190821  1
  Se  Se217  1  0.75309333  0.09967740  0.30688506  1
  Se  Se218  1  0.75591085  0.07803265  0.80139931  1
  Se  Se219  1  0.76180033  0.43142722  0.30395410  1
  Se  Se220  1  0.74888198  0.40933152  0.80795548  1
  Se  Se221  1  0.75746819  0.76103078  0.30379783  1
  Se  Se222  1  0.75762442  0.73431426  0.81030040  1
  Se  Se223  1  0.24845304  0.09333138  0.18754770  1
  Se  Se224  1  0.23504838  0.10110226  0.69878632  1
  Se  Se225  1  0.25328386  0.41373200  0.18663432  1
  Se  Se226  1  0.22696452  0.44760274  0.68641929  1
  Se  Se227  1  0.24507674  0.76101854  0.19021826  1
  Se  Se228  1  0.23527770  0.75984158  0.69519359  1
  Se  Se229  1  0.58236275  0.09812565  0.19155909  1
  Se  Se230  1  0.61570265  0.05364633  0.68653773  1
  Se  Se231  1  0.58088730  0.42694108  0.19059823  1
  Se  Se232  1  0.59866369  0.38971074  0.71039998  1
  Se  Se233  1  0.57230171  0.75372216  0.19293120  1
  Se  Se234  1  0.58611137  0.74556481  0.69670641  1
  Se  Se235  1  0.92337905  0.08592942  0.19387594  1
  Se  Se236  1  0.91842879  0.08731346  0.69007139  1
  Se  Se237  1  0.91774803  0.40954267  0.17583094  1
  Se  Se238  1  0.91672179  0.41171014  0.69939683  1
  Se  Se239  1  0.91527888  0.75257841  0.18792650  1
  Se  Se240  1  0.92080562  0.74928107  0.69143378  1
  Se  Se241  1  0.08763040  0.25541548  0.18424586  1
  Se  Se242  1  0.07481377  0.24809247  0.69723481  1
  Se  Se243  1  0.08806632  0.58702742  0.19252453  1
  Se  Se244  1  0.07458346  0.58070346  0.69656009  1
  Se  Se245  1  0.08417881  0.92472384  0.19885384  1
  Se  Se246  1  0.08103428  0.92065546  0.69835830  1
  Se  Se247  1  0.41954828  0.25713585  0.19839012  1
  Se  Se248  1  0.43838720  0.23031028  0.69950617  1
  Se  Se249  1  0.42268886  0.57612629  0.18984211  1
  Se  Se250  1  0.39016179  0.61938107  0.69511865  1
  Se  Se251  1  0.41792542  0.91582695  0.19183934  1
  Se  Se252  1  0.42320919  0.91652255  0.69552942  1
  Se  Se253  1  0.76040026  0.25443285  0.18936737  1
  Se  Se254  1  0.74941613  0.24299255  0.69775800  1
  Se  Se255  1  0.75983203  0.58207605  0.18292856  1
  Se  Se256  1  0.76096335  0.57933294  0.70555858  1
  Se  Se257  1  0.75452447  0.92055330  0.18138020  1
  Se  Se258  1  0.76356861  0.89986311  0.69560167  1
