# generated using pymatgen
data_In86Cu29Se144
_symmetry_space_group_name_H-M   'P 1'
_cell_length_a   17.58604656
_cell_length_b   17.58702363
_cell_length_c   23.44183816
_cell_angle_alpha   90.02005117
_cell_angle_beta   89.99062475
_cell_angle_gamma   90.02383668
_symmetry_Int_Tables_number   1
_chemical_formula_structural   In86Cu29Se144
_chemical_formula_sum   'In86 Cu29 Se144'
_cell_volume   7250.23626511
_cell_formula_units_Z   1
loop_
 _symmetry_equiv_pos_site_id
 _symmetry_equiv_pos_as_xyz
  1  'x, y, z'
loop_
 _atom_site_type_symbol
 _atom_site_label
 _atom_site_symmetry_multiplicity
 _atom_site_fract_x
 _atom_site_fract_y
 _atom_site_fract_z
 _atom_site_occupancy
  In  In0  1  0.00908587  0.15953169  0.12573835  1
  In  In1  1  0.00749404  0.16187783  0.63653608  1
  In  In2  1  0.00078238  0.50085357  0.12871304  1
  In  In3  1  -0.00539972  0.50509226  0.63520570  1
  In  In4  1  -0.00304316  0.82318709  0.12600117  1
  In  In5  1  0.00960203  0.82511652  0.63279383  1
  In  In6  1  0.32671461  0.17567905  0.12824691  1
  In  In7  1  0.33223243  0.16563549  0.62403779  1
  In  In8  1  0.33323448  0.50026954  0.12450506  1
  In  In9  1  0.33121476  0.48860200  0.62758579  1
  In  In10  1  0.31515154  0.83845532  0.12278270  1
  In  In11  1  0.33192887  0.84466246  0.62770210  1
  In  In12  1  0.66335343  0.15335675  0.12863044  1
  In  In13  1  0.66644183  0.18009508  0.61961640  1
  In  In14  1  0.67687568  0.52604988  0.10412183  1
  In  In15  1  0.67722087  0.50417142  0.61906764  1
  In  In16  1  0.70028626  0.82498692  0.12972427  1
  In  In17  1  0.65752780  0.82474429  0.63123333  1
  In  In18  1  0.15191830  -0.00576059  0.37183570  1
  In  In19  1  0.16706839  -0.00199186  0.87580672  1
  In  In20  1  0.16760876  0.33004423  0.36233564  1
  In  In21  1  0.16770036  0.33260823  0.87925132  1
  In  In22  1  0.16979271  0.66901273  0.36982281  1
  In  In23  1  0.14732315  0.68173984  0.88621387  1
  In  In24  1  0.50856180  -0.00226014  0.37100418  1
  In  In25  1  0.49630334  0.01136993  0.87387031  1
  In  In26  1  0.49344897  0.34431966  0.37864421  1
  In  In27  1  0.49777485  0.34518044  0.87592674  1
  In  In28  1  0.48997783  0.66535010  0.37180437  1
  In  In29  1  0.49615420  0.65239840  0.87499255  1
  In  In30  1  0.83373416  -0.00428621  0.36020940  1
  In  In31  1  0.84765054  -0.02624256  0.88981874  1
  In  In32  1  0.84588994  0.34113170  0.36925877  1
  In  In33  1  0.84848000  0.33757962  0.87803049  1
  In  In34  1  0.83092888  0.65528069  0.36823176  1
  In  In35  1  0.83813280  0.66422099  0.87856988  1
  In  In36  1  0.00042370  0.16336593  0.36512243  1
  In  In37  1  0.00979733  0.17305443  0.87695510  1
  In  In38  1  -0.00774090  0.49928621  0.36378676  1
  In  In39  1  0.00061727  0.50149783  0.88057764  1
  In  In40  1  0.00365534  0.83931159  0.36554020  1
  In  In41  1  0.01250020  0.82984648  0.87432641  1
  In  In42  1  0.33060119  0.18241017  0.37161719  1
  In  In43  1  0.32383867  0.15433015  0.86465550  1
  In  In44  1  0.34298800  0.51164297  0.36535821  1
  In  In45  1  0.33724701  0.48980417  0.87867120  1
  In  In46  1  0.33381120  0.81465707  0.37018924  1
  In  In47  1  0.30538475  0.83599266  0.87282465  1
  In  In48  1  0.66119240  0.15749308  0.37246722  1
  In  In49  1  0.66345606  0.16308064  0.87471461  1
  In  In50  1  0.67189399  0.49755127  0.38028899  1
  In  In51  1  0.65978144  0.51605168  0.89066218  1
  In  In52  1  0.65145963  0.83792920  0.36435261  1
  In  In53  1  0.68583664  0.82709317  0.88207739  1
  In  In54  1  0.13573682  -0.02014651  0.09520492  1
  In  In55  1  0.17265360  -0.00981371  0.63216682  1
  In  In56  1  0.16702973  0.33575955  0.12401126  1
  In  In57  1  0.16857882  0.33290543  0.63889598  1
  In  In58  1  0.16685678  0.66338556  0.12364166  1
  In  In59  1  0.15363449  0.66905052  0.63118917  1
  In  In60  1  0.50793126  0.00603305  0.13602164  1
  In  In61  1  0.48549339  0.00102334  0.62263953  1
  In  In62  1  0.48561145  0.33638142  0.13174767  1
  In  In63  1  0.49269030  0.32770186  0.61594180  1
  In  In64  1  0.50674218  0.65400615  0.12535612  1
  In  In65  1  0.51559367  0.67055360  0.62779531  1
  In  In66  1  0.86234114  -0.03496959  0.15196754  1
  In  In67  1  0.84316862  0.00555517  0.62861767  1
  In  In68  1  0.83836533  0.35591812  0.12704250  1
  In  In69  1  0.83186799  0.34371582  0.62716578  1
  In  In70  1  0.84207432  0.67665428  0.12075451  1
  In  In71  1  0.84206873  0.65603852  0.63310772  1
  In  In72  1  0.83526100  0.16651822  0.00043334  1
  In  In73  1  0.49508822  0.16976311  0.00815621  1
  In  In74  1  0.67060927  0.33772926  0.74903214  1
  In  In75  1  0.82964874  0.82916434  0.49055118  1
  In  In76  1  0.49679493  0.83142062  0.49426121  1
  In  In77  1  0.67070719  -0.00427827  0.75109130  1
  In  In78  1  0.67133419  0.67276248  0.24418252  1
  In  In79  1  0.83403987  0.17281521  0.49139796  1
  In  In80  1  0.16622392  0.16677339  0.49580725  1
  In  In81  1  0.49781234  0.83032028  0.00376935  1
  In  In82  1  0.32746151  0.66568025  0.75460592  1
  In  In83  1  0.32571306  0.00501290  0.24374833  1
  In  In84  1  0.66613585  0.33821167  0.24784551  1
  In  In85  1  0.16659815  0.50072063  0.50225729  1
  Cu  Cu86  1  0.67462725  -0.00716328  0.00821985  1
  Cu  Cu87  1  0.50214711  0.82997600  0.75238626  1
  Cu  Cu88  1  0.84157633  0.82545058  0.75800465  1
  Cu  Cu89  1  0.50028630  0.49795600  0.24597559  1
  Cu  Cu90  1  0.33504760  0.34230433  0.49631887  1
  Cu  Cu91  1  0.32952076  0.65882064  -0.00102521  1
  Cu  Cu92  1  0.83557264  0.17144765  0.24905655  1
  Cu  Cu93  1  0.00297693  -0.00967750  0.49865408  1
  Cu  Cu94  1  0.16537405  0.17065101  0.75456224  1
  Cu  Cu95  1  0.83490639  0.50227997  0.75494445  1
  Cu  Cu96  1  0.50142575  0.49737205  0.75318795  1
  Cu  Cu97  1  0.33126228  0.33311203  0.00196364  1
  Cu  Cu98  1  0.00326278  0.34075973  0.00211204  1
  Cu  Cu99  1  0.16286444  0.49854672  0.75961901  1
  Cu  Cu100  1  0.84110693  0.15856888  0.75971397  1
  Cu  Cu101  1  0.33337384  0.66412927  0.49489272  1
  Cu  Cu102  1  0.16237914  0.82943969  0.24146443  1
  Cu  Cu103  1  0.32733105  0.00094486  -0.00444642  1
  Cu  Cu104  1  0.49195366  0.16883447  0.74242521  1
  Cu  Cu105  1  0.66595692  0.34081347  0.00251696  1
  Cu  Cu106  1  0.67124908  0.65750847  0.50193667  1
  Cu  Cu107  1  -0.00274230  0.66315709  0.50694010  1
  Cu  Cu108  1  0.00178451  0.66615008  0.00169574  1
  Cu  Cu109  1  -0.00529091  0.34015803  0.49977318  1
  Cu  Cu110  1  0.16529399  0.16327607  0.24212056  1
  Cu  Cu111  1  0.16846115  0.49994986  0.24457264  1
  Cu  Cu112  1  0.32924604  0.00111229  0.50393982  1
  Cu  Cu113  1  0.65959001  0.33776300  0.49800836  1
  Cu  Cu114  1  0.65996105  0.00679156  0.49616186  1
  Se  Se115  1  0.08505786  0.09804978  0.04371909  1
  Se  Se116  1  0.07722646  0.07789078  0.55694381  1
  Se  Se117  1  0.08628846  0.42294452  0.05693617  1
  Se  Se118  1  0.07954346  0.40944135  0.56372142  1
  Se  Se119  1  0.08567108  0.74906894  0.05516459  1
  Se  Se120  1  0.08285437  0.74902130  0.55440522  1
  Se  Se121  1  0.40792432  0.07115399  0.06193777  1
  Se  Se122  1  0.41430006  0.08759275  0.55105143  1
  Se  Se123  1  0.41647118  0.41523197  0.05442880  1
  Se  Se124  1  0.41686457  0.42372259  0.55198544  1
  Se  Se125  1  0.40516599  0.74151588  0.06219169  1
  Se  Se126  1  0.41090617  0.74365535  0.56092746  1
  Se  Se127  1  0.75586249  0.07436194  0.06491286  1
  Se  Se128  1  0.74721586  0.07864548  0.55629361  1
  Se  Se129  1  0.75513326  0.42229916  0.05051817  1
  Se  Se130  1  0.75123421  0.41265189  0.55092866  1
  Se  Se131  1  0.73281417  0.72566166  0.05464048  1
  Se  Se132  1  0.74588104  0.74431116  0.56102913  1
  Se  Se133  1  0.24782420  0.24920209  0.05349275  1
  Se  Se134  1  0.25044416  0.26382312  0.55564114  1
  Se  Se135  1  0.24667126  0.57704419  0.05424788  1
  Se  Se136  1  0.25562061  0.59212018  0.56336374  1
  Se  Se137  1  0.24539169  0.90979350  0.04204602  1
  Se  Se138  1  0.24708115  0.91504949  0.55368394  1
  Se  Se139  1  0.59145390  0.25859001  0.06351446  1
  Se  Se140  1  0.58008989  0.24825709  0.54761873  1
  Se  Se141  1  0.57111215  0.58454699  0.04263249  1
  Se  Se142  1  0.58176516  0.58151569  0.55530177  1
  Se  Se143  1  0.58718216  0.91802709  0.06600404  1
  Se  Se144  1  0.58846498  0.92120056  0.55847125  1
  Se  Se145  1  0.92072978  0.25979935  0.06175237  1
  Se  Se146  1  0.92312669  0.25218907  0.56077924  1
  Se  Se147  1  0.92008376  0.58355572  0.05693046  1
  Se  Se148  1  0.91573085  0.57633653  0.55712178  1
  Se  Se149  1  0.91361307  0.91087747  0.05933189  1
  Se  Se150  1  0.91675752  0.91526469  0.55700913  1
  Se  Se151  1  0.07352588  0.25931204  0.43914522  1
  Se  Se152  1  0.08427444  0.25348377  0.95123310  1
  Se  Se153  1  0.07725365  0.58702950  0.44098154  1
  Se  Se154  1  0.08583738  0.57943962  0.95139566  1
  Se  Se155  1  0.08444928  0.90695126  0.44535628  1
  Se  Se156  1  0.08787737  0.91523205  0.94573132  1
  Se  Se157  1  0.41448847  0.25280376  0.44561459  1
  Se  Se158  1  0.41019173  0.25127677  0.93890145  1
  Se  Se159  1  0.41905240  0.58111354  0.44592759  1
  Se  Se160  1  0.41549631  0.57735258  0.94793311  1
  Se  Se161  1  0.40499203  0.92226569  0.43733582  1
  Se  Se162  1  0.41209441  0.92094035  0.93850711  1
  Se  Se163  1  0.74148095  0.26285567  0.43367420  1
  Se  Se164  1  0.74036172  0.25791236  0.94060845  1
  Se  Se165  1  0.75753060  0.58080432  0.44678665  1
  Se  Se166  1  0.75940504  0.58379391  0.95138800  1
  Se  Se167  1  0.73804548  0.92617250  0.43659166  1
  Se  Se168  1  0.75652107  0.90473653  0.95976717  1
  Se  Se169  1  0.25415596  0.07572454  0.43527294  1
  Se  Se170  1  0.24756167  0.08880913  0.94473981  1
  Se  Se171  1  0.25192174  0.41569856  0.43460282  1
  Se  Se172  1  0.24838328  0.41734331  0.94901645  1
  Se  Se173  1  0.24849905  0.74772141  0.44538490  1
  Se  Se174  1  0.24869232  0.74900755  0.95079295  1
  Se  Se175  1  0.57390816  0.08728168  0.44551619  1
  Se  Se176  1  0.59239040  0.07446590  0.95069985  1
  Se  Se177  1  0.57877237  0.42506921  0.44676272  1
  Se  Se178  1  0.57848969  0.41836407  0.94901139  1
  Se  Se179  1  0.59363804  0.73968203  0.44069992  1
  Se  Se180  1  0.58377260  0.74406066  0.93897160  1
  Se  Se181  1  0.92286064  0.07196412  0.43880026  1
  Se  Se182  1  0.92787097  0.07745686  0.94444279  1
  Se  Se183  1  0.91771179  0.42397584  0.44375266  1
  Se  Se184  1  0.91506492  0.42218548  0.95245484  1
  Se  Se185  1  0.92557049  0.74008318  0.43793762  1
  Se  Se186  1  0.92379657  0.75024643  0.94352973  1
  Se  Se187  1  0.24981580  0.24792716  0.29345962  1
  Se  Se188  1  0.25088933  0.25517191  0.80515357  1
  Se  Se189  1  0.24991154  0.58508258  0.30028906  1
  Se  Se190  1  0.24183538  0.58038967  0.81941846  1
  Se  Se191  1  0.24251306  0.90760547  0.30604278  1
  Se  Se192  1  0.25924514  0.93440840  0.80154933  1
  Se  Se193  1  0.57757165  0.25293746  0.31098090  1
  Se  Se194  1  0.57506319  0.24309650  0.80510622  1
  Se  Se195  1  0.58310777  0.57721147  0.30649277  1
  Se  Se196  1  0.58580452  0.57866330  0.80569476  1
  Se  Se197  1  0.57824405  0.92132342  0.29424939  1
  Se  Se198  1  0.58179294  0.90955804  0.81568947  1
  Se  Se199  1  0.92096427  0.25336192  0.30088476  1
  Se  Se200  1  0.91989870  0.25015118  0.80790619  1
  Se  Se201  1  0.92689792  0.59778624  0.29836693  1
  Se  Se202  1  0.92112431  0.58318605  0.80757793  1
  Se  Se203  1  0.92194404  0.91890726  0.29581116  1
  Se  Se204  1  0.92193196  0.91390829  0.80693529  1
  Se  Se205  1  0.08358730  0.08007489  0.29820214  1
  Se  Se206  1  0.08420701  0.08518160  0.80738997  1
  Se  Se207  1  0.08443764  0.41846043  0.30074902  1
  Se  Se208  1  0.07970581  0.41350648  0.81142374  1
  Se  Se209  1  0.08388353  0.74841450  0.30142839  1
  Se  Se210  1  0.08805507  0.74770170  0.80052844  1
  Se  Se211  1  0.41416949  0.08695028  0.31029537  1
  Se  Se212  1  0.41673269  0.08006633  0.79710158  1
  Se  Se213  1  0.41596729  0.41573500  0.30011220  1
  Se  Se214  1  0.41435829  0.41379680  0.80084764  1
  Se  Se215  1  0.42775993  0.75505596  0.30001155  1
  Se  Se216  1  0.41774773  0.75783726  0.81522684  1
  Se  Se217  1  0.75044270  0.08920010  0.30156156  1
  Se  Se218  1  0.76144726  0.07756587  0.81827891  1
  Se  Se219  1  0.75953397  0.43026290  0.30312246  1
  Se  Se220  1  0.75276126  0.42405872  0.81588048  1
  Se  Se221  1  0.75782698  0.76312564  0.30859868  1
  Se  Se222  1  0.75245720  0.74442975  0.80626142  1
  Se  Se223  1  0.23088931  0.07686482  0.17669729  1
  Se  Se224  1  0.24482726  0.09085637  0.69277979  1
  Se  Se225  1  0.25362741  0.41460180  0.19450339  1
  Se  Se226  1  0.24990251  0.42081769  0.70416308  1
  Se  Se227  1  0.25090173  0.74644841  0.19435016  1
  Se  Se228  1  0.24265100  0.75978316  0.69471419  1
  Se  Se229  1  0.56942898  0.10321855  0.20330305  1
  Se  Se230  1  0.58292523  0.08968587  0.68866289  1
  Se  Se231  1  0.58642649  0.43025739  0.18193169  1
  Se  Se232  1  0.57799884  0.42034488  0.68673602  1
  Se  Se233  1  0.57999671  0.76004143  0.18479291  1
  Se  Se234  1  0.58855925  0.74363679  0.70723898  1
  Se  Se235  1  0.91986103  0.08755362  0.19686577  1
  Se  Se236  1  0.92274741  0.07766117  0.70304702  1
  Se  Se237  1  0.92473042  0.41672824  0.20153754  1
  Se  Se238  1  0.91495902  0.41433891  0.70105351  1
  Se  Se239  1  0.90256377  0.76094377  0.19796545  1
  Se  Se240  1  0.92133964  0.74426738  0.69811438  1
  Se  Se241  1  0.08267497  0.25219205  0.19308886  1
  Se  Se242  1  0.07868459  0.25478952  0.70346537  1
  Se  Se243  1  0.08396713  0.58677453  0.19651587  1
  Se  Se244  1  0.08358178  0.58177408  0.70259131  1
  Se  Se245  1  0.08442485  0.91617759  0.18732589  1
  Se  Se246  1  0.06634943  0.93289903  0.69324640  1
  Se  Se247  1  0.42622128  0.23413396  0.19543742  1
  Se  Se248  1  0.41157456  0.25545265  0.69095891  1
  Se  Se249  1  0.41644696  0.58373472  0.19529794  1
  Se  Se250  1  0.42269435  0.58095216  0.69222208  1
  Se  Se251  1  0.41648264  0.90931359  0.18961120  1
  Se  Se252  1  0.42211584  0.91478288  0.69831879  1
  Se  Se253  1  0.75688321  0.24833873  0.18630833  1
  Se  Se254  1  0.76264315  0.23758989  0.69636536  1
  Se  Se255  1  0.75907929  0.57765259  0.18930701  1
  Se  Se256  1  0.74826274  0.57958033  0.69796301  1
  Se  Se257  1  0.73004523  0.93743395  0.19514569  1
  Se  Se258  1  0.76279644  0.90332006  0.69163703  1
