# generated using pymatgen
data_In86Cu29Se144
_symmetry_space_group_name_H-M   'P 1'
_cell_length_a   17.57120448
_cell_length_b   17.57469291
_cell_length_c   23.42697439
_cell_angle_alpha   89.97596905
_cell_angle_beta   90.00913236
_cell_angle_gamma   89.97190867
_symmetry_Int_Tables_number   1
_chemical_formula_structural   In86Cu29Se144
_chemical_formula_sum   'In86 Cu29 Se144'
_cell_volume   7234.44775765
_cell_formula_units_Z   1
loop_
 _symmetry_equiv_pos_site_id
 _symmetry_equiv_pos_as_xyz
  1  'x, y, z'
loop_
 _atom_site_type_symbol
 _atom_site_label
 _atom_site_symmetry_multiplicity
 _atom_site_fract_x
 _atom_site_fract_y
 _atom_site_fract_z
 _atom_site_occupancy
  In  In0  1  -0.01327995  0.15804829  0.11364583  1
  In  In1  1  0.01184971  0.16985749  0.63340829  1
  In  In2  1  0.00378601  0.51152457  0.12505008  1
  In  In3  1  0.01125577  0.49218169  0.63252693  1
  In  In4  1  0.01523094  0.83722161  0.11189570  1
  In  In5  1  -0.00723469  0.82564906  0.61571970  1
  In  In6  1  0.33488205  0.16257444  0.11791372  1
  In  In7  1  0.32128114  0.16041059  0.62858528  1
  In  In8  1  0.36331825  0.47753496  0.16019193  1
  In  In9  1  0.33578656  0.51966229  0.62785635  1
  In  In10  1  0.33452185  0.83359742  0.12545298  1
  In  In11  1  0.32263907  0.83918780  0.63102894  1
  In  In12  1  0.66300746  0.16677448  0.12263548  1
  In  In13  1  0.65772328  0.15957448  0.62752389  1
  In  In14  1  0.64150271  0.51920569  0.13476743  1
  In  In15  1  0.66321676  0.49445211  0.62272863  1
  In  In16  1  0.67183735  0.82891886  0.11692405  1
  In  In17  1  0.67658494  0.83646887  0.62484482  1
  In  In18  1  0.15702801  -0.00564485  0.36418068  1
  In  In19  1  0.17760244  -0.01448169  0.88249151  1
  In  In20  1  0.17700337  0.34086335  0.36735748  1
  In  In21  1  0.15611693  0.33519543  0.87593087  1
  In  In22  1  0.16643076  0.66743847  0.39179539  1
  In  In23  1  0.17160257  0.67038277  0.87397050  1
  In  In24  1  0.50354779  -0.00057861  0.36198550  1
  In  In25  1  0.50054143  -0.00644088  0.88005478  1
  In  In26  1  0.49292733  0.33741792  0.35128578  1
  In  In27  1  0.51960760  0.32443451  0.90516519  1
  In  In28  1  0.49183137  0.65483857  0.35189950  1
  In  In29  1  0.48899902  0.68104759  0.89814970  1
  In  In30  1  0.81634247  -0.02413187  0.36232880  1
  In  In31  1  0.82718696  0.00520069  0.87741584  1
  In  In32  1  0.82943308  0.34233492  0.36954113  1
  In  In33  1  0.83409296  0.32672575  0.88290719  1
  In  In34  1  0.84004282  0.67808799  0.36819898  1
  In  In35  1  0.84490179  0.66942620  0.87736992  1
  In  In36  1  0.01568588  0.16022626  0.37284443  1
  In  In37  1  -0.00752547  0.17311433  0.88202255  1
  In  In38  1  0.01144637  0.52073103  0.37597950  1
  In  In39  1  0.00906826  0.50624563  0.86518891  1
  In  In40  1  -0.01118622  0.83322970  0.38238807  1
  In  In41  1  0.00659890  0.81830605  0.89415930  1
  In  In42  1  0.33139595  0.16866235  0.36000585  1
  In  In43  1  0.34759267  0.15293653  0.88925788  1
  In  In44  1  0.31604605  0.49424700  0.35425613  1
  In  In45  1  0.33782168  0.50993648  0.87557798  1
  In  In46  1  0.32211530  0.82560987  0.36260352  1
  In  In47  1  0.33154722  0.82876950  0.87886003  1
  In  In48  1  0.65863988  0.15512123  0.36260062  1
  In  In49  1  0.67886659  0.16050082  0.89172557  1
  In  In50  1  0.65985369  0.49455803  0.34906231  1
  In  In51  1  0.65939529  0.49132958  0.88672228  1
  In  In52  1  0.67358310  0.83748863  0.36474886  1
  In  In53  1  0.64809223  0.83355731  0.89436705  1
  In  In54  1  0.16569314  -0.00007922  0.12199794  1
  In  In55  1  0.17482160  -0.00054859  0.62882495  1
  In  In56  1  0.18934356  0.33814364  0.12905654  1
  In  In57  1  0.15910755  0.32517547  0.62765641  1
  In  In58  1  0.17147242  0.67498992  0.12374090  1
  In  In59  1  0.16790928  0.66954734  0.62593887  1
  In  In60  1  0.50099111  -0.00160835  0.12208452  1
  In  In61  1  0.50011202  -0.00860230  0.63563978  1
  In  In62  1  0.50751367  0.32882119  0.12030264  1
  In  In63  1  0.51206598  0.33199914  0.62929692  1
  In  In64  1  0.49645731  0.66663869  0.12325825  1
  In  In65  1  0.49580573  0.65505559  0.63172065  1
  In  In66  1  0.83206776  -0.00100490  0.12348988  1
  In  In67  1  0.83388853  -0.01218948  0.62731694  1
  In  In68  1  0.82463258  0.31639478  0.11883034  1
  In  In69  1  0.83686176  0.35010467  0.62695751  1
  In  In70  1  0.82386368  0.66532988  0.11497411  1
  In  In71  1  0.82851059  0.68673514  0.62573226  1
  In  In72  1  -0.00052347  0.00022218  0.75540345  1
  In  In73  1  0.66582489  0.66994527  0.75450531  1
  In  In74  1  0.16697976  0.16235183  0.50230945  1
  In  In75  1  0.50113179  0.83325251  0.49454831  1
  In  In76  1  0.83621753  0.15883767  0.50439766  1
  In  In77  1  -0.00594710  0.32403323  0.24789531  1
  In  In78  1  0.67352339  0.32689410  0.76766773  1
  In  In79  1  0.49392287  0.50356173  0.49058487  1
  In  In80  1  0.33513223  0.33117361  0.75566971  1
  In  In81  1  0.82893291  0.49586788  0.00616807  1
  In  In82  1  0.17515830  0.50416709  0.00391778  1
  In  In83  1  0.49362821  0.15789095  0.47942092  1
  In  In84  1  0.00353451  0.67247859  0.24802536  1
  In  In85  1  0.83810431  0.51666665  0.49467142  1
  Cu  Cu86  1  0.66085853  0.32528887  0.48732023  1
  Cu  Cu87  1  0.16507880  0.82723665  0.75362091  1
  Cu  Cu88  1  0.83004848  0.17077974  0.75975262  1
  Cu  Cu89  1  0.82692161  0.49423131  0.23935954  1
  Cu  Cu90  1  -0.00050746  0.00434634  -0.00336196  1
  Cu  Cu91  1  0.00475392  0.34214503  0.50388738  1
  Cu  Cu92  1  0.83263960  0.83798987  0.75293788  1
  Cu  Cu93  1  0.49533361  0.50258928  0.76320065  1
  Cu  Cu94  1  0.49547341  0.83345118  0.76084385  1
  Cu  Cu95  1  0.33629601  0.00174852  0.49809369  1
  Cu  Cu96  1  0.66450810  0.00348092  0.00589152  1
  Cu  Cu97  1  0.49816966  0.16602385  0.23946942  1
  Cu  Cu98  1  0.66683331  0.67136289  0.48750102  1
  Cu  Cu99  1  0.33383873  0.66353989  0.00686594  1
  Cu  Cu100  1  0.32960417  0.67222390  0.50022439  1
  Cu  Cu101  1  0.33531527  0.33456891  0.00979431  1
  Cu  Cu102  1  0.84551965  0.50733547  0.75018238  1
  Cu  Cu103  1  0.83137083  0.15629786  0.24394017  1
  Cu  Cu104  1  0.50623239  0.83658359  0.23909555  1
  Cu  Cu105  1  0.49725554  0.15189068  0.75857424  1
  Cu  Cu106  1  0.17017027  0.16378398  0.75635397  1
  Cu  Cu107  1  0.16579936  0.83975903  0.24537229  1
  Cu  Cu108  1  -0.00671062  -0.00800579  0.49458244  1
  Cu  Cu109  1  0.33061320  0.35185084  0.49223783  1
  Cu  Cu110  1  0.16611528  0.16423967  0.23997539  1
  Cu  Cu111  1  0.00272931  0.33301855  0.00227896  1
  Cu  Cu112  1  0.33289750  -0.00874661  0.00361202  1
  Cu  Cu113  1  0.83500342  0.83506227  0.24256990  1
  Cu  Cu114  1  0.17027796  0.50411205  0.75177360  1
  Se  Se115  1  0.08489773  0.08531699  0.05123722  1
  Se  Se116  1  0.07098279  0.07077856  0.55903454  1
  Se  Se117  1  0.08190488  0.41088954  0.06300147  1
  Se  Se118  1  0.09328670  0.41823312  0.55722245  1
  Se  Se119  1  0.08574242  0.73850919  0.04904080  1
  Se  Se120  1  0.10374276  0.76992825  0.56026955  1
  Se  Se121  1  0.41835261  0.07853574  0.05056609  1
  Se  Se122  1  0.41447593  0.08128483  0.55917261  1
  Se  Se123  1  0.41281892  0.42110524  0.06496443  1
  Se  Se124  1  0.41691415  0.41251253  0.56150836  1
  Se  Se125  1  0.41642658  0.75365806  0.05358597  1
  Se  Se126  1  0.41523157  0.74488665  0.56169841  1
  Se  Se127  1  0.75227098  0.08610440  0.05493116  1
  Se  Se128  1  0.73982277  0.07183862  0.55949185  1
  Se  Se129  1  0.73754850  0.41902121  0.07040864  1
  Se  Se130  1  0.74228596  0.40926975  0.54782900  1
  Se  Se131  1  0.77214834  0.76762174  0.04555986  1
  Se  Se132  1  0.74351915  0.75079053  0.54865727  1
  Se  Se133  1  0.24563056  0.24829638  0.05277838  1
  Se  Se134  1  0.26199560  0.26087071  0.55440732  1
  Se  Se135  1  0.26541701  0.57898838  0.07091804  1
  Se  Se136  1  0.25007397  0.58491938  0.55375844  1
  Se  Se137  1  0.24607884  0.91067755  0.05524773  1
  Se  Se138  1  0.25330482  0.92261904  0.55446202  1
  Se  Se139  1  0.58053157  0.24227394  0.04957184  1
  Se  Se140  1  0.58202729  0.24755454  0.54928155  1
  Se  Se141  1  0.59189184  0.60241471  0.05018535  1
  Se  Se142  1  0.59003560  0.59224576  0.55279154  1
  Se  Se143  1  0.58215389  0.91349998  0.05298309  1
  Se  Se144  1  0.58676431  0.92296755  0.55808720  1
  Se  Se145  1  0.91163715  0.24927305  0.04531030  1
  Se  Se146  1  0.92700883  0.25786078  0.56149372  1
  Se  Se147  1  0.92901829  0.59307506  0.05108157  1
  Se  Se148  1  0.91772582  0.58667845  0.57177423  1
  Se  Se149  1  0.92063015  0.92176054  0.05377793  1
  Se  Se150  1  0.90907254  0.91364276  0.55101340  1
  Se  Se151  1  0.08264881  0.26047141  0.44229591  1
  Se  Se152  1  0.08527853  0.24970304  0.94814959  1
  Se  Se153  1  0.07180125  0.59541793  0.45688974  1
  Se  Se154  1  0.08053954  0.58685045  0.94320383  1
  Se  Se155  1  0.08441303  0.91788070  0.44146307  1
  Se  Se156  1  0.08592942  0.91524102  0.95197865  1
  Se  Se157  1  0.40666742  0.26608794  0.43215722  1
  Se  Se158  1  0.41650958  0.24698003  0.95802562  1
  Se  Se159  1  0.40414869  0.59357835  0.43414920  1
  Se  Se160  1  0.41573092  0.57615629  0.95449763  1
  Se  Se161  1  0.41131672  0.92337539  0.43390137  1
  Se  Se162  1  0.41642205  0.90962467  0.94766906  1
  Se  Se163  1  0.74882085  0.24598843  0.43494871  1
  Se  Se164  1  0.73009773  0.27535292  0.94878521  1
  Se  Se165  1  0.73798596  0.58286463  0.42749820  1
  Se  Se166  1  0.74887252  0.58806505  0.94106317  1
  Se  Se167  1  0.75184451  0.90398701  0.44382864  1
  Se  Se168  1  0.74384247  0.92329238  0.94665303  1
  Se  Se169  1  0.25557080  0.08080885  0.43595484  1
  Se  Se170  1  0.24969204  0.07817106  0.95077225  1
  Se  Se171  1  0.24402131  0.43039800  0.44000882  1
  Se  Se172  1  0.25941320  0.40831804  0.94070873  1
  Se  Se173  1  0.25247884  0.76313665  0.44865581  1
  Se  Se174  1  0.25127785  0.74414991  0.94944165  1
  Se  Se175  1  0.59645130  0.06346567  0.44044223  1
  Se  Se176  1  0.57917783  0.08236866  0.94842568  1
  Se  Se177  1  0.58452914  0.41037618  0.42983317  1
  Se  Se178  1  0.57473278  0.43324986  0.96429922  1
  Se  Se179  1  0.57861784  0.74015554  0.42711578  1
  Se  Se180  1  0.59789954  0.72833359  0.96351468  1
  Se  Se181  1  0.92042810  0.07739336  0.43434773  1
  Se  Se182  1  0.91090393  0.08620058  0.94680341  1
  Se  Se183  1  0.92598639  0.41494669  0.43838718  1
  Se  Se184  1  0.92992998  0.41878388  0.94101296  1
  Se  Se185  1  0.92390458  0.73187963  0.44722897  1
  Se  Se186  1  0.89413296  0.76380254  0.95432934  1
  Se  Se187  1  0.24449381  0.25125932  0.29524323  1
  Se  Se188  1  0.25096015  0.24061576  0.81883032  1
  Se  Se189  1  0.24340756  0.60661467  0.31052337  1
  Se  Se190  1  0.25353054  0.58519843  0.80544713  1
  Se  Se191  1  0.25182949  0.92373708  0.29750484  1
  Se  Se192  1  0.25043593  0.90974738  0.80526563  1
  Se  Se193  1  0.58289074  0.24622123  0.29634777  1
  Se  Se194  1  0.57343243  0.23919576  0.81826369  1
  Se  Se195  1  0.58248969  0.58245516  0.28489007  1
  Se  Se196  1  0.57815678  0.58511803  0.81960352  1
  Se  Se197  1  0.58909808  0.91810426  0.29574450  1
  Se  Se198  1  0.58619019  0.91055945  0.81114083  1
  Se  Se199  1  0.90581592  0.23399942  0.31152975  1
  Se  Se200  1  0.91642945  0.25476765  0.80747363  1
  Se  Se201  1  0.90912821  0.57261148  0.30098247  1
  Se  Se202  1  0.92469224  0.59527743  0.80184090  1
  Se  Se203  1  0.92175583  0.91058396  0.30132294  1
  Se  Se204  1  0.91594178  0.90936359  0.81727211  1
  Se  Se205  1  0.08117144  0.08245181  0.29387532  1
  Se  Se206  1  0.08901533  0.08574682  0.81810438  1
  Se  Se207  1  0.07763317  0.42216710  0.30588023  1
  Se  Se208  1  0.08673245  0.41546602  0.79928466  1
  Se  Se209  1  0.08895642  0.76073211  0.31117796  1
  Se  Se210  1  0.07882139  0.75152564  0.81056495  1
  Se  Se211  1  0.41713697  0.08335706  0.29728786  1
  Se  Se212  1  0.41115842  0.07156223  0.80964387  1
  Se  Se213  1  0.41484622  0.42862193  0.28884822  1
  Se  Se214  1  0.42839809  0.40899946  0.82118802  1
  Se  Se215  1  0.41911646  0.75873763  0.29542340  1
  Se  Se216  1  0.41903932  0.74360160  0.81252354  1
  Se  Se217  1  0.74606947  0.07329773  0.29755744  1
  Se  Se218  1  0.74361223  0.08749193  0.80764884  1
  Se  Se219  1  0.74827321  0.40409552  0.29073191  1
  Se  Se220  1  0.76362484  0.43145158  0.81359876  1
  Se  Se221  1  0.75359148  0.74938080  0.29674685  1
  Se  Se222  1  0.75130292  0.76068000  0.81534427  1
  Se  Se223  1  0.25206128  0.08150639  0.18980114  1
  Se  Se224  1  0.25116322  0.07904073  0.70366834  1
  Se  Se225  1  0.24013186  0.42560609  0.20709876  1
  Se  Se226  1  0.24999400  0.42023780  0.69085557  1
  Se  Se227  1  0.25005219  0.75361920  0.19687592  1
  Se  Se228  1  0.25191277  0.74721616  0.69924667  1
  Se  Se229  1  0.58448273  0.08015490  0.19214412  1
  Se  Se230  1  0.58449903  0.07763143  0.70072710  1
  Se  Se231  1  0.57785507  0.41487571  0.19458879  1
  Se  Se232  1  0.58160782  0.42343433  0.70478909  1
  Se  Se233  1  0.58779586  0.75021019  0.18810572  1
  Se  Se234  1  0.57377639  0.75892186  0.69145863  1
  Se  Se235  1  0.92062879  0.07919216  0.19282913  1
  Se  Se236  1  0.90752968  0.09254091  0.69360381  1
  Se  Se237  1  0.91230341  0.41792736  0.18302105  1
  Se  Se238  1  0.92316742  0.41351999  0.70170203  1
  Se  Se239  1  0.91511994  0.75444419  0.18211616  1
  Se  Se240  1  0.91550970  0.75838210  0.69693346  1
  Se  Se241  1  0.08413018  0.24538466  0.18131959  1
  Se  Se242  1  0.08682508  0.24972922  0.70648846  1
  Se  Se243  1  0.09675849  0.57747384  0.19612491  1
  Se  Se244  1  0.08703294  0.58608193  0.69654736  1
  Se  Se245  1  0.07910284  0.91808925  0.19171524  1
  Se  Se246  1  0.08641973  0.91154615  0.69290254  1
  Se  Se247  1  0.41410013  0.24932535  0.18729028  1
  Se  Se248  1  0.42661678  0.23735153  0.69359667  1
  Se  Se249  1  0.40254159  0.60843984  0.19790175  1
  Se  Se250  1  0.41421974  0.58600185  0.70770693  1
  Se  Se251  1  0.41634201  0.91977667  0.19297208  1
  Se  Se252  1  0.41309313  0.91243220  0.70100373  1
  Se  Se253  1  0.74854227  0.24428483  0.19604033  1
  Se  Se254  1  0.75441448  0.24772410  0.68980950  1
  Se  Se255  1  0.75024942  0.58892373  0.19183890  1
  Se  Se256  1  0.75339733  0.57618583  0.69025997  1
  Se  Se257  1  0.74772748  0.91491866  0.19052326  1
  Se  Se258  1  0.74629717  0.91967941  0.70113773  1
