# generated using pymatgen
data_In86Cu29Se144
_symmetry_space_group_name_H-M   'P 1'
_cell_length_a   17.58546575
_cell_length_b   17.58435735
_cell_length_c   23.44845239
_cell_angle_alpha   90.00808507
_cell_angle_beta   90.01220208
_cell_angle_gamma   89.99968830
_symmetry_Int_Tables_number   1
_chemical_formula_structural   In86Cu29Se144
_chemical_formula_sum   'In86 Cu29 Se144'
_cell_volume   7250.94391811
_cell_formula_units_Z   1
loop_
 _symmetry_equiv_pos_site_id
 _symmetry_equiv_pos_as_xyz
  1  'x, y, z'
loop_
 _atom_site_type_symbol
 _atom_site_label
 _atom_site_symmetry_multiplicity
 _atom_site_fract_x
 _atom_site_fract_y
 _atom_site_fract_z
 _atom_site_occupancy
  In  In0  1  0.00326032  0.14903439  0.12180352  1
  In  In1  1  -0.00902887  0.17443209  0.63243518  1
  In  In2  1  -0.00895278  0.51734203  0.12424749  1
  In  In3  1  -0.01414745  0.50157864  0.62570289  1
  In  In4  1  -0.00505573  0.82537580  0.12321902  1
  In  In5  1  0.00570721  0.83690529  0.62192692  1
  In  In6  1  0.32827754  0.17634936  0.12340734  1
  In  In7  1  0.33946194  0.17678418  0.62608041  1
  In  In8  1  0.33956268  0.49642720  0.13093228  1
  In  In9  1  0.34111595  0.49060707  0.63057562  1
  In  In10  1  0.32151328  0.83555829  0.13270073  1
  In  In11  1  0.32701777  0.82097170  0.62079129  1
  In  In12  1  0.67420979  0.17740269  0.12724183  1
  In  In13  1  0.68212233  0.16228135  0.62762024  1
  In  In14  1  0.66204922  0.49362979  0.11073099  1
  In  In15  1  0.66787418  0.50204375  0.62606309  1
  In  In16  1  0.67708167  0.81681258  0.12767540  1
  In  In17  1  0.66264897  0.82402291  0.61678758  1
  In  In18  1  0.14783517  -0.00905112  0.36946365  1
  In  In19  1  0.14824447  0.00855268  0.88925563  1
  In  In20  1  0.17163393  0.32400810  0.36772480  1
  In  In21  1  0.15403461  0.33419747  0.86480478  1
  In  In22  1  0.17168190  0.67746923  0.36884276  1
  In  In23  1  0.17422030  0.66236606  0.87855642  1
  In  In24  1  0.49375886  -0.01149594  0.37648372  1
  In  In25  1  0.50573865  0.00533707  0.87386690  1
  In  In26  1  0.50970008  0.34476742  0.37150370  1
  In  In27  1  0.51681756  0.36034451  0.86373997  1
  In  In28  1  0.49460799  0.67080247  0.37997494  1
  In  In29  1  0.49144229  0.65366143  0.86945524  1
  In  In30  1  0.84468976  -0.01029590  0.38192190  1
  In  In31  1  0.84162356  -0.01358327  0.88041680  1
  In  In32  1  0.81649458  0.34900386  0.38357765  1
  In  In33  1  0.83567713  0.33998362  0.87319095  1
  In  In34  1  0.84054592  0.66105533  0.37343097  1
  In  In35  1  0.82478278  0.67425420  0.87834611  1
  In  In36  1  -0.00209027  0.15184129  0.37125438  1
  In  In37  1  0.00288907  0.17164847  0.87269010  1
  In  In38  1  -0.02355102  0.50675757  0.37319818  1
  In  In39  1  0.00588297  0.48942515  0.87711419  1
  In  In40  1  -0.00551390  0.83492906  0.37331826  1
  In  In41  1  -0.01116505  0.83937270  0.88607257  1
  In  In42  1  0.32396411  0.17044437  0.37119847  1
  In  In43  1  0.31588707  0.17377015  0.87803964  1
  In  In44  1  0.34043837  0.51179427  0.37006096  1
  In  In45  1  0.33337989  0.51460447  0.86585775  1
  In  In46  1  0.34394925  0.81336538  0.38309685  1
  In  In47  1  0.32998995  0.81499739  0.87323536  1
  In  In48  1  0.66508189  0.18636308  0.37501110  1
  In  In49  1  0.66038397  0.17746434  0.87384439  1
  In  In50  1  0.67555960  0.48960189  0.38151368  1
  In  In51  1  0.66293356  0.49767126  0.87668427  1
  In  In52  1  0.67070265  0.82543986  0.38141234  1
  In  In53  1  0.68351542  0.83089951  0.87539362  1
  In  In54  1  0.12878958  -0.03974897  0.09106289  1
  In  In55  1  0.16223822  -0.01580824  0.62644923  1
  In  In56  1  0.18273815  0.33849121  0.12048297  1
  In  In57  1  0.16451167  0.33870861  0.63909559  1
  In  In58  1  0.15318794  0.68139799  0.13393341  1
  In  In59  1  0.16311289  0.67965606  0.62849103  1
  In  In60  1  0.49217854  -0.00656470  0.12835430  1
  In  In61  1  0.51249316  -0.00355208  0.62281356  1
  In  In62  1  0.49532837  0.34105056  0.12631164  1
  In  In63  1  0.49393882  0.34817326  0.63039328  1
  In  In64  1  0.51066611  0.65085543  0.13029272  1
  In  In65  1  0.50463256  0.66398037  0.62274350  1
  In  In66  1  0.85761110  -0.00922721  0.13577618  1
  In  In67  1  0.84098566  0.00651251  0.61915752  1
  In  In68  1  0.82016484  0.34148481  0.12611693  1
  In  In69  1  0.83081866  0.33417997  0.62824149  1
  In  In70  1  0.84680550  0.67220603  0.11072990  1
  In  In71  1  0.82647070  0.65547598  0.61773024  1
  In  In72  1  0.50197955  0.16427668  0.50144007  1
  In  In73  1  0.16368548  0.50226850  0.50114931  1
  In  In74  1  0.83779060  0.16900995  -0.00225032  1
  In  In75  1  0.67207055  0.00156555  0.25617184  1
  In  In76  1  0.67418176  0.00006184  0.75011370  1
  In  In77  1  0.32917732  -0.00198665  0.74986182  1
  In  In78  1  0.16467397  0.50365036  -0.00118264  1
  In  In79  1  0.16329682  0.16123808  0.49414409  1
  In  In80  1  0.67518201  0.65997235  0.25107886  1
  In  In81  1  0.00260491  0.66018347  0.75186393  1
  In  In82  1  0.32717947  0.00199297  0.24739239  1
  In  In83  1  0.00142045  0.33811457  0.25000766  1
  In  In84  1  0.49771708  0.17637374  0.00100817  1
  In  In85  1  0.49880578  0.82686907  0.00549558  1
  Cu  Cu86  1  0.33723555  0.66313418  0.50072244  1
  Cu  Cu87  1  0.83813564  0.82941539  0.75186635  1
  Cu  Cu88  1  0.50194028  0.82269846  0.74622341  1
  Cu  Cu89  1  0.33267578  0.66118420  0.00166015  1
  Cu  Cu90  1  0.16194175  0.16507323  0.75447340  1
  Cu  Cu91  1  0.67013003  -0.00467205  0.49955817  1
  Cu  Cu92  1  -0.01233304  0.32942077  0.50232091  1
  Cu  Cu93  1  0.66852880  0.33557944  0.50503100  1
  Cu  Cu94  1  0.33026787  -0.00452339  -0.00501895  1
  Cu  Cu95  1  0.50390546  0.50614608  0.74764363  1
  Cu  Cu96  1  0.50016103  0.49800349  0.25093831  1
  Cu  Cu97  1  0.00158752  0.33061138  -0.00327615  1
  Cu  Cu98  1  0.50203844  0.17463846  0.24760386  1
  Cu  Cu99  1  0.82830769  0.49695135  0.74930892  1
  Cu  Cu100  1  0.33459750  0.33718201  0.50288307  1
  Cu  Cu101  1  0.33561637  0.33967397  -0.00264534  1
  Cu  Cu102  1  0.16126392  0.83411216  0.24870312  1
  Cu  Cu103  1  0.16131171  0.83726421  0.75234338  1
  Cu  Cu104  1  0.17259810  0.16721182  0.24263039  1
  Cu  Cu105  1  0.16809151  0.50219058  0.24567963  1
  Cu  Cu106  1  -0.00236615  -0.00551707  0.49861702  1
  Cu  Cu107  1  0.32990819  -0.01461493  0.49970153  1
  Cu  Cu108  1  0.83788064  0.16994105  0.75167243  1
  Cu  Cu109  1  0.49512665  0.18185894  0.75189271  1
  Cu  Cu110  1  0.66732434  0.66226172  0.49891794  1
  Cu  Cu111  1  0.83492230  0.17432300  0.24964696  1
  Cu  Cu112  1  0.66736988  0.66365135  -0.00057209  1
  Cu  Cu113  1  0.67839698  0.00007018  0.00691937  1
  Cu  Cu114  1  -0.00222589  0.67160398  0.49852178  1
  Se  Se115  1  0.09753161  0.09262262  0.05028996  1
  Se  Se116  1  0.07669237  0.07741228  0.56037716  1
  Se  Se117  1  0.07635096  0.41250121  0.06141074  1
  Se  Se118  1  0.07605303  0.40582650  0.55928309  1
  Se  Se119  1  0.08927712  0.75504478  0.05374266  1
  Se  Se120  1  0.08414709  0.75054647  0.55213413  1
  Se  Se121  1  0.41070987  0.07483557  0.05554389  1
  Se  Se122  1  0.40600314  0.07197828  0.55867180  1
  Se  Se123  1  0.41569145  0.42112676  0.05365818  1
  Se  Se124  1  0.41971277  0.42125223  0.55166362  1
  Se  Se125  1  0.40960003  0.73977563  0.06701386  1
  Se  Se126  1  0.41995978  0.74873782  0.55435702  1
  Se  Se127  1  0.75602542  0.07869944  0.06783502  1
  Se  Se128  1  0.75071794  0.08296266  0.55088445  1
  Se  Se129  1  0.75671164  0.41786731  0.04676817  1
  Se  Se130  1  0.75292884  0.41920053  0.55768590  1
  Se  Se131  1  0.75103112  0.75187837  0.04707139  1
  Se  Se132  1  0.75284957  0.74756952  0.55009255  1
  Se  Se133  1  0.25246865  0.25259985  0.04658937  1
  Se  Se134  1  0.24878136  0.25616539  0.55646933  1
  Se  Se135  1  0.25047394  0.58786357  0.06628554  1
  Se  Se136  1  0.25423758  0.58837768  0.56321572  1
  Se  Se137  1  0.25634088  0.90715113  0.05031314  1
  Se  Se138  1  0.24449044  0.90863204  0.55507313  1
  Se  Se139  1  0.59293130  0.26203607  0.05718935  1
  Se  Se140  1  0.58759248  0.25325169  0.56504265  1
  Se  Se141  1  0.57670072  0.58274054  0.04687974  1
  Se  Se142  1  0.58472448  0.57934158  0.55341086  1
  Se  Se143  1  0.59260717  0.92050114  0.06305424  1
  Se  Se144  1  0.58272982  0.91367808  0.54966154  1
  Se  Se145  1  0.92405143  0.25669210  0.06420911  1
  Se  Se146  1  0.90887778  0.24551042  0.55759200  1
  Se  Se147  1  0.91317707  0.57536310  0.04333120  1
  Se  Se148  1  0.91783804  0.58169001  0.54880183  1
  Se  Se149  1  0.93145721  0.92777711  0.05559001  1
  Se  Se150  1  0.91463928  0.91196568  0.55384299  1
  Se  Se151  1  0.07204191  0.25810171  0.43894442  1
  Se  Se152  1  0.08684641  0.25206701  0.94271689  1
  Se  Se153  1  0.07645858  0.58906253  0.43707802  1
  Se  Se154  1  0.07071617  0.59419778  0.94388706  1
  Se  Se155  1  0.08218086  0.91107012  0.44711372  1
  Se  Se156  1  0.09220824  0.90161520  0.95042570  1
  Se  Se157  1  0.41131095  0.25368259  0.44090568  1
  Se  Se158  1  0.41489893  0.26162874  0.93337481  1
  Se  Se159  1  0.41983576  0.57860402  0.44868314  1
  Se  Se160  1  0.41371338  0.57991978  0.94600591  1
  Se  Se161  1  0.41980098  0.90748907  0.44911799  1
  Se  Se162  1  0.41590677  0.91920360  0.93749784  1
  Se  Se163  1  0.74961998  0.25053592  0.45140175  1
  Se  Se164  1  0.74243726  0.25903872  0.94455423  1
  Se  Se165  1  0.75364422  0.58383967  0.44376533  1
  Se  Se166  1  0.74885073  0.58128228  0.94385193  1
  Se  Se167  1  0.75346453  0.91209186  0.44688300  1
  Se  Se168  1  0.75338384  0.91380661  0.95074192  1
  Se  Se169  1  0.25591331  0.06789528  0.43716301  1
  Se  Se170  1  0.24798618  0.08508822  0.94870729  1
  Se  Se171  1  0.25251218  0.41122313  0.43917784  1
  Se  Se172  1  0.25245692  0.41564257  0.93518267  1
  Se  Se173  1  0.24755479  0.74458055  0.45026637  1
  Se  Se174  1  0.25038499  0.74709772  0.95088741  1
  Se  Se175  1  0.59103383  0.07615635  0.43742292  1
  Se  Se176  1  0.59540474  0.07757953  0.94793171  1
  Se  Se177  1  0.58324644  0.41617398  0.45061964  1
  Se  Se178  1  0.57979267  0.42097907  0.94961470  1
  Se  Se179  1  0.58263549  0.74792355  0.44849090  1
  Se  Se180  1  0.58603199  0.74520301  0.93782151  1
  Se  Se181  1  0.91749779  0.08522647  0.44917507  1
  Se  Se182  1  0.92936843  0.07566249  0.94466261  1
  Se  Se183  1  0.91287435  0.42039186  0.44951531  1
  Se  Se184  1  0.91760520  0.41546587  0.94710608  1
  Se  Se185  1  0.91326543  0.75146054  0.44334860  1
  Se  Se186  1  0.90735750  0.75132691  0.94845258  1
  Se  Se187  1  0.25573031  0.25147832  0.29447279  1
  Se  Se188  1  0.24723756  0.25220109  0.80101564  1
  Se  Se189  1  0.24856663  0.58522476  0.30346287  1
  Se  Se190  1  0.24364786  0.59072941  0.79977271  1
  Se  Se191  1  0.24752079  0.90760127  0.31198068  1
  Se  Se192  1  0.24220329  0.91480494  0.81566392  1
  Se  Se193  1  0.58496258  0.25820415  0.30007517  1
  Se  Se194  1  0.58707629  0.25860373  0.80095827  1
  Se  Se195  1  0.58082024  0.57633376  0.31320601  1
  Se  Se196  1  0.58852722  0.58546240  0.80373235  1
  Se  Se197  1  0.58002816  0.90613041  0.30853076  1
  Se  Se198  1  0.57828826  0.90746888  0.80665341  1
  Se  Se199  1  0.91279687  0.25260475  0.31473056  1
  Se  Se200  1  0.91855888  0.25460479  0.80614240  1
  Se  Se201  1  0.91266699  0.58526131  0.29522312  1
  Se  Se202  1  0.90784656  0.57580561  0.81208142  1
  Se  Se203  1  0.93028059  0.93295468  0.30471919  1
  Se  Se204  1  0.91958729  0.91442973  0.80401080  1
  Se  Se205  1  0.08883849  0.08765779  0.29846901  1
  Se  Se206  1  0.08054823  0.07912909  0.80605763  1
  Se  Se207  1  0.08974639  0.42837487  0.31332834  1
  Se  Se208  1  0.08387237  0.42727186  0.79808550  1
  Se  Se209  1  0.07808671  0.75115482  0.30351974  1
  Se  Se210  1  0.08335186  0.75603481  0.81397075  1
  Se  Se211  1  0.42512287  0.09138256  0.30798483  1
  Se  Se212  1  0.41957578  0.09348185  0.80901122  1
  Se  Se213  1  0.41455500  0.41599205  0.30504595  1
  Se  Se214  1  0.41523384  0.42493912  0.80045282  1
  Se  Se215  1  0.41276725  0.74056240  0.30446993  1
  Se  Se216  1  0.41568602  0.74489023  0.80094936  1
  Se  Se217  1  0.75836902  0.09511998  0.31492826  1
  Se  Se218  1  0.75998684  0.08977499  0.81558282  1
  Se  Se219  1  0.74942483  0.41897095  0.30237721  1
  Se  Se220  1  0.74554750  0.41493886  0.80517503  1
  Se  Se221  1  0.76032738  0.75871870  0.30666328  1
  Se  Se222  1  0.74879846  0.74732701  0.79888028  1
  Se  Se223  1  0.24059324  0.08086253  0.18005848  1
  Se  Se224  1  0.24128907  0.09070901  0.68789647  1
  Se  Se225  1  0.25249317  0.41522244  0.19875462  1
  Se  Se226  1  0.25519880  0.41645715  0.70015089  1
  Se  Se227  1  0.24966592  0.74801481  0.20311945  1
  Se  Se228  1  0.24749107  0.75521151  0.70054852  1
  Se  Se229  1  0.57845668  0.08877980  0.19010046  1
  Se  Se230  1  0.57527414  0.09377526  0.69628455  1
  Se  Se231  1  0.58401885  0.42338637  0.19089748  1
  Se  Se232  1  0.58749097  0.41885365  0.69741980  1
  Se  Se233  1  0.57809202  0.75410751  0.19659896  1
  Se  Se234  1  0.58987466  0.74577634  0.69304591  1
  Se  Se235  1  0.92189657  0.08932567  0.20300928  1
  Se  Se236  1  0.91460636  0.08074316  0.69784503  1
  Se  Se237  1  0.90963700  0.42617245  0.19259785  1
  Se  Se238  1  0.91577444  0.41540594  0.69819054  1
  Se  Se239  1  0.91506355  0.74266863  0.19233679  1
  Se  Se240  1  0.91411467  0.74831208  0.68828696  1
  Se  Se241  1  0.08948463  0.25043703  0.18573401  1
  Se  Se242  1  0.07965942  0.24978946  0.70020945  1
  Se  Se243  1  0.08008755  0.58379855  0.19731215  1
  Se  Se244  1  0.09081859  0.57360751  0.68796357  1
  Se  Se245  1  0.08177744  0.91495780  0.18983126  1
  Se  Se246  1  0.07519132  0.91803535  0.70037274  1
  Se  Se247  1  0.41551137  0.25128461  0.19229392  1
  Se  Se248  1  0.41086828  0.26122052  0.69744518  1
  Se  Se249  1  0.41751626  0.58421207  0.20001766  1
  Se  Se250  1  0.41861533  0.58626283  0.69303442  1
  Se  Se251  1  0.42495740  0.90378920  0.20091255  1
  Se  Se252  1  0.42425641  0.91150105  0.69012856  1
  Se  Se253  1  0.74868601  0.25742998  0.20117047  1
  Se  Se254  1  0.75005200  0.24970180  0.69984232  1
  Se  Se255  1  0.75160588  0.58272700  0.17564618  1
  Se  Se256  1  0.75036418  0.58565092  0.69644597  1
  Se  Se257  1  0.75795694  0.90888462  0.19571986  1
  Se  Se258  1  0.75775729  0.90874748  0.68792980  1
