# generated using pymatgen
data_In86Cu29Se144
_symmetry_space_group_name_H-M   'P 1'
_cell_length_a   17.68549840
_cell_length_b   17.69291291
_cell_length_c   23.52680753
_cell_angle_alpha   90.01845549
_cell_angle_beta   89.99118121
_cell_angle_gamma   89.98839881
_symmetry_Int_Tables_number   1
_chemical_formula_structural   In86Cu29Se144
_chemical_formula_sum   'In86 Cu29 Se144'
_cell_volume   7361.72526886
_cell_formula_units_Z   1
loop_
 _symmetry_equiv_pos_site_id
 _symmetry_equiv_pos_as_xyz
  1  'x, y, z'
loop_
 _atom_site_type_symbol
 _atom_site_label
 _atom_site_symmetry_multiplicity
 _atom_site_fract_x
 _atom_site_fract_y
 _atom_site_fract_z
 _atom_site_occupancy
  In  In0  1  0.00259704  0.16901553  0.12979214  1
  In  In1  1  0.01276443  0.17289189  0.61899517  1
  In  In2  1  -0.00658219  0.49894196  0.12606885  1
  In  In3  1  0.00012229  0.48409972  0.63006101  1
  In  In4  1  0.00810960  0.84342700  0.11997392  1
  In  In5  1  -0.00586886  0.83499657  0.62650600  1
  In  In6  1  0.30138389  0.12349436  0.07387938  1
  In  In7  1  0.31596964  0.17423196  0.63489487  1
  In  In8  1  0.35439417  0.50871116  0.11704660  1
  In  In9  1  0.31238113  0.51396909  0.63780108  1
  In  In10  1  0.33713648  0.83271555  0.11728061  1
  In  In11  1  0.33798748  0.83294536  0.63599888  1
  In  In12  1  0.65450649  0.15613542  0.11479255  1
  In  In13  1  0.66314522  0.17158216  0.63219961  1
  In  In14  1  0.66959069  0.51366813  0.10645159  1
  In  In15  1  0.63174072  0.51760988  0.66404139  1
  In  In16  1  0.67200380  0.82908744  0.11716511  1
  In  In17  1  0.65278943  0.83226946  0.63295752  1
  In  In18  1  0.17195009  0.00210421  0.36773424  1
  In  In19  1  0.18533332  -0.01026229  0.89012073  1
  In  In20  1  0.16253371  0.33670110  0.38214767  1
  In  In21  1  0.15847275  0.33187164  0.86206075  1
  In  In22  1  0.17658326  0.65362866  0.37800139  1
  In  In23  1  0.21564743  0.65690181  0.88257067  1
  In  In24  1  0.49553164  -0.00475666  0.35714670  1
  In  In25  1  0.47680530  0.00771487  0.90206980  1
  In  In26  1  0.50159284  0.33862118  0.37891636  1
  In  In27  1  0.51250739  0.32631430  0.87501173  1
  In  In28  1  0.50618058  0.66740076  0.36442219  1
  In  In29  1  0.49531164  0.66035599  0.88021992  1
  In  In30  1  0.83111417  0.00150215  0.35671174  1
  In  In31  1  0.83962930  -0.00238601  0.89017170  1
  In  In32  1  0.83508894  0.32382489  0.37332429  1
  In  In33  1  0.83953708  0.33607630  0.87719144  1
  In  In34  1  0.83148493  0.67673096  0.36953463  1
  In  In35  1  0.81855989  0.67675699  0.89068442  1
  In  In36  1  0.00514488  0.16981588  0.36182634  1
  In  In37  1  0.00311404  0.17032273  0.88025605  1
  In  In38  1  0.01775890  0.50554284  0.37226447  1
  In  In39  1  0.00946421  0.48883706  0.87301564  1
  In  In40  1  -0.00207964  0.83704240  0.36548658  1
  In  In41  1  0.00508766  0.83344288  0.88302049  1
  In  In42  1  0.32906825  0.15377896  0.37194335  1
  In  In43  1  0.32726703  0.16635924  0.87619278  1
  In  In44  1  0.33143873  0.49707796  0.37602340  1
  In  In45  1  0.34101696  0.50782389  0.84539364  1
  In  In46  1  0.33333783  0.83253398  0.36335675  1
  In  In47  1  0.33758208  0.82794262  0.88499776  1
  In  In48  1  0.67417587  0.16902444  0.37185855  1
  In  In49  1  0.66575294  0.17666378  0.88423828  1
  In  In50  1  0.65335235  0.50404395  0.37456389  1
  In  In51  1  0.66555184  0.50968957  0.88066937  1
  In  In52  1  0.66228733  0.83159309  0.35788300  1
  In  In53  1  0.65712981  0.82304644  0.89627514  1
  In  In54  1  0.16555100  -0.01076036  0.12613186  1
  In  In55  1  0.16285083  0.01146806  0.61991379  1
  In  In56  1  0.17713566  0.32059651  0.12537059  1
  In  In57  1  0.16627106  0.32944241  0.62390194  1
  In  In58  1  0.17256786  0.67981273  0.12186255  1
  In  In59  1  0.18486159  0.66688039  0.62445503  1
  In  In60  1  0.49399563  0.00644899  0.12057264  1
  In  In61  1  0.49498808  -0.00656881  0.62946875  1
  In  In62  1  0.49766075  0.33034028  0.11445432  1
  In  In63  1  0.44641903  0.37398329  0.69090759  1
  In  In64  1  0.50099570  0.67335659  0.11697068  1
  In  In65  1  0.49094021  0.67332128  0.63636890  1
  In  In66  1  0.83392379  0.00238124  0.12463238  1
  In  In67  1  0.82656318  -0.00523723  0.62446207  1
  In  In68  1  0.83812197  0.34204726  0.11904940  1
  In  In69  1  0.81610139  0.34411988  0.63810009  1
  In  In70  1  0.82640314  0.65808981  0.10999226  1
  In  In71  1  0.82860491  0.65225300  0.63285526  1
  In  In72  1  0.66397164  -0.00402782  0.77964256  1
  In  In73  1  0.00272360  0.66799634  0.24701387  1
  In  In74  1  0.83306947  0.49288476  0.50474626  1
  In  In75  1  0.00354631  0.00318390  0.74711201  1
  In  In76  1  0.17361304  0.49754698  -0.00659923  1
  In  In77  1  0.47817888  0.50391265  0.52165538  1
  In  In78  1  0.83510994  0.83329886  0.49736664  1
  In  In79  1  0.84296057  0.16963702  0.49151425  1
  In  In80  1  0.66703397  0.33552802  0.24830925  1
  In  In81  1  0.49943003  0.83142560  0.50081824  1
  In  In82  1  0.17224636  0.83267488  0.48776652  1
  In  In83  1  -0.00186002  0.66844352  0.75813734  1
  In  In84  1  0.33812510  0.33274493  0.24552883  1
  In  In85  1  0.49980146  0.16648017  0.50420657  1
  Cu  Cu86  1  0.50769911  0.51062932  0.24041107  1
  Cu  Cu87  1  0.83078596  0.83045961  0.23947059  1
  Cu  Cu88  1  0.83057228  0.50070540  0.24003611  1
  Cu  Cu89  1  0.17580515  0.83305253  0.75909002  1
  Cu  Cu90  1  0.32740382  0.00073759  0.49629060  1
  Cu  Cu91  1  0.67165383  0.00565785  0.49100734  1
  Cu  Cu92  1  0.17367405  0.16238619  0.23938580  1
  Cu  Cu93  1  0.82205935  0.83230637  0.76366258  1
  Cu  Cu94  1  0.67349366  0.33657270  -0.00363405  1
  Cu  Cu95  1  0.84458988  0.17205624  0.75585902  1
  Cu  Cu96  1  0.66004588  0.34275580  0.51381840  1
  Cu  Cu97  1  0.67451271  0.00119803  0.00475217  1
  Cu  Cu98  1  0.49256943  0.83307755  0.76069069  1
  Cu  Cu99  1  0.17364598  0.83542244  0.24351909  1
  Cu  Cu100  1  0.82999162  0.16739972  0.24342064  1
  Cu  Cu101  1  0.16506724  0.16197212  0.74906032  1
  Cu  Cu102  1  0.01342174  0.66138534  0.50088473  1
  Cu  Cu103  1  0.00099144  0.33093505  0.50199239  1
  Cu  Cu104  1  0.17400840  0.49698183  0.25392591  1
  Cu  Cu105  1  0.00662201  0.33241660  -0.00210781  1
  Cu  Cu106  1  0.49711916  0.15356487  0.76097724  1
  Cu  Cu107  1  0.00051245  0.66265803  -0.00310547  1
  Cu  Cu108  1  0.49461329  0.16635649  0.24059352  1
  Cu  Cu109  1  0.66899648  0.66486251  0.50457961  1
  Cu  Cu110  1  0.50212838  0.83785858  0.23529426  1
  Cu  Cu111  1  0.82578805  0.50439549  0.76120126  1
  Cu  Cu112  1  -0.00344174  0.01108916  0.00713349  1
  Cu  Cu113  1  0.33051677  0.32973966  0.50901237  1
  Cu  Cu114  1  0.33701154  0.33817028  -0.01102216  1
  Se  Se115  1  0.08475689  0.08390794  0.06259682  1
  Se  Se116  1  0.06943156  0.07456923  0.55166302  1
  Se  Se117  1  0.08610089  0.41267274  0.06040411  1
  Se  Se118  1  0.08256190  0.41432234  0.55568973  1
  Se  Se119  1  0.07709471  0.74514610  0.05514092  1
  Se  Se120  1  0.08270836  0.75136753  0.55888699  1
  Se  Se121  1  0.43955475  0.10201192  0.04647427  1
  Se  Se122  1  0.40851021  0.07403896  0.55997901  1
  Se  Se123  1  0.41852561  0.41646601  0.04634943  1
  Se  Se124  1  0.41143704  0.39553789  0.57489995  1
  Se  Se125  1  0.43550209  0.77002259  0.04475901  1
  Se  Se126  1  0.40722116  0.74401291  0.55820176  1
  Se  Se127  1  0.75734194  0.08887004  0.05374380  1
  Se  Se128  1  0.74630791  0.08409011  0.55430813  1
  Se  Se129  1  0.75536562  0.42066301  0.04929360  1
  Se  Se130  1  0.73222847  0.43086160  0.57066559  1
  Se  Se131  1  0.74146072  0.74005032  0.04578828  1
  Se  Se132  1  0.74593239  0.74729998  0.56448380  1
  Se  Se133  1  0.25366839  0.25846940  0.04482109  1
  Se  Se134  1  0.24398173  0.24158682  0.55336112  1
  Se  Se135  1  0.25769068  0.59103655  0.05543582  1
  Se  Se136  1  0.25233269  0.58055311  0.55223998  1
  Se  Se137  1  0.22836589  0.89198633  0.05736350  1
  Se  Se138  1  0.25626584  0.91648077  0.55939391  1
  Se  Se139  1  0.58872937  0.25399547  0.04890364  1
  Se  Se140  1  0.58081954  0.25667458  0.56639922  1
  Se  Se141  1  0.55221480  0.56248406  0.05452223  1
  Se  Se142  1  0.58718508  0.59172470  0.56713177  1
  Se  Se143  1  0.58837228  0.92450404  0.05894822  1
  Se  Se144  1  0.59372466  0.92777192  0.55502820  1
  Se  Se145  1  0.92580717  0.25479404  0.05817646  1
  Se  Se146  1  0.91114875  0.26368767  0.56308193  1
  Se  Se147  1  0.92208975  0.57711019  0.05065016  1
  Se  Se148  1  0.92476860  0.58891017  0.55950504  1
  Se  Se149  1  0.91640235  0.91954883  0.05501127  1
  Se  Se150  1  0.92402094  0.92786795  0.55365039  1
  Se  Se151  1  0.07460616  0.24785020  0.44130975  1
  Se  Se152  1  0.09204707  0.25466858  0.94315855  1
  Se  Se153  1  0.09397016  0.57663252  0.44947028  1
  Se  Se154  1  0.08710205  0.59244521  0.93407450  1
  Se  Se155  1  0.07577306  0.92201540  0.43639281  1
  Se  Se156  1  0.07489903  0.92993969  0.94740307  1
  Se  Se157  1  0.40770250  0.25553118  0.44108228  1
  Se  Se158  1  0.41804811  0.24950293  0.93907363  1
  Se  Se159  1  0.42119803  0.58780943  0.43869612  1
  Se  Se160  1  0.38572269  0.58516940  0.93170905  1
  Se  Se161  1  0.41302227  0.92434220  0.43864450  1
  Se  Se162  1  0.42083006  0.89806855  0.96280612  1
  Se  Se163  1  0.73624069  0.26504144  0.44866351  1
  Se  Se164  1  0.75983201  0.25166402  0.94788693  1
  Se  Se165  1  0.74732419  0.58888256  0.44164316  1
  Se  Se166  1  0.74340316  0.58634906  0.95535654  1
  Se  Se167  1  0.74437724  0.91878432  0.43314970  1
  Se  Se168  1  0.75142731  0.91272889  0.95118412  1
  Se  Se169  1  0.24434867  0.08321159  0.44444665  1
  Se  Se170  1  0.25523530  0.08692112  0.95554727  1
  Se  Se171  1  0.25706486  0.41176138  0.44605481  1
  Se  Se172  1  0.25757854  0.41401898  0.92634016  1
  Se  Se173  1  0.26998050  0.74073941  0.44001839  1
  Se  Se174  1  0.23012346  0.76938785  0.94892094  1
  Se  Se175  1  0.58351340  0.07884474  0.43439535  1
  Se  Se176  1  0.59242142  0.07857012  0.94590606  1
  Se  Se177  1  0.58015493  0.42151452  0.45282335  1
  Se  Se178  1  0.58555883  0.41487875  0.94391807  1
  Se  Se179  1  0.59533282  0.74570778  0.44091787  1
  Se  Se180  1  0.55526142  0.75191607  0.95689793  1
  Se  Se181  1  0.92026793  0.07485487  0.42959336  1
  Se  Se182  1  0.91755235  0.09288039  0.95005334  1
  Se  Se183  1  0.92414634  0.41189731  0.43883375  1
  Se  Se184  1  0.92550246  0.41804433  0.94608614  1
  Se  Se185  1  0.93120659  0.73978010  0.44138834  1
  Se  Se186  1  0.91884316  0.75252331  0.94879335  1
  Se  Se187  1  0.24513620  0.24594612  0.30635822  1
  Se  Se188  1  0.24940595  0.24480820  0.80185395  1
  Se  Se189  1  0.25804880  0.58160994  0.30350194  1
  Se  Se190  1  0.23232992  0.57765772  0.79269085  1
  Se  Se191  1  0.25411408  0.92034896  0.29895520  1
  Se  Se192  1  0.25808985  0.91458659  0.81318775  1
  Se  Se193  1  0.57079454  0.24413916  0.30635706  1
  Se  Se194  1  0.58698047  0.23892708  0.80374362  1
  Se  Se195  1  0.59296339  0.58762671  0.29723539  1
  Se  Se196  1  0.57628696  0.57969719  0.80978157  1
  Se  Se197  1  0.58563423  0.91966841  0.29193334  1
  Se  Se198  1  0.56494584  0.90934736  0.82846441  1
  Se  Se199  1  0.91177708  0.25031207  0.29921399  1
  Se  Se200  1  0.92657380  0.25396573  0.80871203  1
  Se  Se201  1  0.91103755  0.57544917  0.30704981  1
  Se  Se202  1  0.90675896  0.58436357  0.82045933  1
  Se  Se203  1  0.91397161  0.91110107  0.29536573  1
  Se  Se204  1  0.91273823  0.91422601  0.81000713  1
  Se  Se205  1  0.09044763  0.08404045  0.29819838  1
  Se  Se206  1  0.09296996  0.08037537  0.81408241  1
  Se  Se207  1  0.08878314  0.41470251  0.30448384  1
  Se  Se208  1  0.08729712  0.42527701  0.79506373  1
  Se  Se209  1  0.09890789  0.75250398  0.30845739  1
  Se  Se210  1  0.09366293  0.75266083  0.81554964  1
  Se  Se211  1  0.41149647  0.08533998  0.29717209  1
  Se  Se212  1  0.41433369  0.07493879  0.81503932  1
  Se  Se213  1  0.43187321  0.42728766  0.30356668  1
  Se  Se214  1  0.41780690  0.39535826  0.80275519  1
  Se  Se215  1  0.42784340  0.75770972  0.30042544  1
  Se  Se216  1  0.41179258  0.74571113  0.81102007  1
  Se  Se217  1  0.74272743  0.08773302  0.29676798  1
  Se  Se218  1  0.76689373  0.09150921  0.81739953  1
  Se  Se219  1  0.75677611  0.42669285  0.31098479  1
  Se  Se220  1  0.74787766  0.41839638  0.81496720  1
  Se  Se221  1  0.75054676  0.74672424  0.29581605  1
  Se  Se222  1  0.73799831  0.75429537  0.81743809  1
  Se  Se223  1  0.25504616  0.08822169  0.17744044  1
  Se  Se224  1  0.24608339  0.07402372  0.69749532  1
  Se  Se225  1  0.25304595  0.42764227  0.18551753  1
  Se  Se226  1  0.26417511  0.39583680  0.69034036  1
  Se  Se227  1  0.25765435  0.75164575  0.19295311  1
  Se  Se228  1  0.25299291  0.74890530  0.70048971  1
  Se  Se229  1  0.58181571  0.08290996  0.19309208  1
  Se  Se230  1  0.58549044  0.07377491  0.70014783  1
  Se  Se231  1  0.58080803  0.42073103  0.18439334  1
  Se  Se232  1  0.59454768  0.38278915  0.68536757  1
  Se  Se233  1  0.58545278  0.75085038  0.18749684  1
  Se  Se234  1  0.57684804  0.75310036  0.70434882  1
  Se  Se235  1  0.91667282  0.08365620  0.19490254  1
  Se  Se236  1  0.90912839  0.08992559  0.68722342  1
  Se  Se237  1  0.91762694  0.41445684  0.19678229  1
  Se  Se238  1  0.90551531  0.42490187  0.70124983  1
  Se  Se239  1  0.91254996  0.74856449  0.18255167  1
  Se  Se240  1  0.90176906  0.75898947  0.69708716  1
  Se  Se241  1  0.08867262  0.25332005  0.19689427  1
  Se  Se242  1  0.08365277  0.24788518  0.69576833  1
  Se  Se243  1  0.09539598  0.57664143  0.18994999  1
  Se  Se244  1  0.07904286  0.59047462  0.68436553  1
  Se  Se245  1  0.07998658  0.91540847  0.19996240  1
  Se  Se246  1  0.09399154  0.90463576  0.69308347  1
  Se  Se247  1  0.41483749  0.24249022  0.18065247  1
  Se  Se248  1  0.43678116  0.22328783  0.68397526  1
  Se  Se249  1  0.41996466  0.59294063  0.19220522  1
  Se  Se250  1  0.42874906  0.56496595  0.69334609  1
  Se  Se251  1  0.41328247  0.91946279  0.18781192  1
  Se  Se252  1  0.41676883  0.91916713  0.70330518  1
  Se  Se253  1  0.75010515  0.24753092  0.18383079  1
  Se  Se254  1  0.75205052  0.24252729  0.70141911  1
  Se  Se255  1  0.74919070  0.58107505  0.18578638  1
  Se  Se256  1  0.74421134  0.59131255  0.70928185  1
  Se  Se257  1  0.74871207  0.91569475  0.18871899  1
  Se  Se258  1  0.74692526  0.91458942  0.70101143  1
