# generated using pymatgen
data_In86Cu29Se144
_symmetry_space_group_name_H-M   'P 1'
_cell_length_a   17.57602208
_cell_length_b   17.57492101
_cell_length_c   23.43713672
_cell_angle_alpha   89.99698352
_cell_angle_beta   90.00974781
_cell_angle_gamma   89.99974602
_symmetry_Int_Tables_number   1
_chemical_formula_structural   In86Cu29Se144
_chemical_formula_sum   'In86 Cu29 Se144'
_cell_volume   7239.66578514
_cell_formula_units_Z   1
loop_
 _symmetry_equiv_pos_site_id
 _symmetry_equiv_pos_as_xyz
  1  'x, y, z'
loop_
 _atom_site_type_symbol
 _atom_site_label
 _atom_site_symmetry_multiplicity
 _atom_site_fract_x
 _atom_site_fract_y
 _atom_site_fract_z
 _atom_site_occupancy
  In  In0  1  -0.00121536  0.16719545  0.11333739  1
  In  In1  1  -0.00548880  0.17116665  0.64616913  1
  In  In2  1  0.01642214  0.51348830  0.11200133  1
  In  In3  1  -0.00067908  0.50081616  0.64319451  1
  In  In4  1  -0.00863906  0.81621666  0.10832590  1
  In  In5  1  0.00924025  0.82751014  0.64034460  1
  In  In6  1  0.32638513  0.15847068  0.11585460  1
  In  In7  1  0.34888911  0.17223941  0.62266263  1
  In  In8  1  0.33496529  0.50013890  0.12280400  1
  In  In9  1  0.33966031  0.50655474  0.63867169  1
  In  In10  1  0.32474219  0.83519590  0.12648659  1
  In  In11  1  0.34054401  0.82419128  0.62643868  1
  In  In12  1  0.66391213  0.16840992  0.12091896  1
  In  In13  1  0.65153744  0.17625709  0.63060007  1
  In  In14  1  0.65592050  0.51084792  0.12771470  1
  In  In15  1  0.66017316  0.49121066  0.63913675  1
  In  In16  1  0.67362807  0.82653646  0.12707996  1
  In  In17  1  0.65429253  0.84155214  0.62224367  1
  In  In18  1  0.16707037  -0.01567491  0.36834030  1
  In  In19  1  0.15428453  0.00878726  0.88283534  1
  In  In20  1  0.17006510  0.34314704  0.37397780  1
  In  In21  1  0.16967980  0.33650091  0.87506091  1
  In  In22  1  0.17704089  0.67011506  0.35377366  1
  In  In23  1  0.16376826  0.66268714  0.88666633  1
  In  In24  1  0.49827657  -0.00167159  0.36499329  1
  In  In25  1  0.51864765  0.00962158  0.88295100  1
  In  In26  1  0.50349869  0.31843103  0.38414344  1
  In  In27  1  0.49636985  0.33510111  0.87245561  1
  In  In28  1  0.50319748  0.67082896  0.36994935  1
  In  In29  1  0.48068368  0.64378502  0.85294547  1
  In  In30  1  0.82857321  0.01717554  0.37009426  1
  In  In31  1  0.83888040  -0.01516051  0.89046861  1
  In  In32  1  0.83207477  0.34556259  0.37378953  1
  In  In33  1  0.82384775  0.32519363  0.87058558  1
  In  In34  1  0.83289773  0.66726640  0.36317202  1
  In  In35  1  0.83824955  0.67162856  0.87593634  1
  In  In36  1  0.00033196  0.16824506  0.37270311  1
  In  In37  1  0.00109606  0.16549983  0.87424664  1
  In  In38  1  -0.00703234  0.50053742  0.37084911  1
  In  In39  1  0.01385878  0.51388129  0.87465573  1
  In  In40  1  0.01602364  0.82516305  0.37281736  1
  In  In41  1  -0.00141858  0.82793196  0.88497749  1
  In  In42  1  0.36158920  0.17305740  0.37016592  1
  In  In43  1  0.32344937  0.17768421  0.88148669  1
  In  In44  1  0.32975676  0.50731031  0.37437318  1
  In  In45  1  0.33601721  0.49256040  0.87348153  1
  In  In46  1  0.33539543  0.83561428  0.36416747  1
  In  In47  1  0.33377126  0.81449870  0.87759279  1
  In  In48  1  0.65863843  0.16221643  0.36389337  1
  In  In49  1  0.65630635  0.17088780  0.89267280  1
  In  In50  1  0.66413644  0.50011423  0.36530713  1
  In  In51  1  0.65176712  0.48848243  0.86187533  1
  In  In52  1  0.65320756  0.82343381  0.36227408  1
  In  In53  1  0.68185303  0.82640240  0.88544184  1
  In  In54  1  0.17347492  0.00177568  0.11721315  1
  In  In55  1  0.16576263  -0.01403368  0.63410545  1
  In  In56  1  0.17240683  0.33494462  0.11267242  1
  In  In57  1  0.16876791  0.33608578  0.63805142  1
  In  In58  1  0.16481651  0.66404348  0.12322296  1
  In  In59  1  0.17438888  0.66051298  0.63990624  1
  In  In60  1  0.48908681  0.00602025  0.12741752  1
  In  In61  1  0.50183583  0.00061036  0.61343218  1
  In  In62  1  0.50724795  0.34509916  0.11981024  1
  In  In63  1  0.50333609  0.33148557  0.63424865  1
  In  In64  1  0.50659267  0.65942616  0.12674785  1
  In  In65  1  0.49530252  0.67386240  0.63339543  1
  In  In66  1  0.81811140  -0.00888234  0.10972489  1
  In  In67  1  0.83031014  0.01306325  0.63065114  1
  In  In68  1  0.82983529  0.32242874  0.11943831  1
  In  In69  1  0.82437295  0.33760651  0.64110600  1
  In  In70  1  0.82534693  0.67358582  0.12169692  1
  In  In71  1  0.83717706  0.66694460  0.63415934  1
  In  In72  1  -0.00670451  0.33869373  0.24259901  1
  In  In73  1  0.50254206  0.83005941  -0.00072217  1
  In  In74  1  0.81783540  0.17203663  0.50619077  1
  In  In75  1  0.32771637  0.00405964  0.75305195  1
  In  In76  1  0.17746192  0.50549592  0.50422948  1
  In  In77  1  0.83404651  0.50258471  -0.00468410  1
  In  In78  1  0.67446613  -0.00579292  0.75781922  1
  In  In79  1  0.18094519  0.82929701  0.49707938  1
  In  In80  1  0.50061165  0.49577584  0.50335192  1
  In  In81  1  0.82707052  0.83414260  0.49601443  1
  In  In82  1  0.17547030  0.16051941  0.50511728  1
  In  In83  1  0.82545923  0.49837971  0.51741591  1
  In  In84  1  -0.00690636  -0.00824236  0.24184569  1
  In  In85  1  0.33675967  0.33661080  0.24966080  1
  Cu  Cu86  1  0.16011521  0.83282407  0.76178746  1
  Cu  Cu87  1  -0.00639797  0.00044118  0.51296822  1
  Cu  Cu88  1  0.66123866  0.33591163  -0.00402793  1
  Cu  Cu89  1  0.16797265  0.17407355  0.75683375  1
  Cu  Cu90  1  0.50123098  0.16861953  0.75655406  1
  Cu  Cu91  1  0.00398441  0.33194326  -0.00882672  1
  Cu  Cu92  1  0.33726353  0.00299132  -0.00242027  1
  Cu  Cu93  1  0.16638259  0.50609320  0.76026235  1
  Cu  Cu94  1  0.65121152  -0.00065887  0.48906062  1
  Cu  Cu95  1  0.16462540  0.82543960  0.24195144  1
  Cu  Cu96  1  0.66377029  0.66176152  0.49618696  1
  Cu  Cu97  1  0.34100177  0.00447888  0.48922691  1
  Cu  Cu98  1  0.33101431  0.65482894  -0.00229129  1
  Cu  Cu99  1  0.83372009  0.15830460  0.75967967  1
  Cu  Cu100  1  0.83528421  0.83686559  0.24125317  1
  Cu  Cu101  1  0.81894752  0.16512433  0.24131436  1
  Cu  Cu102  1  0.01263154  0.66373569  0.49891742  1
  Cu  Cu103  1  0.83312152  0.50278219  0.24268059  1
  Cu  Cu104  1  0.50332913  0.82909816  0.74917725  1
  Cu  Cu105  1  0.50223037  0.50171951  0.24827388  1
  Cu  Cu106  1  0.17227061  0.16394574  0.24199172  1
  Cu  Cu107  1  0.00314747  0.33108911  0.50918856  1
  Cu  Cu108  1  0.33838794  0.33385777  -0.00301943  1
  Cu  Cu109  1  0.83688114  0.49961762  0.75872007  1
  Cu  Cu110  1  0.65966787  0.66269438  -0.00283401  1
  Cu  Cu111  1  0.84235743  0.83017358  0.75992045  1
  Cu  Cu112  1  0.00605588  0.00166060  0.00010746  1
  Cu  Cu113  1  0.49811343  0.83287890  0.24298564  1
  Cu  Cu114  1  0.50116814  0.16783377  0.24454453  1
  Se  Se115  1  0.09053931  0.08745899  0.05045001  1
  Se  Se116  1  0.07722118  0.08019514  0.56933846  1
  Se  Se117  1  0.08409873  0.41510926  0.04706649  1
  Se  Se118  1  0.07938764  0.41857786  0.56476523  1
  Se  Se119  1  0.10152350  0.75882251  0.05147429  1
  Se  Se120  1  0.08675653  0.74527844  0.56207253  1
  Se  Se121  1  0.42126255  0.08675908  0.04878339  1
  Se  Se122  1  0.41755398  0.08624603  0.54884330  1
  Se  Se123  1  0.41697932  0.41958397  0.05229205  1
  Se  Se124  1  0.40898961  0.41304586  0.56607188  1
  Se  Se125  1  0.41028708  0.74042949  0.05877440  1
  Se  Se126  1  0.42628204  0.75383073  0.55634937  1
  Se  Se127  1  0.77274788  0.11145820  0.05843611  1
  Se  Se128  1  0.72790928  0.07206569  0.55882968  1
  Se  Se129  1  0.74111311  0.41678712  0.05777582  1
  Se  Se130  1  0.73287727  0.39930880  0.56313399  1
  Se  Se131  1  0.74290839  0.74835361  0.04766081  1
  Se  Se132  1  0.74463425  0.74087822  0.55954812  1
  Se  Se133  1  0.25204097  0.24822295  0.04683156  1
  Se  Se134  1  0.25393159  0.26161475  0.56198575  1
  Se  Se135  1  0.24663451  0.57646677  0.05416771  1
  Se  Se136  1  0.26499511  0.59751675  0.56283736  1
  Se  Se137  1  0.25571686  0.91667586  0.04933843  1
  Se  Se138  1  0.26327544  0.92868751  0.55713311  1
  Se  Se139  1  0.57962586  0.25249293  0.05231151  1
  Se  Se140  1  0.57209268  0.24850095  0.55791158  1
  Se  Se141  1  0.57672624  0.57852122  0.04895156  1
  Se  Se142  1  0.59186951  0.58542417  0.56372528  1
  Se  Se143  1  0.58377780  0.91811864  0.06499532  1
  Se  Se144  1  0.57603824  0.91060225  0.54439829  1
  Se  Se145  1  0.91837725  0.25462413  0.04708614  1
  Se  Se146  1  0.91786360  0.25433272  0.56695009  1
  Se  Se147  1  0.92060474  0.59816327  0.05144753  1
  Se  Se148  1  0.93130901  0.58918291  0.56147457  1
  Se  Se149  1  0.91818666  0.91854040  0.04965636  1
  Se  Se150  1  0.91499983  0.91475259  0.56739279  1
  Se  Se151  1  0.08030566  0.25587722  0.44467024  1
  Se  Se152  1  0.08867813  0.24724829  0.94109224  1
  Se  Se153  1  0.08733198  0.58687350  0.43478623  1
  Se  Se154  1  0.07933005  0.58371673  0.95658410  1
  Se  Se155  1  0.07553432  0.92393985  0.44959574  1
  Se  Se156  1  0.08740511  0.91259633  0.94999762  1
  Se  Se157  1  0.40650253  0.25720678  0.45199417  1
  Se  Se158  1  0.42186665  0.24851736  0.94491993  1
  Se  Se159  1  0.41613019  0.58929087  0.44277435  1
  Se  Se160  1  0.41961063  0.58073446  0.94178560  1
  Se  Se161  1  0.41634193  0.91526934  0.43580421  1
  Se  Se162  1  0.41302410  0.92150201  0.93547613  1
  Se  Se163  1  0.74144087  0.25742962  0.43562833  1
  Se  Se164  1  0.75294212  0.25332398  0.95120311  1
  Se  Se165  1  0.75104011  0.58446642  0.44040050  1
  Se  Se166  1  0.73799011  0.58258828  0.93419739  1
  Se  Se167  1  0.74150842  0.92464974  0.43288783  1
  Se  Se168  1  0.73075102  0.92951681  0.95309633  1
  Se  Se169  1  0.25415357  0.07845632  0.42994487  1
  Se  Se170  1  0.24933519  0.08478657  0.94651263  1
  Se  Se171  1  0.26352338  0.40811619  0.44659264  1
  Se  Se172  1  0.25165378  0.41721291  0.94634056  1
  Se  Se173  1  0.26090345  0.73661032  0.43483479  1
  Se  Se174  1  0.25036118  0.74872537  0.95321127  1
  Se  Se175  1  0.57453886  0.08743299  0.43624722  1
  Se  Se176  1  0.58996367  0.07754564  0.96232573  1
  Se  Se177  1  0.59615398  0.41261221  0.44195092  1
  Se  Se178  1  0.57916890  0.41962557  0.94301808  1
  Se  Se179  1  0.58534512  0.74891929  0.44339257  1
  Se  Se180  1  0.57684524  0.73600316  0.93246441  1
  Se  Se181  1  0.92122622  0.08328735  0.44844348  1
  Se  Se182  1  0.92130771  0.08345976  0.94648707  1
  Se  Se183  1  0.92294107  0.41437251  0.45113519  1
  Se  Se184  1  0.92061181  0.41244046  0.93331959  1
  Se  Se185  1  0.92595818  0.74169740  0.44170106  1
  Se  Se186  1  0.89641668  0.76365379  0.94960451  1
  Se  Se187  1  0.24450652  0.24214881  0.30908091  1
  Se  Se188  1  0.25601358  0.25741743  0.80364879  1
  Se  Se189  1  0.24933104  0.56906597  0.29702350  1
  Se  Se190  1  0.24992859  0.58755163  0.81434490  1
  Se  Se191  1  0.24713412  0.91281154  0.29408803  1
  Se  Se192  1  0.24562112  0.91351440  0.81749840  1
  Se  Se193  1  0.57750786  0.25456959  0.30076880  1
  Se  Se194  1  0.58789987  0.24490913  0.81203564  1
  Se  Se195  1  0.58554389  0.58854607  0.30032093  1
  Se  Se196  1  0.59923706  0.59808303  0.79930794  1
  Se  Se197  1  0.58252553  0.91750574  0.29556165  1
  Se  Se198  1  0.57890040  0.90495811  0.81440676  1
  Se  Se199  1  0.90461915  0.24168826  0.30331811  1
  Se  Se200  1  0.91673774  0.24795559  0.80535379  1
  Se  Se201  1  0.91788123  0.58240477  0.29859760  1
  Se  Se202  1  0.91880735  0.58603979  0.80796573  1
  Se  Se203  1  0.90985432  0.90768059  0.31461006  1
  Se  Se204  1  0.92021446  0.91647218  0.81328808  1
  Se  Se205  1  0.08703474  0.08583134  0.30234326  1
  Se  Se206  1  0.08527526  0.08413350  0.80295254  1
  Se  Se207  1  0.08842928  0.42410956  0.30256520  1
  Se  Se208  1  0.08203721  0.41732439  0.80751978  1
  Se  Se209  1  0.07665863  0.74447789  0.29338234  1
  Se  Se210  1  0.08187961  0.74628870  0.81467096  1
  Se  Se211  1  0.41548907  0.08229404  0.29430985  1
  Se  Se212  1  0.42176997  0.08657755  0.81556071  1
  Se  Se213  1  0.42871715  0.42122364  0.31380223  1
  Se  Se214  1  0.42808404  0.42607634  0.80180953  1
  Se  Se215  1  0.41792316  0.74777677  0.29912544  1
  Se  Se216  1  0.40961444  0.75046385  0.79588723  1
  Se  Se217  1  0.74111249  0.07783437  0.29502228  1
  Se  Se218  1  0.75299415  0.08480550  0.82294223  1
  Se  Se219  1  0.75325843  0.41912945  0.29943011  1
  Se  Se220  1  0.74843768  0.41127201  0.80031301  1
  Se  Se221  1  0.75162246  0.75287244  0.29787993  1
  Se  Se222  1  0.75022904  0.74967814  0.80560001  1
  Se  Se223  1  0.25452083  0.07776974  0.19262451  1
  Se  Se224  1  0.24243624  0.09581946  0.68920310  1
  Se  Se225  1  0.24023962  0.41894405  0.19105724  1
  Se  Se226  1  0.24873092  0.42551420  0.70223446  1
  Se  Se227  1  0.25347501  0.74189229  0.19425617  1
  Se  Se228  1  0.24615717  0.76353683  0.69821580  1
  Se  Se229  1  0.58318781  0.08411202  0.19106822  1
  Se  Se230  1  0.57447935  0.07783592  0.69789299  1
  Se  Se231  1  0.58576731  0.41666134  0.19711851  1
  Se  Se232  1  0.57535421  0.41504169  0.70742466  1
  Se  Se233  1  0.58475380  0.74835546  0.19369031  1
  Se  Se234  1  0.59243866  0.75239389  0.69575091  1
  Se  Se235  1  0.90979061  0.08949415  0.18560271  1
  Se  Se236  1  0.91696194  0.07403313  0.70680123  1
  Se  Se237  1  0.91026260  0.42815091  0.17736772  1
  Se  Se238  1  0.91865706  0.41068114  0.70622900  1
  Se  Se239  1  0.91618888  0.75043793  0.19042206  1
  Se  Se240  1  0.92260458  0.74406680  0.70374537  1
  Se  Se241  1  0.08859119  0.24580206  0.18768400  1
  Se  Se242  1  0.08123932  0.25853584  0.70622558  1
  Se  Se243  1  0.07981998  0.58496514  0.19368462  1
  Se  Se244  1  0.08163091  0.58953129  0.70679694  1
  Se  Se245  1  0.08562844  0.90830906  0.18156713  1
  Se  Se246  1  0.08037996  0.92032259  0.70874898  1
  Se  Se247  1  0.41836834  0.24672837  0.18411596  1
  Se  Se248  1  0.41541458  0.24827016  0.70211858  1
  Se  Se249  1  0.41711035  0.58018283  0.19385028  1
  Se  Se250  1  0.42302382  0.58846893  0.70426574  1
  Se  Se251  1  0.41136232  0.91624861  0.19374438  1
  Se  Se252  1  0.42614764  0.91957829  0.69353814  1
  Se  Se253  1  0.74134563  0.25736891  0.19314909  1
  Se  Se254  1  0.75004516  0.23568011  0.69938282  1
  Se  Se255  1  0.74812582  0.58856695  0.19233364  1
  Se  Se256  1  0.75573175  0.57633461  0.69618717  1
  Se  Se257  1  0.75012918  0.92104443  0.19284875  1
  Se  Se258  1  0.76196999  0.90432050  0.69279333  1
