# generated using pymatgen
data_In86Cu29Se144
_symmetry_space_group_name_H-M   'P 1'
_cell_length_a   17.76543458
_cell_length_b   17.76337261
_cell_length_c   23.60657846
_cell_angle_alpha   90.04476702
_cell_angle_beta   90.08058845
_cell_angle_gamma   89.95159471
_symmetry_Int_Tables_number   1
_chemical_formula_structural   In86Cu29Se144
_chemical_formula_sum   'In86 Cu29 Se144'
_cell_volume   7449.61090057
_cell_formula_units_Z   1
loop_
 _symmetry_equiv_pos_site_id
 _symmetry_equiv_pos_as_xyz
  1  'x, y, z'
loop_
 _atom_site_type_symbol
 _atom_site_label
 _atom_site_symmetry_multiplicity
 _atom_site_fract_x
 _atom_site_fract_y
 _atom_site_fract_z
 _atom_site_occupancy
  In  In0  1  0.00984550  0.16183316  0.12561397  1
  In  In1  1  -0.00966071  0.16800231  0.62353405  1
  In  In2  1  -0.00644088  0.49838019  0.12319657  1
  In  In3  1  0.01296110  0.49908464  0.62803071  1
  In  In4  1  -0.01859060  0.80197903  0.09573364  1
  In  In5  1  0.01254176  0.81840298  0.63632701  1
  In  In6  1  0.33324692  0.17737915  0.12343147  1
  In  In7  1  0.33248330  0.15167673  0.62460811  1
  In  In8  1  0.29707243  0.45842682  0.07896827  1
  In  In9  1  0.32682425  0.51501837  0.63127608  1
  In  In10  1  0.28319277  0.77713777  0.07386852  1
  In  In11  1  0.33587902  0.83318394  0.62732141  1
  In  In12  1  0.65721033  0.16713652  0.13441639  1
  In  In13  1  0.67374130  0.16851128  0.61627016  1
  In  In14  1  0.65553077  0.49378751  0.11959185  1
  In  In15  1  0.66431604  0.50261924  0.64016125  1
  In  In16  1  0.65805932  0.82912453  0.12138345  1
  In  In17  1  0.65442763  0.83477860  0.62910804  1
  In  In18  1  0.15872457  -0.00535531  0.38094821  1
  In  In19  1  0.16878888  -0.00068465  0.87326358  1
  In  In20  1  0.17797597  0.34437379  0.36160899  1
  In  In21  1  0.17084335  0.34382950  0.89187469  1
  In  In22  1  0.17026603  0.66663381  0.37889990  1
  In  In23  1  0.17913926  0.67516875  0.87508134  1
  In  In24  1  0.51392856  -0.01071335  0.38425959  1
  In  In25  1  0.49061416  0.00342172  0.86934836  1
  In  In26  1  0.49281985  0.32362655  0.37035123  1
  In  In27  1  0.50994614  0.33834918  0.87876388  1
  In  In28  1  0.50097663  0.68000473  0.38337021  1
  In  In29  1  0.49648859  0.67056427  0.88107163  1
  In  In30  1  0.83718801  0.00903821  0.37651815  1
  In  In31  1  0.83311098  -0.01083591  0.87189326  1
  In  In32  1  0.82595537  0.32481211  0.36695397  1
  In  In33  1  0.83392225  0.36404437  0.87540915  1
  In  In34  1  0.82976777  0.66308726  0.37709210  1
  In  In35  1  0.84227985  0.66668147  0.87312937  1
  In  In36  1  -0.01165928  0.16400891  0.37653703  1
  In  In37  1  0.01307136  0.17163150  0.87305617  1
  In  In38  1  0.01465593  0.50244012  0.36892285  1
  In  In39  1  -0.00156419  0.50565382  0.87751457  1
  In  In40  1  0.00253155  0.84241880  0.37772585  1
  In  In41  1  0.00163173  0.83319610  0.87654028  1
  In  In42  1  0.33186453  0.17839609  0.37317729  1
  In  In43  1  0.33682792  0.15886735  0.87010875  1
  In  In44  1  0.33223646  0.49263594  0.37167495  1
  In  In45  1  0.32412172  0.52522698  0.89723862  1
  In  In46  1  0.33079480  0.83762050  0.37879025  1
  In  In47  1  0.33439100  0.83547111  0.87889274  1
  In  In48  1  0.66537159  0.16457798  0.37575139  1
  In  In49  1  0.66374158  0.18471247  0.87256365  1
  In  In50  1  0.67681091  0.49553749  0.37628478  1
  In  In51  1  0.66812902  0.50434965  0.87546774  1
  In  In52  1  0.66059404  0.82705579  0.37396745  1
  In  In53  1  0.68288526  0.82463555  0.88191968  1
  In  In54  1  0.16070397  -0.00844459  0.11805348  1
  In  In55  1  0.18130618  -0.01643758  0.63438966  1
  In  In56  1  0.16062668  0.32627447  0.12635811  1
  In  In57  1  0.16025629  0.34000915  0.62109115  1
  In  In58  1  0.12836418  0.62396498  0.04686865  1
  In  In59  1  0.16764314  0.66899029  0.62836817  1
  In  In60  1  0.50459550  -0.01013342  0.12855827  1
  In  In61  1  0.49907532  -0.01258062  0.61772907  1
  In  In62  1  0.48455101  0.34876411  0.14068903  1
  In  In63  1  0.50851198  0.33615188  0.62210816  1
  In  In64  1  0.47553208  0.64838760  0.09885423  1
  In  In65  1  0.48797093  0.67536301  0.63875984  1
  In  In66  1  0.82801440  -0.02337268  0.12720429  1
  In  In67  1  0.83457102  0.01440435  0.62820448  1
  In  In68  1  0.82217259  0.33900889  0.13389354  1
  In  In69  1  0.83555542  0.31915651  0.61938181  1
  In  In70  1  0.82926889  0.66102191  0.11613348  1
  In  In71  1  0.83793198  0.65746266  0.64176925  1
  In  In72  1  0.66764598  0.00119821  0.74482985  1
  In  In73  1  0.50095494  0.17496866  -0.00138347  1
  In  In74  1  0.34027204  0.00024821  0.24804576  1
  In  In75  1  0.49639023  0.50087625  0.50505202  1
  In  In76  1  0.33469084  0.33926657  0.75405031  1
  In  In77  1  0.83504284  0.16168375  0.00424539  1
  In  In78  1  -0.00258877  0.33963588  0.75717887  1
  In  In79  1  -0.00283801  0.00082214  0.25050200  1
  In  In80  1  0.00705962  0.66258649  0.23508581  1
  In  In81  1  0.83889944  0.49266717  0.50620456  1
  In  In82  1  0.33209942  0.66336642  0.23244332  1
  In  In83  1  0.83218188  0.83812804  0.50708472  1
  In  In84  1  0.16247143  0.16499555  0.49718916  1
  In  In85  1  0.66177839  0.66971733  0.24921315  1
  Cu  Cu86  1  0.33438249  0.00665951  -0.00554271  1
  Cu  Cu87  1  0.32498446  0.33943138  0.49376368  1
  Cu  Cu88  1  0.16429880  0.16638455  0.75188837  1
  Cu  Cu89  1  0.49703168  0.82923957  0.24837502  1
  Cu  Cu90  1  0.66214698  0.67185062  0.50948424  1
  Cu  Cu91  1  0.17182523  0.83263710  0.75521404  1
  Cu  Cu92  1  0.50039807  0.83581874  0.75341218  1
  Cu  Cu93  1  0.67219779  0.34053529  0.00333573  1
  Cu  Cu94  1  0.49702300  0.50411658  0.75794499  1
  Cu  Cu95  1  -0.00269290  0.33353316  0.00149607  1
  Cu  Cu96  1  0.50586994  0.16342953  0.25416503  1
  Cu  Cu97  1  0.83360927  0.49734759  0.24861090  1
  Cu  Cu98  1  0.00862995  -0.00846683  0.50583911  1
  Cu  Cu99  1  0.49904540  0.16761526  0.74925331  1
  Cu  Cu100  1  0.83255309  0.17258339  0.74672512  1
  Cu  Cu101  1  0.00861710  0.67127488  0.50276211  1
  Cu  Cu102  1  0.33997665  -0.00427030  0.50286317  1
  Cu  Cu103  1  0.33107122  0.67242998  0.50744460  1
  Cu  Cu104  1  0.50632376  0.50021970  0.25117067  1
  Cu  Cu105  1  0.66301446  0.00100228  0.00070361  1
  Cu  Cu106  1  0.66906554  0.66853419  -0.00554264  1
  Cu  Cu107  1  0.16098540  0.83336155  0.24326462  1
  Cu  Cu108  1  0.82990930  0.16369360  0.25264253  1
  Cu  Cu109  1  0.00335881  0.33586096  0.49651100  1
  Cu  Cu110  1  0.00261221  -0.00348962  -0.00262939  1
  Cu  Cu111  1  0.17058182  0.49801277  0.23648233  1
  Cu  Cu112  1  0.84075167  0.83155728  0.75593513  1
  Cu  Cu113  1  0.66652165  0.32683693  0.49650359  1
  Cu  Cu114  1  0.16928200  0.17105376  0.24717572  1
  Se  Se115  1  0.08147129  0.08048251  0.05235091  1
  Se  Se116  1  0.08478563  0.07638612  0.56527242  1
  Se  Se117  1  0.07869912  0.41349066  0.05863494  1
  Se  Se118  1  0.08195627  0.41975880  0.55023943  1
  Se  Se119  1  0.11512914  0.76918331  0.06315424  1
  Se  Se120  1  0.08916190  0.75328275  0.55648889  1
  Se  Se121  1  0.41616879  0.08124890  0.05911773  1
  Se  Se122  1  0.41903979  0.08143335  0.55482839  1
  Se  Se123  1  0.42854620  0.40677754  0.05151737  1
  Se  Se124  1  0.40245088  0.41262140  0.56177775  1
  Se  Se125  1  0.43101755  0.77763531  0.06727476  1
  Se  Se126  1  0.41984749  0.74956211  0.55874308  1
  Se  Se127  1  0.74057423  0.07798971  0.06341894  1
  Se  Se128  1  0.75314054  0.07874845  0.55376122  1
  Se  Se129  1  0.75570456  0.42166352  0.05779167  1
  Se  Se130  1  0.73829135  0.41054582  0.56063759  1
  Se  Se131  1  0.74575442  0.74900698  0.05472030  1
  Se  Se132  1  0.75165487  0.74098334  0.56814791  1
  Se  Se133  1  0.23988230  0.24216732  0.05755311  1
  Se  Se134  1  0.25348624  0.25457268  0.55783715  1
  Se  Se135  1  0.26938025  0.60236653  0.07075805  1
  Se  Se136  1  0.24835512  0.58640675  0.55608830  1
  Se  Se137  1  0.26151589  0.92595217  0.05652663  1
  Se  Se138  1  0.25506101  0.91486536  0.55519415  1
  Se  Se139  1  0.59084507  0.25935767  0.06110229  1
  Se  Se140  1  0.58228149  0.25038844  0.55313284  1
  Se  Se141  1  0.58917621  0.58439839  0.04952627  1
  Se  Se142  1  0.58453671  0.58869265  0.56678258  1
  Se  Se143  1  0.58102459  0.91709566  0.05180146  1
  Se  Se144  1  0.59912196  0.92279158  0.55462016  1
  Se  Se145  1  0.91964488  0.25504893  0.06412756  1
  Se  Se146  1  0.92248470  0.24990752  0.54737384  1
  Se  Se147  1  0.93916424  0.60425118  0.05782713  1
  Se  Se148  1  0.92424668  0.59180796  0.55922679  1
  Se  Se149  1  0.91595486  0.91815450  0.05074998  1
  Se  Se150  1  0.92681247  0.91884203  0.56883589  1
  Se  Se151  1  0.08209022  0.25805484  0.43340825  1
  Se  Se152  1  0.08115487  0.25409187  0.94767250  1
  Se  Se153  1  0.08189613  0.58649412  0.44325567  1
  Se  Se154  1  0.08783908  0.59378142  0.94265160  1
  Se  Se155  1  0.08831914  0.90861435  0.45197820  1
  Se  Se156  1  0.08689699  0.91810975  0.94266375  1
  Se  Se157  1  0.41081181  0.25533699  0.44640175  1
  Se  Se158  1  0.40797360  0.25735080  0.93765852  1
  Se  Se159  1  0.40685273  0.59116531  0.44297822  1
  Se  Se160  1  0.42537251  0.59082337  0.95715902  1
  Se  Se161  1  0.41855903  0.91235419  0.44594779  1
  Se  Se162  1  0.41908092  0.92428995  0.94313216  1
  Se  Se163  1  0.75217576  0.24942420  0.44242360  1
  Se  Se164  1  0.75204548  0.25850460  0.94473733  1
  Se  Se165  1  0.74220616  0.58953129  0.45174483  1
  Se  Se166  1  0.75308393  0.58724145  0.94165095  1
  Se  Se167  1  0.74858543  0.91756217  0.43822869  1
  Se  Se168  1  0.75067702  0.92345773  0.94729965  1
  Se  Se169  1  0.25966922  0.07529314  0.44095930  1
  Se  Se170  1  0.25160243  0.08628865  0.94035293  1
  Se  Se171  1  0.24374854  0.42230512  0.44187171  1
  Se  Se172  1  0.25118669  0.42681005  0.95982224  1
  Se  Se173  1  0.25194921  0.75027043  0.44484068  1
  Se  Se174  1  0.25976495  0.74992522  0.95026094  1
  Se  Se175  1  0.57363286  0.09452343  0.44308478  1
  Se  Se176  1  0.59091332  0.08341771  0.93757333  1
  Se  Se177  1  0.58638475  0.41345296  0.44222324  1
  Se  Se178  1  0.58926211  0.41975979  0.94782128  1
  Se  Se179  1  0.58571421  0.75455301  0.45254944  1
  Se  Se180  1  0.58620714  0.75480431  0.94515231  1
  Se  Se181  1  0.92765487  0.07292981  0.44939792  1
  Se  Se182  1  0.92330622  0.07940092  0.93831025  1
  Se  Se183  1  0.92286454  0.41401827  0.43449929  1
  Se  Se184  1  0.92141902  0.42371736  0.95044095  1
  Se  Se185  1  0.92141770  0.74464061  0.44367452  1
  Se  Se186  1  0.91454012  0.75524149  0.94277572  1
  Se  Se187  1  0.25534352  0.25280318  0.29790068  1
  Se  Se188  1  0.23968303  0.25049524  0.81157875  1
  Se  Se189  1  0.24384720  0.57821359  0.30289754  1
  Se  Se190  1  0.25864496  0.58372543  0.81167606  1
  Se  Se191  1  0.23822199  0.91267679  0.30574390  1
  Se  Se192  1  0.25450272  0.91688210  0.80721982  1
  Se  Se193  1  0.58572589  0.25034251  0.30591341  1
  Se  Se194  1  0.57620564  0.25362519  0.80194496  1
  Se  Se195  1  0.57622304  0.58007927  0.31723811  1
  Se  Se196  1  0.57816089  0.58705903  0.81182876  1
  Se  Se197  1  0.57831419  0.90800894  0.30531420  1
  Se  Se198  1  0.58581876  0.91392400  0.81135744  1
  Se  Se199  1  0.91656890  0.24531619  0.30293447  1
  Se  Se200  1  0.90593604  0.24881512  0.81513972  1
  Se  Se201  1  0.91308528  0.58137789  0.30505111  1
  Se  Se202  1  0.90846764  0.56835802  0.80715324  1
  Se  Se203  1  0.90776256  0.90836274  0.30830402  1
  Se  Se204  1  0.92264748  0.91844776  0.80439824  1
  Se  Se205  1  0.09218995  0.09082206  0.30962151  1
  Se  Se206  1  0.08343063  0.08262435  0.80448646  1
  Se  Se207  1  0.08768338  0.42145344  0.29559740  1
  Se  Se208  1  0.09463300  0.42253922  0.81407724  1
  Se  Se209  1  0.08564645  0.75409255  0.30683421  1
  Se  Se210  1  0.08879743  0.75232248  0.80937823  1
  Se  Se211  1  0.42278728  0.08671617  0.31440156  1
  Se  Se212  1  0.41482266  0.08280217  0.79625415  1
  Se  Se213  1  0.42039006  0.41878997  0.30479299  1
  Se  Se214  1  0.41708762  0.42630272  0.81856972  1
  Se  Se215  1  0.41497302  0.75093447  0.30771779  1
  Se  Se216  1  0.41927895  0.75541244  0.80982514  1
  Se  Se217  1  0.75002588  0.08162042  0.30729252  1
  Se  Se218  1  0.75310018  0.09310406  0.80939869  1
  Se  Se219  1  0.74910186  0.41722008  0.30255208  1
  Se  Se220  1  0.72842287  0.40182247  0.80866862  1
  Se  Se221  1  0.75945224  0.75357111  0.30705170  1
  Se  Se222  1  0.75460995  0.74984823  0.80526610  1
  Se  Se223  1  0.24278739  0.08387523  0.18990110  1
  Se  Se224  1  0.24743256  0.08549807  0.69777456  1
  Se  Se225  1  0.25361697  0.41718431  0.18093082  1
  Se  Se226  1  0.23951463  0.42251293  0.69353096  1
  Se  Se227  1  0.24447502  0.75991895  0.18428535  1
  Se  Se228  1  0.25169134  0.75314120  0.69509791  1
  Se  Se229  1  0.57978369  0.07656190  0.19843028  1
  Se  Se230  1  0.57783443  0.09048084  0.68656832  1
  Se  Se231  1  0.58920984  0.41653901  0.19942075  1
  Se  Se232  1  0.57118801  0.42010079  0.69833491  1
  Se  Se233  1  0.56635445  0.74286688  0.18643049  1
  Se  Se234  1  0.58316931  0.75146952  0.70121709  1
  Se  Se235  1  0.90510545  0.08540330  0.18748848  1
  Se  Se236  1  0.91900087  0.08882668  0.69949876  1
  Se  Se237  1  0.91752679  0.41717897  0.19540493  1
  Se  Se238  1  0.91187926  0.41566369  0.68546497  1
  Se  Se239  1  0.90873671  0.75415921  0.18735721  1
  Se  Se240  1  0.92151824  0.74609884  0.70293829  1
  Se  Se241  1  0.07776734  0.24780778  0.19860945  1
  Se  Se242  1  0.08584068  0.24809096  0.69229062  1
  Se  Se243  1  0.10105930  0.58316863  0.17540686  1
  Se  Se244  1  0.08105524  0.58910742  0.69435501  1
  Se  Se245  1  0.07452233  0.90830846  0.18627335  1
  Se  Se246  1  0.08745924  0.91325114  0.69997387  1
  Se  Se247  1  0.42068654  0.24151126  0.19812904  1
  Se  Se248  1  0.41765209  0.24745181  0.68849412  1
  Se  Se249  1  0.42643629  0.56968258  0.18600174  1
  Se  Se250  1  0.41284590  0.58368629  0.70306697  1
  Se  Se251  1  0.41380039  0.90306492  0.18790765  1
  Se  Se252  1  0.42186460  0.91667805  0.69424210  1
  Se  Se253  1  0.74745547  0.24640506  0.19828991  1
  Se  Se254  1  0.74885361  0.24925168  0.69095348  1
  Se  Se255  1  0.75199692  0.57787735  0.19149291  1
  Se  Se256  1  0.75435540  0.57497687  0.70481188  1
  Se  Se257  1  0.73602839  0.90995495  0.19308967  1
  Se  Se258  1  0.76210906  0.90843423  0.69138975  1
