# generated using pymatgen
data_In86Cu29Se144
_symmetry_space_group_name_H-M   'P 1'
_cell_length_a   17.57278081
_cell_length_b   17.57316701
_cell_length_c   23.43509403
_cell_angle_alpha   90.00681982
_cell_angle_beta   89.98412139
_cell_angle_gamma   89.98729666
_symmetry_Int_Tables_number   1
_chemical_formula_structural   In86Cu29Se144
_chemical_formula_sum   'In86 Cu29 Se144'
_cell_volume   7236.97709944
_cell_formula_units_Z   1
loop_
 _symmetry_equiv_pos_site_id
 _symmetry_equiv_pos_as_xyz
  1  'x, y, z'
loop_
 _atom_site_type_symbol
 _atom_site_label
 _atom_site_symmetry_multiplicity
 _atom_site_fract_x
 _atom_site_fract_y
 _atom_site_fract_z
 _atom_site_occupancy
  In  In0  1  0.00016419  0.16591852  0.12405722  1
  In  In1  1  -0.01618071  0.16214998  0.62542232  1
  In  In2  1  -0.01586149  0.48702769  0.12207846  1
  In  In3  1  -0.00289944  0.50398832  0.62371044  1
  In  In4  1  0.00927453  0.84581156  0.12120862  1
  In  In5  1  0.00168674  0.84849797  0.62329563  1
  In  In6  1  0.31744276  0.16197298  0.11949450  1
  In  In7  1  0.32862298  0.17218615  0.63313225  1
  In  In8  1  0.34075700  0.50245989  0.11775988  1
  In  In9  1  0.33699580  0.49424124  0.62224384  1
  In  In10  1  0.33377719  0.84338922  0.12775997  1
  In  In11  1  0.34921734  0.83638849  0.62083707  1
  In  In12  1  0.68320492  0.15081402  0.13314678  1
  In  In13  1  0.67070157  0.15274790  0.62349870  1
  In  In14  1  0.67057642  0.49883404  0.12991262  1
  In  In15  1  0.66730051  0.50134919  0.61638778  1
  In  In16  1  0.68166934  0.81893839  0.14239430  1
  In  In17  1  0.67208888  0.83905552  0.61194467  1
  In  In18  1  0.16872710  -0.00484385  0.36078642  1
  In  In19  1  0.16502235  0.00391613  0.87962565  1
  In  In20  1  0.15997893  0.34373626  0.36947657  1
  In  In21  1  0.17268797  0.32198892  0.88354427  1
  In  In22  1  0.16443002  0.66997745  0.37015174  1
  In  In23  1  0.16561307  0.67363843  0.89121028  1
  In  In24  1  0.49525344  -0.00982849  0.36272137  1
  In  In25  1  0.50387599  -0.00023998  0.86559915  1
  In  In26  1  0.51352401  0.33301231  0.37655539  1
  In  In27  1  0.49910066  0.34420972  0.87526321  1
  In  In28  1  0.50792042  0.65336527  0.38475994  1
  In  In29  1  0.49319716  0.66480216  0.87868912  1
  In  In30  1  0.82846941  0.00005037  0.37068412  1
  In  In31  1  0.83168042  0.00153153  0.87416071  1
  In  In32  1  0.83012559  0.33002449  0.37324635  1
  In  In33  1  0.83650182  0.32717664  0.88464388  1
  In  In34  1  0.82332402  0.67477006  0.37381902  1
  In  In35  1  0.82995175  0.66486303  0.88842431  1
  In  In36  1  -0.00823342  0.15286720  0.36692933  1
  In  In37  1  -0.00005776  0.16256289  0.87954569  1
  In  In38  1  -0.01034661  0.48326521  0.36138166  1
  In  In39  1  -0.00207546  0.50319670  0.88746917  1
  In  In40  1  -0.01565636  0.82989582  0.36799481  1
  In  In41  1  -0.01297162  0.84872914  0.88531378  1
  In  In42  1  0.34541317  0.16112541  0.37608128  1
  In  In43  1  0.32343612  0.15596257  0.86919181  1
  In  In44  1  0.33702383  0.51186336  0.37974099  1
  In  In45  1  0.33980246  0.49201899  0.88203176  1
  In  In46  1  0.33594603  0.84202513  0.37901222  1
  In  In47  1  0.32579348  0.83777271  0.87835986  1
  In  In48  1  0.67328578  0.17949661  0.36565849  1
  In  In49  1  0.67999284  0.15620486  0.87932202  1
  In  In50  1  0.67413390  0.49801571  0.37187895  1
  In  In51  1  0.67176026  0.49466624  0.89125670  1
  In  In52  1  0.66467610  0.83543607  0.36869889  1
  In  In53  1  0.66281499  0.84339888  0.87882598  1
  In  In54  1  0.16258737  -0.00453803  0.12716007  1
  In  In55  1  0.15952291  0.00740400  0.63526540  1
  In  In56  1  0.15404735  0.32288534  0.11658611  1
  In  In57  1  0.17563374  0.34382214  0.62995609  1
  In  In58  1  0.17262641  0.67014929  0.11567792  1
  In  In59  1  0.16256963  0.66904031  0.62790423  1
  In  In60  1  0.50751602  -0.02075151  0.14336182  1
  In  In61  1  0.50991673  -0.00380672  0.62654957  1
  In  In62  1  0.50445746  0.34823631  0.12789405  1
  In  In63  1  0.48848052  0.33694930  0.62076347  1
  In  In64  1  0.53834411  0.66599263  0.12997328  1
  In  In65  1  0.49598528  0.67263877  0.60559290  1
  In  In66  1  0.83940713  0.00058416  0.12252082  1
  In  In67  1  0.83225641  -0.00074634  0.62121016  1
  In  In68  1  0.83873123  0.33307990  0.13115540  1
  In  In69  1  0.82806974  0.32667357  0.61617426  1
  In  In70  1  0.81538268  0.65901725  0.11559727  1
  In  In71  1  0.82653375  0.66025938  0.61506619  1
  In  In72  1  0.33211713  0.67534610  0.74810294  1
  In  In73  1  0.16601192  0.17192165  0.50865950  1
  In  In74  1  0.66447150  0.67279132  0.75249089  1
  In  In75  1  0.50855444  0.16887812  0.49794416  1
  In  In76  1  -0.00727523  0.66768264  0.24491418  1
  In  In77  1  0.50402977  0.82439644  0.00509902  1
  In  In78  1  0.16613297  0.83340701  0.49578456  1
  In  In79  1  0.66477779  0.32167168  0.74696003  1
  In  In80  1  0.33816701  0.67308704  0.24718910  1
  In  In81  1  0.49644804  0.16929438  0.00681392  1
  In  In82  1  0.00348469  0.32443766  0.75965219  1
  In  In83  1  0.16942888  0.50317940  0.49993774  1
  In  In84  1  0.33372499  0.32849158  0.25022105  1
  In  In85  1  -0.00093418  0.67716991  0.75412946  1
  Cu  Cu86  1  0.83514093  0.49123227  0.75308502  1
  Cu  Cu87  1  -0.01548424  -0.00414053  0.49468083  1
  Cu  Cu88  1  0.33862342  0.66226506  0.00310296  1
  Cu  Cu89  1  0.51197726  0.50199703  0.25404250  1
  Cu  Cu90  1  0.67299238  0.33862189  0.49347980  1
  Cu  Cu91  1  0.16356663  0.16359035  0.24315282  1
  Cu  Cu92  1  -0.00901579  0.65981069  0.49373073  1
  Cu  Cu93  1  0.67183146  0.33142377  0.00722000  1
  Cu  Cu94  1  0.33158694  0.00142428  0.00352759  1
  Cu  Cu95  1  0.49697839  0.16665072  0.74659088  1
  Cu  Cu96  1  0.83195674  0.84173973  0.74599935  1
  Cu  Cu97  1  0.83582960  0.84069842  0.24605432  1
  Cu  Cu98  1  0.16251021  0.49581998  0.24062732  1
  Cu  Cu99  1  0.16542765  0.84791145  0.75770942  1
  Cu  Cu100  1  0.33338560  0.00403904  0.49999544  1
  Cu  Cu101  1  0.67475085  -0.00277890  0.00347086  1
  Cu  Cu102  1  0.49725812  0.16209377  0.24918622  1
  Cu  Cu103  1  -0.00416922  0.33513640  0.00306429  1
  Cu  Cu104  1  0.16856673  0.16740375  0.75712075  1
  Cu  Cu105  1  0.50508223  0.84331628  0.74238934  1
  Cu  Cu106  1  -0.00735451  0.32956728  0.49360555  1
  Cu  Cu107  1  0.66847787  -0.00208362  0.49362600  1
  Cu  Cu108  1  0.66976431  0.66802968  0.49120596  1
  Cu  Cu109  1  0.32917546  0.33386787  0.00127075  1
  Cu  Cu110  1  0.00285108  0.00199421  0.00201295  1
  Cu  Cu111  1  -0.00098440  0.67038475  0.00809657  1
  Cu  Cu112  1  0.17687796  0.49859430  0.75805774  1
  Cu  Cu113  1  0.49632328  0.50163138  0.75199913  1
  Cu  Cu114  1  0.83828447  0.16792389  0.24890261  1
  Se  Se115  1  0.08675992  0.08381519  0.05659360  1
  Se  Se116  1  0.07097133  0.07187820  0.55455722  1
  Se  Se117  1  0.08111197  0.42018238  0.05346877  1
  Se  Se118  1  0.07555231  0.40611069  0.55607882  1
  Se  Se119  1  0.08687388  0.75645756  0.05253457  1
  Se  Se120  1  0.07106648  0.74021878  0.55505246  1
  Se  Se121  1  0.41828777  0.06935709  0.06694073  1
  Se  Se122  1  0.41230002  0.08543566  0.56068237  1
  Se  Se123  1  0.41919309  0.41265246  0.05129931  1
  Se  Se124  1  0.42601914  0.42937761  0.55030753  1
  Se  Se125  1  0.41546195  0.73811840  0.06913445  1
  Se  Se126  1  0.41392801  0.76016025  0.54262313  1
  Se  Se127  1  0.75771480  0.08552348  0.05133515  1
  Se  Se128  1  0.75086033  0.08096863  0.54846243  1
  Se  Se129  1  0.75386868  0.41469451  0.06123482  1
  Se  Se130  1  0.75530601  0.42039170  0.55104364  1
  Se  Se131  1  0.73846038  0.75540023  0.05433152  1
  Se  Se132  1  0.75289355  0.74973049  0.54763626  1
  Se  Se133  1  0.24436792  0.24692640  0.04830752  1
  Se  Se134  1  0.26300774  0.26607259  0.55685179  1
  Se  Se135  1  0.24997841  0.57817362  0.05083087  1
  Se  Se136  1  0.25617473  0.59669393  0.56036119  1
  Se  Se137  1  0.24891423  0.91605254  0.05537162  1
  Se  Se138  1  0.24794689  0.92839994  0.56046128  1
  Se  Se139  1  0.59207804  0.25024231  0.06799661  1
  Se  Se140  1  0.59648103  0.26045889  0.56085035  1
  Se  Se141  1  0.57591246  0.56558020  0.05797123  1
  Se  Se142  1  0.58774929  0.58612750  0.54857193  1
  Se  Se143  1  0.59210730  0.91849666  0.06189010  1
  Se  Se144  1  0.58013683  0.91967679  0.54796934  1
  Se  Se145  1  0.91481479  0.24964142  0.05700512  1
  Se  Se146  1  0.91478023  0.24461939  0.54996282  1
  Se  Se147  1  0.91425845  0.58324890  0.05536606  1
  Se  Se148  1  0.91384506  0.57503799  0.55101172  1
  Se  Se149  1  0.91722290  0.91582528  0.05111958  1
  Se  Se150  1  0.90936712  0.90902329  0.55085730  1
  Se  Se151  1  0.07913452  0.25165251  0.43784463  1
  Se  Se152  1  0.07753269  0.25018002  0.94808086  1
  Se  Se153  1  0.07386768  0.58256370  0.43371664  1
  Se  Se154  1  0.08266769  0.58551874  0.95397747  1
  Se  Se155  1  0.07485796  0.92279877  0.43656786  1
  Se  Se156  1  0.08725020  0.91690289  0.94903932  1
  Se  Se157  1  0.41187556  0.26018693  0.44358181  1
  Se  Se158  1  0.40935551  0.25245630  0.93945064  1
  Se  Se159  1  0.41720717  0.58078903  0.45369124  1
  Se  Se160  1  0.42101689  0.57894837  0.94922768  1
  Se  Se161  1  0.41953172  0.92554317  0.44631661  1
  Se  Se162  1  0.41859218  0.92397199  0.94462758  1
  Se  Se163  1  0.75116795  0.24584055  0.44586003  1
  Se  Se164  1  0.74857450  0.24594886  0.95024197  1
  Se  Se165  1  0.75475600  0.58114861  0.44326275  1
  Se  Se166  1  0.75413576  0.57824795  0.95497189  1
  Se  Se167  1  0.75123748  0.91312557  0.44041626  1
  Se  Se168  1  0.75443839  0.91448362  0.94630457  1
  Se  Se169  1  0.24843358  0.07982025  0.44158559  1
  Se  Se170  1  0.25021626  0.08613908  0.94950991  1
  Se  Se171  1  0.25607286  0.40880971  0.44044445  1
  Se  Se172  1  0.24592337  0.41871462  0.94787032  1
  Se  Se173  1  0.25661767  0.73824647  0.44198574  1
  Se  Se174  1  0.25864080  0.75365290  0.95353053  1
  Se  Se175  1  0.58917489  0.07954586  0.43236099  1
  Se  Se176  1  0.58435399  0.07405906  0.94719314  1
  Se  Se177  1  0.58603667  0.42197610  0.44498822  1
  Se  Se178  1  0.58345677  0.40804801  0.95201344  1
  Se  Se179  1  0.58575641  0.75444918  0.44241368  1
  Se  Se180  1  0.59450186  0.73680492  0.94216116  1
  Se  Se181  1  0.90809211  0.08551603  0.44275903  1
  Se  Se182  1  0.91559949  0.07991804  0.94637651  1
  Se  Se183  1  0.91365050  0.41751895  0.44194197  1
  Se  Se184  1  0.91107294  0.41892469  0.95078582  1
  Se  Se185  1  0.91327120  0.75084040  0.44367371  1
  Se  Se186  1  0.91728931  0.75089204  0.95006840  1
  Se  Se187  1  0.24163823  0.23865697  0.31079607  1
  Se  Se188  1  0.25250008  0.25554838  0.80446055  1
  Se  Se189  1  0.24203807  0.57372157  0.30224259  1
  Se  Se190  1  0.24779866  0.58876776  0.81560858  1
  Se  Se191  1  0.25336096  0.90586459  0.30279262  1
  Se  Se192  1  0.25443287  0.92606750  0.80879159  1
  Se  Se193  1  0.57775554  0.25148153  0.29881827  1
  Se  Se194  1  0.57564772  0.23936029  0.81427767  1
  Se  Se195  1  0.59093959  0.58895875  0.30662152  1
  Se  Se196  1  0.58120019  0.57426356  0.81259772  1
  Se  Se197  1  0.59392589  0.92585727  0.29848908  1
  Se  Se198  1  0.59120366  0.91785306  0.79982794  1
  Se  Se199  1  0.91970853  0.25126928  0.30459145  1
  Se  Se200  1  0.90296496  0.23691972  0.80830573  1
  Se  Se201  1  0.90296661  0.57930334  0.30409332  1
  Se  Se202  1  0.91048130  0.57874854  0.81002929  1
  Se  Se203  1  0.91801303  0.92410120  0.29961397  1
  Se  Se204  1  0.91663919  0.91833545  0.80362873  1
  Se  Se205  1  0.08183511  0.07961272  0.29812327  1
  Se  Se206  1  0.08293345  0.08471330  0.80788970  1
  Se  Se207  1  0.07998511  0.41076934  0.29193485  1
  Se  Se208  1  0.08881327  0.42414818  0.81523367  1
  Se  Se209  1  0.08730153  0.75888578  0.30236323  1
  Se  Se210  1  0.09042238  0.76163324  0.81612174  1
  Se  Se211  1  0.41019378  0.08015407  0.29921129  1
  Se  Se212  1  0.41577288  0.08217079  0.80212037  1
  Se  Se213  1  0.42052644  0.42475588  0.30860900  1
  Se  Se214  1  0.41333602  0.41717409  0.80298519  1
  Se  Se215  1  0.42403323  0.74837573  0.31790011  1
  Se  Se216  1  0.42775556  0.76418259  0.80730567  1
  Se  Se217  1  0.75031152  0.08687042  0.30096386  1
  Se  Se218  1  0.74109084  0.07263914  0.80353081  1
  Se  Se219  1  0.73931800  0.40147948  0.30408565  1
  Se  Se220  1  0.75099165  0.41467101  0.81121436  1
  Se  Se221  1  0.75203221  0.75542523  0.29831243  1
  Se  Se222  1  0.76106839  0.75751513  0.81056789  1
  Se  Se223  1  0.25063429  0.07963108  0.19520581  1
  Se  Se224  1  0.25055844  0.08462585  0.70018235  1
  Se  Se225  1  0.24897288  0.41654879  0.18456402  1
  Se  Se226  1  0.25883849  0.42166529  0.70001059  1
  Se  Se227  1  0.23855468  0.75707516  0.19317557  1
  Se  Se228  1  0.23909737  0.76883610  0.69116454  1
  Se  Se229  1  0.58533665  0.08101059  0.19882658  1
  Se  Se230  1  0.58408974  0.08444611  0.69673309  1
  Se  Se231  1  0.59037905  0.41312069  0.20242620  1
  Se  Se232  1  0.58043367  0.42430285  0.69223789  1
  Se  Se233  1  0.56201892  0.77623942  0.19810180  1
  Se  Se234  1  0.57649040  0.75366267  0.68440698  1
  Se  Se235  1  0.91943991  0.08298724  0.19431947  1
  Se  Se236  1  0.92268545  0.06788747  0.69341347  1
  Se  Se237  1  0.91497020  0.41848779  0.20255839  1
  Se  Se238  1  0.91511973  0.41351051  0.69275576  1
  Se  Se239  1  0.90835217  0.75717757  0.18156227  1
  Se  Se240  1  0.90620501  0.75359455  0.68678019  1
  Se  Se241  1  0.08055045  0.25163357  0.19562134  1
  Se  Se242  1  0.09148077  0.24383890  0.68898793  1
  Se  Se243  1  0.08606590  0.58117347  0.18355824  1
  Se  Se244  1  0.09026131  0.57465271  0.69954244  1
  Se  Se245  1  0.07654691  0.92234001  0.19938684  1
  Se  Se246  1  0.07653770  0.92092869  0.70116694  1
  Se  Se247  1  0.42017343  0.24123827  0.18494932  1
  Se  Se248  1  0.41782483  0.25594062  0.69636542  1
  Se  Se249  1  0.42848338  0.57762203  0.19188269  1
  Se  Se250  1  0.42645342  0.58780504  0.68969673  1
  Se  Se251  1  0.40941485  0.91058911  0.20659527  1
  Se  Se252  1  0.41432692  0.92396337  0.69438091  1
  Se  Se253  1  0.75082826  0.24967711  0.19795734  1
  Se  Se254  1  0.76259620  0.23604206  0.69244897  1
  Se  Se255  1  0.73339569  0.60096741  0.19573733  1
  Se  Se256  1  0.75499115  0.57481469  0.69561929  1
  Se  Se257  1  0.75162493  0.92751902  0.19574756  1
  Se  Se258  1  0.74478353  0.91599961  0.68929976  1
