# generated using pymatgen
data_In86Cu29Se144
_symmetry_space_group_name_H-M   'P 1'
_cell_length_a   17.58181655
_cell_length_b   17.58934539
_cell_length_c   23.44998837
_cell_angle_alpha   89.99323186
_cell_angle_beta   89.99202183
_cell_angle_gamma   89.99234905
_symmetry_Int_Tables_number   1
_chemical_formula_structural   In86Cu29Se144
_chemical_formula_sum   'In86 Cu29 Se144'
_cell_volume   7251.97071711
_cell_formula_units_Z   1
loop_
 _symmetry_equiv_pos_site_id
 _symmetry_equiv_pos_as_xyz
  1  'x, y, z'
loop_
 _atom_site_type_symbol
 _atom_site_label
 _atom_site_symmetry_multiplicity
 _atom_site_fract_x
 _atom_site_fract_y
 _atom_site_fract_z
 _atom_site_occupancy
  In  In0  1  -0.00743597  0.16532966  0.12873210  1
  In  In1  1  0.00142978  0.17752010  0.62305058  1
  In  In2  1  0.01087154  0.48738914  0.14168566  1
  In  In3  1  -0.01710150  0.50732636  0.64026382  1
  In  In4  1  -0.01190182  0.84469615  0.13604665  1
  In  In5  1  -0.01426012  0.82640253  0.60800727  1
  In  In6  1  0.33286600  0.15475337  0.12674765  1
  In  In7  1  0.33499922  0.16562421  0.62762828  1
  In  In8  1  0.32942822  0.51352335  0.12126984  1
  In  In9  1  0.34357469  0.48816671  0.63024264  1
  In  In10  1  0.33929548  0.84215382  0.12975159  1
  In  In11  1  0.32281223  0.84022141  0.62831395  1
  In  In12  1  0.65972048  0.15416534  0.11891301  1
  In  In13  1  0.65484031  0.15769916  0.62099641  1
  In  In14  1  0.66826478  0.50985732  0.12417477  1
  In  In15  1  0.67999678  0.51179831  0.61803193  1
  In  In16  1  0.68281386  0.83074163  0.12734024  1
  In  In17  1  0.67422617  0.82645281  0.62914619  1
  In  In18  1  0.15435284  -0.01081105  0.36896699  1
  In  In19  1  0.16732224  -0.01126884  0.87554938  1
  In  In20  1  0.15385364  0.34592660  0.37306347  1
  In  In21  1  0.17593642  0.34018985  0.87050402  1
  In  In22  1  0.16291132  0.67479337  0.37934974  1
  In  In23  1  0.15473223  0.65782198  0.86704309  1
  In  In24  1  0.51370693  0.00697905  0.36611992  1
  In  In25  1  0.50982619  0.00815121  0.86897671  1
  In  In26  1  0.49877694  0.33066396  0.39423601  1
  In  In27  1  0.49049716  0.32684052  0.86971670  1
  In  In28  1  0.49082072  0.66699595  0.38212997  1
  In  In29  1  0.50172573  0.67244379  0.85966905  1
  In  In30  1  0.83481451  0.00316751  0.37998009  1
  In  In31  1  0.83006954  0.00874315  0.88369664  1
  In  In32  1  0.83932718  0.33110889  0.37906333  1
  In  In33  1  0.82926524  0.32374846  0.87044857  1
  In  In34  1  0.85155612  0.65553605  0.38313923  1
  In  In35  1  0.84706360  0.67565913  0.86097435  1
  In  In36  1  -0.01544559  0.15477724  0.36733785  1
  In  In37  1  -0.01697268  0.16575191  0.87667097  1
  In  In38  1  -0.00942534  0.48515623  0.35350213  1
  In  In39  1  0.00476677  0.50960182  0.86640934  1
  In  In40  1  0.00110245  0.83439721  0.38082487  1
  In  In41  1  -0.00220649  0.82479541  0.87683987  1
  In  In42  1  0.34911666  0.16722145  0.38026262  1
  In  In43  1  0.34049101  0.17207415  0.87122105  1
  In  In44  1  0.33069630  0.50736960  0.38487201  1
  In  In45  1  0.32413147  0.49167536  0.86517312  1
  In  In46  1  0.32205014  0.83230343  0.37747712  1
  In  In47  1  0.33712132  0.83916335  0.86228982  1
  In  In48  1  0.67743544  0.16035189  0.38351144  1
  In  In49  1  0.67634612  0.15534835  0.88018287  1
  In  In50  1  0.67223159  0.49750060  0.38653883  1
  In  In51  1  0.66456140  0.50159102  0.86580926  1
  In  In52  1  0.67057516  0.85426948  0.37247256  1
  In  In53  1  0.67747068  0.84420216  0.86533813  1
  In  In54  1  0.16508846  0.00345136  0.13585970  1
  In  In55  1  0.17194952  0.00183685  0.62152629  1
  In  In56  1  0.15627218  0.33722865  0.12755395  1
  In  In57  1  0.16141872  0.33543058  0.63382454  1
  In  In58  1  0.15763525  0.64995297  0.12116981  1
  In  In59  1  0.15326990  0.67301022  0.63043046  1
  In  In60  1  0.49060672  0.00558883  0.13441558  1
  In  In61  1  0.49242843  0.00929052  0.62921602  1
  In  In62  1  0.51654078  0.33056551  0.12361186  1
  In  In63  1  0.48760299  0.32713512  0.61484838  1
  In  In64  1  0.50542480  0.66755560  0.12220590  1
  In  In65  1  0.51075233  0.65543464  0.63036701  1
  In  In66  1  0.83456920  -0.00494359  0.12699488  1
  In  In67  1  0.82637832  -0.00983721  0.61204574  1
  In  In68  1  0.85129997  0.33044270  0.12751377  1
  In  In69  1  0.84176422  0.34038537  0.61975207  1
  In  In70  1  0.83591180  0.67681945  0.12631060  1
  In  In71  1  0.83310250  0.66853154  0.62709111  1
  In  In72  1  0.32508461  0.67237727  0.25933568  1
  In  In73  1  0.67246839  0.67255106  0.24815162  1
  In  In74  1  0.15895631  0.83257703  -0.00175694  1
  In  In75  1  0.66857242  0.33723054  0.74258947  1
  In  In76  1  0.83447452  0.49759643  0.00008269  1
  In  In77  1  0.16431845  0.50208405  0.50139174  1
  In  In78  1  0.49305164  0.48882032  -0.01964592  1
  In  In79  1  0.00346842  0.00253215  0.74799915  1
  In  In80  1  0.67474580  0.32915504  0.26035829  1
  In  In81  1  0.16172526  0.16861927  0.00906436  1
  In  In82  1  0.16372343  0.16432578  0.50157204  1
  In  In83  1  0.50077953  0.83596852  0.00227323  1
  In  In84  1  0.32856204  0.33176175  0.25437548  1
  In  In85  1  0.50133754  0.83372591  0.50055853  1
  Cu  Cu86  1  0.66762511  0.33518034  0.50649846  1
  Cu  Cu87  1  0.00362131  0.33542034  0.00254836  1
  Cu  Cu88  1  0.82923379  0.16139769  0.75107468  1
  Cu  Cu89  1  0.66516098  0.00548544  0.49845915  1
  Cu  Cu90  1  0.33395004  0.00138887  0.50302293  1
  Cu  Cu91  1  0.16536675  0.16480590  0.25063488  1
  Cu  Cu92  1  0.50364436  0.16349582  0.25198102  1
  Cu  Cu93  1  0.32183932  0.66491920  -0.00647464  1
  Cu  Cu94  1  0.49966080  0.50141308  0.25762586  1
  Cu  Cu95  1  0.67045443  -0.00110935  -0.00031695  1
  Cu  Cu96  1  0.16334102  0.83064062  0.25295287  1
  Cu  Cu97  1  0.16539516  0.83293275  0.74863456  1
  Cu  Cu98  1  0.17328177  0.16812859  0.74941929  1
  Cu  Cu99  1  0.49656923  0.83532815  0.74192693  1
  Cu  Cu100  1  0.83546581  0.83644889  0.74275662  1
  Cu  Cu101  1  0.33697325  0.66123070  0.50683321  1
  Cu  Cu102  1  -0.00498774  0.66271411  -0.00433415  1
  Cu  Cu103  1  0.66699936  0.66634553  -0.00632327  1
  Cu  Cu104  1  0.16864592  0.50220465  0.74717555  1
  Cu  Cu105  1  -0.00200986  0.66530201  0.50266966  1
  Cu  Cu106  1  0.33591440  0.00708958  0.00268028  1
  Cu  Cu107  1  -0.00350888  0.33691975  0.49915880  1
  Cu  Cu108  1  0.50178742  0.50198587  0.74554245  1
  Cu  Cu109  1  0.67523522  0.31792711  -0.00043591  1
  Cu  Cu110  1  0.67613291  0.67075930  0.50392636  1
  Cu  Cu111  1  0.82880454  0.16221853  0.25249697  1
  Cu  Cu112  1  0.83740997  0.83730413  0.25622685  1
  Cu  Cu113  1  0.50015655  0.16439772  0.74734912  1
  Cu  Cu114  1  0.33645115  0.33423677  -0.00637534  1
  Se  Se115  1  0.07453163  0.07018687  0.06088294  1
  Se  Se116  1  0.07055309  0.07422673  0.55711993  1
  Se  Se117  1  0.08147989  0.42206684  0.05637570  1
  Se  Se118  1  0.07300755  0.41565184  0.56284310  1
  Se  Se119  1  0.07135615  0.74415709  0.05979041  1
  Se  Se120  1  0.08722770  0.74903372  0.54978099  1
  Se  Se121  1  0.42256742  0.08620597  0.05529260  1
  Se  Se122  1  0.41571599  0.08684300  0.55402650  1
  Se  Se123  1  0.41459205  0.41265430  0.06030668  1
  Se  Se124  1  0.41547485  0.42168313  0.54931937  1
  Se  Se125  1  0.40340159  0.74057172  0.05574806  1
  Se  Se126  1  0.41518994  0.74597444  0.56531569  1
  Se  Se127  1  0.75478016  0.08033090  0.05521764  1
  Se  Se128  1  0.74862227  0.08864045  0.55198136  1
  Se  Se129  1  0.74257485  0.40672525  0.06147513  1
  Se  Se130  1  0.75599273  0.42015273  0.55194839  1
  Se  Se131  1  0.74807306  0.74399892  0.05208269  1
  Se  Se132  1  0.75784992  0.75645356  0.55466920  1
  Se  Se133  1  0.25981215  0.26030757  0.06247539  1
  Se  Se134  1  0.24880808  0.25737105  0.56139583  1
  Se  Se135  1  0.24316966  0.57939356  0.04679063  1
  Se  Se136  1  0.25212856  0.58668904  0.56690736  1
  Se  Se137  1  0.25302187  0.92421773  0.05786217  1
  Se  Se138  1  0.24854999  0.91596640  0.55058497  1
  Se  Se139  1  0.58201060  0.24379656  0.05040115  1
  Se  Se140  1  0.58135870  0.24825554  0.55248018  1
  Se  Se141  1  0.58215855  0.58195584  0.04580218  1
  Se  Se142  1  0.58673340  0.58687537  0.55068125  1
  Se  Se143  1  0.59088968  0.92181164  0.06371660  1
  Se  Se144  1  0.58779165  0.92416695  0.56197348  1
  Se  Se145  1  0.92089667  0.24863137  0.05233491  1
  Se  Se146  1  0.91564390  0.24929314  0.55037937  1
  Se  Se147  1  0.92290689  0.58317006  0.06310478  1
  Se  Se148  1  0.91690091  0.58266418  0.55877431  1
  Se  Se149  1  0.90384594  0.90110469  0.05789050  1
  Se  Se150  1  0.92180505  0.92560615  0.54426689  1
  Se  Se151  1  0.07421882  0.25389203  0.43902714  1
  Se  Se152  1  0.08146831  0.25555941  0.93937831  1
  Se  Se153  1  0.07142216  0.58290498  0.43848680  1
  Se  Se154  1  0.08219864  0.58106703  0.94492750  1
  Se  Se155  1  0.09531938  0.90742279  0.44749133  1
  Se  Se156  1  0.06694317  0.92714370  0.94459066  1
  Se  Se157  1  0.40960631  0.25094538  0.45682786  1
  Se  Se158  1  0.42044910  0.24717225  0.94696487  1
  Se  Se159  1  0.42096053  0.57952900  0.45404028  1
  Se  Se160  1  0.40893712  0.59407236  0.93206035  1
  Se  Se161  1  0.41401277  0.92382645  0.43901705  1
  Se  Se162  1  0.41071388  0.92401728  0.94061867  1
  Se  Se163  1  0.74991093  0.25604038  0.44732515  1
  Se  Se164  1  0.76177035  0.23994176  0.94625695  1
  Se  Se165  1  0.75671754  0.58397963  0.45003922  1
  Se  Se166  1  0.74844957  0.58627200  0.93558658  1
  Se  Se167  1  0.75044395  0.91959109  0.45020544  1
  Se  Se168  1  0.75054291  0.91304452  0.94620434  1
  Se  Se169  1  0.25259029  0.07643782  0.43829988  1
  Se  Se170  1  0.25061042  0.08212064  0.94252259  1
  Se  Se171  1  0.25338748  0.40513976  0.44498938  1
  Se  Se172  1  0.25165394  0.41973891  0.94591832  1
  Se  Se173  1  0.25598310  0.74216915  0.44984545  1
  Se  Se174  1  0.25144066  0.75159357  0.93318856  1
  Se  Se175  1  0.57819397  0.08620818  0.44609331  1
  Se  Se176  1  0.58370287  0.08112927  0.94777231  1
  Se  Se177  1  0.58423269  0.42072953  0.45386973  1
  Se  Se178  1  0.59873992  0.39871371  0.93578106  1
  Se  Se179  1  0.59522648  0.74699279  0.43995589  1
  Se  Se180  1  0.58634055  0.74856469  0.93654573  1
  Se  Se181  1  0.90875320  0.09426869  0.44826066  1
  Se  Se182  1  0.92196169  0.08010629  0.95111155  1
  Se  Se183  1  0.92237628  0.42414392  0.44093377  1
  Se  Se184  1  0.92281820  0.40972204  0.93733893  1
  Se  Se185  1  0.91592073  0.75289767  0.45083405  1
  Se  Se186  1  0.91078128  0.74721435  0.94570975  1
  Se  Se187  1  0.24120823  0.24121624  0.31586192  1
  Se  Se188  1  0.25589706  0.25289665  0.80350194  1
  Se  Se189  1  0.23828360  0.57286923  0.31133313  1
  Se  Se190  1  0.25106052  0.58757537  0.80089021  1
  Se  Se191  1  0.24959845  0.91412772  0.30314199  1
  Se  Se192  1  0.24741320  0.92161823  0.79841970  1
  Se  Se193  1  0.57539425  0.24615368  0.31606290  1
  Se  Se194  1  0.58575104  0.24277068  0.80722581  1
  Se  Se195  1  0.58222095  0.58298368  0.31355969  1
  Se  Se196  1  0.58684968  0.58524808  0.79665369  1
  Se  Se197  1  0.58233753  0.91403369  0.29867987  1
  Se  Se198  1  0.57903829  0.91409696  0.80137687  1
  Se  Se199  1  0.91167468  0.25099327  0.30214748  1
  Se  Se200  1  0.91464630  0.24650872  0.79988465  1
  Se  Se201  1  0.92478778  0.59536993  0.29991839  1
  Se  Se202  1  0.91365679  0.57811348  0.79755302  1
  Se  Se203  1  0.91902373  0.91979727  0.31182137  1
  Se  Se204  1  0.91212671  0.91463264  0.80870174  1
  Se  Se205  1  0.07982341  0.08165106  0.30263391  1
  Se  Se206  1  0.09125187  0.09233592  0.81259450  1
  Se  Se207  1  0.08743769  0.41270320  0.29078492  1
  Se  Se208  1  0.08727708  0.41821672  0.80371221  1
  Se  Se209  1  0.08020292  0.75005079  0.30752991  1
  Se  Se210  1  0.07929643  0.75256328  0.80260566  1
  Se  Se211  1  0.41546281  0.08389047  0.30404786  1
  Se  Se212  1  0.41615444  0.08259317  0.80321836  1
  Se  Se213  1  0.42149116  0.42015639  0.31588032  1
  Se  Se214  1  0.42080942  0.41762336  0.80098147  1
  Se  Se215  1  0.42511643  0.76057261  0.30980410  1
  Se  Se216  1  0.41227004  0.75061395  0.79435694  1
  Se  Se217  1  0.74691977  0.07942214  0.30724234  1
  Se  Se218  1  0.74974817  0.07563575  0.80448186  1
  Se  Se219  1  0.76034550  0.42960776  0.31040377  1
  Se  Se220  1  0.76172983  0.42437699  0.80225883  1
  Se  Se221  1  0.75848985  0.75412348  0.31608161  1
  Se  Se222  1  0.75203970  0.75303283  0.79826932  1
  Se  Se223  1  0.25452938  0.08234723  0.20199502  1
  Se  Se224  1  0.24980437  0.08171512  0.69421918  1
  Se  Se225  1  0.24901127  0.42678331  0.19114243  1
  Se  Se226  1  0.25191887  0.41458872  0.69850473  1
  Se  Se227  1  0.24101849  0.75409316  0.18682293  1
  Se  Se228  1  0.24806805  0.74853215  0.69565029  1
  Se  Se229  1  0.58704606  0.08171661  0.19809384  1
  Se  Se230  1  0.58582480  0.07897716  0.69924721  1
  Se  Se231  1  0.58294567  0.42568299  0.19753523  1
  Se  Se232  1  0.57791302  0.42279639  0.68102213  1
  Se  Se233  1  0.57489270  0.75970865  0.19166885  1
  Se  Se234  1  0.58452123  0.74999137  0.69567813  1
  Se  Se235  1  0.91399493  0.08027133  0.19791731  1
  Se  Se236  1  0.90997136  0.08608875  0.68660039  1
  Se  Se237  1  0.91038850  0.41693964  0.20202801  1
  Se  Se238  1  0.92612886  0.39680728  0.69877310  1
  Se  Se239  1  0.91557700  0.74947578  0.20201108  1
  Se  Se240  1  0.92212259  0.75431131  0.69185903  1
  Se  Se241  1  0.08391891  0.24530320  0.19389114  1
  Se  Se242  1  0.08219614  0.24651025  0.70013079  1
  Se  Se243  1  0.08060876  0.58981404  0.20161577  1
  Se  Se244  1  0.07930034  0.58572576  0.70052469  1
  Se  Se245  1  0.08197635  0.91864042  0.20114818  1
  Se  Se246  1  0.08441651  0.90893676  0.68542716  1
  Se  Se247  1  0.42637569  0.24814260  0.19277410  1
  Se  Se248  1  0.41881464  0.25074920  0.69521094  1
  Se  Se249  1  0.42321132  0.58289529  0.19622028  1
  Se  Se250  1  0.41371373  0.58520757  0.69624348  1
  Se  Se251  1  0.41542047  0.91750262  0.20205813  1
  Se  Se252  1  0.41079041  0.92107017  0.69429416  1
  Se  Se253  1  0.75258051  0.24290044  0.18881219  1
  Se  Se254  1  0.75443360  0.24099779  0.68561382  1
  Se  Se255  1  0.76223952  0.57521667  0.19440948  1
  Se  Se256  1  0.74767453  0.58838634  0.69541801  1
  Se  Se257  1  0.75143875  0.91603891  0.20070875  1
  Se  Se258  1  0.75121151  0.92203435  0.69296475  1
