# generated using pymatgen
data_In86Cu29Se144
_symmetry_space_group_name_H-M   'P 1'
_cell_length_a   17.57297782
_cell_length_b   17.56931100
_cell_length_c   23.43171581
_cell_angle_alpha   89.99342602
_cell_angle_beta   89.99328828
_cell_angle_gamma   90.00713693
_symmetry_Int_Tables_number   1
_chemical_formula_structural   In86Cu29Se144
_chemical_formula_sum   'In86 Cu29 Se144'
_cell_volume   7234.42758095
_cell_formula_units_Z   1
loop_
 _symmetry_equiv_pos_site_id
 _symmetry_equiv_pos_as_xyz
  1  'x, y, z'
loop_
 _atom_site_type_symbol
 _atom_site_label
 _atom_site_symmetry_multiplicity
 _atom_site_fract_x
 _atom_site_fract_y
 _atom_site_fract_z
 _atom_site_occupancy
  In  In0  1  0.00310676  0.17025649  0.12607480  1
  In  In1  1  -0.01303760  0.16374613  0.60673061  1
  In  In2  1  0.02275091  0.47625051  0.14132441  1
  In  In3  1  0.00513401  0.49538851  0.62411030  1
  In  In4  1  0.00693127  0.83751500  0.15463745  1
  In  In5  1  0.00316811  0.84502146  0.61019796  1
  In  In6  1  0.33837658  0.17168629  0.12632375  1
  In  In7  1  0.33404660  0.16416696  0.62880825  1
  In  In8  1  0.32590747  0.49952641  0.11626246  1
  In  In9  1  0.33976377  0.48783936  0.63638257  1
  In  In10  1  0.34596608  0.84165788  0.12932060  1
  In  In11  1  0.32959455  0.84511958  0.63280418  1
  In  In12  1  0.66084542  0.15738449  0.11788580  1
  In  In13  1  0.65879327  0.16588852  0.62686865  1
  In  In14  1  0.65786941  0.50278806  0.11784663  1
  In  In15  1  0.64921096  0.50210086  0.62687859  1
  In  In16  1  0.65530655  0.84929118  0.13121089  1
  In  In17  1  0.67204026  0.84185458  0.62162109  1
  In  In18  1  0.16906813  0.00379643  0.36979042  1
  In  In19  1  0.18328955  0.00029317  0.87670131  1
  In  In20  1  0.15436443  0.31291057  0.36427733  1
  In  In21  1  0.18202730  0.31275061  0.89269669  1
  In  In22  1  0.16273787  0.68489244  0.37300342  1
  In  In23  1  0.17724212  0.65052644  0.88556539  1
  In  In24  1  0.51178283  0.00727169  0.35481086  1
  In  In25  1  0.49960981  0.00461876  0.87482157  1
  In  In26  1  0.47942490  0.31692020  0.36033499  1
  In  In27  1  0.49942220  0.33087231  0.87804916  1
  In  In28  1  0.50145933  0.66703313  0.37276349  1
  In  In29  1  0.48242805  0.68115212  0.88324259  1
  In  In30  1  0.83836576  0.00101636  0.37501357  1
  In  In31  1  0.82991600  0.01495082  0.87541886  1
  In  In32  1  0.83722003  0.31785888  0.37805579  1
  In  In33  1  0.82095375  0.32656716  0.87403456  1
  In  In34  1  0.85123817  0.67669479  0.36809989  1
  In  In35  1  0.83849317  0.66917484  0.87376070  1
  In  In36  1  0.00823856  0.17317986  0.37397499  1
  In  In37  1  -0.00336341  0.17155288  0.89310926  1
  In  In38  1  0.00595760  0.50157908  0.36384785  1
  In  In39  1  0.00874506  0.49754190  0.88604230  1
  In  In40  1  0.00520595  0.83515207  0.37009695  1
  In  In41  1  -0.00353073  0.83022243  0.88062115  1
  In  In42  1  0.33380747  0.16314675  0.37191848  1
  In  In43  1  0.33228044  0.16996174  0.87686652  1
  In  In44  1  0.34205725  0.48383439  0.36832109  1
  In  In45  1  0.33452351  0.49865833  0.87813896  1
  In  In46  1  0.31609498  0.83920433  0.37048861  1
  In  In47  1  0.36219633  0.85396558  0.85239840  1
  In  In48  1  0.68228476  0.14327470  0.39010928  1
  In  In49  1  0.66100397  0.16386804  0.87490689  1
  In  In50  1  0.66306651  0.50618088  0.37332756  1
  In  In51  1  0.66758727  0.47986165  0.87341681  1
  In  In52  1  0.66286486  0.88152677  0.37775605  1
  In  In53  1  0.64121694  0.83477849  0.87011081  1
  In  In54  1  0.15936971  0.00911629  0.14195130  1
  In  In55  1  0.17438927  0.00878015  0.61766647  1
  In  In56  1  0.16734073  0.33526357  0.12151433  1
  In  In57  1  0.17344051  0.32837431  0.62550774  1
  In  In58  1  0.16949520  0.65405586  0.12377349  1
  In  In59  1  0.16409692  0.67836939  0.62294355  1
  In  In60  1  0.49670502  0.00322432  0.12781522  1
  In  In61  1  0.48684560  0.00316198  0.63237887  1
  In  In62  1  0.49552405  0.33155014  0.12078006  1
  In  In63  1  0.50621995  0.32356821  0.63738390  1
  In  In64  1  0.48989006  0.66367127  0.11204067  1
  In  In65  1  0.49333604  0.66149595  0.62785750  1
  In  In66  1  0.83118663  0.00962792  0.13267188  1
  In  In67  1  0.82210619  -0.00155445  0.61089627  1
  In  In68  1  0.85570141  0.32515006  0.12228712  1
  In  In69  1  0.82151761  0.29373583  0.61332821  1
  In  In70  1  0.83471552  0.67550924  0.12778285  1
  In  In71  1  0.82576187  0.67987306  0.62023844  1
  In  In72  1  0.66060711  0.66657636  0.74844396  1
  In  In73  1  0.00586428  0.66671948  0.75834957  1
  In  In74  1  0.00413028  0.00443827  0.74309247  1
  In  In75  1  0.66779021  0.32424080  0.24441082  1
  In  In76  1  0.17545562  0.83375348  0.00609718  1
  In  In77  1  0.82499971  0.84331202  0.01494632  1
  In  In78  1  0.32793689  0.67056023  0.24807359  1
  In  In79  1  0.49909137  0.49607083  0.49916431  1
  In  In80  1  0.16988964  0.49252475  0.49856385  1
  In  In81  1  0.83178602  0.49499131  0.00124843  1
  In  In82  1  0.66658035  0.66998448  0.25047231  1
  In  In83  1  0.00220944  0.33051383  0.74780038  1
  In  In84  1  0.83415282  0.49684354  0.49659292  1
  In  In85  1  0.49467361  0.84828478  0.49957566  1
  Cu  Cu86  1  0.18122605  0.82821675  0.74757539  1
  Cu  Cu87  1  0.49834804  0.49963565  0.75684383  1
  Cu  Cu88  1  0.00532600  0.00463168  0.01044136  1
  Cu  Cu89  1  0.83165248  0.48547583  0.74770102  1
  Cu  Cu90  1  0.32510645  0.66763012  0.50023075  1
  Cu  Cu91  1  0.00002866  0.67663585  0.49634807  1
  Cu  Cu92  1  0.33057368  0.67245901  -0.00281831  1
  Cu  Cu93  1  0.00186756  0.00116920  0.48850056  1
  Cu  Cu94  1  0.33345676  0.31615786  0.49900682  1
  Cu  Cu95  1  0.83476646  0.49330834  0.24981097  1
  Cu  Cu96  1  0.65958216  -0.00312474  0.00086327  1
  Cu  Cu97  1  0.17360191  0.49935677  0.24610614  1
  Cu  Cu98  1  0.49552446  0.16896698  0.75384873  1
  Cu  Cu99  1  0.67203520  0.68731280  0.49429261  1
  Cu  Cu100  1  0.00090336  0.66156652  0.01290256  1
  Cu  Cu101  1  0.66537149  0.32279366  -0.00307228  1
  Cu  Cu102  1  0.83325997  0.84153000  0.74147775  1
  Cu  Cu103  1  0.17329381  0.17466509  0.24880734  1
  Cu  Cu104  1  0.82918026  0.83618909  0.25391106  1
  Cu  Cu105  1  0.16856669  0.16147518  0.75133262  1
  Cu  Cu106  1  0.17549214  0.49431752  0.75758817  1
  Cu  Cu107  1  0.33812504  0.00877103  -0.00103204  1
  Cu  Cu108  1  0.81887503  0.16581160  0.74975708  1
  Cu  Cu109  1  0.65764812  0.33209634  0.50266357  1
  Cu  Cu110  1  0.65401632  0.66503997  -0.00414110  1
  Cu  Cu111  1  0.84006736  0.16085949  0.25467316  1
  Cu  Cu112  1  0.50446928  0.16327734  0.24687520  1
  Cu  Cu113  1  0.32705343  0.00409090  0.49896159  1
  Cu  Cu114  1  0.33441485  0.33526591  0.00091793  1
  Se  Se115  1  0.09284884  0.08444336  0.06113466  1
  Se  Se116  1  0.08146227  0.08012154  0.54981700  1
  Se  Se117  1  0.08202260  0.41785880  0.05348560  1
  Se  Se118  1  0.07674148  0.40265143  0.55506729  1
  Se  Se119  1  0.07429125  0.75441690  0.06814092  1
  Se  Se120  1  0.08909091  0.75597897  0.54846808  1
  Se  Se121  1  0.42114406  0.08890829  0.05627968  1
  Se  Se122  1  0.41206204  0.08072560  0.55664903  1
  Se  Se123  1  0.41876009  0.42020701  0.05232901  1
  Se  Se124  1  0.41102452  0.40367427  0.55816510  1
  Se  Se125  1  0.40998401  0.75816130  0.05096726  1
  Se  Se126  1  0.41083873  0.74676755  0.55759796  1
  Se  Se127  1  0.75007583  0.07409487  0.05329007  1
  Se  Se128  1  0.76608691  0.11475096  0.55942484  1
  Se  Se129  1  0.74376341  0.40078510  0.06245512  1
  Se  Se130  1  0.73855002  0.41454355  0.56119093  1
  Se  Se131  1  0.73104585  0.74174166  0.06146300  1
  Se  Se132  1  0.75647961  0.76665309  0.54841774  1
  Se  Se133  1  0.25414599  0.25121337  0.05589646  1
  Se  Se134  1  0.24774504  0.24100296  0.55621641  1
  Se  Se135  1  0.24682685  0.58551387  0.04584879  1
  Se  Se136  1  0.25696691  0.58096889  0.56291921  1
  Se  Se137  1  0.25657308  0.93269118  0.06388657  1
  Se  Se138  1  0.25192490  0.91387354  0.55373804  1
  Se  Se139  1  0.58001897  0.24683194  0.05437806  1
  Se  Se140  1  0.57444943  0.24972112  0.55679010  1
  Se  Se141  1  0.57373030  0.57646453  0.04670454  1
  Se  Se142  1  0.59062233  0.60076057  0.55030046  1
  Se  Se143  1  0.57500289  0.91657288  0.05456311  1
  Se  Se144  1  0.58674980  0.93429605  0.55918957  1
  Se  Se145  1  0.91402086  0.23363175  0.05021808  1
  Se  Se146  1  0.92736762  0.26676635  0.54235361  1
  Se  Se147  1  0.91834029  0.57944611  0.06904183  1
  Se  Se148  1  0.92420464  0.59304707  0.55831138  1
  Se  Se149  1  0.93170699  0.91738564  0.07132635  1
  Se  Se150  1  0.91508875  0.92294456  0.54510600  1
  Se  Se151  1  0.09066176  0.24812561  0.44845415  1
  Se  Se152  1  0.08010474  0.25364871  0.95724990  1
  Se  Se153  1  0.07935029  0.58841580  0.44206453  1
  Se  Se154  1  0.08417386  0.58335738  0.95582595  1
  Se  Se155  1  0.08783167  0.91733189  0.43945736  1
  Se  Se156  1  0.07873438  0.92298504  0.94529423  1
  Se  Se157  1  0.42169194  0.24064608  0.44361883  1
  Se  Se158  1  0.41600412  0.24971483  0.94736263  1
  Se  Se159  1  0.40528228  0.58921805  0.44065338  1
  Se  Se160  1  0.41497151  0.58329742  0.94825976  1
  Se  Se161  1  0.40580874  0.92963396  0.43288338  1
  Se  Se162  1  0.41348632  0.91991790  0.94307699  1
  Se  Se163  1  0.74527570  0.25248298  0.44902727  1
  Se  Se164  1  0.75038258  0.24031169  0.94587291  1
  Se  Se165  1  0.74744575  0.59625497  0.43857593  1
  Se  Se166  1  0.74276915  0.58966709  0.93879383  1
  Se  Se167  1  0.75527770  0.92944362  0.45191305  1
  Se  Se168  1  0.74347895  0.91847125  0.93895939  1
  Se  Se169  1  0.24674049  0.08674416  0.44213497  1
  Se  Se170  1  0.24831830  0.08890930  0.94912869  1
  Se  Se171  1  0.25954193  0.40244649  0.43899557  1
  Se  Se172  1  0.24961424  0.42034247  0.94913568  1
  Se  Se173  1  0.24748610  0.75507359  0.44715330  1
  Se  Se174  1  0.26002315  0.75836755  0.93331503  1
  Se  Se175  1  0.57373630  0.07272053  0.44094689  1
  Se  Se176  1  0.57980110  0.08455158  0.94756663  1
  Se  Se177  1  0.58502077  0.40785580  0.43538142  1
  Se  Se178  1  0.58456849  0.41307221  0.94882578  1
  Se  Se179  1  0.58606638  0.76000499  0.43507232  1
  Se  Se180  1  0.57462624  0.75731720  0.94952844  1
  Se  Se181  1  0.92034917  0.09024261  0.44023583  1
  Se  Se182  1  0.91546310  0.07636495  0.95294280  1
  Se  Se183  1  0.92787937  0.41404153  0.43661945  1
  Se  Se184  1  0.91920767  0.40266312  0.94210776  1
  Se  Se185  1  0.91695593  0.75960210  0.44421450  1
  Se  Se186  1  0.91807117  0.74333714  0.95504598  1
  Se  Se187  1  0.26125651  0.25582448  0.30120345  1
  Se  Se188  1  0.24591227  0.25009955  0.80571296  1
  Se  Se189  1  0.24472861  0.57786009  0.31398190  1
  Se  Se190  1  0.25512410  0.58459306  0.80626753  1
  Se  Se191  1  0.23409633  0.91019835  0.29595514  1
  Se  Se192  1  0.25280553  0.92334631  0.79847491  1
  Se  Se193  1  0.58892191  0.23511869  0.31249119  1
  Se  Se194  1  0.58167710  0.25101254  0.80643457  1
  Se  Se195  1  0.57016761  0.57307185  0.30082796  1
  Se  Se196  1  0.58004114  0.58021998  0.81706252  1
  Se  Se197  1  0.57559267  0.90290472  0.29246137  1
  Se  Se198  1  0.58098517  0.92675162  0.80051091  1
  Se  Se199  1  0.92032324  0.25169131  0.30236660  1
  Se  Se200  1  0.91210225  0.23696372  0.80797887  1
  Se  Se201  1  0.91642593  0.58211617  0.29932522  1
  Se  Se202  1  0.91111478  0.56628249  0.80883090  1
  Se  Se203  1  0.91754220  0.91833856  0.30353054  1
  Se  Se204  1  0.91540366  0.91313252  0.80717011  1
  Se  Se205  1  0.08864601  0.09210691  0.30236601  1
  Se  Se206  1  0.08413493  0.08950435  0.81512343  1
  Se  Se207  1  0.08929130  0.41541391  0.29996162  1
  Se  Se208  1  0.08986401  0.41546284  0.81391572  1
  Se  Se209  1  0.07006978  0.73872323  0.30000879  1
  Se  Se210  1  0.09877202  0.75809393  0.81530456  1
  Se  Se211  1  0.41187251  0.08352645  0.29722212  1
  Se  Se212  1  0.41197057  0.08593826  0.80696874  1
  Se  Se213  1  0.42812104  0.42136957  0.29425491  1
  Se  Se214  1  0.41563271  0.41449403  0.80916029  1
  Se  Se215  1  0.41891535  0.75771845  0.30979108  1
  Se  Se216  1  0.41984697  0.74205561  0.79621447  1
  Se  Se217  1  0.75085016  0.08060748  0.30450361  1
  Se  Se218  1  0.74055976  0.07877051  0.80245686  1
  Se  Se219  1  0.75321178  0.41790758  0.31064260  1
  Se  Se220  1  0.74606791  0.40445672  0.79850682  1
  Se  Se221  1  0.74610777  0.76063000  0.31670287  1
  Se  Se222  1  0.75726730  0.75928504  0.80583038  1
  Se  Se223  1  0.25799748  0.08965932  0.19822145  1
  Se  Se224  1  0.25058930  0.07765459  0.69760102  1
  Se  Se225  1  0.25388776  0.41732967  0.19103323  1
  Se  Se226  1  0.24952350  0.40707142  0.69991959  1
  Se  Se227  1  0.24137533  0.75791644  0.18538056  1
  Se  Se228  1  0.25763576  0.74054813  0.69360710  1
  Se  Se229  1  0.59013278  0.08037455  0.19568867  1
  Se  Se230  1  0.57626313  0.08589432  0.69711590  1
  Se  Se231  1  0.57917672  0.42199257  0.19174965  1
  Se  Se232  1  0.58279535  0.41828009  0.70187356  1
  Se  Se233  1  0.57126627  0.74731421  0.18728028  1
  Se  Se234  1  0.57705398  0.75945270  0.68682831  1
  Se  Se235  1  0.92576919  0.08238915  0.19754999  1
  Se  Se236  1  0.90733025  0.09190035  0.68882013  1
  Se  Se237  1  0.91922871  0.40717702  0.20127548  1
  Se  Se238  1  0.90781010  0.41096185  0.68256916  1
  Se  Se239  1  0.91109365  0.74640619  0.20517840  1
  Se  Se240  1  0.92053966  0.75703695  0.68974737  1
  Se  Se241  1  0.08662538  0.25416600  0.19419027  1
  Se  Se242  1  0.08332905  0.23283668  0.68716010  1
  Se  Se243  1  0.08609938  0.58568281  0.19955525  1
  Se  Se244  1  0.09355635  0.57357706  0.69527385  1
  Se  Se245  1  0.10128988  0.91383880  0.21545966  1
  Se  Se246  1  0.09403526  0.90610634  0.68919733  1
  Se  Se247  1  0.42367349  0.25188238  0.19749036  1
  Se  Se248  1  0.40932029  0.25115454  0.70058599  1
  Se  Se249  1  0.41599458  0.57994776  0.18801949  1
  Se  Se250  1  0.41670284  0.58083269  0.70005656  1
  Se  Se251  1  0.42289146  0.91917231  0.20161485  1
  Se  Se252  1  0.42127852  0.90995077  0.70264913  1
  Se  Se253  1  0.76227788  0.23667368  0.18740571  1
  Se  Se254  1  0.73891806  0.25385781  0.69818732  1
  Se  Se255  1  0.75455380  0.57238466  0.19034575  1
  Se  Se256  1  0.75777462  0.57673741  0.68875276  1
  Se  Se257  1  0.75010467  0.91878378  0.19700052  1
  Se  Se258  1  0.75035882  0.92629070  0.69206240  1
