# generated using pymatgen
data_In86Cu29Se144
_symmetry_space_group_name_H-M   'P 1'
_cell_length_a   17.58022913
_cell_length_b   17.57569574
_cell_length_c   23.44159609
_cell_angle_alpha   90.00839427
_cell_angle_beta   90.01101211
_cell_angle_gamma   90.01207202
_symmetry_Int_Tables_number   1
_chemical_formula_structural   In86Cu29Se144
_chemical_formula_sum   'In86 Cu29 Se144'
_cell_volume   7243.09553038
_cell_formula_units_Z   1
loop_
 _symmetry_equiv_pos_site_id
 _symmetry_equiv_pos_as_xyz
  1  'x, y, z'
loop_
 _atom_site_type_symbol
 _atom_site_label
 _atom_site_symmetry_multiplicity
 _atom_site_fract_x
 _atom_site_fract_y
 _atom_site_fract_z
 _atom_site_occupancy
  In  In0  1  -0.00589552  0.17453973  0.11879950  1
  In  In1  1  0.00172904  0.17384591  0.62987853  1
  In  In2  1  0.00270022  0.49478611  0.11996524  1
  In  In3  1  0.00169726  0.50039228  0.62654075  1
  In  In4  1  0.00078787  0.82360340  0.11494497  1
  In  In5  1  -0.01141498  0.82459035  0.61700383  1
  In  In6  1  0.33590316  0.14800249  0.12420573  1
  In  In7  1  0.34389559  0.17838559  0.63041565  1
  In  In8  1  0.34569859  0.51044531  0.11671288  1
  In  In9  1  0.33241739  0.50695097  0.62794255  1
  In  In10  1  0.34001150  0.83107337  0.12487137  1
  In  In11  1  0.31798765  0.81682472  0.62076184  1
  In  In12  1  0.66668462  0.18083076  0.12481919  1
  In  In13  1  0.67240402  0.17475814  0.62670535  1
  In  In14  1  0.65016526  0.52410010  0.14598495  1
  In  In15  1  0.66345899  0.51705938  0.62111169  1
  In  In16  1  0.64828081  0.81351593  0.11416301  1
  In  In17  1  0.64794642  0.80063948  0.60171100  1
  In  In18  1  0.17589009  -0.02813635  0.38092933  1
  In  In19  1  0.16191379  -0.01277523  0.87615353  1
  In  In20  1  0.16553187  0.34411495  0.38217105  1
  In  In21  1  0.18131593  0.34845562  0.86450398  1
  In  In22  1  0.17168922  0.66584575  0.38130653  1
  In  In23  1  0.16660506  0.66625581  0.87111166  1
  In  In24  1  0.48794424  -0.00923222  0.36866472  1
  In  In25  1  0.50041575  -0.00190499  0.88254609  1
  In  In26  1  0.51400087  0.33573718  0.37338981  1
  In  In27  1  0.50144086  0.33868646  0.87231776  1
  In  In28  1  0.49732198  0.66325543  0.38327453  1
  In  In29  1  0.49650212  0.66880709  0.87457980  1
  In  In30  1  0.82623696  -0.01061088  0.37693156  1
  In  In31  1  0.82187519  -0.00832835  0.87444793  1
  In  In32  1  0.81762134  0.35551015  0.38560350  1
  In  In33  1  0.83567742  0.34984020  0.85607355  1
  In  In34  1  0.82537047  0.65930098  0.38280661  1
  In  In35  1  0.83712807  0.66613036  0.86177091  1
  In  In36  1  -0.00568096  0.16894792  0.37579235  1
  In  In37  1  -0.00902515  0.17339818  0.87333065  1
  In  In38  1  -0.00473463  0.50737612  0.39065732  1
  In  In39  1  0.00902398  0.53043160  0.84733851  1
  In  In40  1  0.00975999  0.82980046  0.39103862  1
  In  In41  1  0.00800484  0.81687274  0.88069959  1
  In  In42  1  0.34992694  0.16685460  0.37095258  1
  In  In43  1  0.34161571  0.17683035  0.87170444  1
  In  In44  1  0.32029112  0.51647041  0.38247093  1
  In  In45  1  0.33564929  0.50229167  0.87505200  1
  In  In46  1  0.33563391  0.82611452  0.37773054  1
  In  In47  1  0.33194421  0.82769975  0.87607914  1
  In  In48  1  0.65146548  0.17637458  0.37111000  1
  In  In49  1  0.65347661  0.17941250  0.87770255  1
  In  In50  1  0.66626164  0.50303566  0.38201623  1
  In  In51  1  0.65909935  0.49480743  0.86419427  1
  In  In52  1  0.66467690  0.81250006  0.38479001  1
  In  In53  1  0.66889467  0.82618607  0.88039988  1
  In  In54  1  0.18778193  -0.00604049  0.12785939  1
  In  In55  1  0.16042984  -0.00986572  0.61885380  1
  In  In56  1  0.15970942  0.34227078  0.11579378  1
  In  In57  1  0.15511005  0.34979609  0.63856158  1
  In  In58  1  0.17532985  0.67305925  0.11752941  1
  In  In59  1  0.17048200  0.67078492  0.63027235  1
  In  In60  1  0.48636126  -0.01404039  0.11491459  1
  In  In61  1  0.51159409  -0.00462785  0.62493312  1
  In  In62  1  0.51391052  0.34606019  0.11220100  1
  In  In63  1  0.48154991  0.35174086  0.64152948  1
  In  In64  1  0.49848031  0.66617738  0.12664835  1
  In  In65  1  0.49896938  0.66409795  0.62323694  1
  In  In66  1  0.84759553  -0.00822195  0.12799410  1
  In  In67  1  0.83646834  -0.02606648  0.62099373  1
  In  In68  1  0.83066726  0.33226843  0.12328422  1
  In  In69  1  0.81164763  0.37082696  0.65024341  1
  In  In70  1  0.80915150  0.66525857  0.12678518  1
  In  In71  1  0.83513898  0.66584140  0.62680843  1
  In  In72  1  0.33966119  0.33746429  0.24480290  1
  In  In73  1  0.16961718  0.16302201  0.00406034  1
  In  In74  1  0.00712159  -0.00010453  0.25510980  1
  In  In75  1  -0.00508245  0.66304428  0.26242953  1
  In  In76  1  0.66197957  -0.00777479  0.25362337  1
  In  In77  1  0.83205594  0.50268594  -0.00508393  1
  In  In78  1  -0.00107111  0.33790826  0.24081105  1
  In  In79  1  0.50207129  0.16639872  0.49919468  1
  In  In80  1  0.82729141  0.16517310  -0.00266839  1
  In  In81  1  0.16987851  0.16370270  0.51014321  1
  In  In82  1  -0.00140337  -0.00237546  0.74328974  1
  In  In83  1  0.83634145  0.16188950  0.50542699  1
  In  In84  1  0.66766093  0.00537688  0.74807266  1
  In  In85  1  0.33466563  -0.00524807  0.75558107  1
  Cu  Cu86  1  0.66506953  0.34286327  -0.00332010  1
  Cu  Cu87  1  0.18083170  0.83411833  0.24833784  1
  Cu  Cu88  1  0.83376641  0.17800208  0.74685438  1
  Cu  Cu89  1  0.49766033  0.50949790  0.75179349  1
  Cu  Cu90  1  0.16651618  0.50521380  0.25042970  1
  Cu  Cu91  1  0.66799068  -0.01317323  0.49858590  1
  Cu  Cu92  1  0.17481111  0.50403933  0.74767781  1
  Cu  Cu93  1  0.50184991  0.82674782  0.74594300  1
  Cu  Cu94  1  0.00993651  0.34809417  -0.01470768  1
  Cu  Cu95  1  0.33119902  0.66342988  -0.00264171  1
  Cu  Cu96  1  0.66832418  -0.00441975  -0.00094939  1
  Cu  Cu97  1  0.33213627  -0.00551667  0.49805928  1
  Cu  Cu98  1  0.50094472  0.16489867  0.24311067  1
  Cu  Cu99  1  0.82988327  0.82532775  0.25329888  1
  Cu  Cu100  1  0.49916379  0.50437021  0.25361569  1
  Cu  Cu101  1  0.33461738  -0.00734380  -0.00033081  1
  Cu  Cu102  1  0.82697374  0.18022454  0.25256755  1
  Cu  Cu103  1  0.17702180  0.16264503  0.25221717  1
  Cu  Cu104  1  0.00060793  -0.01532429  -0.00047587  1
  Cu  Cu105  1  0.83126446  0.82906005  0.74820063  1
  Cu  Cu106  1  0.33244729  0.34912799  0.50605485  1
  Cu  Cu107  1  0.00696377  0.66105572  0.50637769  1
  Cu  Cu108  1  0.17360573  0.16270597  0.74911767  1
  Cu  Cu109  1  -0.00313952  0.33517122  0.51289626  1
  Cu  Cu110  1  0.66365556  0.34275822  0.50626917  1
  Cu  Cu111  1  0.33333553  0.66841689  0.50206639  1
  Cu  Cu112  1  -0.00213117  0.66279814  -0.00930953  1
  Cu  Cu113  1  0.65856333  0.66597310  -0.00009757  1
  Cu  Cu114  1  0.33803746  0.33570975  -0.00798538  1
  Se  Se115  1  0.07530112  0.07060909  0.06232968  1
  Se  Se116  1  0.06582440  0.07703105  0.55780129  1
  Se  Se117  1  0.08831249  0.42891647  0.04420022  1
  Se  Se118  1  0.08913628  0.41948621  0.55531105  1
  Se  Se119  1  0.08361976  0.74329436  0.04691501  1
  Se  Se120  1  0.08782159  0.74896387  0.55670136  1
  Se  Se121  1  0.41753682  0.08276762  0.04676138  1
  Se  Se122  1  0.40900285  0.07651750  0.55915205  1
  Se  Se123  1  0.41851738  0.41912148  0.04880788  1
  Se  Se124  1  0.42086222  0.42648116  0.55819779  1
  Se  Se125  1  0.41517408  0.74386325  0.05408805  1
  Se  Se126  1  0.41730825  0.75219038  0.55489014  1
  Se  Se127  1  0.74627585  0.07410343  0.06374599  1
  Se  Se128  1  0.74008057  0.06949514  0.56094953  1
  Se  Se129  1  0.74295828  0.41980716  0.06061883  1
  Se  Se130  1  0.74875778  0.42368458  0.55854540  1
  Se  Se131  1  0.74900479  0.74837365  0.04783679  1
  Se  Se132  1  0.78025577  0.77449345  0.56217706  1
  Se  Se133  1  0.26293576  0.25727465  0.05996798  1
  Se  Se134  1  0.25503272  0.26394201  0.56441500  1
  Se  Se135  1  0.24774502  0.57890442  0.05095290  1
  Se  Se136  1  0.24979239  0.58718232  0.55757705  1
  Se  Se137  1  0.25150190  0.90921790  0.05245932  1
  Se  Se138  1  0.24859998  0.91337135  0.55234308  1
  Se  Se139  1  0.58691900  0.24939163  0.04668789  1
  Se  Se140  1  0.58193658  0.25883153  0.56284868  1
  Se  Se141  1  0.58298474  0.57992285  0.05804129  1
  Se  Se142  1  0.60412777  0.61521902  0.55071868  1
  Se  Se143  1  0.58148671  0.91301613  0.04981759  1
  Se  Se144  1  0.57648723  0.91088220  0.54931454  1
  Se  Se145  1  0.92486852  0.26763596  0.04442913  1
  Se  Se146  1  0.90988004  0.25896928  0.56878394  1
  Se  Se147  1  0.91854133  0.59390053  0.06062338  1
  Se  Se148  1  0.91849338  0.58118238  0.55710870  1
  Se  Se149  1  0.91127051  0.90718520  0.05182926  1
  Se  Se150  1  0.92455112  0.91846367  0.54580851  1
  Se  Se151  1  0.07553117  0.25594761  0.44881033  1
  Se  Se152  1  0.08771954  0.25340900  0.93633371  1
  Se  Se153  1  0.09284973  0.58075453  0.45152249  1
  Se  Se154  1  0.07929806  0.57938890  0.93731244  1
  Se  Se155  1  0.08069659  0.92532018  0.45501175  1
  Se  Se156  1  0.08794785  0.90511722  0.94841108  1
  Se  Se157  1  0.40853855  0.26382512  0.44508281  1
  Se  Se158  1  0.42349949  0.25065383  0.94422631  1
  Se  Se159  1  0.41499794  0.57895042  0.45333368  1
  Se  Se160  1  0.41834895  0.58320585  0.94538855  1
  Se  Se161  1  0.41902579  0.91339185  0.44630653  1
  Se  Se162  1  0.41651009  0.91004226  0.94461370  1
  Se  Se163  1  0.73722188  0.24994921  0.44895991  1
  Se  Se164  1  0.75362949  0.26818166  0.93751184  1
  Se  Se165  1  0.75660377  0.57135029  0.45370767  1
  Se  Se166  1  0.73970052  0.59014772  0.93570839  1
  Se  Se167  1  0.75137816  0.90429780  0.44566185  1
  Se  Se168  1  0.75235118  0.91091784  0.94914886  1
  Se  Se169  1  0.25881536  0.08335218  0.43930831  1
  Se  Se170  1  0.25641136  0.07554063  0.93742236  1
  Se  Se171  1  0.24427935  0.42547962  0.45125360  1
  Se  Se172  1  0.25019241  0.41968104  0.94564605  1
  Se  Se173  1  0.24789311  0.75376892  0.45037426  1
  Se  Se174  1  0.24723410  0.74620446  0.94435975  1
  Se  Se175  1  0.58987249  0.07168387  0.43871741  1
  Se  Se176  1  0.58932373  0.08209225  0.94567441  1
  Se  Se177  1  0.57707778  0.41880408  0.45020350  1
  Se  Se178  1  0.58200386  0.42468157  0.94289806  1
  Se  Se179  1  0.59186612  0.72748387  0.45667544  1
  Se  Se180  1  0.57686355  0.75188106  0.94689593  1
  Se  Se181  1  0.92242444  0.07189549  0.44137066  1
  Se  Se182  1  0.92433436  0.07118242  0.94180859  1
  Se  Se183  1  0.91595351  0.41571772  0.45428764  1
  Se  Se184  1  0.92576943  0.42598424  0.92784405  1
  Se  Se185  1  0.92386336  0.73651037  0.44531638  1
  Se  Se186  1  0.90694749  0.74345599  0.94121471  1
  Se  Se187  1  0.24673425  0.25202241  0.31169723  1
  Se  Se188  1  0.25371129  0.24879932  0.80202373  1
  Se  Se189  1  0.24712845  0.58996940  0.30342641  1
  Se  Se190  1  0.25502604  0.58546586  0.80475550  1
  Se  Se191  1  0.26196383  0.91655476  0.30337172  1
  Se  Se192  1  0.23586600  0.90213518  0.80289305  1
  Se  Se193  1  0.57964188  0.25339190  0.29447914  1
  Se  Se194  1  0.59337546  0.26585943  0.80338502  1
  Se  Se195  1  0.58119505  0.58293002  0.31163888  1
  Se  Se196  1  0.58265231  0.59271191  0.80319851  1
  Se  Se197  1  0.57789401  0.89709451  0.31209809  1
  Se  Se198  1  0.57779631  0.91209729  0.80725345  1
  Se  Se199  1  0.90915965  0.25904171  0.31242156  1
  Se  Se200  1  0.92264426  0.25605954  0.79895059  1
  Se  Se201  1  0.90511351  0.56498231  0.31195368  1
  Se  Se202  1  0.89116738  0.56964231  0.78734012  1
  Se  Se203  1  0.91634363  0.90361812  0.31044061  1
  Se  Se204  1  0.91166274  0.91008383  0.80844601  1
  Se  Se205  1  0.09697853  0.08868904  0.31682641  1
  Se  Se206  1  0.08877316  0.08741700  0.80900182  1
  Se  Se207  1  0.08293393  0.42625728  0.30888254  1
  Se  Se208  1  0.08605115  0.41999294  0.79855508  1
  Se  Se209  1  0.09235624  0.76091132  0.30904470  1
  Se  Se210  1  0.06514163  0.73038174  0.80426326  1
  Se  Se211  1  0.41965692  0.08247674  0.29769233  1
  Se  Se212  1  0.42981454  0.08774506  0.80705968  1
  Se  Se213  1  0.41664957  0.42469836  0.31484642  1
  Se  Se214  1  0.41691810  0.42074268  0.80359878  1
  Se  Se215  1  0.40722827  0.73254024  0.31224310  1
  Se  Se216  1  0.41538456  0.75246670  0.80354200  1
  Se  Se217  1  0.75396854  0.09185182  0.31033543  1
  Se  Se218  1  0.75766738  0.09719422  0.81065070  1
  Se  Se219  1  0.72362969  0.40129011  0.31116552  1
  Se  Se220  1  0.75092144  0.43039296  0.79149465  1
  Se  Se221  1  0.75131230  0.74404008  0.30989685  1
  Se  Se222  1  0.74348796  0.75177555  0.80300943  1
  Se  Se223  1  0.25882409  0.07688236  0.20236223  1
  Se  Se224  1  0.24635876  0.08223182  0.68632750  1
  Se  Se225  1  0.24305304  0.42470494  0.18761792  1
  Se  Se226  1  0.25945952  0.41573631  0.69909159  1
  Se  Se227  1  0.25462467  0.74580604  0.19295987  1
  Se  Se228  1  0.25567038  0.74541409  0.70297035  1
  Se  Se229  1  0.58156485  0.08228274  0.18466663  1
  Se  Se230  1  0.57375410  0.09753191  0.69239651  1
  Se  Se231  1  0.57540920  0.41602111  0.19825206  1
  Se  Se232  1  0.58307286  0.43284400  0.69285668  1
  Se  Se233  1  0.59075588  0.73850266  0.19562583  1
  Se  Se234  1  0.58710097  0.74541250  0.69324416  1
  Se  Se235  1  0.91247277  0.09716572  0.19736749  1
  Se  Se236  1  0.90008828  0.08583259  0.68781949  1
  Se  Se237  1  0.90352095  0.43197385  0.19087670  1
  Se  Se238  1  0.94563146  0.39108073  0.68931301  1
  Se  Se239  1  0.91387352  0.75084109  0.19151077  1
  Se  Se240  1  0.92019784  0.74919164  0.69721210  1
  Se  Se241  1  0.09659099  0.23990219  0.18948979  1
  Se  Se242  1  0.08663554  0.24682006  0.70059970  1
  Se  Se243  1  0.08342833  0.58417797  0.19067952  1
  Se  Se244  1  0.08657218  0.58254152  0.69499136  1
  Se  Se245  1  0.08926314  0.90656807  0.18959252  1
  Se  Se246  1  0.08697366  0.90220520  0.69040508  1
  Se  Se247  1  0.42404621  0.24745757  0.18109700  1
  Se  Se248  1  0.42220793  0.24792862  0.70525431  1
  Se  Se249  1  0.41465611  0.58245088  0.19729637  1
  Se  Se250  1  0.41451572  0.59089513  0.69677262  1
  Se  Se251  1  0.41523650  0.91906272  0.19475507  1
  Se  Se252  1  0.42135932  0.90966977  0.68825554  1
  Se  Se253  1  0.74620240  0.26071205  0.19671501  1
  Se  Se254  1  0.74162081  0.25804874  0.70113783  1
  Se  Se255  1  0.75810602  0.58017580  0.20603185  1
  Se  Se256  1  0.76481705  0.57061780  0.69485750  1
  Se  Se257  1  0.75583875  0.90911529  0.19135884  1
  Se  Se258  1  0.74370455  0.90393811  0.69020531  1
