# generated using pymatgen
data_In86Cu29Se144
_symmetry_space_group_name_H-M   'P 1'
_cell_length_a   17.54289665
_cell_length_b   17.54080740
_cell_length_c   23.39527021
_cell_angle_alpha   89.98973733
_cell_angle_beta   90.01986658
_cell_angle_gamma   90.03091427
_symmetry_Int_Tables_number   1
_chemical_formula_structural   In86Cu29Se144
_chemical_formula_sum   'In86 Cu29 Se144'
_cell_volume   7199.11074086
_cell_formula_units_Z   1
loop_
 _symmetry_equiv_pos_site_id
 _symmetry_equiv_pos_as_xyz
  1  'x, y, z'
loop_
 _atom_site_type_symbol
 _atom_site_label
 _atom_site_symmetry_multiplicity
 _atom_site_fract_x
 _atom_site_fract_y
 _atom_site_fract_z
 _atom_site_occupancy
  In  In0  1  -0.01681996  0.16575507  0.12299777  1
  In  In1  1  0.00151539  0.16463740  0.61911665  1
  In  In2  1  0.00032462  0.50927053  0.11677597  1
  In  In3  1  0.00036564  0.50037570  0.63358686  1
  In  In4  1  0.00815123  0.83745993  0.11936724  1
  In  In5  1  -0.01956168  0.84605030  0.62951139  1
  In  In6  1  0.34314013  0.17983345  0.12789595  1
  In  In7  1  0.33612260  0.16247583  0.63076585  1
  In  In8  1  0.34381771  0.49594832  0.12382837  1
  In  In9  1  0.34856134  0.48732410  0.63182644  1
  In  In10  1  0.32994190  0.82614219  0.11815935  1
  In  In11  1  0.35057213  0.83276966  0.64600176  1
  In  In12  1  0.67774430  0.15028473  0.11902885  1
  In  In13  1  0.67187610  0.16628473  0.63394141  1
  In  In14  1  0.66734359  0.50326243  0.10690635  1
  In  In15  1  0.65477556  0.50886395  0.62975948  1
  In  In16  1  0.66195265  0.83986215  0.10235703  1
  In  In17  1  0.67392673  0.82363382  0.63913898  1
  In  In18  1  0.16877262  0.01569654  0.37655224  1
  In  In19  1  0.15917618  -0.01219150  0.87253746  1
  In  In20  1  0.16664150  0.31669039  0.38012542  1
  In  In21  1  0.16859345  0.32852131  0.85620591  1
  In  In22  1  0.17856254  0.65559538  0.37807343  1
  In  In23  1  0.17967885  0.68130593  0.86579012  1
  In  In24  1  0.50880565  -0.00498795  0.38113257  1
  In  In25  1  0.49891125  -0.01371170  0.86220700  1
  In  In26  1  0.49284820  0.34328822  0.38987764  1
  In  In27  1  0.50682126  0.33930868  0.86592310  1
  In  In28  1  0.48620167  0.67575280  0.37773219  1
  In  In29  1  0.49516085  0.67314410  0.86945935  1
  In  In30  1  0.84102853  -0.00844759  0.38806856  1
  In  In31  1  0.81812215  0.01308895  0.88423117  1
  In  In32  1  0.82442588  0.32449404  0.37905862  1
  In  In33  1  0.83015844  0.33114918  0.86570372  1
  In  In34  1  0.84008356  0.66976769  0.38332897  1
  In  In35  1  0.82886857  0.66634400  0.87208934  1
  In  In36  1  0.01180275  0.15379998  0.39325001  1
  In  In37  1  -0.01802510  0.15975644  0.85861014  1
  In  In38  1  0.00003699  0.50610058  0.37810341  1
  In  In39  1  -0.01409451  0.49094917  0.86524898  1
  In  In40  1  -0.02039664  0.83473737  0.37832020  1
  In  In41  1  0.00797497  0.82737811  0.87862413  1
  In  In42  1  0.32290770  0.17587074  0.38610621  1
  In  In43  1  0.33076490  0.17283967  0.85762244  1
  In  In44  1  0.34491939  0.50694327  0.37274861  1
  In  In45  1  0.34489670  0.50959970  0.86788606  1
  In  In46  1  0.34562222  0.81675542  0.37275185  1
  In  In47  1  0.33886203  0.83176887  0.87153034  1
  In  In48  1  0.67240016  0.15783944  0.39559078  1
  In  In49  1  0.68251710  0.17026671  0.85534727  1
  In  In50  1  0.66909681  0.48357867  0.38170339  1
  In  In51  1  0.66057141  0.50176682  0.87410894  1
  In  In52  1  0.66290423  0.84358023  0.37777408  1
  In  In53  1  0.66529344  0.83401281  0.86597489  1
  In  In54  1  0.16513708  -0.01805934  0.12462319  1
  In  In55  1  0.16716659  0.03378802  0.63066973  1
  In  In56  1  0.17613902  0.34555899  0.12271956  1
  In  In57  1  0.18165743  0.30194377  0.65074257  1
  In  In58  1  0.16925930  0.68058678  0.12006683  1
  In  In59  1  0.17285164  0.66119305  0.63677947  1
  In  In60  1  0.50801856  -0.00831807  0.11735333  1
  In  In61  1  0.49216375  0.00557867  0.64087753  1
  In  In62  1  0.48994706  0.33284643  0.12284159  1
  In  In63  1  0.50190453  0.33323063  0.62815723  1
  In  In64  1  0.49920637  0.66697040  0.11559283  1
  In  In65  1  0.51838640  0.65681407  0.64329195  1
  In  In66  1  0.83367053  0.00965602  0.11173669  1
  In  In67  1  0.83379055  -0.01046945  0.62034298  1
  In  In68  1  0.82520782  0.32509718  0.10995575  1
  In  In69  1  0.84622853  0.31465673  0.64930743  1
  In  In70  1  0.83352432  0.66779287  0.10789730  1
  In  In71  1  0.81780105  0.68424111  0.63762961  1
  In  In72  1  0.82881186  0.49286008  0.50572153  1
  In  In73  1  0.01145049  0.67599626  0.23938804  1
  In  In74  1  0.16473860  0.49080615  0.50040584  1
  In  In75  1  0.00573402  0.33314816  0.25702847  1
  In  In76  1  0.50499622  0.83269680  0.50407763  1
  In  In77  1  0.16284514  0.50446769  -0.00620196  1
  In  In78  1  0.00292730  0.00054026  0.74661934  1
  In  In79  1  0.51163230  0.16182865  -0.00653050  1
  In  In80  1  0.16486343  0.84753282  0.51036116  1
  In  In81  1  0.65794079  0.66941018  0.24639246  1
  In  In82  1  0.32841718  0.00239200  0.24845049  1
  In  In83  1  0.16158622  0.16212596  -0.01291395  1
  In  In84  1  0.65846869  0.32930760  0.25359359  1
  In  In85  1  0.66206160  -0.00252521  0.24867448  1
  Cu  Cu86  1  0.49907476  0.50396864  0.25059194  1
  Cu  Cu87  1  -0.01412532  0.33000326  -0.01154627  1
  Cu  Cu88  1  0.83802137  0.83482546  0.75792244  1
  Cu  Cu89  1  0.33693117  0.32733093  0.51232093  1
  Cu  Cu90  1  0.66512885  0.33164136  0.51457204  1
  Cu  Cu91  1  0.16219816  0.16701303  0.25527553  1
  Cu  Cu92  1  -0.00395958  -0.00493405  -0.00609271  1
  Cu  Cu93  1  0.19020409  0.49775135  0.24944095  1
  Cu  Cu94  1  -0.00562204  0.66055564  -0.00816563  1
  Cu  Cu95  1  0.49477492  0.17221636  0.25744467  1
  Cu  Cu96  1  0.49409038  0.49822895  0.75384149  1
  Cu  Cu97  1  0.16060462  0.50471701  0.75154983  1
  Cu  Cu98  1  0.66686015  0.33189095  -0.01259352  1
  Cu  Cu99  1  -0.01070980  0.67950691  0.51296103  1
  Cu  Cu100  1  0.83668727  0.15448712  0.24951276  1
  Cu  Cu101  1  0.66228867  0.00156928  0.51063456  1
  Cu  Cu102  1  0.16999293  0.83456465  0.75126959  1
  Cu  Cu103  1  0.84196546  0.50185204  0.23863530  1
  Cu  Cu104  1  0.82160248  0.50695917  0.75208793  1
  Cu  Cu105  1  0.50245017  0.16709843  0.74681011  1
  Cu  Cu106  1  0.33162054  0.00418464  0.51036988  1
  Cu  Cu107  1  0.33829951  0.67175910  -0.00939170  1
  Cu  Cu108  1  0.82973468  0.84165256  0.25077826  1
  Cu  Cu109  1  0.33850022  -0.00955688  -0.00487553  1
  Cu  Cu110  1  0.00048493  0.32861997  0.51372086  1
  Cu  Cu111  1  0.16296744  0.83560284  0.24935254  1
  Cu  Cu112  1  0.34084330  0.66263223  0.50683990  1
  Cu  Cu113  1  0.33555786  0.33910624  -0.00709573  1
  Cu  Cu114  1  0.66301948  0.66781241  -0.01210026  1
  Se  Se115  1  0.07769832  0.07658839  0.05728002  1
  Se  Se116  1  0.07409240  0.07151986  0.55210876  1
  Se  Se117  1  0.07292400  0.40483923  0.04981272  1
  Se  Se118  1  0.08489867  0.40652195  0.57090289  1
  Se  Se119  1  0.07724267  0.74367898  0.04847636  1
  Se  Se120  1  0.08154836  0.74885130  0.56951558  1
  Se  Se121  1  0.40897136  0.08065937  0.05600429  1
  Se  Se122  1  0.42254677  0.08203225  0.56118815  1
  Se  Se123  1  0.42040690  0.41787914  0.04827277  1
  Se  Se124  1  0.42402120  0.41711194  0.55362185  1
  Se  Se125  1  0.41997269  0.75526274  0.04768706  1
  Se  Se126  1  0.41603336  0.74566486  0.56703386  1
  Se  Se127  1  0.74817620  0.08179240  0.03965520  1
  Se  Se128  1  0.74970151  0.08397466  0.56063938  1
  Se  Se129  1  0.75133500  0.41601596  0.04328063  1
  Se  Se130  1  0.74781931  0.40891828  0.57512581  1
  Se  Se131  1  0.74801279  0.74996556  0.04265995  1
  Se  Se132  1  0.74463710  0.75324047  0.55783810  1
  Se  Se133  1  0.25430761  0.25387775  0.05049291  1
  Se  Se134  1  0.24919280  0.24518127  0.56173632  1
  Se  Se135  1  0.25802239  0.59012552  0.05358862  1
  Se  Se136  1  0.25557899  0.58091687  0.56100032  1
  Se  Se137  1  0.24964471  0.91433777  0.05012864  1
  Se  Se138  1  0.26304140  0.92078048  0.57523610  1
  Se  Se139  1  0.59463298  0.25620442  0.05957097  1
  Se  Se140  1  0.58204759  0.24253402  0.56309447  1
  Se  Se141  1  0.57962102  0.58561199  0.04423021  1
  Se  Se142  1  0.58678577  0.59862465  0.55760146  1
  Se  Se143  1  0.59452361  0.94012933  0.03911533  1
  Se  Se144  1  0.58626104  0.92015495  0.57146026  1
  Se  Se145  1  0.91118775  0.24168617  0.04468984  1
  Se  Se146  1  0.90624816  0.25111365  0.55997135  1
  Se  Se147  1  0.91211723  0.57453282  0.04375715  1
  Se  Se148  1  0.91317004  0.58853022  0.56617849  1
  Se  Se149  1  0.91656162  0.91339749  0.05282195  1
  Se  Se150  1  0.92476281  0.92378346  0.54748056  1
  Se  Se151  1  0.08716439  0.24893982  0.45779889  1
  Se  Se152  1  0.07368886  0.25625092  0.93000018  1
  Se  Se153  1  0.07277321  0.59823397  0.45235887  1
  Se  Se154  1  0.07835681  0.59007567  0.92805311  1
  Se  Se155  1  0.07838189  0.92150341  0.43771944  1
  Se  Se156  1  0.08738600  0.91203802  0.95035766  1
  Se  Se157  1  0.41871755  0.24581358  0.45334277  1
  Se  Se158  1  0.41308307  0.25075550  0.93680341  1
  Se  Se159  1  0.42165060  0.58224995  0.44946233  1
  Se  Se160  1  0.42152259  0.58341191  0.94387112  1
  Se  Se161  1  0.40405243  0.92024458  0.44612598  1
  Se  Se162  1  0.42436116  0.91241414  0.94134193  1
  Se  Se163  1  0.75011259  0.25369403  0.45759928  1
  Se  Se164  1  0.74970916  0.24640697  0.93704679  1
  Se  Se165  1  0.74346969  0.58726426  0.44418103  1
  Se  Se166  1  0.74943663  0.58048225  0.94229906  1
  Se  Se167  1  0.74256670  0.91877350  0.45130300  1
  Se  Se168  1  0.75968353  0.89998308  0.93679307  1
  Se  Se169  1  0.24733493  0.08495781  0.45458190  1
  Se  Se170  1  0.26230970  0.07559067  0.93461001  1
  Se  Se171  1  0.26202760  0.40550496  0.44267667  1
  Se  Se172  1  0.24949535  0.41189419  0.93324530  1
  Se  Se173  1  0.25566560  0.74719069  0.45093267  1
  Se  Se174  1  0.24989549  0.75648871  0.94490094  1
  Se  Se175  1  0.57526809  0.08022989  0.45621976  1
  Se  Se176  1  0.58957419  0.08121998  0.92182078  1
  Se  Se177  1  0.58596421  0.41738491  0.45763412  1
  Se  Se178  1  0.57689777  0.41680186  0.94425497  1
  Se  Se179  1  0.59306117  0.74122015  0.44187263  1
  Se  Se180  1  0.58047318  0.75418117  0.93795963  1
  Se  Se181  1  0.88996078  0.10887230  0.44291680  1
  Se  Se182  1  0.92067369  0.08760513  0.94389891  1
  Se  Se183  1  0.92820654  0.40634644  0.44432207  1
  Se  Se184  1  0.90465889  0.41856827  0.93987881  1
  Se  Se185  1  0.90706450  0.75831320  0.45645882  1
  Se  Se186  1  0.91313011  0.74972667  0.94176045  1
  Se  Se187  1  0.25100306  0.24882128  0.30445027  1
  Se  Se188  1  0.25030011  0.25045268  0.78565519  1
  Se  Se189  1  0.26356968  0.59039152  0.30203782  1
  Se  Se190  1  0.25092312  0.58371918  0.80190453  1
  Se  Se191  1  0.24523640  0.90994693  0.31434399  1
  Se  Se192  1  0.25205804  0.91841807  0.80470636  1
  Se  Se193  1  0.57987619  0.23999957  0.32234098  1
  Se  Se194  1  0.58607592  0.25352309  0.79790142  1
  Se  Se195  1  0.58279729  0.57447524  0.31454126  1
  Se  Se196  1  0.57952586  0.58448940  0.80381298  1
  Se  Se197  1  0.56650426  0.90269289  0.30238551  1
  Se  Se198  1  0.57100541  0.89595661  0.79027326  1
  Se  Se199  1  0.91125535  0.24034330  0.31045105  1
  Se  Se200  1  0.92107212  0.26029303  0.79390535  1
  Se  Se201  1  0.91633283  0.58539032  0.30129430  1
  Se  Se202  1  0.91335448  0.58738244  0.80072544  1
  Se  Se203  1  0.91315778  0.92318637  0.30473662  1
  Se  Se204  1  0.91769276  0.91795931  0.81535833  1
  Se  Se205  1  0.07648828  0.08573953  0.30675507  1
  Se  Se206  1  0.09642861  0.09218167  0.80439357  1
  Se  Se207  1  0.10088816  0.42897304  0.31261594  1
  Se  Se208  1  0.07746799  0.41556544  0.79838175  1
  Se  Se209  1  0.09020661  0.75513077  0.31762604  1
  Se  Se210  1  0.08135956  0.75162026  0.80016332  1
  Se  Se211  1  0.41850378  0.08557757  0.31598721  1
  Se  Se212  1  0.42032529  0.08362223  0.80107025  1
  Se  Se213  1  0.42318767  0.41497433  0.30706118  1
  Se  Se214  1  0.40836711  0.40954832  0.80067833  1
  Se  Se215  1  0.42141329  0.74687770  0.29548191  1
  Se  Se216  1  0.39627011  0.73384658  0.80067916  1
  Se  Se217  1  0.74921104  0.08501390  0.31180863  1
  Se  Se218  1  0.75966243  0.07403621  0.79473234  1
  Se  Se219  1  0.76256401  0.42301087  0.30242324  1
  Se  Se220  1  0.74127400  0.41825230  0.80335694  1
  Se  Se221  1  0.75487237  0.75492354  0.30934577  1
  Se  Se222  1  0.74770146  0.74595705  0.79939052  1
  Se  Se223  1  0.23984427  0.09320146  0.18564363  1
  Se  Se224  1  0.26737316  0.07162604  0.70348484  1
  Se  Se225  1  0.26604911  0.40963904  0.19534475  1
  Se  Se226  1  0.24310076  0.42322982  0.69376600  1
  Se  Se227  1  0.24812322  0.75393666  0.19568174  1
  Se  Se228  1  0.25516406  0.74743772  0.70250802  1
  Se  Se229  1  0.57130697  0.09481413  0.19145717  1
  Se  Se230  1  0.59122225  0.07945844  0.70300072  1
  Se  Se231  1  0.58209205  0.42698995  0.18794253  1
  Se  Se232  1  0.58027057  0.41916755  0.69865141  1
  Se  Se233  1  0.58134512  0.76386372  0.18186082  1
  Se  Se234  1  0.56923585  0.76846774  0.70622261  1
  Se  Se235  1  0.91595997  0.07268581  0.19301605  1
  Se  Se236  1  0.90812722  0.08604783  0.68956270  1
  Se  Se237  1  0.91861125  0.41427137  0.18414297  1
  Se  Se238  1  0.91183786  0.42581986  0.70307957  1
  Se  Se239  1  0.90500099  0.75721601  0.18764079  1
  Se  Se240  1  0.91945380  0.75193849  0.70199868  1
  Se  Se241  1  0.08916920  0.24687281  0.18600911  1
  Se  Se242  1  0.06070701  0.25064851  0.69850660  1
  Se  Se243  1  0.10195375  0.57186155  0.18884516  1
  Se  Se244  1  0.07594396  0.59064417  0.70187459  1
  Se  Se245  1  0.07661033  0.91739692  0.19931420  1
  Se  Se246  1  0.09673875  0.91375631  0.68528188  1
  Se  Se247  1  0.41784425  0.25895408  0.20302735  1
  Se  Se248  1  0.41657851  0.25273506  0.69709684  1
  Se  Se249  1  0.42224201  0.58578463  0.19014644  1
  Se  Se250  1  0.41279898  0.58482008  0.70008718  1
  Se  Se251  1  0.41879349  0.91436232  0.18794766  1
  Se  Se252  1  0.43102026  0.91378222  0.71624877  1
  Se  Se253  1  0.75531968  0.24108323  0.19320108  1
  Se  Se254  1  0.73366902  0.26086166  0.70681300  1
  Se  Se255  1  0.75415032  0.58136522  0.18497862  1
  Se  Se256  1  0.73800017  0.59125621  0.69995168  1
  Se  Se257  1  0.75021775  0.91209726  0.18380584  1
  Se  Se258  1  0.75798018  0.91693263  0.69933410  1
