# generated using pymatgen
data_In86Cu29Se144
_symmetry_space_group_name_H-M   'P 1'
_cell_length_a   17.58612791
_cell_length_b   17.58581250
_cell_length_c   23.44206498
_cell_angle_alpha   89.99766309
_cell_angle_beta   90.01402844
_cell_angle_gamma   89.98977024
_symmetry_Int_Tables_number   1
_chemical_formula_structural   In86Cu29Se144
_chemical_formula_sum   'In86 Cu29 Se144'
_cell_volume   7249.84148915
_cell_formula_units_Z   1
loop_
 _symmetry_equiv_pos_site_id
 _symmetry_equiv_pos_as_xyz
  1  'x, y, z'
loop_
 _atom_site_type_symbol
 _atom_site_label
 _atom_site_symmetry_multiplicity
 _atom_site_fract_x
 _atom_site_fract_y
 _atom_site_fract_z
 _atom_site_occupancy
  In  In0  1  0.00413520  0.16507116  0.11368286  1
  In  In1  1  -0.00538512  0.16977790  0.63408950  1
  In  In2  1  0.04279931  0.50496134  0.11753705  1
  In  In3  1  -0.01281575  0.50544552  0.64299669  1
  In  In4  1  -0.00746779  0.82548607  0.11740627  1
  In  In5  1  -0.01150703  0.84434537  0.63792995  1
  In  In6  1  0.33773140  0.16574359  0.12451116  1
  In  In7  1  0.31880402  0.16883593  0.62365752  1
  In  In8  1  0.33442471  0.49967652  0.12735013  1
  In  In9  1  0.34823164  0.51169450  0.61957836  1
  In  In10  1  0.34611024  0.82365382  0.12838851  1
  In  In11  1  0.34074366  0.82458675  0.63485826  1
  In  In12  1  0.65123923  0.16871547  0.12500426  1
  In  In13  1  0.67881070  0.16012137  0.62730981  1
  In  In14  1  0.65818919  0.50271076  0.12236858  1
  In  In15  1  0.65631527  0.51296505  0.63861729  1
  In  In16  1  0.67222931  0.83831300  0.12125401  1
  In  In17  1  0.65675539  0.82557632  0.61980667  1
  In  In18  1  0.16902771  -0.00642871  0.37310148  1
  In  In19  1  0.17791018  0.00459092  0.86569447  1
  In  In20  1  0.17130532  0.33355433  0.36749065  1
  In  In21  1  0.15618699  0.33942053  0.89099651  1
  In  In22  1  0.17164998  0.66779484  0.36312365  1
  In  In23  1  0.15830511  0.66290215  0.86549793  1
  In  In24  1  0.49139656  -0.01412836  0.36654873  1
  In  In25  1  0.49168414  0.00883147  0.88155891  1
  In  In26  1  0.49207589  0.34437166  0.38219917  1
  In  In27  1  0.50233131  0.33371356  0.87912042  1
  In  In28  1  0.49480518  0.66734376  0.37943418  1
  In  In29  1  0.49951886  0.66669668  0.87887077  1
  In  In30  1  0.82786036  0.00596193  0.38678450  1
  In  In31  1  0.83052576  -0.01749808  0.87488555  1
  In  In32  1  0.82337111  0.32797613  0.38117678  1
  In  In33  1  0.84161021  0.35024072  0.85296251  1
  In  In34  1  0.84462135  0.66919071  0.37802191  1
  In  In35  1  0.84253164  0.67101863  0.86489833  1
  In  In36  1  -0.00659621  0.15933637  0.38129026  1
  In  In37  1  0.01441700  0.17490407  0.87063661  1
  In  In38  1  0.00041711  0.50555159  0.37053768  1
  In  In39  1  0.00583495  0.50626383  0.86830686  1
  In  In40  1  0.00202335  0.82965234  0.38304931  1
  In  In41  1  -0.00640362  0.82177012  0.86391137  1
  In  In42  1  0.33809128  0.16888514  0.36500403  1
  In  In43  1  0.33476050  0.16343816  0.88155339  1
  In  In44  1  0.34128686  0.50909789  0.36236324  1
  In  In45  1  0.32411526  0.50793369  0.88331530  1
  In  In46  1  0.33731401  0.83464873  0.36869573  1
  In  In47  1  0.33807143  0.84382627  0.86770941  1
  In  In48  1  0.68054091  0.16593239  0.37922713  1
  In  In49  1  0.65151721  0.17300520  0.87782387  1
  In  In50  1  0.65706569  0.48832450  0.37707484  1
  In  In51  1  0.66197270  0.49287607  0.86752327  1
  In  In52  1  0.65565101  0.83731404  0.38012408  1
  In  In53  1  0.67342602  0.82378996  0.88105351  1
  In  In54  1  0.17232296  0.01287626  0.12111211  1
  In  In55  1  0.16627349  -0.00331954  0.63951036  1
  In  In56  1  0.18712853  0.35233770  0.10070797  1
  In  In57  1  0.15704583  0.32903829  0.62784322  1
  In  In58  1  0.18657699  0.65239648  0.13943040  1
  In  In59  1  0.16285533  0.68057876  0.64654924  1
  In  In60  1  0.50061400  -0.00088150  0.12612225  1
  In  In61  1  0.50573898  -0.01484032  0.62536363  1
  In  In62  1  0.49621721  0.32691067  0.11946189  1
  In  In63  1  0.49232124  0.35479951  0.62290634  1
  In  In64  1  0.48437938  0.65343259  0.11285849  1
  In  In65  1  0.49949406  0.67085598  0.62828842  1
  In  In66  1  0.83997360  -0.01465262  0.12316879  1
  In  In67  1  0.84736651  0.00425523  0.61289240  1
  In  In68  1  0.83447685  0.32998051  0.12406085  1
  In  In69  1  0.83804333  0.32915774  0.63749219  1
  In  In70  1  0.83759827  0.67650289  0.12263125  1
  In  In71  1  0.82050137  0.67251416  0.63392256  1
  In  In72  1  0.66820720  -0.00431144  0.74934486  1
  In  In73  1  0.82685968  0.16639328  -0.00623785  1
  In  In74  1  0.83881671  0.50615426  -0.01278659  1
  In  In75  1  0.32847299  0.33485952  0.74664182  1
  In  In76  1  0.50311304  0.16386243  0.49508180  1
  In  In77  1  0.00649733  0.33850977  0.24356665  1
  In  In78  1  0.17090493  0.50238016  0.49950351  1
  In  In79  1  0.82476843  0.49978183  0.50644039  1
  In  In80  1  0.16464120  0.83934246  0.50183112  1
  In  In81  1  0.16501155  0.83068086  -0.00720038  1
  In  In82  1  0.65824270  0.33058929  0.25266485  1
  In  In83  1  0.65883146  0.66818996  0.25446769  1
  In  In84  1  0.00612271  -0.00301822  0.25071379  1
  In  In85  1  0.16202800  0.16858759  0.50797059  1
  Cu  Cu86  1  0.17477193  0.17297977  0.24282100  1
  Cu  Cu87  1  0.16881906  0.83583186  0.24960682  1
  Cu  Cu88  1  0.33316594  0.66577634  0.00093884  1
  Cu  Cu89  1  0.33993589  0.32924400  0.00084547  1
  Cu  Cu90  1  0.33620758  -0.00150138  0.49702937  1
  Cu  Cu91  1  0.16672517  0.16616689  0.75293127  1
  Cu  Cu92  1  0.00276924  0.66629769  -0.00781533  1
  Cu  Cu93  1  0.83459519  0.15828431  0.25663139  1
  Cu  Cu94  1  0.16907211  0.49857739  0.75633048  1
  Cu  Cu95  1  0.83133379  0.83243861  0.74758964  1
  Cu  Cu96  1  0.50205374  0.83136258  0.24756545  1
  Cu  Cu97  1  0.33784350  0.66881067  0.50279983  1
  Cu  Cu98  1  0.66301143  0.67068046  0.00175974  1
  Cu  Cu99  1  0.50274863  0.83021686  0.75160210  1
  Cu  Cu100  1  0.49447065  0.16919543  0.75771733  1
  Cu  Cu101  1  0.83309907  0.83652563  0.24669131  1
  Cu  Cu102  1  0.49975979  0.16043422  0.24824579  1
  Cu  Cu103  1  0.33586888  -0.00184407  -0.00013309  1
  Cu  Cu104  1  0.66847916  -0.00934710  0.50228342  1
  Cu  Cu105  1  0.66615705  0.33781177  -0.00488166  1
  Cu  Cu106  1  0.66243384  -0.00251663  -0.00038070  1
  Cu  Cu107  1  0.83215241  0.16150124  0.75027514  1
  Cu  Cu108  1  0.66099455  0.66316711  0.50648663  1
  Cu  Cu109  1  0.84099797  0.50527478  0.24762490  1
  Cu  Cu110  1  -0.00142842  -0.00470472  -0.00327366  1
  Cu  Cu111  1  -0.00554194  0.33194325  0.50858421  1
  Cu  Cu112  1  0.49627279  0.50694182  0.75180557  1
  Cu  Cu113  1  -0.00229596  0.67466909  0.50383843  1
  Cu  Cu114  1  0.66438362  0.33063402  0.50431579  1
  Se  Se115  1  0.08361944  0.07809029  0.04729243  1
  Se  Se116  1  0.07798462  0.07534579  0.56667706  1
  Se  Se117  1  0.07286357  0.40443390  0.04356798  1
  Se  Se118  1  0.07245801  0.42088427  0.56160572  1
  Se  Se119  1  0.08611316  0.73755864  0.05801183  1
  Se  Se120  1  0.08098025  0.74793361  0.56475277  1
  Se  Se121  1  0.41935787  0.08130164  0.05517557  1
  Se  Se122  1  0.41186007  0.07919292  0.56062297  1
  Se  Se123  1  0.41700195  0.41789243  0.05541687  1
  Se  Se124  1  0.40932908  0.41981512  0.54810842  1
  Se  Se125  1  0.41824380  0.75404042  0.04744233  1
  Se  Se126  1  0.41857833  0.75419559  0.55660559  1
  Se  Se127  1  0.74476283  0.07759178  0.06108508  1
  Se  Se128  1  0.74857465  0.08004000  0.55172263  1
  Se  Se129  1  0.74857462  0.41565413  0.05527210  1
  Se  Se130  1  0.74064899  0.40981722  0.56881646  1
  Se  Se131  1  0.75185043  0.75080760  0.05276597  1
  Se  Se132  1  0.74897907  0.74615905  0.55469200  1
  Se  Se133  1  0.25492979  0.24105396  0.04978001  1
  Se  Se134  1  0.25585293  0.26931411  0.55388387  1
  Se  Se135  1  0.25049238  0.58275698  0.05529148  1
  Se  Se136  1  0.24734614  0.60106682  0.56372886  1
  Se  Se137  1  0.25515200  0.91544624  0.05862684  1
  Se  Se138  1  0.25816040  0.92361144  0.56313007  1
  Se  Se139  1  0.58592962  0.25199808  0.04910502  1
  Se  Se140  1  0.58410773  0.24986032  0.56505733  1
  Se  Se141  1  0.58197306  0.58024540  0.04886606  1
  Se  Se142  1  0.57810193  0.58089275  0.55955387  1
  Se  Se143  1  0.58077813  0.91508701  0.05520858  1
  Se  Se144  1  0.57776768  0.90948947  0.54852805  1
  Se  Se145  1  0.92031997  0.25850343  0.04995733  1
  Se  Se146  1  0.91302976  0.24879327  0.56135839  1
  Se  Se147  1  0.92568028  0.58596722  0.05751761  1
  Se  Se148  1  0.92049639  0.58900252  0.56133807  1
  Se  Se149  1  0.91528119  0.91030356  0.04682279  1
  Se  Se150  1  0.92044367  0.90562343  0.55282474  1
  Se  Se151  1  0.07627644  0.26172141  0.44209689  1
  Se  Se152  1  0.09066761  0.23572390  0.95194003  1
  Se  Se153  1  0.07730127  0.59642998  0.44243315  1
  Se  Se154  1  0.08765208  0.58156024  0.94235858  1
  Se  Se155  1  0.07303932  0.93503303  0.44667976  1
  Se  Se156  1  0.07650681  0.91925455  0.93176196  1
  Se  Se157  1  0.40388571  0.25269350  0.44530796  1
  Se  Se158  1  0.42213004  0.24682372  0.94615989  1
  Se  Se159  1  0.41104260  0.58122798  0.44538928  1
  Se  Se160  1  0.41853992  0.58147374  0.94875777  1
  Se  Se161  1  0.41547677  0.91202365  0.44424222  1
  Se  Se162  1  0.41700621  0.91372855  0.94619389  1
  Se  Se163  1  0.75150113  0.24728738  0.45562048  1
  Se  Se164  1  0.74941729  0.26563629  0.93221493  1
  Se  Se165  1  0.73947422  0.58857458  0.43956989  1
  Se  Se166  1  0.74106133  0.59443172  0.93554578  1
  Se  Se167  1  0.75098538  0.90801265  0.44714499  1
  Se  Se168  1  0.74894495  0.91371303  0.95056936  1
  Se  Se169  1  0.25404888  0.08195643  0.44214324  1
  Se  Se170  1  0.24862243  0.07756448  0.94646646  1
  Se  Se171  1  0.25600182  0.41631001  0.43582945  1
  Se  Se172  1  0.25355179  0.41548979  0.95174357  1
  Se  Se173  1  0.25314871  0.74568917  0.44189662  1
  Se  Se174  1  0.25697870  0.74216866  0.93465985  1
  Se  Se175  1  0.58968070  0.06911130  0.43752078  1
  Se  Se176  1  0.58163417  0.08578565  0.94959887  1
  Se  Se177  1  0.58106519  0.41546932  0.45386968  1
  Se  Se178  1  0.58182624  0.42366894  0.94551195  1
  Se  Se179  1  0.58140934  0.74596632  0.44751480  1
  Se  Se180  1  0.57905192  0.75397951  0.94854467  1
  Se  Se181  1  0.91269632  0.08825425  0.45302958  1
  Se  Se182  1  0.91903122  0.07676819  0.93587781  1
  Se  Se183  1  0.92117464  0.41453982  0.44289221  1
  Se  Se184  1  0.92556538  0.40728006  0.93607069  1
  Se  Se185  1  0.91197851  0.75560194  0.45213875  1
  Se  Se186  1  0.91616414  0.74910090  0.94223683  1
  Se  Se187  1  0.25535345  0.25480391  0.29897761  1
  Se  Se188  1  0.24442601  0.24974107  0.81350877  1
  Se  Se189  1  0.25048067  0.58463050  0.29685750  1
  Se  Se190  1  0.25528154  0.58358968  0.80388648  1
  Se  Se191  1  0.25205284  0.91978758  0.30214534  1
  Se  Se192  1  0.24677865  0.91208025  0.79795803  1
  Se  Se193  1  0.57459036  0.23843146  0.31611969  1
  Se  Se194  1  0.58029110  0.25561753  0.80322297  1
  Se  Se195  1  0.57249928  0.57053420  0.30824436  1
  Se  Se196  1  0.58177020  0.58759580  0.80614267  1
  Se  Se197  1  0.58716152  0.91391485  0.30030281  1
  Se  Se198  1  0.57887915  0.91326204  0.81431486  1
  Se  Se199  1  0.91341598  0.24893705  0.30827030  1
  Se  Se200  1  0.91800254  0.24297068  0.80268398  1
  Se  Se201  1  0.91881319  0.58948373  0.30314546  1
  Se  Se202  1  0.90583105  0.56856804  0.80305565  1
  Se  Se203  1  0.91212409  0.91397790  0.31151007  1
  Se  Se204  1  0.91462454  0.91661095  0.79959473  1
  Se  Se205  1  0.09282303  0.09765007  0.30709753  1
  Se  Se206  1  0.08116612  0.07982596  0.80171521  1
  Se  Se207  1  0.09445734  0.43181153  0.30265437  1
  Se  Se208  1  0.08936584  0.41111053  0.80788673  1
  Se  Se209  1  0.08311322  0.76042529  0.30709721  1
  Se  Se210  1  0.08411183  0.74984845  0.79710601  1
  Se  Se211  1  0.41435007  0.07723460  0.30065738  1
  Se  Se212  1  0.41142107  0.08323848  0.80627211  1
  Se  Se213  1  0.41641384  0.40846802  0.30325610  1
  Se  Se214  1  0.41547762  0.42285731  0.81025589  1
  Se  Se215  1  0.42095721  0.74791010  0.30386229  1
  Se  Se216  1  0.41957287  0.74931634  0.80713035  1
  Se  Se217  1  0.74987444  0.07691110  0.30740314  1
  Se  Se218  1  0.75060981  0.08785498  0.81443565  1
  Se  Se219  1  0.76001700  0.42408705  0.30594068  1
  Se  Se220  1  0.74094122  0.41749361  0.79328363  1
  Se  Se221  1  0.75598951  0.75610283  0.31023834  1
  Se  Se222  1  0.74743383  0.75127147  0.80235169  1
  Se  Se223  1  0.25547597  0.08163786  0.19571017  1
  Se  Se224  1  0.25351027  0.08657576  0.69994742  1
  Se  Se225  1  0.24076380  0.41702479  0.18827030  1
  Se  Se226  1  0.24384611  0.42914780  0.68495726  1
  Se  Se227  1  0.25663076  0.75359149  0.19976881  1
  Se  Se228  1  0.25803819  0.75323938  0.70812387  1
  Se  Se229  1  0.58682115  0.07941272  0.19742286  1
  Se  Se230  1  0.57388650  0.08940252  0.69380530  1
  Se  Se231  1  0.57329674  0.42208947  0.19231815  1
  Se  Se232  1  0.57531924  0.41794639  0.69987503  1
  Se  Se233  1  0.57745029  0.75041927  0.18417397  1
  Se  Se234  1  0.58783147  0.74816620  0.69862711  1
  Se  Se235  1  0.91586486  0.08904337  0.19020779  1
  Se  Se236  1  0.91282927  0.07646660  0.69641926  1
  Se  Se237  1  0.91595336  0.42831821  0.18282509  1
  Se  Se238  1  0.93115922  0.39942104  0.70397472  1
  Se  Se239  1  0.91820104  0.75251794  0.19673440  1
  Se  Se240  1  0.91652410  0.74415024  0.69946688  1
  Se  Se241  1  0.09060167  0.24616696  0.18232622  1
  Se  Se242  1  0.08227898  0.25068085  0.70132718  1
  Se  Se243  1  0.06993852  0.60170149  0.19500313  1
  Se  Se244  1  0.08304521  0.58260817  0.70419551  1
  Se  Se245  1  0.08994362  0.90973577  0.18365450  1
  Se  Se246  1  0.09171388  0.90399177  0.70228493  1
  Se  Se247  1  0.42102129  0.24778406  0.19458059  1
  Se  Se248  1  0.42176795  0.24496429  0.68770562  1
  Se  Se249  1  0.41424305  0.58871224  0.19415325  1
  Se  Se250  1  0.41361861  0.59039145  0.69848678  1
  Se  Se251  1  0.41750763  0.91705579  0.19619986  1
  Se  Se252  1  0.42138871  0.91774910  0.69951971  1
  Se  Se253  1  0.75628917  0.24097212  0.19515699  1
  Se  Se254  1  0.74632257  0.24590903  0.70077708  1
  Se  Se255  1  0.75372416  0.58117261  0.19020390  1
  Se  Se256  1  0.76640723  0.56659024  0.69842224  1
  Se  Se257  1  0.74980306  0.92011358  0.19548713  1
  Se  Se258  1  0.75447806  0.91210263  0.68348274  1
