# generated using pymatgen
data_In86Cu29Se144
_symmetry_space_group_name_H-M   'P 1'
_cell_length_a   17.57338059
_cell_length_b   17.57513591
_cell_length_c   23.43334751
_cell_angle_alpha   90.02429433
_cell_angle_beta   90.01948661
_cell_angle_gamma   89.99034640
_symmetry_Int_Tables_number   1
_chemical_formula_structural   In86Cu29Se144
_chemical_formula_sum   'In86 Cu29 Se144'
_cell_volume   7237.49488584
_cell_formula_units_Z   1
loop_
 _symmetry_equiv_pos_site_id
 _symmetry_equiv_pos_as_xyz
  1  'x, y, z'
loop_
 _atom_site_type_symbol
 _atom_site_label
 _atom_site_symmetry_multiplicity
 _atom_site_fract_x
 _atom_site_fract_y
 _atom_site_fract_z
 _atom_site_occupancy
  In  In0  1  0.01777203  0.15010789  0.13807743  1
  In  In1  1  0.01200600  0.15879628  0.62943733  1
  In  In2  1  -0.00223224  0.49250193  0.11703513  1
  In  In3  1  0.01095716  0.49402883  0.63283991  1
  In  In4  1  0.01379226  0.83910106  0.12742213  1
  In  In5  1  0.00077631  0.83563851  0.62965305  1
  In  In6  1  0.32883004  0.17870081  0.13339784  1
  In  In7  1  0.32413918  0.18178150  0.62207479  1
  In  In8  1  0.31539131  0.49985808  0.12065278  1
  In  In9  1  0.32037645  0.50759628  0.62809109  1
  In  In10  1  0.32818653  0.82833081  0.11973398  1
  In  In11  1  0.30390804  0.80400781  0.58755794  1
  In  In12  1  0.65739145  0.16012753  0.13074651  1
  In  In13  1  0.67360237  0.16355879  0.62531543  1
  In  In14  1  0.68345164  0.49768869  0.12438301  1
  In  In15  1  0.66587455  0.50532261  0.63558433  1
  In  In16  1  0.65993360  0.83545293  0.13160717  1
  In  In17  1  0.65838523  0.82535019  0.61489453  1
  In  In18  1  0.15985057  -0.00129756  0.38113118  1
  In  In19  1  0.16043692  0.00649619  0.87955142  1
  In  In20  1  0.16836056  0.33581300  0.37335593  1
  In  In21  1  0.16593130  0.33450926  0.87578241  1
  In  In22  1  0.17054055  0.67109087  0.39112673  1
  In  In23  1  0.16685154  0.66741119  0.87118282  1
  In  In24  1  0.49773556  -0.01201641  0.37924754  1
  In  In25  1  0.48204960  -0.00384110  0.87712617  1
  In  In26  1  0.48336986  0.34175618  0.37546207  1
  In  In27  1  0.49873986  0.33122754  0.86455364  1
  In  In28  1  0.51327372  0.67221582  0.37175953  1
  In  In29  1  0.50570860  0.67284402  0.86887684  1
  In  In30  1  0.82987588  -0.00867951  0.36880260  1
  In  In31  1  0.84584060  -0.01794007  0.86874752  1
  In  In32  1  0.84289354  0.31788974  0.37528867  1
  In  In33  1  0.84861574  0.34746630  0.86761935  1
  In  In34  1  0.83287791  0.68629241  0.37888307  1
  In  In35  1  0.82700548  0.66474378  0.86578492  1
  In  In36  1  0.02205897  0.17183489  0.35953313  1
  In  In37  1  0.00844598  0.17764471  0.86786389  1
  In  In38  1  0.01810090  0.50349442  0.37818188  1
  In  In39  1  0.00240005  0.50005112  0.87585929  1
  In  In40  1  -0.00629911  0.83738913  0.38197019  1
  In  In41  1  0.00821583  0.84607485  0.85719569  1
  In  In42  1  0.29831578  0.17268188  0.38761898  1
  In  In43  1  0.31558760  0.16337976  0.87390795  1
  In  In44  1  0.32519866  0.49070321  0.37654475  1
  In  In45  1  0.32001615  0.48923124  0.86589007  1
  In  In46  1  0.32741908  0.84822559  0.40351622  1
  In  In47  1  0.33741512  0.82641823  0.87786740  1
  In  In48  1  0.67881619  0.16262918  0.37205303  1
  In  In49  1  0.65392912  0.16686541  0.87081695  1
  In  In50  1  0.65172140  0.50265767  0.37409320  1
  In  In51  1  0.67924762  0.51083914  0.86788570  1
  In  In52  1  0.67076866  0.83947389  0.37657264  1
  In  In53  1  0.66715593  0.81802529  0.87307646  1
  In  In54  1  0.16129412  -0.00535263  0.12530063  1
  In  In55  1  0.16133468  -0.00892699  0.60978206  1
  In  In56  1  0.16380921  0.32985254  0.12464309  1
  In  In57  1  0.16617211  0.33348606  0.62213663  1
  In  In58  1  0.16805179  0.66810031  0.11621043  1
  In  In59  1  0.16499790  0.66432412  0.62899845  1
  In  In60  1  0.50817848  -0.00451880  0.13166381  1
  In  In61  1  0.49847426  -0.02385436  0.61331841  1
  In  In62  1  0.49756176  0.32087984  0.12778548  1
  In  In63  1  0.48626091  0.34605100  0.63215276  1
  In  In64  1  0.49730335  0.68131066  0.12386945  1
  In  In65  1  0.48886171  0.67674462  0.63323964  1
  In  In66  1  0.83427429  -0.00304181  0.13241745  1
  In  In67  1  0.84158122  -0.00016243  0.62404394  1
  In  In68  1  0.84266854  0.34779425  0.11969212  1
  In  In69  1  0.83566653  0.33196187  0.63364549  1
  In  In70  1  0.83753028  0.65138143  0.12497619  1
  In  In71  1  0.82653128  0.68498237  0.64374090  1
  In  In72  1  0.84311786  0.15806760  0.50094815  1
  In  In73  1  0.83856851  0.17037630  -0.00064443  1
  In  In74  1  0.32969637  0.00207408  0.26550274  1
  In  In75  1  0.49523004  0.16272528  0.49264620  1
  In  In76  1  0.67178877  0.33103266  0.24615179  1
  In  In77  1  0.48523581  0.51111812  0.51018372  1
  In  In78  1  0.33165608  -0.00160510  0.73882383  1
  In  In79  1  0.83649041  0.82484452  -0.00737608  1
  In  In80  1  0.66787915  0.00058422  0.74636794  1
  In  In81  1  0.49265819  0.16331555  0.01022954  1
  In  In82  1  -0.00167820  0.66713935  0.25493669  1
  In  In83  1  0.33445509  0.67139929  0.25068937  1
  In  In84  1  0.83997186  0.50661490  0.50966095  1
  In  In85  1  0.49766506  0.50510757  -0.00510855  1
  Cu  Cu86  1  0.49835889  0.17283715  0.74222589  1
  Cu  Cu87  1  0.50047366  0.83314598  0.25498083  1
  Cu  Cu88  1  0.32794443  0.33019214  -0.00027236  1
  Cu  Cu89  1  0.82810267  0.83269321  0.25210476  1
  Cu  Cu90  1  0.17468185  0.83764212  0.74100064  1
  Cu  Cu91  1  0.50085712  0.50081591  0.75177830  1
  Cu  Cu92  1  0.66047157  -0.00860854  0.00675998  1
  Cu  Cu93  1  0.49677256  0.16414954  0.25396220  1
  Cu  Cu94  1  0.16010431  0.17343095  0.75089251  1
  Cu  Cu95  1  0.67124274  0.67283078  0.50061606  1
  Cu  Cu96  1  0.84229790  0.16180724  0.25080997  1
  Cu  Cu97  1  0.32667086  0.66839177  -0.00443225  1
  Cu  Cu98  1  0.00073175  -0.00118732  0.49796917  1
  Cu  Cu99  1  0.00551536  -0.00065926  -0.00168222  1
  Cu  Cu100  1  0.66831602  0.66528386  -0.00581718  1
  Cu  Cu101  1  0.67686625  0.34038597  -0.00715827  1
  Cu  Cu102  1  0.50048992  0.82763118  0.74838271  1
  Cu  Cu103  1  0.00517212  0.66470044  -0.00489358  1
  Cu  Cu104  1  0.00929322  0.33440075  0.49909730  1
  Cu  Cu105  1  0.83437154  0.16929485  0.74799408  1
  Cu  Cu106  1  0.65747822  0.33201101  0.50678205  1
  Cu  Cu107  1  0.16497236  0.50010574  0.75228677  1
  Cu  Cu108  1  0.32530698  -0.00745457  0.00133924  1
  Cu  Cu109  1  0.49460083  0.50217641  0.25298162  1
  Cu  Cu110  1  0.83836254  0.49892369  0.75103298  1
  Cu  Cu111  1  0.83248724  0.50169216  0.24964473  1
  Cu  Cu112  1  0.00963245  0.33276040  -0.00319619  1
  Cu  Cu113  1  0.16490533  0.49402648  0.24855722  1
  Cu  Cu114  1  0.00322978  0.67298253  0.50906911  1
  Se  Se115  1  0.08534012  0.08278163  0.05402712  1
  Se  Se116  1  0.08249002  0.08771302  0.54821354  1
  Se  Se117  1  0.09087662  0.41796170  0.05176203  1
  Se  Se118  1  0.08547082  0.42277176  0.55347529  1
  Se  Se119  1  0.07882869  0.75120566  0.05318067  1
  Se  Se120  1  0.08793638  0.75676778  0.56056599  1
  Se  Se121  1  0.40317499  0.07033787  0.06764332  1
  Se  Se122  1  0.41352891  0.08390213  0.56475158  1
  Se  Se123  1  0.41455062  0.40821164  0.05738418  1
  Se  Se124  1  0.39610081  0.40941153  0.55616299  1
  Se  Se125  1  0.41247605  0.74886865  0.04964255  1
  Se  Se126  1  0.43495702  0.75706424  0.55136689  1
  Se  Se127  1  0.74354638  0.07740373  0.05826715  1
  Se  Se128  1  0.74314322  0.07202566  0.55341197  1
  Se  Se129  1  0.75808254  0.42255410  0.04743043  1
  Se  Se130  1  0.74264831  0.41189225  0.56186202  1
  Se  Se131  1  0.74638561  0.74377542  0.05990713  1
  Se  Se132  1  0.75992580  0.74715945  0.55629579  1
  Se  Se133  1  0.24921310  0.24594347  0.05554992  1
  Se  Se134  1  0.23162079  0.24085069  0.55008655  1
  Se  Se135  1  0.24490468  0.58165341  0.04641103  1
  Se  Se136  1  0.25926878  0.60006509  0.55636211  1
  Se  Se137  1  0.24111378  0.91055140  0.05496100  1
  Se  Se138  1  0.26897883  0.93637087  0.54670894  1
  Se  Se139  1  0.59817082  0.25921983  0.05433769  1
  Se  Se140  1  0.57768186  0.25225367  0.56452099  1
  Se  Se141  1  0.58994602  0.58799015  0.05957666  1
  Se  Se142  1  0.59139030  0.59234955  0.56125921  1
  Se  Se143  1  0.57599832  0.90883078  0.05718958  1
  Se  Se144  1  0.59848318  0.92319956  0.54548442  1
  Se  Se145  1  0.93106620  0.25351392  0.06070641  1
  Se  Se146  1  0.92523674  0.25695956  0.55924660  1
  Se  Se147  1  0.91982307  0.58334116  0.04973080  1
  Se  Se148  1  0.92417966  0.59479100  0.57207368  1
  Se  Se149  1  0.91914738  0.92113603  0.05545113  1
  Se  Se150  1  0.92111560  0.91676013  0.55488094  1
  Se  Se151  1  0.08449096  0.24840126  0.44180077  1
  Se  Se152  1  0.08925820  0.24442512  0.94558207  1
  Se  Se153  1  0.08246431  0.58689380  0.45471444  1
  Se  Se154  1  0.08957293  0.58140372  0.94270258  1
  Se  Se155  1  0.08581019  0.90921494  0.45118639  1
  Se  Se156  1  0.08031465  0.91180466  0.94143735  1
  Se  Se157  1  0.39968837  0.26060706  0.44553290  1
  Se  Se158  1  0.41249638  0.25166147  0.94111496  1
  Se  Se159  1  0.41331082  0.59075563  0.43274572  1
  Se  Se160  1  0.40617661  0.58897241  0.93331255  1
  Se  Se161  1  0.43617839  0.91162121  0.46012966  1
  Se  Se162  1  0.41414072  0.91247187  0.95083252  1
  Se  Se163  1  0.74364023  0.25673141  0.44874735  1
  Se  Se164  1  0.74836029  0.25318763  0.93358779  1
  Se  Se165  1  0.74472171  0.58427666  0.44194120  1
  Se  Se166  1  0.75653761  0.58485039  0.94459995  1
  Se  Se167  1  0.76728469  0.90663749  0.44441226  1
  Se  Se168  1  0.74208903  0.92260739  0.94020244  1
  Se  Se169  1  0.26773431  0.05345842  0.44696737  1
  Se  Se170  1  0.24769454  0.08280811  0.95025605  1
  Se  Se171  1  0.23220324  0.42899466  0.44580314  1
  Se  Se172  1  0.24936931  0.41694410  0.94624724  1
  Se  Se173  1  0.26020464  0.74191203  0.46094360  1
  Se  Se174  1  0.24323463  0.75378603  0.94389167  1
  Se  Se175  1  0.59645665  0.07801981  0.44023404  1
  Se  Se176  1  0.58313642  0.07435776  0.94551995  1
  Se  Se177  1  0.57879928  0.41386961  0.44868007  1
  Se  Se178  1  0.58753575  0.41331379  0.93580642  1
  Se  Se179  1  0.58807344  0.75279931  0.44501639  1
  Se  Se180  1  0.58094017  0.74944280  0.94689435  1
  Se  Se181  1  0.92906374  0.07997073  0.43123754  1
  Se  Se182  1  0.92260391  0.07633265  0.93756139  1
  Se  Se183  1  0.92100892  0.41192603  0.44344543  1
  Se  Se184  1  0.92121952  0.41652133  0.94813325  1
  Se  Se185  1  0.91750304  0.75138324  0.45389235  1
  Se  Se186  1  0.92980288  0.74413266  0.93103062  1
  Se  Se187  1  0.24682396  0.24914780  0.30408621  1
  Se  Se188  1  0.24844481  0.25299830  0.80314996  1
  Se  Se189  1  0.23853983  0.58308208  0.30777853  1
  Se  Se190  1  0.25142431  0.58673946  0.80050227  1
  Se  Se191  1  0.24648162  0.89926417  0.31678870  1
  Se  Se192  1  0.24781620  0.91608675  0.80968136  1
  Se  Se193  1  0.57835872  0.25041250  0.31299697  1
  Se  Se194  1  0.58551841  0.25086929  0.79666318  1
  Se  Se195  1  0.58420483  0.58498370  0.29815845  1
  Se  Se196  1  0.58583282  0.58547781  0.80263606  1
  Se  Se197  1  0.58433393  0.91922508  0.30554357  1
  Se  Se198  1  0.57299152  0.91476770  0.80922557  1
  Se  Se199  1  0.92328843  0.25121815  0.29910663  1
  Se  Se200  1  0.91883112  0.25288882  0.80056291  1
  Se  Se201  1  0.90810419  0.57771751  0.31731593  1
  Se  Se202  1  0.92041213  0.58234063  0.80521697  1
  Se  Se203  1  0.91923517  0.91070597  0.30279808  1
  Se  Se204  1  0.91362168  0.91308877  0.78848589  1
  Se  Se205  1  0.09133372  0.07005033  0.29998499  1
  Se  Se206  1  0.08287267  0.08174344  0.80335682  1
  Se  Se207  1  0.07880008  0.41579882  0.30307261  1
  Se  Se208  1  0.08234882  0.41504151  0.80591422  1
  Se  Se209  1  0.08909877  0.75199479  0.31574237  1
  Se  Se210  1  0.09375372  0.75456364  0.79813779  1
  Se  Se211  1  0.41980988  0.09504993  0.32247766  1
  Se  Se212  1  0.41910498  0.09257572  0.80404398  1
  Se  Se213  1  0.40782981  0.41878782  0.30055128  1
  Se  Se214  1  0.41419537  0.41508267  0.80013957  1
  Se  Se215  1  0.41402610  0.76272340  0.31668863  1
  Se  Se216  1  0.41305090  0.74849445  0.80236771  1
  Se  Se217  1  0.75259276  0.08125597  0.29954705  1
  Se  Se218  1  0.75836116  0.08789010  0.81154826  1
  Se  Se219  1  0.75627487  0.41966583  0.31412567  1
  Se  Se220  1  0.74983307  0.41477111  0.80185328  1
  Se  Se221  1  0.74495886  0.74875273  0.30420765  1
  Se  Se222  1  0.75590967  0.75960424  0.79986136  1
  Se  Se223  1  0.24640173  0.08448762  0.19527595  1
  Se  Se224  1  0.23620915  0.09053645  0.68802916  1
  Se  Se225  1  0.24996795  0.41362098  0.19427087  1
  Se  Se226  1  0.24486280  0.41688883  0.69486701  1
  Se  Se227  1  0.23750123  0.75632643  0.19357684  1
  Se  Se228  1  0.25798284  0.75616636  0.68650452  1
  Se  Se229  1  0.58222865  0.08055793  0.20433357  1
  Se  Se230  1  0.57020536  0.08296403  0.68497863  1
  Se  Se231  1  0.57677968  0.42421848  0.18909950  1
  Se  Se232  1  0.58293395  0.41555397  0.69794628  1
  Se  Se233  1  0.58055336  0.74787792  0.20008141  1
  Se  Se234  1  0.58931988  0.74912692  0.69557031  1
  Se  Se235  1  0.92216082  0.07310007  0.19985096  1
  Se  Se236  1  0.91639003  0.08523206  0.69461506  1
  Se  Se237  1  0.91841659  0.42249468  0.19634691  1
  Se  Se238  1  0.92084819  0.41439427  0.69879492  1
  Se  Se239  1  0.91002211  0.75582327  0.18932837  1
  Se  Se240  1  0.93160122  0.74867471  0.70323453  1
  Se  Se241  1  0.07213606  0.26207605  0.19487852  1
  Se  Se242  1  0.07937618  0.25721934  0.69502811  1
  Se  Se243  1  0.08688826  0.58000455  0.18953873  1
  Se  Se244  1  0.08224448  0.58688381  0.70119713  1
  Se  Se245  1  0.08148199  0.92170084  0.20123608  1
  Se  Se246  1  0.08998519  0.92455839  0.69246977  1
  Se  Se247  1  0.41670087  0.25270955  0.20389838  1
  Se  Se248  1  0.40682905  0.25472884  0.69663280  1
  Se  Se249  1  0.41837298  0.57730504  0.18548303  1
  Se  Se250  1  0.41603406  0.57962176  0.69571224  1
  Se  Se251  1  0.41394990  0.91010603  0.19584272  1
  Se  Se252  1  0.41680390  0.89937177  0.68619125  1
  Se  Se253  1  0.76397563  0.24158950  0.18588403  1
  Se  Se254  1  0.74582484  0.24911162  0.69697813  1
  Se  Se255  1  0.74836511  0.58563777  0.19925608  1
  Se  Se256  1  0.75125888  0.58452618  0.70313607  1
  Se  Se257  1  0.74569244  0.91741415  0.19776986  1
  Se  Se258  1  0.75067505  0.91001574  0.68513296  1
