# generated using pymatgen
data_In86Cu29Se144
_symmetry_space_group_name_H-M   'P 1'
_cell_length_a   17.58292303
_cell_length_b   17.58095227
_cell_length_c   23.44517697
_cell_angle_alpha   89.95610869
_cell_angle_beta   89.99759015
_cell_angle_gamma   89.99304616
_symmetry_Int_Tables_number   1
_chemical_formula_structural   In86Cu29Se144
_chemical_formula_sum   'In86 Cu29 Se144'
_cell_volume   7247.47713817
_cell_formula_units_Z   1
loop_
 _symmetry_equiv_pos_site_id
 _symmetry_equiv_pos_as_xyz
  1  'x, y, z'
loop_
 _atom_site_type_symbol
 _atom_site_label
 _atom_site_symmetry_multiplicity
 _atom_site_fract_x
 _atom_site_fract_y
 _atom_site_fract_z
 _atom_site_occupancy
  In  In0  1  -0.00475042  0.17682157  0.12066686  1
  In  In1  1  -0.01346307  0.15586127  0.62926520  1
  In  In2  1  0.00495203  0.50716224  0.11850678  1
  In  In3  1  0.00059834  0.50920342  0.62162701  1
  In  In4  1  -0.01091432  0.81906436  0.11920722  1
  In  In5  1  0.00185942  0.84265837  0.63093799  1
  In  In6  1  0.35567716  0.15252283  0.14516061  1
  In  In7  1  0.34611920  0.17451992  0.62513556  1
  In  In8  1  0.32082776  0.50115524  0.12715047  1
  In  In9  1  0.33375839  0.50232664  0.62756963  1
  In  In10  1  0.34436554  0.84401385  0.11674798  1
  In  In11  1  0.33686831  0.81109297  0.62784070  1
  In  In12  1  0.64791963  0.15339899  0.10930689  1
  In  In13  1  0.67875357  0.16716696  0.62774069  1
  In  In14  1  0.67880339  0.50926954  0.12189180  1
  In  In15  1  0.66465066  0.50331315  0.62883706  1
  In  In16  1  0.66622583  0.83049896  0.13357498  1
  In  In17  1  0.65878715  0.82035011  0.61563040  1
  In  In18  1  0.18614576  -0.02474071  0.36608005  1
  In  In19  1  0.15151618  -0.00259915  0.87423762  1
  In  In20  1  0.18184285  0.34027897  0.37631739  1
  In  In21  1  0.18223377  0.33469404  0.86981027  1
  In  In22  1  0.15464755  0.67152419  0.37279813  1
  In  In23  1  0.17316948  0.65840717  0.87918431  1
  In  In24  1  0.48404056  -0.02334800  0.35118934  1
  In  In25  1  0.51123730  -0.00971812  0.88576148  1
  In  In26  1  0.50041795  0.34201282  0.37399531  1
  In  In27  1  0.49630209  0.33620949  0.87585884  1
  In  In28  1  0.50723352  0.66096317  0.37581085  1
  In  In29  1  0.50151840  0.67093420  0.87077618  1
  In  In30  1  0.81497278  -0.00725307  0.36709418  1
  In  In31  1  0.83845493  -0.01201016  0.88435443  1
  In  In32  1  0.83970206  0.33579661  0.37658267  1
  In  In33  1  0.81585871  0.35149890  0.88335018  1
  In  In34  1  0.83389253  0.66792190  0.37519854  1
  In  In35  1  0.82888577  0.66373426  0.87775343  1
  In  In36  1  -0.00997918  0.16776645  0.37107342  1
  In  In37  1  0.00085794  0.15292657  0.87539815  1
  In  In38  1  -0.01176148  0.51092670  0.38533406  1
  In  In39  1  -0.00084611  0.50335528  0.87735834  1
  In  In40  1  0.00953713  0.80920754  0.37157424  1
  In  In41  1  -0.01084724  0.83635572  0.88144013  1
  In  In42  1  0.34609617  0.16589341  0.36361099  1
  In  In43  1  0.33901419  0.17773996  0.87643043  1
  In  In44  1  0.34030855  0.49689698  0.38039600  1
  In  In45  1  0.32281323  0.49779213  0.86519799  1
  In  In46  1  0.32857327  0.83899705  0.36501113  1
  In  In47  1  0.34203887  0.82431157  0.88355937  1
  In  In48  1  0.66584093  0.16007374  0.36865375  1
  In  In49  1  0.65510851  0.17473146  0.88562070  1
  In  In50  1  0.65766984  0.50680341  0.38347021  1
  In  In51  1  0.68233616  0.51419721  0.85415635  1
  In  In52  1  0.66745584  0.83037823  0.37416061  1
  In  In53  1  0.67755968  0.81116290  0.89429743  1
  In  In54  1  0.18303027  -0.00652625  0.12423244  1
  In  In55  1  0.16324811  -0.02386822  0.63187885  1
  In  In56  1  0.17346723  0.34462973  0.12380763  1
  In  In57  1  0.16543277  0.35564555  0.63011546  1
  In  In58  1  0.15916003  0.65815353  0.11589326  1
  In  In59  1  0.18435066  0.66464926  0.63816978  1
  In  In60  1  0.50004575  -0.00234617  0.13325628  1
  In  In61  1  0.51102689  -0.00575071  0.62199740  1
  In  In62  1  0.50162063  0.32014577  0.12671666  1
  In  In63  1  0.48419621  0.34781774  0.63550400  1
  In  In64  1  0.50904238  0.68373532  0.12298548  1
  In  In65  1  0.50397678  0.66246185  0.62513195  1
  In  In66  1  0.81215781  -0.02333217  0.11317106  1
  In  In67  1  0.84338949  -0.00383149  0.62725799  1
  In  In68  1  0.83674617  0.33814243  0.11180545  1
  In  In69  1  0.81777680  0.33967589  0.63626915  1
  In  In70  1  0.83267492  0.67111661  0.12756127  1
  In  In71  1  0.82021807  0.65656625  0.62025316  1
  In  In72  1  0.33558494  0.66899173  0.24198040  1
  In  In73  1  0.50728697  0.17095819  0.49489721  1
  In  In74  1  0.16881478  0.82377869  0.50103688  1
  In  In75  1  0.17290630  0.16868001  0.00044961  1
  In  In76  1  0.16303168  0.16740366  0.49236402  1
  In  In77  1  0.66833251  -0.00301100  0.75485356  1
  In  In78  1  0.50648566  0.50604676  0.00092236  1
  In  In79  1  -0.00064513  0.32903086  0.75244432  1
  In  In80  1  0.66441315  0.33144634  0.25122965  1
  In  In81  1  0.00076279  0.67303203  0.75317511  1
  In  In82  1  0.00359957  0.33979104  0.24565335  1
  In  In83  1  0.00155903  -0.00000135  0.24374459  1
  In  In84  1  0.33100451  0.00366866  0.75383659  1
  In  In85  1  0.83071847  0.16942975  0.50148825  1
  Cu  Cu86  1  0.66843450  0.34035429  -0.00184020  1
  Cu  Cu87  1  0.66215302  0.34171017  0.50731666  1
  Cu  Cu88  1  0.16775438  0.16416530  0.75265589  1
  Cu  Cu89  1  0.50238249  0.50047051  0.25269206  1
  Cu  Cu90  1  -0.00573821  0.66607798  -0.00258858  1
  Cu  Cu91  1  0.66191398  0.00067758  0.00659197  1
  Cu  Cu92  1  0.66331637  -0.01604316  0.49330839  1
  Cu  Cu93  1  0.17293206  0.16333801  0.25412867  1
  Cu  Cu94  1  0.82801234  0.83062736  0.75702436  1
  Cu  Cu95  1  -0.00222513  -0.00689817  0.50250256  1
  Cu  Cu96  1  0.50330937  0.17536877  0.75614326  1
  Cu  Cu97  1  0.33832057  0.00180170  0.00375152  1
  Cu  Cu98  1  0.32847754  0.66207368  0.00218259  1
  Cu  Cu99  1  0.16523195  0.50390699  0.24753986  1
  Cu  Cu100  1  0.83348670  0.51246986  0.25207606  1
  Cu  Cu101  1  -0.00093642  0.34669654  0.50518042  1
  Cu  Cu102  1  0.34244849  -0.00790552  0.49039775  1
  Cu  Cu103  1  0.83245157  0.16417618  0.75743448  1
  Cu  Cu104  1  -0.00115092  0.33459575  -0.00310189  1
  Cu  Cu105  1  0.83439238  0.82906994  0.24771517  1
  Cu  Cu106  1  0.49767363  0.50229913  0.74942252  1
  Cu  Cu107  1  -0.00126380  -0.00141180  0.00172837  1
  Cu  Cu108  1  0.34483282  0.66078909  0.50206133  1
  Cu  Cu109  1  0.67169567  0.66672273  0.49839645  1
  Cu  Cu110  1  0.33482738  0.33457233  -0.00137618  1
  Cu  Cu111  1  0.49722512  0.82597881  0.75078837  1
  Cu  Cu112  1  0.82290924  0.16556189  0.23290985  1
  Cu  Cu113  1  0.32643715  0.34483365  0.50543165  1
  Cu  Cu114  1  -0.00188809  0.66831297  0.50170145  1
  Se  Se115  1  0.08144100  0.07842094  0.06103889  1
  Se  Se116  1  0.07971234  0.07548895  0.55947966  1
  Se  Se117  1  0.08164779  0.41293520  0.05443576  1
  Se  Se118  1  0.08748514  0.42792917  0.55392361  1
  Se  Se119  1  0.08061011  0.74799745  0.04915006  1
  Se  Se120  1  0.07925714  0.74095526  0.56639439  1
  Se  Se121  1  0.41847986  0.08285889  0.06079201  1
  Se  Se122  1  0.41365608  0.07561242  0.55399917  1
  Se  Se123  1  0.41356273  0.41519929  0.06097455  1
  Se  Se124  1  0.41801228  0.42256430  0.55464525  1
  Se  Se125  1  0.41487820  0.74578811  0.05146607  1
  Se  Se126  1  0.42425317  0.74924032  0.55319652  1
  Se  Se127  1  0.75450817  0.08605020  0.05133471  1
  Se  Se128  1  0.74082281  0.06798086  0.55530853  1
  Se  Se129  1  0.75192370  0.42554663  0.04898688  1
  Se  Se130  1  0.75082808  0.41924974  0.55875718  1
  Se  Se131  1  0.75979119  0.76624063  0.06255227  1
  Se  Se132  1  0.75577307  0.75210698  0.54964774  1
  Se  Se133  1  0.26216596  0.25177873  0.06376056  1
  Se  Se134  1  0.25030503  0.25451085  0.55977703  1
  Se  Se135  1  0.24515728  0.57401098  0.04949956  1
  Se  Se136  1  0.25376881  0.59000929  0.55809975  1
  Se  Se137  1  0.25010218  0.91423318  0.04637887  1
  Se  Se138  1  0.26159716  0.91900656  0.55714167  1
  Se  Se139  1  0.58058740  0.25661943  0.04647677  1
  Se  Se140  1  0.58638548  0.25553512  0.56690264  1
  Se  Se141  1  0.59789666  0.60069148  0.05377508  1
  Se  Se142  1  0.58850632  0.58444004  0.55419018  1
  Se  Se143  1  0.58427461  0.91695200  0.06369880  1
  Se  Se144  1  0.57650602  0.90775378  0.54862139  1
  Se  Se145  1  0.91502714  0.24796082  0.04554217  1
  Se  Se146  1  0.92046494  0.26036241  0.56354575  1
  Se  Se147  1  0.91254021  0.58582969  0.05582363  1
  Se  Se148  1  0.91361851  0.58379984  0.55241730  1
  Se  Se149  1  0.91556377  0.91172428  0.05135124  1
  Se  Se150  1  0.91538586  0.91027066  0.55515409  1
  Se  Se151  1  0.06831260  0.26335007  0.43873874  1
  Se  Se152  1  0.08204380  0.25602021  0.93702437  1
  Se  Se153  1  0.08459657  0.58800400  0.44793327  1
  Se  Se154  1  0.08132761  0.58337928  0.94681850  1
  Se  Se155  1  0.08261770  0.91976667  0.43936752  1
  Se  Se156  1  0.08109764  0.91509467  0.94859656  1
  Se  Se157  1  0.40420684  0.26015241  0.44398601  1
  Se  Se158  1  0.42120752  0.25118751  0.94949163  1
  Se  Se159  1  0.42613941  0.57894698  0.44638026  1
  Se  Se160  1  0.40815831  0.58343376  0.93907773  1
  Se  Se161  1  0.42012364  0.90689118  0.43670279  1
  Se  Se162  1  0.41887054  0.91492406  0.95051608  1
  Se  Se163  1  0.73612195  0.25912909  0.44169003  1
  Se  Se164  1  0.75094450  0.25071148  0.94916693  1
  Se  Se165  1  0.75420565  0.58230623  0.44527631  1
  Se  Se166  1  0.74185548  0.57923918  0.94107011  1
  Se  Se167  1  0.75743291  0.90795672  0.44587943  1
  Se  Se168  1  0.74423873  0.91805651  0.95158869  1
  Se  Se169  1  0.25753361  0.07405794  0.43568689  1
  Se  Se170  1  0.25813196  0.07584955  0.93743975  1
  Se  Se171  1  0.24499491  0.42811725  0.45074873  1
  Se  Se172  1  0.25269587  0.41684740  0.94457217  1
  Se  Se173  1  0.26281728  0.73880397  0.43916632  1
  Se  Se174  1  0.24747499  0.74844216  0.94868425  1
  Se  Se175  1  0.58570711  0.07130414  0.43676523  1
  Se  Se176  1  0.57872983  0.08530896  0.95310935  1
  Se  Se177  1  0.57734251  0.41706013  0.44921882  1
  Se  Se178  1  0.59277069  0.42185882  0.93543915  1
  Se  Se179  1  0.58637217  0.74726925  0.44433853  1
  Se  Se180  1  0.56111669  0.75893178  0.94724824  1
  Se  Se181  1  0.91710033  0.07370864  0.44042948  1
  Se  Se182  1  0.91649041  0.08270625  0.94895691  1
  Se  Se183  1  0.90846221  0.41981665  0.45019180  1
  Se  Se184  1  0.91616847  0.42151297  0.94617599  1
  Se  Se185  1  0.91850812  0.75101287  0.44586261  1
  Se  Se186  1  0.90847613  0.74885537  0.94683139  1
  Se  Se187  1  0.25131465  0.25140566  0.30642114  1
  Se  Se188  1  0.25522367  0.24548088  0.80065061  1
  Se  Se189  1  0.24867172  0.58121582  0.30880060  1
  Se  Se190  1  0.24653415  0.58817113  0.79961710  1
  Se  Se191  1  0.25025596  0.90349493  0.28485498  1
  Se  Se192  1  0.24918610  0.91319302  0.81655663  1
  Se  Se193  1  0.56914554  0.24096743  0.30639594  1
  Se  Se194  1  0.58721154  0.25683719  0.80863599  1
  Se  Se195  1  0.58883130  0.58165077  0.30322730  1
  Se  Se196  1  0.58005846  0.58993627  0.79854498  1
  Se  Se197  1  0.61137565  0.93637069  0.30835855  1
  Se  Se198  1  0.58065292  0.90268259  0.81062573  1
  Se  Se199  1  0.90246799  0.24376357  0.29620457  1
  Se  Se200  1  0.91001846  0.24634890  0.81768128  1
  Se  Se201  1  0.92297928  0.58854904  0.30528190  1
  Se  Se202  1  0.90933389  0.57700369  0.80499730  1
  Se  Se203  1  0.91705413  0.90948506  0.30979255  1
  Se  Se204  1  0.91316692  0.91617183  0.80530510  1
  Se  Se205  1  0.09026412  0.08490627  0.31359960  1
  Se  Se206  1  0.08094151  0.08114759  0.79969650  1
  Se  Se207  1  0.08595518  0.42566546  0.31296722  1
  Se  Se208  1  0.08977896  0.42198294  0.80793365  1
  Se  Se209  1  0.10321500  0.76209451  0.29595750  1
  Se  Se210  1  0.08653076  0.75749681  0.81752340  1
  Se  Se211  1  0.41666386  0.08078700  0.29330144  1
  Se  Se212  1  0.43039814  0.08507215  0.81376409  1
  Se  Se213  1  0.41593274  0.41944084  0.30365418  1
  Se  Se214  1  0.41664088  0.41675337  0.80432119  1
  Se  Se215  1  0.42542648  0.75099977  0.30683124  1
  Se  Se216  1  0.40871495  0.74697849  0.80272980  1
  Se  Se217  1  0.74953256  0.08604354  0.29626982  1
  Se  Se218  1  0.75125302  0.08625559  0.81984522  1
  Se  Se219  1  0.75658097  0.42386601  0.30935434  1
  Se  Se220  1  0.75034140  0.40931804  0.79590785  1
  Se  Se221  1  0.75111625  0.74757927  0.30448305  1
  Se  Se222  1  0.74502089  0.74762903  0.80869889  1
  Se  Se223  1  0.25031787  0.07759052  0.19939978  1
  Se  Se224  1  0.24489654  0.08846671  0.68443101  1
  Se  Se225  1  0.25036211  0.41607587  0.20199195  1
  Se  Se226  1  0.26311534  0.41058502  0.69815825  1
  Se  Se227  1  0.24863283  0.75065034  0.17641952  1
  Se  Se228  1  0.22564854  0.78369461  0.69459568  1
  Se  Se229  1  0.57836001  0.09659935  0.19376746  1
  Se  Se230  1  0.57677039  0.09168908  0.69420089  1
  Se  Se231  1  0.58172320  0.42506111  0.18724181  1
  Se  Se232  1  0.58295455  0.41736485  0.69840653  1
  Se  Se233  1  0.58040908  0.75143539  0.20279458  1
  Se  Se234  1  0.58399845  0.75001709  0.69475120  1
  Se  Se235  1  0.90858407  0.08316473  0.18010766  1
  Se  Se236  1  0.91194037  0.07827117  0.70442420  1
  Se  Se237  1  0.90715143  0.42672975  0.19048819  1
  Se  Se238  1  0.91547919  0.42488257  0.69312309  1
  Se  Se239  1  0.92134558  0.74504750  0.20038875  1
  Se  Se240  1  0.90493381  0.75479232  0.69058837  1
  Se  Se241  1  0.09526637  0.24210220  0.19202993  1
  Se  Se242  1  0.08859603  0.24133963  0.68668558  1
  Se  Se243  1  0.08087281  0.58404203  0.19413549  1
  Se  Se244  1  0.09082597  0.57590504  0.69725393  1
  Se  Se245  1  0.08466556  0.90931387  0.18220548  1
  Se  Se246  1  0.07465915  0.91917487  0.70674043  1
  Se  Se247  1  0.40293352  0.27169622  0.19836306  1
  Se  Se248  1  0.41358312  0.25198379  0.70308756  1
  Se  Se249  1  0.42790231  0.57551145  0.18469860  1
  Se  Se250  1  0.41621462  0.58743081  0.69554645  1
  Se  Se251  1  0.41268819  0.91393840  0.19805383  1
  Se  Se252  1  0.42304132  0.91402572  0.69166578  1
  Se  Se253  1  0.74646173  0.25221968  0.17816495  1
  Se  Se254  1  0.74818779  0.24583940  0.70453988  1
  Se  Se255  1  0.74677770  0.59024388  0.19850912  1
  Se  Se256  1  0.74611151  0.58673957  0.69778116  1
  Se  Se257  1  0.75028952  0.91883249  0.20223058  1
  Se  Se258  1  0.75123249  0.90818318  0.68987535  1
