# generated using pymatgen
data_In86Cu29Se144
_symmetry_space_group_name_H-M   'P 1'
_cell_length_a   17.57649550
_cell_length_b   17.57645808
_cell_length_c   23.42856161
_cell_angle_alpha   90.00798276
_cell_angle_beta   89.99062452
_cell_angle_gamma   90.02567252
_symmetry_Int_Tables_number   1
_chemical_formula_structural   In86Cu29Se144
_chemical_formula_sum   'In86 Cu29 Se144'
_cell_volume   7237.84406824
_cell_formula_units_Z   1
loop_
 _symmetry_equiv_pos_site_id
 _symmetry_equiv_pos_as_xyz
  1  'x, y, z'
loop_
 _atom_site_type_symbol
 _atom_site_label
 _atom_site_symmetry_multiplicity
 _atom_site_fract_x
 _atom_site_fract_y
 _atom_site_fract_z
 _atom_site_occupancy
  In  In0  1  -0.01569048  0.15794630  0.11578823  1
  In  In1  1  -0.00625131  0.16361204  0.62804769  1
  In  In2  1  0.00382706  0.50428220  0.12106354  1
  In  In3  1  0.00235952  0.51146337  0.61821136  1
  In  In4  1  -0.02604464  0.84191727  0.15077491  1
  In  In5  1  -0.00492604  0.83560266  0.63375311  1
  In  In6  1  0.34518479  0.15504218  0.13391578  1
  In  In7  1  0.35055823  0.15464614  0.61935535  1
  In  In8  1  0.33306571  0.50147312  0.13092213  1
  In  In9  1  0.31632863  0.51078750  0.62085798  1
  In  In10  1  0.33613565  0.82208540  0.13874590  1
  In  In11  1  0.33257961  0.84134460  0.61918755  1
  In  In12  1  0.66613016  0.16645902  0.12357729  1
  In  In13  1  0.65614969  0.16610773  0.62343231  1
  In  In14  1  0.66908060  0.50631251  0.12785590  1
  In  In15  1  0.67862041  0.49883837  0.62242421  1
  In  In16  1  0.67288174  0.83597155  0.12897924  1
  In  In17  1  0.67464659  0.82645758  0.63548643  1
  In  In18  1  0.16191184  -0.00960917  0.35856461  1
  In  In19  1  0.14791284  0.00252985  0.87490362  1
  In  In20  1  0.18437690  0.33672709  0.37234734  1
  In  In21  1  0.17421626  0.33447765  0.87832785  1
  In  In22  1  0.15796123  0.66578984  0.36421299  1
  In  In23  1  0.15021913  0.66959992  0.87893498  1
  In  In24  1  0.50217556  0.00294134  0.36965136  1
  In  In25  1  0.51171951  -0.01299450  0.89134809  1
  In  In26  1  0.49161371  0.32408890  0.36460654  1
  In  In27  1  0.50604204  0.32796422  0.88985338  1
  In  In28  1  0.49669134  0.66273688  0.36498488  1
  In  In29  1  0.51175041  0.65742950  0.88860395  1
  In  In30  1  0.82741494  -0.01408831  0.35629723  1
  In  In31  1  0.83498318  -0.00187689  0.88364710  1
  In  In32  1  0.83467435  0.35110045  0.36689493  1
  In  In33  1  0.82921337  0.33782783  0.88713588  1
  In  In34  1  0.81665805  0.65293759  0.34269399  1
  In  In35  1  0.83323220  0.66934001  0.88126044  1
  In  In36  1  0.00410949  0.15817316  0.37289343  1
  In  In37  1  -0.00249650  0.13993965  0.87805106  1
  In  In38  1  -0.01043740  0.51294698  0.37132016  1
  In  In39  1  -0.00963108  0.51525166  0.88740256  1
  In  In40  1  -0.00422252  0.82128116  0.34908937  1
  In  In41  1  -0.00677686  0.82569028  0.87753070  1
  In  In42  1  0.33875270  0.16710920  0.36972228  1
  In  In43  1  0.33502648  0.17038128  0.87896075  1
  In  In44  1  0.33403317  0.49844132  0.37394236  1
  In  In45  1  0.33106850  0.50380619  0.88909335  1
  In  In46  1  0.32701810  0.83359520  0.35841553  1
  In  In47  1  0.34221555  0.83987947  0.88089986  1
  In  In48  1  0.65392405  0.15900300  0.36781254  1
  In  In49  1  0.67837715  0.15494954  0.88808450  1
  In  In50  1  0.67952298  0.50435839  0.35616220  1
  In  In51  1  0.66166010  0.50673804  0.88624430  1
  In  In52  1  0.66483706  0.82260848  0.35379235  1
  In  In53  1  0.66921475  0.83334125  0.88272348  1
  In  In54  1  0.15481267  -0.00726702  0.13623777  1
  In  In55  1  0.16522722  -0.00439722  0.62500078  1
  In  In56  1  0.16816573  0.34787861  0.12614001  1
  In  In57  1  0.15678183  0.34213855  0.61916755  1
  In  In58  1  0.17285262  0.66356829  0.13460939  1
  In  In59  1  0.15986601  0.65674313  0.62100161  1
  In  In60  1  0.50437312  0.00115981  0.12235179  1
  In  In61  1  0.49825042  0.00869423  0.62262647  1
  In  In62  1  0.49814533  0.33557909  0.12755072  1
  In  In63  1  0.51323226  0.32322473  0.62048151  1
  In  In64  1  0.50371701  0.66788563  0.12651801  1
  In  In65  1  0.50321209  0.67395700  0.62478466  1
  In  In66  1  0.83090019  -0.00549940  0.12794081  1
  In  In67  1  0.83340766  -0.00786536  0.63540454  1
  In  In68  1  0.82744064  0.33215327  0.12220173  1
  In  In69  1  0.82045688  0.33833186  0.62104923  1
  In  In70  1  0.83014241  0.66280017  0.13021573  1
  In  In71  1  0.83853746  0.66572074  0.62840351  1
  In  In72  1  0.16719576  0.16604922  0.00074376  1
  In  In73  1  0.17140127  0.17298349  0.49136805  1
  In  In74  1  0.32990621  0.67116038  0.74396878  1
  In  In75  1  0.50001494  0.49328173  0.48957944  1
  In  In76  1  0.83361246  0.82656439  0.48548080  1
  In  In77  1  0.83245888  0.17101752  0.50239766  1
  In  In78  1  0.16650558  0.82296008  0.01014533  1
  In  In79  1  0.16736901  0.83291416  0.49087034  1
  In  In80  1  -0.00193369  0.33354831  0.75228605  1
  In  In81  1  0.49501202  0.83624950  0.49482471  1
  In  In82  1  0.33260670  -0.00019547  0.74667861  1
  In  In83  1  0.33593634  0.33316924  0.76065834  1
  In  In84  1  -0.00241818  0.33076550  0.23980395  1
  In  In85  1  0.66929367  0.32792352  0.75259095  1
  Cu  Cu86  1  0.50311226  0.16705044  0.24522906  1
  Cu  Cu87  1  0.50610080  0.50604087  0.75805633  1
  Cu  Cu88  1  -0.00430736  0.66868395  0.00875622  1
  Cu  Cu89  1  0.67157092  0.66114759  0.48943253  1
  Cu  Cu90  1  0.50439927  0.15610153  0.75248270  1
  Cu  Cu91  1  0.67096495  0.67088316  0.00757776  1
  Cu  Cu92  1  0.65984145  0.33895551  0.00966222  1
  Cu  Cu93  1  0.15895268  0.50689243  0.75067890  1
  Cu  Cu94  1  0.33480170  0.66504362  0.01147035  1
  Cu  Cu95  1  0.83840962  0.15549203  0.75854712  1
  Cu  Cu96  1  0.83498760  0.50862785  0.75206602  1
  Cu  Cu97  1  -0.00235063  -0.00303950  0.49562248  1
  Cu  Cu98  1  0.33697286  -0.00332302  0.00714185  1
  Cu  Cu99  1  0.16577207  0.16727703  0.24982010  1
  Cu  Cu100  1  0.67191874  -0.00194163  0.00690904  1
  Cu  Cu101  1  0.00118904  0.35198087  0.49545721  1
  Cu  Cu102  1  0.83037954  0.83659258  0.76026605  1
  Cu  Cu103  1  0.33344238  0.33542399  0.00509746  1
  Cu  Cu104  1  -0.00351627  0.66502584  0.49415535  1
  Cu  Cu105  1  0.83071467  0.16377733  0.24311862  1
  Cu  Cu106  1  0.66821112  0.33362882  0.49296839  1
  Cu  Cu107  1  0.15556475  0.83861156  0.75165215  1
  Cu  Cu108  1  0.00009577  0.33650243  0.00282756  1
  Cu  Cu109  1  0.33902271  0.33533403  0.49500990  1
  Cu  Cu110  1  0.17076126  0.49273833  0.25263190  1
  Cu  Cu111  1  0.50268624  0.50399675  0.24583222  1
  Cu  Cu112  1  0.66078499  -0.00033517  0.49596947  1
  Cu  Cu113  1  0.50913960  0.82665747  0.75752129  1
  Cu  Cu114  1  0.50176453  0.83818828  0.24356079  1
  Se  Se115  1  0.07868487  0.07004633  0.05520439  1
  Se  Se116  1  0.07706141  0.08084269  0.55257218  1
  Se  Se117  1  0.08638719  0.41955135  0.05204880  1
  Se  Se118  1  0.08758012  0.43071512  0.54904315  1
  Se  Se119  1  0.07246814  0.74577686  0.07336376  1
  Se  Se120  1  0.07074066  0.75101618  0.55520513  1
  Se  Se121  1  0.41940812  0.08609039  0.05365232  1
  Se  Se122  1  0.42029055  0.07564554  0.54492697  1
  Se  Se123  1  0.41438089  0.41966378  0.05889931  1
  Se  Se124  1  0.41401913  0.41183192  0.56372645  1
  Se  Se125  1  0.41570851  0.75365951  0.06051563  1
  Se  Se126  1  0.40641039  0.74156219  0.55522416  1
  Se  Se127  1  0.75445530  0.08395110  0.05807394  1
  Se  Se128  1  0.74580754  0.07178817  0.55942465  1
  Se  Se129  1  0.74876492  0.42229018  0.05599622  1
  Se  Se130  1  0.74911119  0.41885614  0.54567479  1
  Se  Se131  1  0.75617431  0.75236439  0.05971651  1
  Se  Se132  1  0.74374964  0.74418234  0.55332610  1
  Se  Se133  1  0.25576760  0.25108705  0.06505492  1
  Se  Se134  1  0.25981895  0.25722920  0.56109626  1
  Se  Se135  1  0.24763143  0.58227289  0.05999383  1
  Se  Se136  1  0.24804827  0.59362298  0.54806404  1
  Se  Se137  1  0.25436833  0.91963894  0.06647174  1
  Se  Se138  1  0.25575254  0.93059370  0.54920527  1
  Se  Se139  1  0.57820577  0.24980611  0.05790648  1
  Se  Se140  1  0.58826515  0.24655059  0.54510618  1
  Se  Se141  1  0.58401084  0.58517086  0.05570872  1
  Se  Se142  1  0.58886600  0.58669171  0.55308085  1
  Se  Se143  1  0.58675397  0.91341323  0.05678332  1
  Se  Se144  1  0.59224767  0.91386811  0.56060093  1
  Se  Se145  1  0.91328415  0.25319559  0.05186037  1
  Se  Se146  1  0.92867533  0.26558603  0.55695479  1
  Se  Se147  1  0.91071307  0.58114209  0.05671818  1
  Se  Se148  1  0.91094594  0.58755822  0.55133290  1
  Se  Se149  1  0.91675836  0.90676002  0.06395293  1
  Se  Se150  1  0.91634641  0.91814045  0.55473733  1
  Se  Se151  1  0.07424440  0.26480686  0.43633047  1
  Se  Se152  1  0.07394756  0.25369011  0.93879410  1
  Se  Se153  1  0.08248278  0.58585774  0.43936349  1
  Se  Se154  1  0.08422084  0.58761231  0.95577266  1
  Se  Se155  1  0.06876717  0.91499533  0.43170648  1
  Se  Se156  1  0.07904180  0.91395504  0.94799682  1
  Se  Se157  1  0.41790708  0.24886130  0.44309120  1
  Se  Se158  1  0.41301949  0.24748993  0.95180809  1
  Se  Se159  1  0.41173207  0.59469138  0.44274580  1
  Se  Se160  1  0.41808755  0.58326723  0.95473395  1
  Se  Se161  1  0.40574429  0.92136722  0.43423315  1
  Se  Se162  1  0.42046665  0.90915530  0.95766020  1
  Se  Se163  1  0.74934300  0.25293424  0.43256638  1
  Se  Se164  1  0.74251911  0.25723424  0.95226475  1
  Se  Se165  1  0.75569442  0.58605764  0.43092992  1
  Se  Se166  1  0.75115539  0.58584498  0.95114184  1
  Se  Se167  1  0.73615404  0.91874490  0.43419097  1
  Se  Se168  1  0.75299624  0.91402904  0.95230430  1
  Se  Se169  1  0.24838676  0.07517217  0.43248971  1
  Se  Se170  1  0.25581046  0.06817915  0.94173386  1
  Se  Se171  1  0.25270499  0.42005049  0.44794098  1
  Se  Se172  1  0.24648211  0.41603984  0.95219116  1
  Se  Se173  1  0.25680327  0.74283423  0.43354359  1
  Se  Se174  1  0.25888565  0.73995488  0.94182120  1
  Se  Se175  1  0.57822281  0.08432369  0.44554065  1
  Se  Se176  1  0.58449240  0.08308855  0.95535072  1
  Se  Se177  1  0.59394699  0.41235559  0.42810561  1
  Se  Se178  1  0.57823476  0.42281626  0.95363559  1
  Se  Se179  1  0.58980499  0.74552375  0.43617688  1
  Se  Se180  1  0.58504978  0.75191832  0.95316554  1
  Se  Se181  1  0.91140071  0.07431728  0.43776892  1
  Se  Se182  1  0.90461484  0.09250922  0.95281833  1
  Se  Se183  1  0.91173364  0.42690459  0.44176316  1
  Se  Se184  1  0.91456215  0.42163670  0.95172778  1
  Se  Se185  1  0.92259553  0.73802567  0.42597605  1
  Se  Se186  1  0.91503987  0.75147902  0.95277008  1
  Se  Se187  1  0.25182740  0.24822293  0.30111681  1
  Se  Se188  1  0.23897784  0.23681665  0.80603946  1
  Se  Se189  1  0.25130721  0.58017970  0.30484346  1
  Se  Se190  1  0.24572447  0.58154225  0.81111125  1
  Se  Se191  1  0.26483457  0.93353950  0.29361434  1
  Se  Se192  1  0.24361857  0.90928047  0.81088016  1
  Se  Se193  1  0.58587965  0.25254476  0.29803744  1
  Se  Se194  1  0.57939781  0.23973620  0.81433922  1
  Se  Se195  1  0.58694189  0.58967377  0.29717084  1
  Se  Se196  1  0.58992133  0.58810380  0.80943516  1
  Se  Se197  1  0.58348958  0.92110677  0.29931329  1
  Se  Se198  1  0.58419466  0.91548849  0.81142128  1
  Se  Se199  1  0.91160218  0.24163483  0.30666148  1
  Se  Se200  1  0.90927920  0.24666372  0.81585118  1
  Se  Se201  1  0.93563083  0.59841966  0.29094310  1
  Se  Se202  1  0.91735741  0.58812961  0.80848106  1
  Se  Se203  1  0.92945106  0.92766604  0.29235208  1
  Se  Se204  1  0.91769775  0.91818379  0.81124025  1
  Se  Se205  1  0.07840440  0.08275888  0.29728309  1
  Se  Se206  1  0.08796975  0.08958116  0.80060548  1
  Se  Se207  1  0.08240987  0.41517169  0.31043141  1
  Se  Se208  1  0.08553924  0.42506175  0.81431417  1
  Se  Se209  1  0.11229246  0.77023357  0.29143670  1
  Se  Se210  1  0.07819635  0.74967717  0.80430660  1
  Se  Se211  1  0.41962464  0.08456100  0.29997722  1
  Se  Se212  1  0.42262781  0.08051245  0.81456582  1
  Se  Se213  1  0.41954548  0.42305570  0.30316176  1
  Se  Se214  1  0.42675113  0.42621499  0.81748867  1
  Se  Se215  1  0.42082444  0.75210316  0.29792129  1
  Se  Se216  1  0.42129211  0.74818230  0.81267154  1
  Se  Se217  1  0.74693013  0.08485010  0.30085943  1
  Se  Se218  1  0.74945354  0.07770667  0.81075623  1
  Se  Se219  1  0.75024265  0.40946237  0.28988205  1
  Se  Se220  1  0.75469201  0.42448200  0.81002828  1
  Se  Se221  1  0.77909608  0.77934115  0.29443115  1
  Se  Se222  1  0.74891550  0.75011120  0.81129952  1
  Se  Se223  1  0.24528034  0.08118161  0.19484178  1
  Se  Se224  1  0.24649027  0.09454737  0.68770741  1
  Se  Se225  1  0.25597063  0.41072559  0.20098422  1
  Se  Se226  1  0.24290338  0.42266167  0.69653506  1
  Se  Se227  1  0.24551113  0.74949600  0.20682207  1
  Se  Se228  1  0.23606188  0.76415199  0.68713932  1
  Se  Se229  1  0.58597106  0.08217218  0.19377907  1
  Se  Se230  1  0.58706122  0.07723030  0.69562851  1
  Se  Se231  1  0.58447705  0.41850003  0.19414722  1
  Se  Se232  1  0.57763916  0.42116520  0.69346114  1
  Se  Se233  1  0.58658113  0.75088383  0.19575468  1
  Se  Se234  1  0.58608458  0.74198468  0.69922675  1
  Se  Se235  1  0.91920269  0.08110888  0.19540737  1
  Se  Se236  1  0.92017463  0.07842936  0.69865576  1
  Se  Se237  1  0.90746161  0.42702452  0.18969756  1
  Se  Se238  1  0.90769471  0.42247491  0.68991413  1
  Se  Se239  1  0.93310115  0.71701567  0.20167256  1
  Se  Se240  1  0.90938447  0.75496927  0.69951496  1
  Se  Se241  1  0.08821528  0.23885453  0.18091491  1
  Se  Se242  1  0.09086187  0.24670579  0.69028421  1
  Se  Se243  1  0.08843065  0.57241849  0.19668014  1
  Se  Se244  1  0.07621527  0.58798979  0.69633572  1
  Se  Se245  1  0.09157611  0.89548222  0.20429747  1
  Se  Se246  1  0.07828444  0.92595700  0.69656086  1
  Se  Se247  1  0.41517869  0.25311599  0.19827841  1
  Se  Se248  1  0.42697003  0.24327156  0.69578161  1
  Se  Se249  1  0.41658809  0.58836080  0.19624744  1
  Se  Se250  1  0.42308657  0.57247393  0.69049223  1
  Se  Se251  1  0.41739453  0.92288314  0.19309022  1
  Se  Se252  1  0.42902359  0.90425791  0.69358298  1
  Se  Se253  1  0.74875759  0.25042794  0.19376565  1
  Se  Se254  1  0.76141746  0.23509688  0.69310699  1
  Se  Se255  1  0.73593188  0.59673960  0.20055247  1
  Se  Se256  1  0.74842723  0.58494497  0.69475690  1
  Se  Se257  1  0.74693123  0.92130560  0.20127516  1
  Se  Se258  1  0.74562426  0.91745915  0.70406442  1
