# generated using pymatgen
data_In86Cu29Se144
_symmetry_space_group_name_H-M   'P 1'
_cell_length_a   17.59012963
_cell_length_b   17.58963742
_cell_length_c   23.45233676
_cell_angle_alpha   89.98570595
_cell_angle_beta   89.99292026
_cell_angle_gamma   90.00731720
_symmetry_Int_Tables_number   1
_chemical_formula_structural   In86Cu29Se144
_chemical_formula_sum   'In86 Cu29 Se144'
_cell_volume   7256.24651888
_cell_formula_units_Z   1
loop_
 _symmetry_equiv_pos_site_id
 _symmetry_equiv_pos_as_xyz
  1  'x, y, z'
loop_
 _atom_site_type_symbol
 _atom_site_label
 _atom_site_symmetry_multiplicity
 _atom_site_fract_x
 _atom_site_fract_y
 _atom_site_fract_z
 _atom_site_occupancy
  In  In0  1  0.00538805  0.15393057  0.13087387  1
  In  In1  1  -0.01041521  0.17626202  0.63244594  1
  In  In2  1  -0.03027185  0.50094143  0.12773589  1
  In  In3  1  -0.01107243  0.51064300  0.63331425  1
  In  In4  1  0.00848732  0.83654542  0.11193013  1
  In  In5  1  0.00057900  0.83458593  0.62416588  1
  In  In6  1  0.30384635  0.16741400  0.12108855  1
  In  In7  1  0.34876925  0.15286976  0.62814787  1
  In  In8  1  0.34132659  0.49853217  0.12401619  1
  In  In9  1  0.33146090  0.48669045  0.62546586  1
  In  In10  1  0.32762028  0.84915113  0.12862026  1
  In  In11  1  0.33531821  0.85614864  0.61821721  1
  In  In12  1  0.66395415  0.17064409  0.12113260  1
  In  In13  1  0.66806437  0.16667943  0.62393219  1
  In  In14  1  0.68756588  0.50647512  0.12324443  1
  In  In15  1  0.67064345  0.50166219  0.62491841  1
  In  In16  1  0.66952945  0.81430197  0.13182938  1
  In  In17  1  0.67268827  0.82020809  0.63667341  1
  In  In18  1  0.15850198  -0.00818015  0.37265639  1
  In  In19  1  0.16565747  0.00361675  0.87029147  1
  In  In20  1  0.15862635  0.33808967  0.37319681  1
  In  In21  1  0.16344186  0.32693488  0.87221235  1
  In  In22  1  0.16861320  0.68079612  0.37940035  1
  In  In23  1  0.16102072  0.68711738  0.88021742  1
  In  In24  1  0.49857048  0.01193228  0.37948317  1
  In  In25  1  0.50026160  -0.00727159  0.85598960  1
  In  In26  1  0.50428461  0.33420574  0.38670739  1
  In  In27  1  0.49842352  0.32894139  0.86114968  1
  In  In28  1  0.50025620  0.65080059  0.38484793  1
  In  In29  1  0.50628874  0.65956317  0.86782692  1
  In  In30  1  0.84524034  -0.00786478  0.38642479  1
  In  In31  1  0.82867483  -0.00969020  0.86477841  1
  In  In32  1  0.83705073  0.33353245  0.38320887  1
  In  In33  1  0.84079663  0.34061754  0.86807450  1
  In  In34  1  0.82684516  0.67439904  0.37897047  1
  In  In35  1  0.83958535  0.66944695  0.87449789  1
  In  In36  1  -0.00192295  0.15889270  0.37459026  1
  In  In37  1  0.01064218  0.17588759  0.86746388  1
  In  In38  1  -0.00256834  0.48639721  0.37072486  1
  In  In39  1  -0.01037604  0.49328148  0.87194458  1
  In  In40  1  -0.01707216  0.84684741  0.38031113  1
  In  In41  1  -0.00201805  0.83430612  0.87103012  1
  In  In42  1  0.34513720  0.16317820  0.37973645  1
  In  In43  1  0.32750762  0.15982031  0.86857161  1
  In  In44  1  0.34277114  0.50895724  0.38355384  1
  In  In45  1  0.34117005  0.49717636  0.86915575  1
  In  In46  1  0.31614485  0.83528150  0.38640420  1
  In  In47  1  0.31966342  0.83977814  0.87473157  1
  In  In48  1  0.66415911  0.17163543  0.38809554  1
  In  In49  1  0.66145727  0.16143398  0.86166315  1
  In  In50  1  0.66855154  0.50473065  0.38268063  1
  In  In51  1  0.68427699  0.51264681  0.86184051  1
  In  In52  1  0.69035906  0.83253156  0.37782439  1
  In  In53  1  0.67845605  0.84183771  0.86051796  1
  In  In54  1  0.16202387  -0.00058781  0.12161786  1
  In  In55  1  0.17629843  -0.00944939  0.62952885  1
  In  In56  1  0.16242520  0.31263589  0.11857285  1
  In  In57  1  0.16429648  0.33633255  0.63628404  1
  In  In58  1  0.14674396  0.67694096  0.11864591  1
  In  In59  1  0.15073320  0.66715215  0.62751187  1
  In  In60  1  0.49336318  -0.01447744  0.12590436  1
  In  In61  1  0.48778932  0.00764682  0.63136795  1
  In  In62  1  0.50159884  0.33909423  0.12385913  1
  In  In63  1  0.50407869  0.33247305  0.62421331  1
  In  In64  1  0.51074356  0.67549804  0.13145526  1
  In  In65  1  0.51854881  0.67345011  0.62861160  1
  In  In66  1  0.85081132  0.00264661  0.12420821  1
  In  In67  1  0.83407172  -0.00118426  0.62529056  1
  In  In68  1  0.83423746  0.34811797  0.12352718  1
  In  In69  1  0.83184751  0.33444989  0.62564322  1
  In  In70  1  0.83443578  0.66199663  0.11616171  1
  In  In71  1  0.83477927  0.66715503  0.62373526  1
  In  In72  1  -0.00677877  0.66919609  0.24602083  1
  In  In73  1  0.49928624  0.49524202  -0.00243612  1
  In  In74  1  0.32905904  0.32523136  0.25233329  1
  In  In75  1  0.67080410  0.33036331  0.26106143  1
  In  In76  1  0.15747970  0.50009304  -0.00720928  1
  In  In77  1  0.49908005  0.83018361  -0.00630737  1
  In  In78  1  0.33191897  0.67199454  0.75151495  1
  In  In79  1  0.50393072  0.83410963  0.50859802  1
  In  In80  1  0.16867159  0.16046412  0.50511594  1
  In  In81  1  0.33216553  0.66985571  0.26267409  1
  In  In82  1  0.83879427  0.16440352  -0.00498904  1
  In  In83  1  0.67243816  -0.00185692  0.25574426  1
  In  In84  1  0.49649304  0.15958339  -0.01453168  1
  In  In85  1  0.16668949  0.50361442  0.49753916  1
  Cu  Cu86  1  0.50921715  0.50003735  0.25673483  1
  Cu  Cu87  1  0.16067382  0.15270617  0.24926102  1
  Cu  Cu88  1  0.84064278  0.82753989  0.74685327  1
  Cu  Cu89  1  0.67169166  0.66651133  0.50493678  1
  Cu  Cu90  1  0.67598528  -0.01332794  -0.00558198  1
  Cu  Cu91  1  0.83791201  0.16996889  0.25710622  1
  Cu  Cu92  1  0.16224371  0.83831321  0.24735275  1
  Cu  Cu93  1  0.16087397  0.49971877  0.75386200  1
  Cu  Cu94  1  0.66892898  0.33929742  -0.00980297  1
  Cu  Cu95  1  0.16264024  0.49373653  0.24902802  1
  Cu  Cu96  1  0.16604554  0.16576512  0.74745845  1
  Cu  Cu97  1  0.00712850  -0.00135124  -0.00513639  1
  Cu  Cu98  1  0.50109682  0.83349199  0.25411426  1
  Cu  Cu99  1  0.00013395  -0.00164656  0.50251618  1
  Cu  Cu100  1  0.50196278  0.17264667  0.74339036  1
  Cu  Cu101  1  0.32456728  0.00714814  -0.00053464  1
  Cu  Cu102  1  0.48977923  0.15723345  0.24950434  1
  Cu  Cu103  1  -0.00435418  0.67019892  0.50350376  1
  Cu  Cu104  1  0.32599009  0.67039336  0.00312710  1
  Cu  Cu105  1  -0.00503086  0.33632597  0.50578640  1
  Cu  Cu106  1  0.66730945  0.00236326  0.50587676  1
  Cu  Cu107  1  0.67638437  0.66443697  -0.00421953  1
  Cu  Cu108  1  0.66914015  0.33871951  0.50639155  1
  Cu  Cu109  1  0.00025794  0.33307904  -0.00384026  1
  Cu  Cu110  1  0.16438191  0.83920300  0.75028502  1
  Cu  Cu111  1  0.33945715  0.32717850  0.50627378  1
  Cu  Cu112  1  0.50457669  0.49703889  0.74505215  1
  Cu  Cu113  1  0.83286727  0.49885589  0.74615964  1
  Cu  Cu114  1  0.83070458  0.16330869  0.74769156  1
  Se  Se115  1  0.08279597  0.08590758  0.05176136  1
  Se  Se116  1  0.07445572  0.07895079  0.56639693  1
  Se  Se117  1  0.07486056  0.41351423  0.06211053  1
  Se  Se118  1  0.07912187  0.41658370  0.56210167  1
  Se  Se119  1  0.08336228  0.75263365  0.04003227  1
  Se  Se120  1  0.08347286  0.75189667  0.55246410  1
  Se  Se121  1  0.41217818  0.07992060  0.05989941  1
  Se  Se122  1  0.41836037  0.07862537  0.54995625  1
  Se  Se123  1  0.40418442  0.40170095  0.05165305  1
  Se  Se124  1  0.42041688  0.41699497  0.55446787  1
  Se  Se125  1  0.41076141  0.74571700  0.06352413  1
  Se  Se126  1  0.41254124  0.74392400  0.56650895  1
  Se  Se127  1  0.74333236  0.07618623  0.05584113  1
  Se  Se128  1  0.75463438  0.08558592  0.55579077  1
  Se  Se129  1  0.74981114  0.41744520  0.04855884  1
  Se  Se130  1  0.75590661  0.42210510  0.55517981  1
  Se  Se131  1  0.74977451  0.75241161  0.05239752  1
  Se  Se132  1  0.75152359  0.75417246  0.55678063  1
  Se  Se133  1  0.25187909  0.25491496  0.04399172  1
  Se  Se134  1  0.25293944  0.25521511  0.56559346  1
  Se  Se135  1  0.25042892  0.58590662  0.06163739  1
  Se  Se136  1  0.25118664  0.58709229  0.56460169  1
  Se  Se137  1  0.24763418  0.91708222  0.05227375  1
  Se  Se138  1  0.24368131  0.91993828  0.54773118  1
  Se  Se139  1  0.58624341  0.25833887  0.04825216  1
  Se  Se140  1  0.58521096  0.24994750  0.55392951  1
  Se  Se141  1  0.58770954  0.59048152  0.05540492  1
  Se  Se142  1  0.58518596  0.58477651  0.55589639  1
  Se  Se143  1  0.59161487  0.91543832  0.05781139  1
  Se  Se144  1  0.59286088  0.92187504  0.56973193  1
  Se  Se145  1  0.92185710  0.25325787  0.06077128  1
  Se  Se146  1  0.91283401  0.24893248  0.55506511  1
  Se  Se147  1  0.92681768  0.59004619  0.04898778  1
  Se  Se148  1  0.91565037  0.58145062  0.55359399  1
  Se  Se149  1  0.91806226  0.92148410  0.04815913  1
  Se  Se150  1  0.91508499  0.91459811  0.55481092  1
  Se  Se151  1  0.07905431  0.25690426  0.44719794  1
  Se  Se152  1  0.08428074  0.24864948  0.94693942  1
  Se  Se153  1  0.07170964  0.59130979  0.43749973  1
  Se  Se154  1  0.06954227  0.59286201  0.93724598  1
  Se  Se155  1  0.08110693  0.91399119  0.44746970  1
  Se  Se156  1  0.08717505  0.91609802  0.93855981  1
  Se  Se157  1  0.42148648  0.24582823  0.45064575  1
  Se  Se158  1  0.40943888  0.25850853  0.93553373  1
  Se  Se159  1  0.41751312  0.58183189  0.45858583  1
  Se  Se160  1  0.40847752  0.59507707  0.94313825  1
  Se  Se161  1  0.41486613  0.92078116  0.44518884  1
  Se  Se162  1  0.41211647  0.93094019  0.94058603  1
  Se  Se163  1  0.75111422  0.25424360  0.45143692  1
  Se  Se164  1  0.74302727  0.24869039  0.93488681  1
  Se  Se165  1  0.75523444  0.58472982  0.45009915  1
  Se  Se166  1  0.75725279  0.57976785  0.94280052  1
  Se  Se167  1  0.75192673  0.91894295  0.45397208  1
  Se  Se168  1  0.75855156  0.90629943  0.94073327  1
  Se  Se169  1  0.25306154  0.07451158  0.44001500  1
  Se  Se170  1  0.24438632  0.08830477  0.94301065  1
  Se  Se171  1  0.25930014  0.40434671  0.44244347  1
  Se  Se172  1  0.25612792  0.41455533  0.93877943  1
  Se  Se173  1  0.26268367  0.73199095  0.45237466  1
  Se  Se174  1  0.24921265  0.75912552  0.95110393  1
  Se  Se175  1  0.58212918  0.08399809  0.45278084  1
  Se  Se176  1  0.59284064  0.06493402  0.93594428  1
  Se  Se177  1  0.58548813  0.42108025  0.45068188  1
  Se  Se178  1  0.58797051  0.41638270  0.92958474  1
  Se  Se179  1  0.59296175  0.74791061  0.44271113  1
  Se  Se180  1  0.59402644  0.74329129  0.93639670  1
  Se  Se181  1  0.91888807  0.08755729  0.45151603  1
  Se  Se182  1  0.92481213  0.07605248  0.93269621  1
  Se  Se183  1  0.91748214  0.42260697  0.45031411  1
  Se  Se184  1  0.91247558  0.41476898  0.94761087  1
  Se  Se185  1  0.91286225  0.75323718  0.44848154  1
  Se  Se186  1  0.90626618  0.76609867  0.94131286  1
  Se  Se187  1  0.23817658  0.23411544  0.31245882  1
  Se  Se188  1  0.24922072  0.24987121  0.80183743  1
  Se  Se189  1  0.23822473  0.57090214  0.31285161  1
  Se  Se190  1  0.23975173  0.58308704  0.81422819  1
  Se  Se191  1  0.24889949  0.91156152  0.30583317  1
  Se  Se192  1  0.25167952  0.92296691  0.79974190  1
  Se  Se193  1  0.56936336  0.23862979  0.30937853  1
  Se  Se194  1  0.58918917  0.25415691  0.79486952  1
  Se  Se195  1  0.58744328  0.58573833  0.31012477  1
  Se  Se196  1  0.58703940  0.58329610  0.79638994  1
  Se  Se197  1  0.58042696  0.91118711  0.31721593  1
  Se  Se198  1  0.58551518  0.91095209  0.79306645  1
  Se  Se199  1  0.91868175  0.25297498  0.31185567  1
  Se  Se200  1  0.91375454  0.24684456  0.80248653  1
  Se  Se201  1  0.91081837  0.58015428  0.31067861  1
  Se  Se202  1  0.91493337  0.58138183  0.80249482  1
  Se  Se203  1  0.90888375  0.92064565  0.30385923  1
  Se  Se204  1  0.92106654  0.91720427  0.79764857  1
  Se  Se205  1  0.07540750  0.07422258  0.30446340  1
  Se  Se206  1  0.08125928  0.08257368  0.79958216  1
  Se  Se207  1  0.07821446  0.40842539  0.29774891  1
  Se  Se208  1  0.07976312  0.41329794  0.80683685  1
  Se  Se209  1  0.08274400  0.75867571  0.30850794  1
  Se  Se210  1  0.08276567  0.75148772  0.80063594  1
  Se  Se211  1  0.40919907  0.07562943  0.30388055  1
  Se  Se212  1  0.41932561  0.08926202  0.79900423  1
  Se  Se213  1  0.42234355  0.41913577  0.31008228  1
  Se  Se214  1  0.41567928  0.41674689  0.79610573  1
  Se  Se215  1  0.42457822  0.75734611  0.32083651  1
  Se  Se216  1  0.42100780  0.76013768  0.81316526  1
  Se  Se217  1  0.75420874  0.09312449  0.31721146  1
  Se  Se218  1  0.74689768  0.07692894  0.79811052  1
  Se  Se219  1  0.75963036  0.42624497  0.31156141  1
  Se  Se220  1  0.74975295  0.41126811  0.79802676  1
  Se  Se221  1  0.75901668  0.75535618  0.30169882  1
  Se  Se222  1  0.75531148  0.74444263  0.80036965  1
  Se  Se223  1  0.24848996  0.07564968  0.19532598  1
  Se  Se224  1  0.25158981  0.08426533  0.69451595  1
  Se  Se225  1  0.24553639  0.41768044  0.18810919  1
  Se  Se226  1  0.24907570  0.42003600  0.70256233  1
  Se  Se227  1  0.24275246  0.75066193  0.19252382  1
  Se  Se228  1  0.24350042  0.75808194  0.68858668  1
  Se  Se229  1  0.57796520  0.08532030  0.18993664  1
  Se  Se230  1  0.58385739  0.08482117  0.69351358  1
  Se  Se231  1  0.58555032  0.42177543  0.19299343  1
  Se  Se232  1  0.58885087  0.41456162  0.69259299  1
  Se  Se233  1  0.58661840  0.74640370  0.20860776  1
  Se  Se234  1  0.58076831  0.75196718  0.70720554  1
  Se  Se235  1  0.91592430  0.08342044  0.20220759  1
  Se  Se236  1  0.91650437  0.08024848  0.69674953  1
  Se  Se237  1  0.91439631  0.40934164  0.20187025  1
  Se  Se238  1  0.91817983  0.41237130  0.69691127  1
  Se  Se239  1  0.91372529  0.76039175  0.18176815  1
  Se  Se240  1  0.92338417  0.74475525  0.69261161  1
  Se  Se241  1  0.08430470  0.24490740  0.19717632  1
  Se  Se242  1  0.07907960  0.25249429  0.70064948  1
  Se  Se243  1  0.08643766  0.57500493  0.18813857  1
  Se  Se244  1  0.07934818  0.58523016  0.70189229  1
  Se  Se245  1  0.07881547  0.91610095  0.19010248  1
  Se  Se246  1  0.08005412  0.91988748  0.69518425  1
  Se  Se247  1  0.41905759  0.24087766  0.18561075  1
  Se  Se248  1  0.41426246  0.25433000  0.69246745  1
  Se  Se249  1  0.42424257  0.57952461  0.19814636  1
  Se  Se250  1  0.41929529  0.58006843  0.69019500  1
  Se  Se251  1  0.41531869  0.91516937  0.20313127  1
  Se  Se252  1  0.41307394  0.91626279  0.69820286  1
  Se  Se253  1  0.75524450  0.24191776  0.19270835  1
  Se  Se254  1  0.74998260  0.24952501  0.69422996  1
  Se  Se255  1  0.75266439  0.59377515  0.19360125  1
  Se  Se256  1  0.75125574  0.58599511  0.69446065  1
  Se  Se257  1  0.75542176  0.91605654  0.18719728  1
  Se  Se258  1  0.75604384  0.91332738  0.69657288  1
