# generated using pymatgen
data_In86Cu29Se144
_symmetry_space_group_name_H-M   'P 1'
_cell_length_a   17.59784894
_cell_length_b   17.59225056
_cell_length_c   23.46307447
_cell_angle_alpha   90.03129507
_cell_angle_beta   90.01113864
_cell_angle_gamma   90.00035520
_symmetry_Int_Tables_number   1
_chemical_formula_structural   In86Cu29Se144
_chemical_formula_sum   'In86 Cu29 Se144'
_cell_volume   7263.83270732
_cell_formula_units_Z   1
loop_
 _symmetry_equiv_pos_site_id
 _symmetry_equiv_pos_as_xyz
  1  'x, y, z'
loop_
 _atom_site_type_symbol
 _atom_site_label
 _atom_site_symmetry_multiplicity
 _atom_site_fract_x
 _atom_site_fract_y
 _atom_site_fract_z
 _atom_site_occupancy
  In  In0  1  0.00928024  0.15945901  0.13241673  1
  In  In1  1  -0.00381372  0.17358681  0.62416686  1
  In  In2  1  -0.00073149  0.49571132  0.12684651  1
  In  In3  1  -0.02602905  0.46947301  0.60247479  1
  In  In4  1  -0.01076268  0.83739081  0.13633867  1
  In  In5  1  0.01301715  0.83399820  0.62113601  1
  In  In6  1  0.33711899  0.17329817  0.11546301  1
  In  In7  1  0.33196780  0.16683797  0.62455902  1
  In  In8  1  0.33151089  0.48573669  0.11697244  1
  In  In9  1  0.31568888  0.49731775  0.62662884  1
  In  In10  1  0.32883893  0.83776650  0.12552119  1
  In  In11  1  0.33234674  0.84545918  0.62930055  1
  In  In12  1  0.66358468  0.16893014  0.13068955  1
  In  In13  1  0.68045367  0.18299067  0.61191117  1
  In  In14  1  0.65908778  0.47524115  0.10156303  1
  In  In15  1  0.68258022  0.49163561  0.64126731  1
  In  In16  1  0.68658441  0.83095802  0.12693895  1
  In  In17  1  0.66165620  0.83677800  0.63324478  1
  In  In18  1  0.15269634  0.01525041  0.38864736  1
  In  In19  1  0.17170529  0.00754931  0.86424462  1
  In  In20  1  0.14644987  0.35041545  0.39456995  1
  In  In21  1  0.16812635  0.32597205  0.87480633  1
  In  In22  1  0.15830429  0.67889497  0.38484932  1
  In  In23  1  0.15409129  0.65547913  0.87505062  1
  In  In24  1  0.51507517  0.01198553  0.36622319  1
  In  In25  1  0.50258464  0.02917543  0.87837927  1
  In  In26  1  0.50392419  0.31813266  0.37218788  1
  In  In27  1  0.49849037  0.33310797  0.86904360  1
  In  In28  1  0.50795894  0.67159551  0.37437536  1
  In  In29  1  0.50197720  0.64284469  0.87697870  1
  In  In30  1  0.84401858  0.00901662  0.37116179  1
  In  In31  1  0.83933000  -0.00621533  0.87099354  1
  In  In32  1  0.83485002  0.33353707  0.37398119  1
  In  In33  1  0.83903462  0.34561739  0.86656843  1
  In  In34  1  0.83751901  0.63353874  0.38458145  1
  In  In35  1  0.81631837  0.66053546  0.86160401  1
  In  In36  1  0.00192496  0.17263988  0.37761091  1
  In  In37  1  0.00618500  0.17746916  0.86892852  1
  In  In38  1  -0.00640210  0.49937577  0.37146985  1
  In  In39  1  0.00812542  0.49198487  0.88293383  1
  In  In40  1  0.00700217  0.84421460  0.37453460  1
  In  In41  1  -0.01510643  0.83892223  0.86735541  1
  In  In42  1  0.33166949  0.16611148  0.38208941  1
  In  In43  1  0.33300550  0.16805575  0.86776131  1
  In  In44  1  0.33144400  0.48555449  0.37550666  1
  In  In45  1  0.34414485  0.48040614  0.87725480  1
  In  In46  1  0.32909598  0.82554065  0.37834547  1
  In  In47  1  0.32268606  0.83855802  0.87213659  1
  In  In48  1  0.67009720  0.17216630  0.37297174  1
  In  In49  1  0.64973459  0.17413982  0.88589646  1
  In  In50  1  0.70335704  0.48892933  0.38662988  1
  In  In51  1  0.66469162  0.49237651  0.86689705  1
  In  In52  1  0.65527123  0.83378021  0.37603424  1
  In  In53  1  0.67933196  0.83055881  0.87318602  1
  In  In54  1  0.15874165  -0.00002110  0.12735736  1
  In  In55  1  0.16741512  0.00430472  0.62339470  1
  In  In56  1  0.16207782  0.32533582  0.12120104  1
  In  In57  1  0.16259660  0.33403772  0.62567659  1
  In  In58  1  0.16222656  0.64997897  0.12572490  1
  In  In59  1  0.15326867  0.65422870  0.61379591  1
  In  In60  1  0.51856067  0.02194063  0.11226825  1
  In  In61  1  0.48919416  0.00186123  0.62877181  1
  In  In62  1  0.50784681  0.32639237  0.11837322  1
  In  In63  1  0.51167493  0.32434691  0.63051574  1
  In  In64  1  0.51904924  0.65574957  0.12299210  1
  In  In65  1  0.51337566  0.67334318  0.63354263  1
  In  In66  1  0.83482378  0.00684319  0.13699476  1
  In  In67  1  0.82619551  0.02455315  0.62524068  1
  In  In68  1  0.82775959  0.34078012  0.12757273  1
  In  In69  1  0.83502624  0.33130943  0.62816110  1
  In  In70  1  0.84334338  0.65630031  0.12879475  1
  In  In71  1  0.83212651  0.65575206  0.62915226  1
  In  In72  1  0.66743573  0.00760609  0.75489670  1
  In  In73  1  0.33408313  0.66763816  0.74940067  1
  In  In74  1  0.49326834  0.84137711  0.49868288  1
  In  In75  1  0.32979241  0.32829635  0.24506121  1
  In  In76  1  0.49815960  0.50303357  0.50450415  1
  In  In77  1  0.83371683  0.83326711  0.50510955  1
  In  In78  1  0.67776739  0.66243675  0.25446407  1
  In  In79  1  0.32853814  0.00075120  0.25566279  1
  In  In80  1  0.83611540  0.83044767  -0.00546568  1
  In  In81  1  0.32787877  0.66355156  0.24611261  1
  In  In82  1  0.49454456  0.82785967  0.00566766  1
  In  In83  1  0.82657072  0.17267352  0.00244649  1
  In  In84  1  0.15961050  0.83140382  -0.00174476  1
  In  In85  1  -0.00090894  0.66669150  0.74426435  1
  Cu  Cu86  1  0.83201402  0.83238683  0.25824636  1
  Cu  Cu87  1  0.51255611  0.49782003  0.24370750  1
  Cu  Cu88  1  0.83393902  0.49252640  0.24706249  1
  Cu  Cu89  1  0.32805734  0.65516876  0.00179715  1
  Cu  Cu90  1  0.66517034  0.00884601  0.49490763  1
  Cu  Cu91  1  0.33090360  0.32771781  0.50356848  1
  Cu  Cu92  1  0.50227460  0.84442967  0.24679947  1
  Cu  Cu93  1  0.83513940  0.17273170  0.74980923  1
  Cu  Cu94  1  0.00439424  0.33002313  -0.00126981  1
  Cu  Cu95  1  0.83617532  0.16884322  0.25380622  1
  Cu  Cu96  1  0.16426766  0.49144075  0.75178357  1
  Cu  Cu97  1  0.16945818  0.83862113  0.74442773  1
  Cu  Cu98  1  0.00174713  0.00681779  0.50079889  1
  Cu  Cu99  1  0.15387955  0.50468504  0.25585269  1
  Cu  Cu100  1  0.33299350  0.00177281  0.50443910  1
  Cu  Cu101  1  0.49839825  0.16485013  0.74755128  1
  Cu  Cu102  1  0.15268585  0.83484996  0.25735134  1
  Cu  Cu103  1  0.66787276  0.33524555  0.50159144  1
  Cu  Cu104  1  0.50227111  0.49473333  0.75087354  1
  Cu  Cu105  1  0.66632847  0.65413801  -0.00844708  1
  Cu  Cu106  1  0.33397865  0.32785826  -0.00734255  1
  Cu  Cu107  1  0.33490507  0.00966243  -0.00826631  1
  Cu  Cu108  1  0.16664577  0.17175373  0.25806445  1
  Cu  Cu109  1  0.16568654  0.16568297  0.74536626  1
  Cu  Cu110  1  -0.00219623  0.65964919  0.00227925  1
  Cu  Cu111  1  0.00460448  0.00799705  0.00108388  1
  Cu  Cu112  1  0.50223360  0.83409519  0.75482816  1
  Cu  Cu113  1  0.33201656  0.66894669  0.50280915  1
  Cu  Cu114  1  -0.00120312  0.66332747  0.49793187  1
  Se  Se115  1  0.09009787  0.08691072  0.05456261  1
  Se  Se116  1  0.08287809  0.08805104  0.55726339  1
  Se  Se117  1  0.08330751  0.41570993  0.05597881  1
  Se  Se118  1  0.09759610  0.42811788  0.55473955  1
  Se  Se119  1  0.07005422  0.74740075  0.06265374  1
  Se  Se120  1  0.08320660  0.74998615  0.54741321  1
  Se  Se121  1  0.41857271  0.08753860  0.04856223  1
  Se  Se122  1  0.41906587  0.08468690  0.55512642  1
  Se  Se123  1  0.41753582  0.40587935  0.05181213  1
  Se  Se124  1  0.41075367  0.41042442  0.56387233  1
  Se  Se125  1  0.40464474  0.73315515  0.06565112  1
  Se  Se126  1  0.41276132  0.74487822  0.56392519  1
  Se  Se127  1  0.74819415  0.07304403  0.06118137  1
  Se  Se128  1  0.75335430  0.09100736  0.54369310  1
  Se  Se129  1  0.76854168  0.41722553  0.04469794  1
  Se  Se130  1  0.74764424  0.41599233  0.55968692  1
  Se  Se131  1  0.74701918  0.73312950  0.05351116  1
  Se  Se132  1  0.74027972  0.74855247  0.56414844  1
  Se  Se133  1  0.24835297  0.25051884  0.04991891  1
  Se  Se134  1  0.24602230  0.24809365  0.55735734  1
  Se  Se135  1  0.24447643  0.57384074  0.05542944  1
  Se  Se136  1  0.24948721  0.58015277  0.54999565  1
  Se  Se137  1  0.25637150  0.92667619  0.05197215  1
  Se  Se138  1  0.25049924  0.91591823  0.55502313  1
  Se  Se139  1  0.59308650  0.24439828  0.05262639  1
  Se  Se140  1  0.57845657  0.25063666  0.54822020  1
  Se  Se141  1  0.57816895  0.57477640  0.04411969  1
  Se  Se142  1  0.59071226  0.58147563  0.56813324  1
  Se  Se143  1  0.59568035  0.91101328  0.05822370  1
  Se  Se144  1  0.58998623  0.92781281  0.55804983  1
  Se  Se145  1  0.92668964  0.25033171  0.06266722  1
  Se  Se146  1  0.90252758  0.24181741  0.55580638  1
  Se  Se147  1  0.91505332  0.57575839  0.05427460  1
  Se  Se148  1  0.91122565  0.58597070  0.55208995  1
  Se  Se149  1  0.92202034  0.92585701  0.05795897  1
  Se  Se150  1  0.91934752  0.92998392  0.56291806  1
  Se  Se151  1  0.09248838  0.23839196  0.45057872  1
  Se  Se152  1  0.08639826  0.24467200  0.94705283  1
  Se  Se153  1  0.08017024  0.58003566  0.44241313  1
  Se  Se154  1  0.08749378  0.57879603  0.95334865  1
  Se  Se155  1  0.08357985  0.91542039  0.45322828  1
  Se  Se156  1  0.07434948  0.92301264  0.93707324  1
  Se  Se157  1  0.41659654  0.25250894  0.44655963  1
  Se  Se158  1  0.41743806  0.24656328  0.93810680  1
  Se  Se159  1  0.40911352  0.59336723  0.43741877  1
  Se  Se160  1  0.41268889  0.57495691  0.94749076  1
  Se  Se161  1  0.41054144  0.93198208  0.43393564  1
  Se  Se162  1  0.41353412  0.92014562  0.93901388  1
  Se  Se163  1  0.74987276  0.25357143  0.44479377  1
  Se  Se164  1  0.74646422  0.26464354  0.93911080  1
  Se  Se165  1  0.73034875  0.59956683  0.45418544  1
  Se  Se166  1  0.75060199  0.57636961  0.93690232  1
  Se  Se167  1  0.74463231  0.92160904  0.43990126  1
  Se  Se168  1  0.74376342  0.92853585  0.94529531  1
  Se  Se169  1  0.24948546  0.08679348  0.45223370  1
  Se  Se170  1  0.24748321  0.08658926  0.93822224  1
  Se  Se171  1  0.25270021  0.41935757  0.45293812  1
  Se  Se172  1  0.24772372  0.41355517  0.94430826  1
  Se  Se173  1  0.24855515  0.75529958  0.45305258  1
  Se  Se174  1  0.25437170  0.73871685  0.94156467  1
  Se  Se175  1  0.58143736  0.09179861  0.44327321  1
  Se  Se176  1  0.58982752  0.07878587  0.95640256  1
  Se  Se177  1  0.58581530  0.41543578  0.43961738  1
  Se  Se178  1  0.56644944  0.43047298  0.93480065  1
  Se  Se179  1  0.58871890  0.74261795  0.45258396  1
  Se  Se180  1  0.58697405  0.74430589  0.93914168  1
  Se  Se181  1  0.91778989  0.08668104  0.44630860  1
  Se  Se182  1  0.92010242  0.08286959  0.94096563  1
  Se  Se183  1  0.89381256  0.43829999  0.43928754  1
  Se  Se184  1  0.91819439  0.41161090  0.94771809  1
  Se  Se185  1  0.91908919  0.74634412  0.43844831  1
  Se  Se186  1  0.92303029  0.73579541  0.93573675  1
  Se  Se187  1  0.24300584  0.25453294  0.31709384  1
  Se  Se188  1  0.24826889  0.24936352  0.79968506  1
  Se  Se189  1  0.24319350  0.57853626  0.31303243  1
  Se  Se190  1  0.24706785  0.57522724  0.80932347  1
  Se  Se191  1  0.23740003  0.91214173  0.31598055  1
  Se  Se192  1  0.25357562  0.92005090  0.79748607  1
  Se  Se193  1  0.59138915  0.25360427  0.30044578  1
  Se  Se194  1  0.58327420  0.24528992  0.80287207  1
  Se  Se195  1  0.58361389  0.57377501  0.31151493  1
  Se  Se196  1  0.58442915  0.58475234  0.79819319  1
  Se  Se197  1  0.59036320  0.91982200  0.30068704  1
  Se  Se198  1  0.57656163  0.91777082  0.81753357  1
  Se  Se199  1  0.91984621  0.25196016  0.30628893  1
  Se  Se200  1  0.91994021  0.25582867  0.80145351  1
  Se  Se201  1  0.91302391  0.58245098  0.29885533  1
  Se  Se202  1  0.92040134  0.57638960  0.81099665  1
  Se  Se203  1  0.91970593  0.91809526  0.30425888  1
  Se  Se204  1  0.91899618  0.92488533  0.79540736  1
  Se  Se205  1  0.08251159  0.08452648  0.30692319  1
  Se  Se206  1  0.07976080  0.08506325  0.80050628  1
  Se  Se207  1  0.08047652  0.41220822  0.30742626  1
  Se  Se208  1  0.08224758  0.41165868  0.80852106  1
  Se  Se209  1  0.07531692  0.74467645  0.30758660  1
  Se  Se210  1  0.09153690  0.75873840  0.80742930  1
  Se  Se211  1  0.42142323  0.09784409  0.30441925  1
  Se  Se212  1  0.41537951  0.07980192  0.79916682  1
  Se  Se213  1  0.42567006  0.42134300  0.30226929  1
  Se  Se214  1  0.41257687  0.41029830  0.79563654  1
  Se  Se215  1  0.42370044  0.75874864  0.30325653  1
  Se  Se216  1  0.42350519  0.75274383  0.81545112  1
  Se  Se217  1  0.75200844  0.08393425  0.30512104  1
  Se  Se218  1  0.75543985  0.09851929  0.81638386  1
  Se  Se219  1  0.74824623  0.41184245  0.30074713  1
  Se  Se220  1  0.74970293  0.41609223  0.79670849  1
  Se  Se221  1  0.75972954  0.75055093  0.32151924  1
  Se  Se222  1  0.76752129  0.77060615  0.79956409  1
  Se  Se223  1  0.24498013  0.09453908  0.19211341  1
  Se  Se224  1  0.25198473  0.08185282  0.69488666  1
  Se  Se225  1  0.23735443  0.42727417  0.19454462  1
  Se  Se226  1  0.24981606  0.41026909  0.69953244  1
  Se  Se227  1  0.23360025  0.76048964  0.19254053  1
  Se  Se228  1  0.23961637  0.74765436  0.68586946  1
  Se  Se229  1  0.59121793  0.07393727  0.19697924  1
  Se  Se230  1  0.58496126  0.09202565  0.68558417  1
  Se  Se231  1  0.58892775  0.41314030  0.18706822  1
  Se  Se232  1  0.58679017  0.41059860  0.70020796  1
  Se  Se233  1  0.58328554  0.75580179  0.19323576  1
  Se  Se234  1  0.58977548  0.75256152  0.70713076  1
  Se  Se235  1  0.92297820  0.08383074  0.20324043  1
  Se  Se236  1  0.91721565  0.08843303  0.69726956  1
  Se  Se237  1  0.92106854  0.41012073  0.19696169  1
  Se  Se238  1  0.91817209  0.41775665  0.69438758  1
  Se  Se239  1  0.90935236  0.74790422  0.20023703  1
  Se  Se240  1  0.91324899  0.76024179  0.68598825  1
  Se  Se241  1  0.08607002  0.25232223  0.19904702  1
  Se  Se242  1  0.08125146  0.25154986  0.69542563  1
  Se  Se243  1  0.07423610  0.58697675  0.19903181  1
  Se  Se244  1  0.08579881  0.57006043  0.69047024  1
  Se  Se245  1  0.07890692  0.92113289  0.19876363  1
  Se  Se246  1  0.08375664  0.91988909  0.69325130  1
  Se  Se247  1  0.42581996  0.23963573  0.19161757  1
  Se  Se248  1  0.41638315  0.24894793  0.69425317  1
  Se  Se249  1  0.42370961  0.57454604  0.18825523  1
  Se  Se250  1  0.42305120  0.57507061  0.68882566  1
  Se  Se251  1  0.42008811  0.92087805  0.18734706  1
  Se  Se252  1  0.41877513  0.91561233  0.70162317  1
  Se  Se253  1  0.75577579  0.24754187  0.19465396  1
  Se  Se254  1  0.74611470  0.25027852  0.69670000  1
  Se  Se255  1  0.74702648  0.56814989  0.18517947  1
  Se  Se256  1  0.74833749  0.59222645  0.70506016  1
  Se  Se257  1  0.75342331  0.91526451  0.20115152  1
  Se  Se258  1  0.75751003  0.92113163  0.69230995  1
