# generated using pymatgen
data_In86Cu29Se144
_symmetry_space_group_name_H-M   'P 1'
_cell_length_a   17.57620516
_cell_length_b   17.57538866
_cell_length_c   23.44065633
_cell_angle_alpha   90.00821434
_cell_angle_beta   90.00845915
_cell_angle_gamma   90.00313612
_symmetry_Int_Tables_number   1
_chemical_formula_structural   In86Cu29Se144
_chemical_formula_sum   'In86 Cu29 Se144'
_cell_volume   7241.02102862
_cell_formula_units_Z   1
loop_
 _symmetry_equiv_pos_site_id
 _symmetry_equiv_pos_as_xyz
  1  'x, y, z'
loop_
 _atom_site_type_symbol
 _atom_site_label
 _atom_site_symmetry_multiplicity
 _atom_site_fract_x
 _atom_site_fract_y
 _atom_site_fract_z
 _atom_site_occupancy
  In  In0  1  -0.00322359  0.15974912  0.12319642  1
  In  In1  1  -0.01216035  0.17170516  0.62890205  1
  In  In2  1  -0.01335680  0.49116774  0.12714352  1
  In  In3  1  0.00404920  0.49061816  0.62247826  1
  In  In4  1  0.00109498  0.84905417  0.12435582  1
  In  In5  1  0.00771036  0.84168263  0.61697772  1
  In  In6  1  0.32439128  0.16589817  0.12433938  1
  In  In7  1  0.33490462  0.15441436  0.61827334  1
  In  In8  1  0.34937236  0.50877185  0.11666968  1
  In  In9  1  0.33480030  0.51342321  0.61950137  1
  In  In10  1  0.35877549  0.81628262  0.15472049  1
  In  In11  1  0.33592114  0.82828838  0.61227721  1
  In  In12  1  0.67332255  0.15033075  0.12216614  1
  In  In13  1  0.67067821  0.16142765  0.62615365  1
  In  In14  1  0.66633634  0.52071288  0.12442845  1
  In  In15  1  0.66379731  0.49927881  0.63515231  1
  In  In16  1  0.66407441  0.83387874  0.12220654  1
  In  In17  1  0.66677556  0.83304395  0.62230923  1
  In  In18  1  0.15419899  -0.00592161  0.37158071  1
  In  In19  1  0.16874068  0.01165398  0.87813293  1
  In  In20  1  0.16561720  0.34533576  0.37862233  1
  In  In21  1  0.14776628  0.33238588  0.87016906  1
  In  In22  1  0.17540498  0.66377395  0.37391258  1
  In  In23  1  0.16386936  0.66742296  0.87388796  1
  In  In24  1  0.50567406  -0.00427861  0.37058668  1
  In  In25  1  0.50561923  -0.01501686  0.88080304  1
  In  In26  1  0.48503372  0.32592157  0.38005315  1
  In  In27  1  0.52761659  0.32798416  0.88636812  1
  In  In28  1  0.51840066  0.69535369  0.35029871  1
  In  In29  1  0.50970353  0.65553423  0.88928946  1
  In  In30  1  0.82443632  0.00252639  0.37208549  1
  In  In31  1  0.83429865  0.00052694  0.87104838  1
  In  In32  1  0.83010270  0.31514528  0.37448295  1
  In  In33  1  0.81983554  0.31746706  0.87119942  1
  In  In34  1  0.83379152  0.68857628  0.37418043  1
  In  In35  1  0.82132950  0.70801550  0.88585305  1
  In  In36  1  -0.02365739  0.15073366  0.36016008  1
  In  In37  1  -0.00504348  0.16455372  0.87567843  1
  In  In38  1  0.01479628  0.50040910  0.37280292  1
  In  In39  1  0.00050399  0.49610967  0.86997768  1
  In  In40  1  -0.01432413  0.84931780  0.38392584  1
  In  In41  1  -0.04410652  0.84662251  0.88778155  1
  In  In42  1  0.34995197  0.17109873  0.37991287  1
  In  In43  1  0.32995176  0.14957689  0.88376031  1
  In  In44  1  0.32378265  0.50359063  0.37547674  1
  In  In45  1  0.34975367  0.50758402  0.87839591  1
  In  In46  1  0.33577737  0.83472857  0.36952845  1
  In  In47  1  0.33763221  0.84151408  0.88272894  1
  In  In48  1  0.68025571  0.15009431  0.38321871  1
  In  In49  1  0.67983819  0.17060747  0.87506411  1
  In  In50  1  0.65435025  0.50822442  0.37464379  1
  In  In51  1  0.66259909  0.49352173  0.87279880  1
  In  In52  1  0.66323429  0.84248299  0.36948923  1
  In  In53  1  0.66784598  0.83472919  0.86768408  1
  In  In54  1  0.15767024  0.00423539  0.13242465  1
  In  In55  1  0.16919558  -0.01063246  0.62208334  1
  In  In56  1  0.16777617  0.31623627  0.12344037  1
  In  In57  1  0.14920920  0.32438294  0.62067315  1
  In  In58  1  0.17238836  0.68030541  0.12859235  1
  In  In59  1  0.17253438  0.66748575  0.61225331  1
  In  In60  1  0.52827839  -0.03277524  0.15801773  1
  In  In61  1  0.51268743  0.00487460  0.61885011  1
  In  In62  1  0.49078945  0.33381032  0.12070599  1
  In  In63  1  0.51611546  0.33354184  0.62905586  1
  In  In64  1  0.49981762  0.68053908  0.12410780  1
  In  In65  1  0.50122351  0.67447388  0.62291498  1
  In  In66  1  0.83470945  0.00436501  0.11972021  1
  In  In67  1  0.83162630  0.00029479  0.62332844  1
  In  In68  1  0.84398247  0.33062585  0.12655830  1
  In  In69  1  0.84168883  0.32704954  0.63132545  1
  In  In70  1  0.81948630  0.66800450  0.12323447  1
  In  In71  1  0.82025664  0.66895745  0.62491483  1
  In  In72  1  0.33799119  -0.00034219  0.74714805  1
  In  In73  1  0.16638007  0.16999334  0.49461776  1
  In  In74  1  0.00062577  0.66771684  0.25176908  1
  In  In75  1  0.82679383  0.49813623  0.00031970  1
  In  In76  1  0.33176574  0.33285629  0.74715960  1
  In  In77  1  0.16882168  0.83913832  0.00708293  1
  In  In78  1  0.66899605  0.32605457  0.24584513  1
  In  In79  1  0.83565043  0.50024503  0.50874584  1
  In  In80  1  -0.00631544  0.66979624  0.75624680  1
  In  In81  1  0.16905124  0.49671664  -0.00624174  1
  In  In82  1  0.49013314  0.50116608  0.49645587  1
  In  In83  1  0.32689501  0.33338605  0.25310810  1
  In  In84  1  0.50696189  0.15622078  0.00486170  1
  In  In85  1  0.33759363  0.66848161  0.75184769  1
  Cu  Cu86  1  0.00696077  0.67167847  0.49276627  1
  Cu  Cu87  1  0.83019774  0.49782003  0.24895199  1
  Cu  Cu88  1  0.82777812  0.84105343  0.24806906  1
  Cu  Cu89  1  -0.00050569  0.33314772  0.49883684  1
  Cu  Cu90  1  0.15730102  0.16755443  0.24911441  1
  Cu  Cu91  1  -0.00269189  0.00584230  0.00122073  1
  Cu  Cu92  1  0.83166555  0.50364337  0.75275532  1
  Cu  Cu93  1  0.50515483  0.16104184  0.25584721  1
  Cu  Cu94  1  0.15698982  0.83506492  0.74728401  1
  Cu  Cu95  1  0.66481670  -0.00467607  0.49893733  1
  Cu  Cu96  1  0.51211429  0.16634728  0.75078119  1
  Cu  Cu97  1  0.33359506  0.33156412  0.00057753  1
  Cu  Cu98  1  0.66644245  0.67427095  0.49606257  1
  Cu  Cu99  1  0.16585556  0.83775091  0.25384286  1
  Cu  Cu100  1  0.83355603  0.16259262  0.74972933  1
  Cu  Cu101  1  0.82918924  0.84158074  0.74736830  1
  Cu  Cu102  1  0.66011259  0.67650999  0.00013981  1
  Cu  Cu103  1  0.51096180  0.49446999  0.75847226  1
  Cu  Cu104  1  0.33861583  -0.00789150  0.49472117  1
  Cu  Cu105  1  0.50108027  0.51054246  0.24565641  1
  Cu  Cu106  1  0.16043569  0.49528140  0.74603963  1
  Cu  Cu107  1  0.33788660  0.66847511  0.48856058  1
  Cu  Cu108  1  -0.00104189  0.32270134  -0.00153654  1
  Cu  Cu109  1  0.66303971  0.32017479  0.50340674  1
  Cu  Cu110  1  0.16799056  0.49435138  0.24836698  1
  Cu  Cu111  1  0.15450523  0.16970215  0.75282854  1
  Cu  Cu112  1  -0.00557323  0.00494487  0.49758202  1
  Cu  Cu113  1  0.50789123  0.82990721  0.74861967  1
  Cu  Cu114  1  0.33634324  -0.00398441  0.01383193  1
  Se  Se115  1  0.08716610  0.08290049  0.05373793  1
  Se  Se116  1  0.07859996  0.08218576  0.55920297  1
  Se  Se117  1  0.07702601  0.40869502  0.05669756  1
  Se  Se118  1  0.08593780  0.41757006  0.54796533  1
  Se  Se119  1  0.07370950  0.74418976  0.06015262  1
  Se  Se120  1  0.08859701  0.75467398  0.54972140  1
  Se  Se121  1  0.42011533  0.07529642  0.07146288  1
  Se  Se122  1  0.41864621  0.07617696  0.55044703  1
  Se  Se123  1  0.41918356  0.41759230  0.04687978  1
  Se  Se124  1  0.41445855  0.40900369  0.56449698  1
  Se  Se125  1  0.40729495  0.76095296  0.06110359  1
  Se  Se126  1  0.42210217  0.74569416  0.54676160  1
  Se  Se127  1  0.75413181  0.08288252  0.04657769  1
  Se  Se128  1  0.74824597  0.08062668  0.55249924  1
  Se  Se129  1  0.74192600  0.41314019  0.06674951  1
  Se  Se130  1  0.73981873  0.40813780  0.56165777  1
  Se  Se131  1  0.75071880  0.75452346  0.05078915  1
  Se  Se132  1  0.75200072  0.75325856  0.55068861  1
  Se  Se133  1  0.24951351  0.24557609  0.04855446  1
  Se  Se134  1  0.25588222  0.25621314  0.55888353  1
  Se  Se135  1  0.25008725  0.59094375  0.05653414  1
  Se  Se136  1  0.25532431  0.58431245  0.54378345  1
  Se  Se137  1  0.25689538  0.91627139  0.07492736  1
  Se  Se138  1  0.25064832  0.91495668  0.54923637  1
  Se  Se139  1  0.59117336  0.25472430  0.06253312  1
  Se  Se140  1  0.57929687  0.24059944  0.55815121  1
  Se  Se141  1  0.57917295  0.59132183  0.05372370  1
  Se  Se142  1  0.59165528  0.58512357  0.55524891  1
  Se  Se143  1  0.57534656  0.92129046  0.06105865  1
  Se  Se144  1  0.58089656  0.91001450  0.55097587  1
  Se  Se145  1  0.91415728  0.24479160  0.05349123  1
  Se  Se146  1  0.91496889  0.25158524  0.55277212  1
  Se  Se147  1  0.91965373  0.58835176  0.05956530  1
  Se  Se148  1  0.92965786  0.59660391  0.56120887  1
  Se  Se149  1  0.91631231  0.91585892  0.04989388  1
  Se  Se150  1  0.91490046  0.91843976  0.55273724  1
  Se  Se151  1  0.07075541  0.25072839  0.43366644  1
  Se  Se152  1  0.08589277  0.24395149  0.94432897  1
  Se  Se153  1  0.08922203  0.58376747  0.44417275  1
  Se  Se154  1  0.07231239  0.58868328  0.94247360  1
  Se  Se155  1  0.08234705  0.91952041  0.45069597  1
  Se  Se156  1  0.07662249  0.92105852  0.94026783  1
  Se  Se157  1  0.41690878  0.24921383  0.45717800  1
  Se  Se158  1  0.41569356  0.24908407  0.94105779  1
  Se  Se159  1  0.42384564  0.59658908  0.42666772  1
  Se  Se160  1  0.40410475  0.59786319  0.95223238  1
  Se  Se161  1  0.42247998  0.91156911  0.44021060  1
  Se  Se162  1  0.41813530  0.91792894  0.95499740  1
  Se  Se163  1  0.75283994  0.24382089  0.45142706  1
  Se  Se164  1  0.74319245  0.25617329  0.95165595  1
  Se  Se165  1  0.74864468  0.58830978  0.44154286  1
  Se  Se166  1  0.74349721  0.59528624  0.93996806  1
  Se  Se167  1  0.74915982  0.91491924  0.44284655  1
  Se  Se168  1  0.77844391  0.88781150  0.93150212  1
  Se  Se169  1  0.25574259  0.07515284  0.43764336  1
  Se  Se170  1  0.25051086  0.07532957  0.95782693  1
  Se  Se171  1  0.26486327  0.40726874  0.44441320  1
  Se  Se172  1  0.25796855  0.40530582  0.93220362  1
  Se  Se173  1  0.25064098  0.75445805  0.44117024  1
  Se  Se174  1  0.25335149  0.74459048  0.94278337  1
  Se  Se175  1  0.58061743  0.07971114  0.44534211  1
  Se  Se176  1  0.59696658  0.07269263  0.94096969  1
  Se  Se177  1  0.58905176  0.40664283  0.44345992  1
  Se  Se178  1  0.57814733  0.43342627  0.95120403  1
  Se  Se179  1  0.58335315  0.75339685  0.43936549  1
  Se  Se180  1  0.58218243  0.76253037  0.94312949  1
  Se  Se181  1  0.90854411  0.08486992  0.44422203  1
  Se  Se182  1  0.91099513  0.08394306  0.94489363  1
  Se  Se183  1  0.91875692  0.41609029  0.43905466  1
  Se  Se184  1  0.92030165  0.40825595  0.94045659  1
  Se  Se185  1  0.91396830  0.75481363  0.45159007  1
  Se  Se186  1  0.93303063  0.73346154  0.95367039  1
  Se  Se187  1  0.24061787  0.24012165  0.31316429  1
  Se  Se188  1  0.24701449  0.23937771  0.81125237  1
  Se  Se189  1  0.24914751  0.58065756  0.29949282  1
  Se  Se190  1  0.24372909  0.57095967  0.80642532  1
  Se  Se191  1  0.24922103  0.92268246  0.30535785  1
  Se  Se192  1  0.24423553  0.91081449  0.80752312  1
  Se  Se193  1  0.58042772  0.24692155  0.31554830  1
  Se  Se194  1  0.59109271  0.25038543  0.80590190  1
  Se  Se195  1  0.59189603  0.58842352  0.29597407  1
  Se  Se196  1  0.58539626  0.58917160  0.80826095  1
  Se  Se197  1  0.57691326  0.91271436  0.29581446  1
  Se  Se198  1  0.58388058  0.92084803  0.80043612  1
  Se  Se199  1  0.92190616  0.26164956  0.30046242  1
  Se  Se200  1  0.91557252  0.24835195  0.80420435  1
  Se  Se201  1  0.90814675  0.57852907  0.31310538  1
  Se  Se202  1  0.90094883  0.58597434  0.81814673  1
  Se  Se203  1  0.91284446  0.91962556  0.30436038  1
  Se  Se204  1  0.91954781  0.92081123  0.79775811  1
  Se  Se205  1  0.07756463  0.07900556  0.30089177  1
  Se  Se206  1  0.07982902  0.07992474  0.80674575  1
  Se  Se207  1  0.08416942  0.41234612  0.30023063  1
  Se  Se208  1  0.07406470  0.41336046  0.79596392  1
  Se  Se209  1  0.08143163  0.75991469  0.31569956  1
  Se  Se210  1  0.08124045  0.76368407  0.81481901  1
  Se  Se211  1  0.41577692  0.08341135  0.30716363  1
  Se  Se212  1  0.42786771  0.08838204  0.81034297  1
  Se  Se213  1  0.42508508  0.42578543  0.30614085  1
  Se  Se214  1  0.42615921  0.41225596  0.81252803  1
  Se  Se215  1  0.40306742  0.74589405  0.29577967  1
  Se  Se216  1  0.42479084  0.75799189  0.81255122  1
  Se  Se217  1  0.75005948  0.08849318  0.30030171  1
  Se  Se218  1  0.74852983  0.08098693  0.80278087  1
  Se  Se219  1  0.74991280  0.42111748  0.31261665  1
  Se  Se220  1  0.75110059  0.41641541  0.80557479  1
  Se  Se221  1  0.74765359  0.75475084  0.30128488  1
  Se  Se222  1  0.74853030  0.74993136  0.79592689  1
  Se  Se223  1  0.24602433  0.08848192  0.19792023  1
  Se  Se224  1  0.23875269  0.09191592  0.69332977  1
  Se  Se225  1  0.24866413  0.42195203  0.18206654  1
  Se  Se226  1  0.24408364  0.42266075  0.68417185  1
  Se  Se227  1  0.24732643  0.74641794  0.20804753  1
  Se  Se228  1  0.24391834  0.75689841  0.69092025  1
  Se  Se229  1  0.59422004  0.08595910  0.20250336  1
  Se  Se230  1  0.58777427  0.07769766  0.69659855  1
  Se  Se231  1  0.57707040  0.42189494  0.18941096  1
  Se  Se232  1  0.59136258  0.40901989  0.70487275  1
  Se  Se233  1  0.58919058  0.74948890  0.19474069  1
  Se  Se234  1  0.58793426  0.74539052  0.69385432  1
  Se  Se235  1  0.93101246  0.06445439  0.19131900  1
  Se  Se236  1  0.91616233  0.07883509  0.69553981  1
  Se  Se237  1  0.91634497  0.41222701  0.20309758  1
  Se  Se238  1  0.91490850  0.42501598  0.69502970  1
  Se  Se239  1  0.91087919  0.75677971  0.19073937  1
  Se  Se240  1  0.91185850  0.75847105  0.68850444  1
  Se  Se241  1  0.07700313  0.24966430  0.19316860  1
  Se  Se242  1  0.07417264  0.25336565  0.69796154  1
  Se  Se243  1  0.08744727  0.57579782  0.18791822  1
  Se  Se244  1  0.08868453  0.58737926  0.68929563  1
  Se  Se245  1  0.07872284  0.91796574  0.20235800  1
  Se  Se246  1  0.07940139  0.92211269  0.69425892  1
  Se  Se247  1  0.42371922  0.24296297  0.19683314  1
  Se  Se248  1  0.42168632  0.23683338  0.69155194  1
  Se  Se249  1  0.41599214  0.59031704  0.19259168  1
  Se  Se250  1  0.43086362  0.57295570  0.69577187  1
  Se  Se251  1  0.39755088  0.94132073  0.20325020  1
  Se  Se252  1  0.42270905  0.90545358  0.68726500  1
  Se  Se253  1  0.76254758  0.23656797  0.19208021  1
  Se  Se254  1  0.75122256  0.24763022  0.69542385  1
  Se  Se255  1  0.75027786  0.58745397  0.20049002  1
  Se  Se256  1  0.74852731  0.58604648  0.69846938  1
  Se  Se257  1  0.75004584  0.92027827  0.18824326  1
  Se  Se258  1  0.74429375  0.92019306  0.69187174  1
