# generated using pymatgen
data_In86Cu29Se144
_symmetry_space_group_name_H-M   'P 1'
_cell_length_a   17.58571615
_cell_length_b   17.58294742
_cell_length_c   23.44990094
_cell_angle_alpha   90.03827371
_cell_angle_beta   90.03461752
_cell_angle_gamma   89.98188239
_symmetry_Int_Tables_number   1
_chemical_formula_structural   In86Cu29Se144
_chemical_formula_sum   'In86 Cu29 Se144'
_cell_volume   7250.91060481
_cell_formula_units_Z   1
loop_
 _symmetry_equiv_pos_site_id
 _symmetry_equiv_pos_as_xyz
  1  'x, y, z'
loop_
 _atom_site_type_symbol
 _atom_site_label
 _atom_site_symmetry_multiplicity
 _atom_site_fract_x
 _atom_site_fract_y
 _atom_site_fract_z
 _atom_site_occupancy
  In  In0  1  0.00186877  0.15000907  0.12053924  1
  In  In1  1  0.00589309  0.16454281  0.62677498  1
  In  In2  1  0.01693991  0.51515804  0.11534531  1
  In  In3  1  -0.00711933  0.48887898  0.62774166  1
  In  In4  1  -0.00636696  0.82919652  0.11633502  1
  In  In5  1  0.01186700  0.83042233  0.62679489  1
  In  In6  1  0.33641078  0.16896003  0.12264540  1
  In  In7  1  0.31673722  0.16395257  0.62295489  1
  In  In8  1  0.31765354  0.51700397  0.13663066  1
  In  In9  1  0.33721906  0.50481236  0.61519609  1
  In  In10  1  0.33043264  0.82430929  0.11410515  1
  In  In11  1  0.34014572  0.83873961  0.62185888  1
  In  In12  1  0.65271137  0.16763914  0.12087568  1
  In  In13  1  0.66500816  0.14986001  0.62696943  1
  In  In14  1  0.67141000  0.49114131  0.11921071  1
  In  In15  1  0.67367589  0.51826739  0.62057352  1
  In  In16  1  0.67192006  0.83934762  0.12051876  1
  In  In17  1  0.66623083  0.83962050  0.63085907  1
  In  In18  1  0.16455503  -0.00079352  0.39020362  1
  In  In19  1  0.17154647  0.00002748  0.87413831  1
  In  In20  1  0.16965278  0.32591069  0.37529468  1
  In  In21  1  0.15654453  0.33819050  0.88040759  1
  In  In22  1  0.16555080  0.66534809  0.37297574  1
  In  In23  1  0.16867436  0.66734089  0.88825339  1
  In  In24  1  0.50001057  -0.02342643  0.37424282  1
  In  In25  1  0.49918592  -0.00232565  0.87713387  1
  In  In26  1  0.50019086  0.35265488  0.37906945  1
  In  In27  1  0.48645087  0.33582395  0.87779491  1
  In  In28  1  0.48134922  0.68876131  0.38759851  1
  In  In29  1  0.51562120  0.66933178  0.87555528  1
  In  In30  1  0.83269328  0.01213611  0.37930634  1
  In  In31  1  0.81866857  -0.02880434  0.84936021  1
  In  In32  1  0.81843527  0.32476790  0.38451062  1
  In  In33  1  0.85015787  0.33286688  0.87108476  1
  In  In34  1  0.83374138  0.65717551  0.37134260  1
  In  In35  1  0.82456148  0.68380941  0.88076982  1
  In  In36  1  -0.00364986  0.15993755  0.38963838  1
  In  In37  1  0.00697440  0.16475196  0.86838859  1
  In  In38  1  -0.00441600  0.51715799  0.37183130  1
  In  In39  1  0.00422676  0.49588047  0.87745019  1
  In  In40  1  0.01700671  0.83349223  0.37798805  1
  In  In41  1  -0.00398108  0.84090486  0.87713888  1
  In  In42  1  0.31851135  0.16482938  0.37361405  1
  In  In43  1  0.34297041  0.16072890  0.88411701  1
  In  In44  1  0.32917896  0.50231711  0.37002615  1
  In  In45  1  0.32780302  0.49353738  0.87862551  1
  In  In46  1  0.33579197  0.82576552  0.37773306  1
  In  In47  1  0.32101284  0.84136448  0.89009301  1
  In  In48  1  0.67714483  0.16859710  0.38074752  1
  In  In49  1  0.66853529  0.14985580  0.87293616  1
  In  In50  1  0.66115554  0.49678514  0.38162378  1
  In  In51  1  0.66987743  0.52404397  0.86911757  1
  In  In52  1  0.63755290  0.83347332  0.37596746  1
  In  In53  1  0.66550060  0.83326081  0.87520452  1
  In  In54  1  0.16261558  -0.00266207  0.11284530  1
  In  In55  1  0.16687710  0.00234231  0.62821553  1
  In  In56  1  0.17761776  0.34399262  0.12212692  1
  In  In57  1  0.15359483  0.32429701  0.61812905  1
  In  In58  1  0.17016248  0.66740060  0.12204619  1
  In  In59  1  0.17095635  0.67001026  0.61505219  1
  In  In60  1  0.50479759  0.00179869  0.11978218  1
  In  In61  1  0.51234419  -0.01296329  0.63551466  1
  In  In62  1  0.49659337  0.32177612  0.12473817  1
  In  In63  1  0.48852440  0.33491285  0.62086428  1
  In  In64  1  0.48414018  0.67515862  0.12435286  1
  In  In65  1  0.51692078  0.68243617  0.60469385  1
  In  In66  1  0.83557459  -0.01319653  0.12285791  1
  In  In67  1  0.83058812  -0.00128532  0.63397693  1
  In  In68  1  0.82030360  0.34011644  0.12109647  1
  In  In69  1  0.85674055  0.34337952  0.62992735  1
  In  In70  1  0.84497456  0.67537764  0.11764291  1
  In  In71  1  0.82215847  0.66508174  0.63594160  1
  In  In72  1  0.83606404  0.49610109  0.50265753  1
  In  In73  1  0.66185318  0.66675807  0.25144634  1
  In  In74  1  0.33799000  0.66879382  0.75702396  1
  In  In75  1  -0.00037414  0.33315437  0.25033584  1
  In  In76  1  0.66871109  0.33043110  0.74853346  1
  In  In77  1  -0.00492202  0.67012387  0.75265746  1
  In  In78  1  0.32761507  0.33170824  0.74952862  1
  In  In79  1  0.66134779  0.33398613  0.25840666  1
  In  In80  1  0.49599211  0.50285670  0.00259119  1
  In  In81  1  0.49879229  0.16532937  0.50285003  1
  In  In82  1  0.84206895  0.16124052  -0.01091392  1
  In  In83  1  -0.00051495  -0.00560151  0.25777080  1
  In  In84  1  0.83351720  0.83658669  0.50948938  1
  In  In85  1  0.33491014  -0.00575497  0.24958718  1
  Cu  Cu86  1  0.83014663  0.83077995  0.24464424  1
  Cu  Cu87  1  0.17104238  0.83983585  0.75282329  1
  Cu  Cu88  1  0.33591110  0.00305318  0.00166601  1
  Cu  Cu89  1  0.66814098  0.00032132  -0.00604413  1
  Cu  Cu90  1  0.32602988  0.66169973  0.49362430  1
  Cu  Cu91  1  0.16733537  0.82643458  0.24851504  1
  Cu  Cu92  1  0.32838903  0.33151138  0.00277742  1
  Cu  Cu93  1  0.66764965  0.33854721  -0.00500805  1
  Cu  Cu94  1  0.49729830  0.15683302  0.75472207  1
  Cu  Cu95  1  0.15933329  0.49417940  0.74843803  1
  Cu  Cu96  1  0.50294086  0.83433761  0.74836025  1
  Cu  Cu97  1  0.17013760  0.50741726  0.24643613  1
  Cu  Cu98  1  0.00016425  0.33163763  -0.00130324  1
  Cu  Cu99  1  0.00124166  0.66319204  -0.00184244  1
  Cu  Cu100  1  0.33204416  -0.00386420  0.50377348  1
  Cu  Cu101  1  0.67147485  0.67400948  0.00042522  1
  Cu  Cu102  1  0.33107416  0.34273135  0.49610019  1
  Cu  Cu103  1  0.84130709  0.50381336  0.24495667  1
  Cu  Cu104  1  0.16711310  0.16276445  0.74937001  1
  Cu  Cu105  1  0.16739290  0.16966735  0.25005675  1
  Cu  Cu106  1  0.49875040  0.16093951  0.24569199  1
  Cu  Cu107  1  0.00385080  0.66836462  0.49942866  1
  Cu  Cu108  1  0.82485584  0.16260681  0.25725349  1
  Cu  Cu109  1  0.00754862  0.33313917  0.50266087  1
  Cu  Cu110  1  0.49196306  0.50311863  0.25217270  1
  Cu  Cu111  1  0.84108998  0.16494210  0.74936334  1
  Cu  Cu112  1  0.66427792  -0.00776467  0.50496091  1
  Cu  Cu113  1  0.50489919  0.51127751  0.74212303  1
  Cu  Cu114  1  0.00400679  -0.00176347  -0.01020030  1
  Se  Se115  1  0.08342975  0.08413357  0.04421168  1
  Se  Se116  1  0.10569382  0.10180210  0.56031057  1
  Se  Se117  1  0.08444638  0.41321097  0.05341958  1
  Se  Se118  1  0.08322672  0.42454509  0.55434233  1
  Se  Se119  1  0.08312707  0.74818887  0.05292609  1
  Se  Se120  1  0.08685300  0.75517987  0.54952221  1
  Se  Se121  1  0.41963533  0.08709994  0.05482452  1
  Se  Se122  1  0.41473153  0.07344924  0.56540219  1
  Se  Se123  1  0.40743956  0.41445223  0.06451836  1
  Se  Se124  1  0.42028092  0.42050936  0.54738235  1
  Se  Se125  1  0.42124212  0.75193393  0.04487494  1
  Se  Se126  1  0.40624409  0.74643452  0.55001088  1
  Se  Se127  1  0.74854658  0.08175019  0.05626018  1
  Se  Se128  1  0.74971097  0.07335493  0.55697569  1
  Se  Se129  1  0.75414665  0.42170031  0.04371366  1
  Se  Se130  1  0.74901869  0.40770658  0.56493727  1
  Se  Se131  1  0.75688268  0.75715562  0.05304903  1
  Se  Se132  1  0.74124183  0.74081240  0.56011333  1
  Se  Se133  1  0.24568824  0.24617256  0.05586140  1
  Se  Se134  1  0.25310892  0.25742417  0.55226222  1
  Se  Se135  1  0.24679217  0.57775354  0.05398580  1
  Se  Se136  1  0.24468614  0.57813796  0.54836241  1
  Se  Se137  1  0.25015508  0.91585715  0.04955103  1
  Se  Se138  1  0.24649789  0.91521484  0.55768797  1
  Se  Se139  1  0.58445199  0.25700378  0.04938008  1
  Se  Se140  1  0.58967632  0.25198372  0.56346011  1
  Se  Se141  1  0.59097341  0.59282167  0.06136187  1
  Se  Se142  1  0.56930123  0.56422422  0.55269211  1
  Se  Se143  1  0.58701859  0.91858444  0.05087274  1
  Se  Se144  1  0.57912626  0.90925475  0.55568193  1
  Se  Se145  1  0.91886501  0.25316012  0.06074067  1
  Se  Se146  1  0.92371558  0.25363089  0.55852878  1
  Se  Se147  1  0.91501414  0.57993667  0.05085580  1
  Se  Se148  1  0.92117614  0.59469998  0.56217080  1
  Se  Se149  1  0.91913788  0.92004385  0.04777418  1
  Se  Se150  1  0.92777143  0.92572757  0.56327927  1
  Se  Se151  1  0.08672455  0.24853198  0.44659985  1
  Se  Se152  1  0.07954986  0.24506782  0.94533400  1
  Se  Se153  1  0.08323588  0.58255405  0.44499243  1
  Se  Se154  1  0.08514680  0.57647433  0.94867604  1
  Se  Se155  1  0.06383573  0.93142313  0.45041877  1
  Se  Se156  1  0.09184411  0.91216372  0.94325011  1
  Se  Se157  1  0.41014289  0.25436096  0.43924995  1
  Se  Se158  1  0.41831235  0.25263083  0.95213095  1
  Se  Se159  1  0.41391904  0.57959047  0.44239143  1
  Se  Se160  1  0.41210882  0.59036696  0.93727768  1
  Se  Se161  1  0.41327022  0.91213046  0.44906840  1
  Se  Se162  1  0.41962945  0.91806992  0.95006506  1
  Se  Se163  1  0.75472829  0.23745114  0.45735955  1
  Se  Se164  1  0.74540119  0.25476579  0.93519289  1
  Se  Se165  1  0.74432293  0.59038433  0.44625769  1
  Se  Se166  1  0.75137366  0.58742748  0.94764478  1
  Se  Se167  1  0.74248680  0.91547762  0.43968803  1
  Se  Se168  1  0.75382082  0.91908798  0.94085297  1
  Se  Se169  1  0.25289734  0.08499506  0.45199003  1
  Se  Se170  1  0.24953111  0.08388587  0.94740052  1
  Se  Se171  1  0.24559099  0.41960736  0.43972892  1
  Se  Se172  1  0.24666084  0.41498458  0.94846133  1
  Se  Se173  1  0.24352145  0.75099211  0.44368101  1
  Se  Se174  1  0.25899141  0.73997412  0.95392658  1
  Se  Se175  1  0.58474991  0.07168581  0.44171011  1
  Se  Se176  1  0.58095998  0.08565450  0.94667357  1
  Se  Se177  1  0.61215359  0.38782044  0.44389147  1
  Se  Se178  1  0.58770880  0.42026911  0.93519803  1
  Se  Se179  1  0.58983780  0.73993469  0.45088352  1
  Se  Se180  1  0.58432988  0.75465383  0.94949169  1
  Se  Se181  1  0.90718582  0.08538824  0.45499148  1
  Se  Se182  1  0.91725384  0.06594886  0.92571495  1
  Se  Se183  1  0.92637744  0.40909128  0.43735649  1
  Se  Se184  1  0.91707463  0.41572118  0.94721352  1
  Se  Se185  1  0.91778234  0.74516872  0.44119597  1
  Se  Se186  1  0.92137233  0.75286437  0.94684164  1
  Se  Se187  1  0.25207762  0.25321230  0.29987382  1
  Se  Se188  1  0.24403260  0.24349440  0.81391789  1
  Se  Se189  1  0.25264512  0.59096674  0.30126518  1
  Se  Se190  1  0.23936090  0.57459722  0.80745826  1
  Se  Se191  1  0.23733243  0.91395522  0.31103532  1
  Se  Se192  1  0.25879770  0.91651845  0.80691174  1
  Se  Se193  1  0.57181444  0.24006245  0.31411911  1
  Se  Se194  1  0.57297159  0.24610479  0.81115128  1
  Se  Se195  1  0.57466187  0.57802828  0.31352662  1
  Se  Se196  1  0.58621816  0.59501802  0.79537980  1
  Se  Se197  1  0.58332760  0.91765202  0.29613771  1
  Se  Se198  1  0.58244465  0.91839909  0.80631480  1
  Se  Se199  1  0.90904158  0.24407674  0.31222954  1
  Se  Se200  1  0.92418178  0.24938251  0.80007919  1
  Se  Se201  1  0.92002292  0.59255749  0.29540510  1
  Se  Se202  1  0.91085612  0.58476264  0.81754304  1
  Se  Se203  1  0.90585766  0.90537815  0.31433371  1
  Se  Se204  1  0.93320566  0.91586424  0.79562064  1
  Se  Se205  1  0.08976678  0.09112318  0.31196606  1
  Se  Se206  1  0.08630102  0.07632958  0.80195974  1
  Se  Se207  1  0.08794734  0.42773208  0.30753325  1
  Se  Se208  1  0.07907678  0.41207803  0.80336051  1
  Se  Se209  1  0.08059874  0.74772794  0.30244396  1
  Se  Se210  1  0.09546107  0.75195533  0.81097070  1
  Se  Se211  1  0.42190928  0.08540080  0.31273731  1
  Se  Se212  1  0.41130092  0.07847954  0.80809510  1
  Se  Se213  1  0.41358615  0.41405223  0.30333210  1
  Se  Se214  1  0.42340819  0.43095916  0.80142954  1
  Se  Se215  1  0.42183889  0.75985592  0.30369296  1
  Se  Se216  1  0.42398830  0.76207179  0.81527706  1
  Se  Se217  1  0.74121242  0.07822140  0.30665667  1
  Se  Se218  1  0.75068038  0.08346950  0.79720549  1
  Se  Se219  1  0.76244703  0.42645262  0.30850646  1
  Se  Se220  1  0.75241073  0.41956473  0.81215503  1
  Se  Se221  1  0.75158020  0.75757634  0.31196479  1
  Se  Se222  1  0.74573193  0.75209767  0.80412216  1
  Se  Se223  1  0.23996169  0.08239081  0.18996673  1
  Se  Se224  1  0.25455761  0.08020004  0.70026921  1
  Se  Se225  1  0.25237305  0.41469160  0.20131466  1
  Se  Se226  1  0.24510193  0.42302078  0.68590212  1
  Se  Se227  1  0.25283905  0.75136084  0.19184193  1
  Se  Se228  1  0.24625764  0.75340106  0.69328877  1
  Se  Se229  1  0.58517413  0.08160780  0.19418665  1
  Se  Se230  1  0.58647079  0.07851955  0.70347094  1
  Se  Se231  1  0.57501320  0.42419211  0.19244242  1
  Se  Se232  1  0.57755034  0.41913803  0.68783128  1
  Se  Se233  1  0.57952527  0.75716724  0.18811253  1
  Se  Se234  1  0.57945951  0.74819825  0.69193912  1
  Se  Se235  1  0.90805698  0.08669656  0.19628269  1
  Se  Se236  1  0.92316083  0.08140086  0.69578176  1
  Se  Se237  1  0.91626385  0.42200137  0.18401791  1
  Se  Se238  1  0.91828467  0.42482210  0.70822848  1
  Se  Se239  1  0.91952558  0.75274809  0.19426303  1
  Se  Se240  1  0.90789813  0.76258948  0.69308749  1
  Se  Se241  1  0.08494237  0.24221571  0.18699180  1
  Se  Se242  1  0.08533424  0.25126588  0.69876044  1
  Se  Se243  1  0.08427649  0.58996188  0.19524427  1
  Se  Se244  1  0.08881043  0.58458274  0.68904749  1
  Se  Se245  1  0.08775870  0.91169938  0.19051751  1
  Se  Se246  1  0.08569136  0.91697369  0.69770356  1
  Se  Se247  1  0.41424798  0.24746167  0.19791739  1
  Se  Se248  1  0.42070453  0.23814553  0.69272483  1
  Se  Se249  1  0.41518253  0.59102355  0.19887182  1
  Se  Se250  1  0.42169487  0.59025117  0.68458982  1
  Se  Se251  1  0.41934818  0.90990965  0.18448610  1
  Se  Se252  1  0.41333594  0.91586891  0.69907280  1
  Se  Se253  1  0.75151977  0.24510358  0.19382159  1
  Se  Se254  1  0.75922429  0.24276046  0.68722893  1
  Se  Se255  1  0.75361871  0.58004619  0.18773019  1
  Se  Se256  1  0.75887608  0.56726639  0.70130962  1
  Se  Se257  1  0.74926180  0.91915340  0.19604242  1
  Se  Se258  1  0.74701126  0.91721106  0.70096668  1
