# generated using pymatgen
data_In86Cu29Se144
_symmetry_space_group_name_H-M   'P 1'
_cell_length_a   17.58164459
_cell_length_b   17.57982258
_cell_length_c   23.43052839
_cell_angle_alpha   89.98802323
_cell_angle_beta   89.95923072
_cell_angle_gamma   89.99398476
_symmetry_Int_Tables_number   1
_chemical_formula_structural   In86Cu29Se144
_chemical_formula_sum   'In86 Cu29 Se144'
_cell_volume   7241.95705286
_cell_formula_units_Z   1
loop_
 _symmetry_equiv_pos_site_id
 _symmetry_equiv_pos_as_xyz
  1  'x, y, z'
loop_
 _atom_site_type_symbol
 _atom_site_label
 _atom_site_symmetry_multiplicity
 _atom_site_fract_x
 _atom_site_fract_y
 _atom_site_fract_z
 _atom_site_occupancy
  In  In0  1  -0.00530528  0.17468012  0.11846668  1
  In  In1  1  -0.01877576  0.17731710  0.64100328  1
  In  In2  1  -0.00281964  0.49072965  0.10115289  1
  In  In3  1  0.00076924  0.50033022  0.62733893  1
  In  In4  1  -0.00433965  0.82127461  0.12565808  1
  In  In5  1  -0.00112260  0.83474175  0.62218832  1
  In  In6  1  0.33560253  0.15328487  0.12349421  1
  In  In7  1  0.33678358  0.16370526  0.63293116  1
  In  In8  1  0.33586124  0.50595143  0.11112913  1
  In  In9  1  0.32933478  0.50588352  0.63033992  1
  In  In10  1  0.33038639  0.82574437  0.12757931  1
  In  In11  1  0.32729254  0.84034335  0.63326436  1
  In  In12  1  0.66873074  0.16795694  0.11000935  1
  In  In13  1  0.67541810  0.17587631  0.63292004  1
  In  In14  1  0.66381211  0.49913048  0.11470659  1
  In  In15  1  0.67230458  0.49178019  0.63737175  1
  In  In16  1  0.66224332  0.84901250  0.12241393  1
  In  In17  1  0.66613392  0.81789178  0.63222911  1
  In  In18  1  0.17038008  -0.02097954  0.38597661  1
  In  In19  1  0.17245907  0.00335753  0.86566879  1
  In  In20  1  0.17732523  0.35101446  0.38693642  1
  In  In21  1  0.17424945  0.33993569  0.86735114  1
  In  In22  1  0.16783339  0.66806659  0.38271706  1
  In  In23  1  0.16090438  0.65947759  0.86769524  1
  In  In24  1  0.50458623  0.01009802  0.37765155  1
  In  In25  1  0.49444520  0.01078856  0.87544443  1
  In  In26  1  0.48827295  0.31924556  0.38270397  1
  In  In27  1  0.50440497  0.33414507  0.86995931  1
  In  In28  1  0.49447323  0.68134941  0.37457556  1
  In  In29  1  0.49794681  0.66633478  0.87266584  1
  In  In30  1  0.84207051  -0.00427760  0.39955575  1
  In  In31  1  0.84550337  0.00684749  0.86593816  1
  In  In32  1  0.83870465  0.32839477  0.38845970  1
  In  In33  1  0.83727326  0.33413842  0.86662845  1
  In  In34  1  0.83233110  0.66387162  0.38705641  1
  In  In35  1  0.82387812  0.65107013  0.86332496  1
  In  In36  1  -0.00360536  0.15469257  0.38483154  1
  In  In37  1  -0.00916563  0.16438269  0.86154609  1
  In  In38  1  0.00196340  0.50065254  0.38794740  1
  In  In39  1  -0.00298778  0.49515031  0.86984224  1
  In  In40  1  0.00084574  0.83927280  0.39499438  1
  In  In41  1  0.00144333  0.83342107  0.86374919  1
  In  In42  1  0.35457121  0.16929756  0.38153111  1
  In  In43  1  0.36411234  0.18789999  0.84153983  1
  In  In44  1  0.31802874  0.50589639  0.38134599  1
  In  In45  1  0.33304191  0.50186779  0.87318729  1
  In  In46  1  0.33193711  0.82589177  0.37061613  1
  In  In47  1  0.35602805  0.84849718  0.85517809  1
  In  In48  1  0.66655569  0.16362323  0.38919619  1
  In  In49  1  0.66102251  0.17924752  0.86779104  1
  In  In50  1  0.67085608  0.50807868  0.37984944  1
  In  In51  1  0.66830444  0.49772565  0.87397813  1
  In  In52  1  0.66535602  0.84034315  0.38265551  1
  In  In53  1  0.66528546  0.81858415  0.86960946  1
  In  In54  1  0.17757673  0.01045500  0.12725415  1
  In  In55  1  0.16908772  -0.00690143  0.62551045  1
  In  In56  1  0.15875868  0.34371542  0.11639147  1
  In  In57  1  0.16002129  0.33798912  0.63339577  1
  In  In58  1  0.17332080  0.66896217  0.11912645  1
  In  In59  1  0.16627869  0.66471631  0.62448734  1
  In  In60  1  0.49593807  -0.00953472  0.11216912  1
  In  In61  1  0.47820566  0.00262461  0.63649265  1
  In  In62  1  0.50026041  0.33383477  0.10939628  1
  In  In63  1  0.50420096  0.32090658  0.64365707  1
  In  In64  1  0.48429181  0.65808766  0.11339505  1
  In  In65  1  0.49831735  0.68052891  0.64804820  1
  In  In66  1  0.82157864  0.00124911  0.12199136  1
  In  In67  1  0.85001930  0.01176241  0.61454368  1
  In  In68  1  0.83409734  0.32817711  0.10755517  1
  In  In69  1  0.82963510  0.33613403  0.63272578  1
  In  In70  1  0.84232608  0.66318984  0.12468543  1
  In  In71  1  0.83856212  0.66507010  0.62765940  1
  In  In72  1  0.00315346  0.33189613  0.24254511  1
  In  In73  1  0.50671287  0.49607280  0.51042009  1
  In  In74  1  0.50247060  0.83639571  0.50645684  1
  In  In75  1  0.82630655  0.83210540  0.00056904  1
  In  In76  1  0.66926181  0.00130215  0.74968610  1
  In  In77  1  0.00756711  0.66706754  0.24659963  1
  In  In78  1  0.66589599  0.00061616  0.25106192  1
  In  In79  1  0.17186166  0.17339188  -0.01017526  1
  In  In80  1  0.33425833  0.33358660  0.25316149  1
  In  In81  1  0.00281318  -0.00802581  0.26374305  1
  In  In82  1  0.66201191  0.67431419  0.25432951  1
  In  In83  1  0.66772865  0.33297762  0.24315068  1
  In  In84  1  0.17187644  0.82902009  -0.00637505  1
  In  In85  1  0.16142163  0.16972045  0.51051214  1
  Cu  Cu86  1  0.33153156  0.66884797  -0.00831506  1
  Cu  Cu87  1  -0.00816737  0.65887119  -0.01426873  1
  Cu  Cu88  1  0.16635556  0.50097910  0.74784790  1
  Cu  Cu89  1  0.67445493  0.65649592  0.51107763  1
  Cu  Cu90  1  0.16456592  0.82572734  0.74637335  1
  Cu  Cu91  1  0.33710641  0.33085069  -0.01311152  1
  Cu  Cu92  1  0.66885916  0.00661962  -0.01124059  1
  Cu  Cu93  1  0.33072382  0.66472560  0.50433821  1
  Cu  Cu94  1  0.50011154  0.50064561  0.75577233  1
  Cu  Cu95  1  0.34118675  0.00358887  -0.00688018  1
  Cu  Cu96  1  0.16288617  0.15908985  0.74539319  1
  Cu  Cu97  1  0.16936364  0.83803592  0.25245319  1
  Cu  Cu98  1  0.48908105  0.83075251  0.24301494  1
  Cu  Cu99  1  -0.00198399  0.33645393  0.51248805  1
  Cu  Cu100  1  0.00418075  0.66362837  0.50780622  1
  Cu  Cu101  1  0.83675280  0.50095224  0.74997735  1
  Cu  Cu102  1  -0.00334558  0.00605575  -0.00714888  1
  Cu  Cu103  1  0.83606538  0.49984286  0.25022233  1
  Cu  Cu104  1  0.17987547  0.16244133  0.25265527  1
  Cu  Cu105  1  0.48667805  0.50683937  0.24358005  1
  Cu  Cu106  1  0.50163369  0.16182000  0.25040197  1
  Cu  Cu107  1  0.83950115  0.83458611  0.74472707  1
  Cu  Cu108  1  0.66721047  0.33444909  -0.01102645  1
  Cu  Cu109  1  0.33209072  0.00053062  0.50711608  1
  Cu  Cu110  1  0.16765511  0.50581275  0.25082426  1
  Cu  Cu111  1  0.66903880  0.33491283  0.51271198  1
  Cu  Cu112  1  0.66427989  0.00616870  0.51214001  1
  Cu  Cu113  1  0.66090078  0.66285145  -0.00654148  1
  Cu  Cu114  1  0.83555293  0.15688933  0.25301624  1
  Se  Se115  1  0.08258335  0.07807137  0.05494536  1
  Se  Se116  1  0.07184345  0.08686451  0.57267403  1
  Se  Se117  1  0.07987479  0.40590269  0.03813381  1
  Se  Se118  1  0.08727030  0.41920259  0.55752850  1
  Se  Se119  1  0.07022238  0.73943782  0.04902983  1
  Se  Se120  1  0.08736088  0.75166038  0.55538819  1
  Se  Se121  1  0.42172740  0.08809102  0.04869515  1
  Se  Se122  1  0.41550251  0.08484930  0.55729426  1
  Se  Se123  1  0.41495719  0.41697574  0.04505340  1
  Se  Se124  1  0.41991258  0.41040900  0.57212076  1
  Se  Se125  1  0.40873007  0.75452824  0.05018413  1
  Se  Se126  1  0.41438987  0.74279424  0.56344500  1
  Se  Se127  1  0.75582719  0.08318243  0.04572824  1
  Se  Se128  1  0.74932158  0.09192024  0.55949663  1
  Se  Se129  1  0.74759553  0.41682096  0.04780096  1
  Se  Se130  1  0.75181580  0.42213209  0.55972335  1
  Se  Se131  1  0.73717476  0.73979926  0.06192060  1
  Se  Se132  1  0.75250690  0.74874665  0.55898152  1
  Se  Se133  1  0.26173789  0.25752729  0.05917189  1
  Se  Se134  1  0.25482961  0.25677100  0.56645755  1
  Se  Se135  1  0.24587844  0.58675113  0.04573861  1
  Se  Se136  1  0.24870543  0.57941295  0.55456477  1
  Se  Se137  1  0.25599912  0.92712265  0.05327273  1
  Se  Se138  1  0.25070557  0.91161321  0.55437180  1
  Se  Se139  1  0.58391991  0.24983080  0.04424740  1
  Se  Se140  1  0.58394479  0.25270133  0.56388927  1
  Se  Se141  1  0.57708114  0.58054093  0.04937014  1
  Se  Se142  1  0.58411072  0.59233407  0.57306008  1
  Se  Se143  1  0.58911194  0.91937017  0.04359298  1
  Se  Se144  1  0.58597584  0.92425079  0.57143593  1
  Se  Se145  1  0.92059646  0.24774454  0.04339894  1
  Se  Se146  1  0.91201040  0.25338313  0.56111095  1
  Se  Se147  1  0.90805842  0.58398355  0.04666859  1
  Se  Se148  1  0.91701081  0.58013849  0.55646322  1
  Se  Se149  1  0.92539261  0.92222938  0.05747216  1
  Se  Se150  1  0.90674319  0.90476331  0.55275079  1
  Se  Se151  1  0.07546093  0.26255558  0.44274154  1
  Se  Se152  1  0.07814549  0.25374855  0.92969615  1
  Se  Se153  1  0.08877879  0.58289905  0.45145762  1
  Se  Se154  1  0.08299722  0.57833138  0.94000190  1
  Se  Se155  1  0.06823397  0.93939041  0.45747782  1
  Se  Se156  1  0.07800628  0.92240934  0.93867686  1
  Se  Se157  1  0.41406807  0.25059215  0.46049724  1
  Se  Se158  1  0.41769796  0.24464493  0.93560589  1
  Se  Se159  1  0.41924055  0.59030414  0.44509988  1
  Se  Se160  1  0.41724891  0.58254432  0.94377532  1
  Se  Se161  1  0.41231356  0.92232513  0.44250168  1
  Se  Se162  1  0.42083474  0.91405206  0.94215798  1
  Se  Se163  1  0.74848092  0.25112459  0.45337275  1
  Se  Se164  1  0.75125684  0.25169431  0.93720550  1
  Se  Se165  1  0.75517104  0.57405815  0.45476104  1
  Se  Se166  1  0.75014811  0.58291441  0.94454329  1
  Se  Se167  1  0.74086340  0.91762810  0.45622939  1
  Se  Se168  1  0.74850515  0.92249722  0.93207267  1
  Se  Se169  1  0.25390067  0.08258116  0.44425892  1
  Se  Se170  1  0.26181724  0.08348286  0.93287801  1
  Se  Se171  1  0.26770972  0.41422017  0.45758594  1
  Se  Se172  1  0.24986472  0.41714818  0.94330060  1
  Se  Se173  1  0.25481226  0.75264156  0.44763507  1
  Se  Se174  1  0.25867597  0.74962096  0.92675675  1
  Se  Se175  1  0.57813666  0.08351934  0.45538867  1
  Se  Se176  1  0.58465489  0.09137063  0.93939369  1
  Se  Se177  1  0.59171921  0.40604656  0.44160614  1
  Se  Se178  1  0.57987123  0.41881992  0.94237491  1
  Se  Se179  1  0.59374247  0.73762227  0.45012489  1
  Se  Se180  1  0.58038513  0.75040916  0.94410588  1
  Se  Se181  1  0.90697910  0.09910762  0.45937364  1
  Se  Se182  1  0.91436617  0.08987702  0.94184243  1
  Se  Se183  1  0.91596989  0.41844890  0.45310854  1
  Se  Se184  1  0.89903815  0.43086438  0.93737805  1
  Se  Se185  1  0.91792274  0.74482192  0.45330530  1
  Se  Se186  1  0.91377741  0.74829862  0.93347400  1
  Se  Se187  1  0.24541392  0.24708214  0.31780890  1
  Se  Se188  1  0.24336227  0.24686895  0.79714598  1
  Se  Se189  1  0.24604287  0.58884841  0.30698753  1
  Se  Se190  1  0.25150854  0.58256435  0.80115797  1
  Se  Se191  1  0.25347580  0.91931608  0.30595981  1
  Se  Se192  1  0.24642366  0.91234900  0.79831938  1
  Se  Se193  1  0.58188922  0.24316725  0.30975739  1
  Se  Se194  1  0.56808906  0.24171307  0.79681160  1
  Se  Se195  1  0.57046907  0.57625976  0.30949661  1
  Se  Se196  1  0.58662387  0.58417791  0.80643026  1
  Se  Se197  1  0.57040541  0.90565616  0.30664097  1
  Se  Se198  1  0.58041254  0.91426283  0.81110970  1
  Se  Se199  1  0.91521827  0.24356813  0.30858757  1
  Se  Se200  1  0.91638431  0.25390578  0.79409777  1
  Se  Se201  1  0.91522718  0.57830668  0.31059894  1
  Se  Se202  1  0.92425026  0.58641249  0.79849225  1
  Se  Se203  1  0.90569473  0.90729731  0.31958036  1
  Se  Se204  1  0.92120849  0.91985284  0.79722217  1
  Se  Se205  1  0.09634104  0.08831339  0.31534135  1
  Se  Se206  1  0.07938183  0.07666357  0.79983641  1
  Se  Se207  1  0.08770903  0.42289020  0.30904220  1
  Se  Se208  1  0.08365063  0.41610749  0.79998268  1
  Se  Se209  1  0.08404400  0.76250546  0.31322915  1
  Se  Se210  1  0.07977161  0.74386198  0.79902291  1
  Se  Se211  1  0.41802048  0.08111067  0.30483212  1
  Se  Se212  1  0.40291674  0.06033888  0.79727869  1
  Se  Se213  1  0.42298666  0.42460730  0.31415548  1
  Se  Se214  1  0.41357725  0.41598371  0.80488481  1
  Se  Se215  1  0.41101129  0.74424386  0.29788335  1
  Se  Se216  1  0.41170207  0.73669355  0.79899862  1
  Se  Se217  1  0.75717195  0.08279767  0.31733896  1
  Se  Se218  1  0.75847737  0.09669473  0.80347422  1
  Se  Se219  1  0.75567697  0.41896903  0.31032045  1
  Se  Se220  1  0.74931442  0.41955557  0.80112972  1
  Se  Se221  1  0.75577820  0.75678512  0.31562641  1
  Se  Se222  1  0.75680825  0.75228322  0.79929483  1
  Se  Se223  1  0.26272269  0.07741487  0.20211459  1
  Se  Se224  1  0.24947210  0.07646126  0.69504597  1
  Se  Se225  1  0.24486178  0.42225346  0.19023614  1
  Se  Se226  1  0.25251055  0.41594665  0.69861418  1
  Se  Se227  1  0.24240600  0.74805354  0.19639590  1
  Se  Se228  1  0.25122692  0.74353893  0.69496258  1
  Se  Se229  1  0.58136143  0.08853826  0.18496285  1
  Se  Se230  1  0.57522665  0.09015053  0.69292396  1
  Se  Se231  1  0.57008142  0.42464519  0.18902529  1
  Se  Se232  1  0.58372125  0.41585823  0.70476506  1
  Se  Se233  1  0.57495652  0.75419579  0.18466030  1
  Se  Se234  1  0.59357176  0.75033788  0.71245392  1
  Se  Se235  1  0.91839060  0.08026894  0.19251516  1
  Se  Se236  1  0.91231302  0.07511435  0.70167224  1
  Se  Se237  1  0.91016111  0.42223468  0.18482003  1
  Se  Se238  1  0.92036728  0.41747537  0.69742084  1
  Se  Se239  1  0.90267312  0.75858813  0.20059210  1
  Se  Se240  1  0.92323850  0.74801847  0.69494086  1
  Se  Se241  1  0.09948723  0.23706054  0.18919385  1
  Se  Se242  1  0.08055490  0.25165143  0.70142708  1
  Se  Se243  1  0.08448451  0.57043510  0.18173841  1
  Se  Se244  1  0.08296667  0.58479021  0.69528836  1
  Se  Se245  1  0.08853157  0.91071132  0.18754647  1
  Se  Se246  1  0.08365589  0.91299735  0.69396586  1
  Se  Se247  1  0.42649949  0.24738235  0.18971448  1
  Se  Se248  1  0.40964046  0.24526736  0.70804624  1
  Se  Se249  1  0.40303560  0.58705348  0.19019666  1
  Se  Se250  1  0.41596180  0.58133417  0.70131009  1
  Se  Se251  1  0.41396298  0.91912184  0.18787517  1
  Se  Se252  1  0.43253295  0.89250105  0.69933605  1
  Se  Se253  1  0.76048269  0.23716246  0.18897648  1
  Se  Se254  1  0.74020836  0.26650061  0.70463583  1
  Se  Se255  1  0.75006947  0.57821848  0.19301876  1
  Se  Se256  1  0.75231078  0.58666185  0.69817656  1
  Se  Se257  1  0.76067275  0.90649347  0.19729246  1
  Se  Se258  1  0.75844105  0.91516462  0.68584409  1
