# generated using pymatgen
data_In86Cu29Se144
_symmetry_space_group_name_H-M   'P 1'
_cell_length_a   17.58027857
_cell_length_b   17.57123205
_cell_length_c   23.43760836
_cell_angle_alpha   89.99343397
_cell_angle_beta   89.99601599
_cell_angle_gamma   89.97284758
_symmetry_Int_Tables_number   1
_chemical_formula_structural   In86Cu29Se144
_chemical_formula_sum   'In86 Cu29 Se144'
_cell_volume   7240.04402494
_cell_formula_units_Z   1
loop_
 _symmetry_equiv_pos_site_id
 _symmetry_equiv_pos_as_xyz
  1  'x, y, z'
loop_
 _atom_site_type_symbol
 _atom_site_label
 _atom_site_symmetry_multiplicity
 _atom_site_fract_x
 _atom_site_fract_y
 _atom_site_fract_z
 _atom_site_occupancy
  In  In0  1  -0.00851457  0.15430789  0.11489219  1
  In  In1  1  -0.01063472  0.15202484  0.62517728  1
  In  In2  1  0.01014881  0.50752786  0.12515123  1
  In  In3  1  0.01265737  0.48853322  0.62202076  1
  In  In4  1  0.00963319  0.82697314  0.13460307  1
  In  In5  1  0.00992311  0.84588969  0.61825241  1
  In  In6  1  0.34039108  0.17653404  0.11744709  1
  In  In7  1  0.35346824  0.15393408  0.65082590  1
  In  In8  1  0.33398912  0.50100989  0.12703046  1
  In  In9  1  0.32835662  0.50545206  0.62611896  1
  In  In10  1  0.32448441  0.82603822  0.11901410  1
  In  In11  1  0.33841538  0.84459007  0.62254225  1
  In  In12  1  0.65655625  0.15534903  0.11169700  1
  In  In13  1  0.66495848  0.14611796  0.62880748  1
  In  In14  1  0.66753005  0.51147279  0.12694606  1
  In  In15  1  0.66142136  0.50415354  0.62328993  1
  In  In16  1  0.66111055  0.84059248  0.13129241  1
  In  In17  1  0.67610023  0.85891272  0.60013522  1
  In  In18  1  0.15019557  0.00094599  0.37305346  1
  In  In19  1  0.17807885  -0.00289284  0.87427951  1
  In  In20  1  0.18466814  0.33382930  0.37260168  1
  In  In21  1  0.17621386  0.32364445  0.88596897  1
  In  In22  1  0.16531520  0.66886765  0.37575695  1
  In  In23  1  0.16822788  0.67123728  0.88717076  1
  In  In24  1  0.49958001  -0.01415979  0.37512058  1
  In  In25  1  0.49902793  0.00186673  0.87005336  1
  In  In26  1  0.49887044  0.33875120  0.37242805  1
  In  In27  1  0.49692027  0.33862660  0.88751990  1
  In  In28  1  0.50878257  0.67734220  0.36206511  1
  In  In29  1  0.49094971  0.67567271  0.88533739  1
  In  In30  1  0.83239899  -0.00396571  0.37873922  1
  In  In31  1  0.83908471  0.01756567  0.85720039  1
  In  In32  1  0.82973021  0.31412254  0.38135980  1
  In  In33  1  0.82403752  0.30724727  0.87562465  1
  In  In34  1  0.84235133  0.68061454  0.36707220  1
  In  In35  1  0.83791651  0.66897014  0.87690190  1
  In  In36  1  -0.00426762  0.15008582  0.36918510  1
  In  In37  1  0.00485611  0.15858453  0.88063336  1
  In  In38  1  -0.00117472  0.51573377  0.37347927  1
  In  In39  1  0.00878393  0.51062396  0.88389594  1
  In  In40  1  -0.00129159  0.83445711  0.37735951  1
  In  In41  1  0.01093654  0.85073676  0.86718715  1
  In  In42  1  0.32958102  0.17778235  0.36801011  1
  In  In43  1  0.33385579  0.16284580  0.87193656  1
  In  In44  1  0.32747023  0.49730475  0.37013358  1
  In  In45  1  0.33799190  0.49645131  0.88727940  1
  In  In46  1  0.34101991  0.82110712  0.38069417  1
  In  In47  1  0.33604003  0.84467026  0.87556334  1
  In  In48  1  0.68538602  0.16057730  0.38509098  1
  In  In49  1  0.66859868  0.15739608  0.88233734  1
  In  In50  1  0.65491451  0.49799427  0.37246613  1
  In  In51  1  0.65838606  0.47742232  0.88044816  1
  In  In52  1  0.66624271  0.83995611  0.37292025  1
  In  In53  1  0.65162719  0.84894020  0.87343845  1
  In  In54  1  0.16122846  -0.01004028  0.11631936  1
  In  In55  1  0.17168698  -0.01739540  0.63899140  1
  In  In56  1  0.17575698  0.34596034  0.11577228  1
  In  In57  1  0.17536151  0.33786862  0.62454923  1
  In  In58  1  0.17111337  0.66953189  0.12941806  1
  In  In59  1  0.17314427  0.66674587  0.61506304  1
  In  In60  1  0.50670452  0.00560439  0.11535552  1
  In  In61  1  0.51478747  -0.01731316  0.65785675  1
  In  In62  1  0.49397370  0.31907560  0.11287417  1
  In  In63  1  0.49646733  0.30846508  0.63443580  1
  In  In64  1  0.49765871  0.66733950  0.12587057  1
  In  In65  1  0.49052028  0.67847797  0.62539239  1
  In  In66  1  0.83050755  -0.00050268  0.12995113  1
  In  In67  1  0.83679443  0.00472327  0.62558130  1
  In  In68  1  0.83423731  0.32291833  0.12063324  1
  In  In69  1  0.82752783  0.31305514  0.61581611  1
  In  In70  1  0.82963377  0.67330991  0.13900230  1
  In  In71  1  0.81660547  0.67438049  0.61930619  1
  In  In72  1  0.00477816  0.32659068  0.75790069  1
  In  In73  1  0.83547104  0.83517339  0.00067799  1
  In  In74  1  0.00023872  0.67412316  0.75094293  1
  In  In75  1  0.00616895  0.33906638  0.23852275  1
  In  In76  1  0.65922634  0.67354337  0.74930154  1
  In  In77  1  0.65946890  0.31883422  0.75012103  1
  In  In78  1  0.50720823  0.15508781  0.51288074  1
  In  In79  1  0.49813157  0.49827826  0.49194815  1
  In  In80  1  0.33339173  0.67857857  0.75467271  1
  In  In81  1  0.33272461  -0.00138866  0.24640584  1
  In  In82  1  0.66198667  0.33278732  0.24966777  1
  In  In83  1  0.83445609  0.49619613  0.00126045  1
  In  In84  1  0.16734505  0.16904347  0.50020924  1
  In  In85  1  0.83961626  0.50674413  0.49523898  1
  Cu  Cu86  1  0.83267846  0.83845876  0.25642963  1
  Cu  Cu87  1  0.32652503  0.33249705  -0.00096046  1
  Cu  Cu88  1  0.82974806  0.50543537  0.25329643  1
  Cu  Cu89  1  0.33365058  0.66727883  0.00630925  1
  Cu  Cu90  1  0.01043791  0.67345405  0.00746785  1
  Cu  Cu91  1  0.50597271  0.16437222  0.24087613  1
  Cu  Cu92  1  0.83856356  0.48648600  0.74628081  1
  Cu  Cu93  1  -0.00438734  -0.00210271  0.49860924  1
  Cu  Cu94  1  0.33045879  0.66989322  0.49862787  1
  Cu  Cu95  1  0.33769919  0.33051634  0.50257124  1
  Cu  Cu96  1  -0.00325991  0.32820569  0.00096595  1
  Cu  Cu97  1  0.82557969  0.83987597  0.74341334  1
  Cu  Cu98  1  0.16613754  0.83319034  0.25182459  1
  Cu  Cu99  1  0.00226242  0.66813482  0.49546384  1
  Cu  Cu100  1  0.16160310  0.16610115  0.75789067  1
  Cu  Cu101  1  0.32445934  -0.00422888  0.50260753  1
  Cu  Cu102  1  0.00337097  -0.00039257  -0.00684033  1
  Cu  Cu103  1  0.50098319  0.83165465  0.24835083  1
  Cu  Cu104  1  0.66160439  0.67717328  0.49022132  1
  Cu  Cu105  1  0.65971445  0.66628257  0.00040883  1
  Cu  Cu106  1  0.00881784  0.33099113  0.50219009  1
  Cu  Cu107  1  0.33838795  0.00501043  -0.00448059  1
  Cu  Cu108  1  0.49888734  0.49646333  0.76112875  1
  Cu  Cu109  1  0.49149867  0.49964492  0.24849328  1
  Cu  Cu110  1  0.66855637  -0.00283551  -0.00028971  1
  Cu  Cu111  1  0.17441079  0.49846291  0.75112746  1
  Cu  Cu112  1  0.16779381  0.16973131  0.24609616  1
  Cu  Cu113  1  0.16860313  0.50864415  0.24791030  1
  Cu  Cu114  1  0.83328998  0.15779340  0.24864102  1
  Se  Se115  1  0.08617579  0.08204417  0.04901764  1
  Se  Se116  1  0.08432458  0.07257854  0.55868664  1
  Se  Se117  1  0.07506919  0.41745052  0.05276894  1
  Se  Se118  1  0.09523711  0.41465339  0.54946426  1
  Se  Se119  1  0.09293704  0.75812151  0.05894796  1
  Se  Se120  1  0.08286387  0.74963662  0.55336589  1
  Se  Se121  1  0.42064032  0.08901810  0.05054708  1
  Se  Se122  1  0.40311481  0.07447713  0.56360460  1
  Se  Se123  1  0.40940850  0.41369018  0.05550443  1
  Se  Se124  1  0.41881492  0.41096075  0.56289564  1
  Se  Se125  1  0.42061058  0.75272468  0.05457113  1
  Se  Se126  1  0.41283726  0.75431185  0.55207563  1
  Se  Se127  1  0.75590622  0.07667978  0.05348192  1
  Se  Se128  1  0.75120460  0.08263931  0.55527107  1
  Se  Se129  1  0.74127005  0.41093499  0.06046251  1
  Se  Se130  1  0.74844227  0.41932000  0.55738794  1
  Se  Se131  1  0.74531092  0.74317341  0.05906145  1
  Se  Se132  1  0.75030729  0.75535258  0.54288592  1
  Se  Se133  1  0.24354258  0.24660333  0.05107997  1
  Se  Se134  1  0.26445708  0.24520068  0.56341793  1
  Se  Se135  1  0.24897317  0.58439424  0.05893406  1
  Se  Se136  1  0.25259091  0.57801915  0.54859833  1
  Se  Se137  1  0.25606613  0.91975107  0.04973730  1
  Se  Se138  1  0.24054427  0.91367211  0.55508258  1
  Se  Se139  1  0.59118295  0.25322145  0.04723616  1
  Se  Se140  1  0.59590399  0.25751175  0.56182328  1
  Se  Se141  1  0.58030168  0.58287056  0.05562028  1
  Se  Se142  1  0.58504679  0.59606496  0.55308956  1
  Se  Se143  1  0.58609748  0.91133129  0.05180643  1
  Se  Se144  1  0.55959311  0.93063264  0.56138289  1
  Se  Se145  1  0.91052229  0.24297074  0.04833233  1
  Se  Se146  1  0.92629430  0.24486917  0.55181463  1
  Se  Se147  1  0.91715136  0.59752286  0.06034368  1
  Se  Se148  1  0.92649819  0.59130865  0.56416576  1
  Se  Se149  1  0.92901924  0.92012871  0.06054248  1
  Se  Se150  1  0.91265216  0.91560078  0.55368393  1
  Se  Se151  1  0.07945804  0.25313497  0.43171721  1
  Se  Se152  1  0.08232776  0.24612922  0.94872389  1
  Se  Se153  1  0.08608805  0.58135424  0.44698318  1
  Se  Se154  1  0.09043457  0.58398053  0.95665930  1
  Se  Se155  1  0.08336187  0.91631290  0.44766490  1
  Se  Se156  1  0.09064515  0.91542666  0.94540874  1
  Se  Se157  1  0.41826523  0.24883798  0.44447342  1
  Se  Se158  1  0.40881258  0.24783464  0.94584380  1
  Se  Se159  1  0.41265740  0.59392739  0.43498012  1
  Se  Se160  1  0.41865250  0.58453317  0.95278192  1
  Se  Se161  1  0.41125837  0.91758008  0.44693142  1
  Se  Se162  1  0.42354651  0.91865766  0.94573430  1
  Se  Se163  1  0.75172619  0.24800293  0.45791258  1
  Se  Se164  1  0.73431516  0.25523789  0.95060125  1
  Se  Se165  1  0.74267637  0.59071975  0.43513324  1
  Se  Se166  1  0.74235572  0.58769386  0.93960336  1
  Se  Se167  1  0.75076426  0.91162987  0.44568098  1
  Se  Se168  1  0.75303269  0.92462680  0.93663115  1
  Se  Se169  1  0.25688811  0.07875436  0.43606715  1
  Se  Se170  1  0.24921962  0.08665667  0.94554970  1
  Se  Se171  1  0.25721398  0.41449283  0.44758579  1
  Se  Se172  1  0.24208066  0.42285302  0.95201022  1
  Se  Se173  1  0.24418136  0.75301329  0.44732372  1
  Se  Se174  1  0.26091214  0.75347043  0.94603886  1
  Se  Se175  1  0.58802964  0.07184565  0.44220311  1
  Se  Se176  1  0.57950794  0.07666245  0.94758065  1
  Se  Se177  1  0.59614997  0.40054753  0.44630945  1
  Se  Se178  1  0.57304760  0.42445271  0.95792921  1
  Se  Se179  1  0.57437238  0.75853919  0.43990979  1
  Se  Se180  1  0.58680715  0.75576902  0.94484056  1
  Se  Se181  1  0.91516162  0.08538929  0.44652918  1
  Se  Se182  1  0.91115305  0.07783239  0.94351313  1
  Se  Se183  1  0.92779554  0.40805279  0.43797917  1
  Se  Se184  1  0.92000669  0.40648537  0.93520563  1
  Se  Se185  1  0.91474299  0.75096712  0.44713281  1
  Se  Se186  1  0.93287298  0.74785984  0.94074521  1
  Se  Se187  1  0.25288190  0.25541073  0.29357112  1
  Se  Se188  1  0.24685025  0.25168674  0.80639240  1
  Se  Se189  1  0.25078097  0.58903217  0.30504120  1
  Se  Se190  1  0.24754224  0.58176040  0.81338300  1
  Se  Se191  1  0.24671563  0.91307390  0.31252594  1
  Se  Se192  1  0.25004817  0.91049432  0.80165269  1
  Se  Se193  1  0.58090546  0.23714351  0.31253153  1
  Se  Se194  1  0.57047792  0.24275543  0.81744687  1
  Se  Se195  1  0.58186338  0.57863725  0.29925059  1
  Se  Se196  1  0.58024308  0.57947948  0.81631733  1
  Se  Se197  1  0.58259241  0.91856890  0.29944617  1
  Se  Se198  1  0.59143828  0.93340589  0.79715170  1
  Se  Se199  1  0.91488268  0.24809625  0.30074340  1
  Se  Se200  1  0.90922805  0.23115062  0.80423616  1
  Se  Se201  1  0.91888043  0.58899392  0.29970034  1
  Se  Se202  1  0.91162396  0.57176564  0.80659538  1
  Se  Se203  1  0.91970170  0.92048122  0.30763000  1
  Se  Se204  1  0.91319124  0.91422316  0.80021048  1
  Se  Se205  1  0.08434380  0.08430915  0.29579160  1
  Se  Se206  1  0.08366378  0.07816805  0.80956758  1
  Se  Se207  1  0.09001539  0.42348282  0.30827650  1
  Se  Se208  1  0.09183883  0.42454140  0.81352610  1
  Se  Se209  1  0.08158930  0.75186168  0.30719494  1
  Se  Se210  1  0.09913950  0.75540892  0.80690872  1
  Se  Se211  1  0.42433151  0.08985841  0.30682544  1
  Se  Se212  1  0.39883850  0.06666243  0.80356796  1
  Se  Se213  1  0.41312570  0.41316160  0.30309427  1
  Se  Se214  1  0.41439664  0.41649271  0.81364797  1
  Se  Se215  1  0.41132568  0.75125021  0.29852863  1
  Se  Se216  1  0.43432579  0.76423995  0.80515620  1
  Se  Se217  1  0.75057021  0.08033857  0.30684325  1
  Se  Se218  1  0.72850687  0.07688939  0.80102543  1
  Se  Se219  1  0.75969636  0.41681041  0.31226961  1
  Se  Se220  1  0.75594491  0.41280232  0.80696239  1
  Se  Se221  1  0.74510954  0.75195038  0.30346164  1
  Se  Se222  1  0.75599275  0.75819866  0.81018129  1
  Se  Se223  1  0.24684725  0.08881358  0.18434539  1
  Se  Se224  1  0.24123573  0.08469834  0.69969308  1
  Se  Se225  1  0.24675677  0.41880928  0.19568840  1
  Se  Se226  1  0.25606305  0.41706443  0.69702258  1
  Se  Se227  1  0.25327445  0.75307662  0.19920509  1
  Se  Se228  1  0.24261541  0.75610477  0.68801939  1
  Se  Se229  1  0.58819454  0.07843061  0.19150110  1
  Se  Se230  1  0.54602195  0.11936191  0.69037926  1
  Se  Se231  1  0.57320025  0.42001010  0.18747353  1
  Se  Se232  1  0.57515942  0.42281708  0.69319977  1
  Se  Se233  1  0.58469703  0.74683764  0.19559431  1
  Se  Se234  1  0.58754902  0.76375335  0.68048866  1
  Se  Se235  1  0.92151954  0.08013130  0.19519402  1
  Se  Se236  1  0.92382455  0.07145700  0.70090742  1
  Se  Se237  1  0.90401169  0.42814562  0.18671059  1
  Se  Se238  1  0.91434703  0.40770682  0.68524705  1
  Se  Se239  1  0.91730403  0.75489455  0.20263600  1
  Se  Se240  1  0.90562347  0.75494491  0.68710665  1
  Se  Se241  1  0.08891897  0.24392072  0.17987545  1
  Se  Se242  1  0.08915563  0.24304180  0.68828120  1
  Se  Se243  1  0.08096940  0.59103682  0.19848134  1
  Se  Se244  1  0.09135507  0.57782851  0.69308738  1
  Se  Se245  1  0.08776219  0.92131785  0.19815580  1
  Se  Se246  1  0.07109809  0.91570308  0.70223685  1
  Se  Se247  1  0.41988268  0.25025556  0.19410234  1
  Se  Se248  1  0.39549531  0.27311835  0.70730472  1
  Se  Se249  1  0.41207288  0.58773416  0.19624990  1
  Se  Se250  1  0.42549260  0.57989516  0.69754064  1
  Se  Se251  1  0.42317056  0.91223431  0.18514798  1
  Se  Se252  1  0.39607347  0.92481077  0.70484181  1
  Se  Se253  1  0.75073061  0.23919387  0.19097587  1
  Se  Se254  1  0.75844724  0.23325749  0.69522074  1
  Se  Se255  1  0.74327213  0.58783213  0.20267033  1
  Se  Se256  1  0.75624831  0.57501477  0.69489241  1
  Se  Se257  1  0.74890325  0.91780155  0.19903794  1
  Se  Se258  1  0.74273041  0.91956111  0.68809141  1
