# generated using pymatgen
data_In86Cu29Se144
_symmetry_space_group_name_H-M   'P 1'
_cell_length_a   17.58732627
_cell_length_b   17.59106025
_cell_length_c   23.45257627
_cell_angle_alpha   89.98421082
_cell_angle_beta   90.00198186
_cell_angle_gamma   90.00127248
_symmetry_Int_Tables_number   1
_chemical_formula_structural   In86Cu29Se144
_chemical_formula_sum   'In86 Cu29 Se144'
_cell_volume   7255.75110467
_cell_formula_units_Z   1
loop_
 _symmetry_equiv_pos_site_id
 _symmetry_equiv_pos_as_xyz
  1  'x, y, z'
loop_
 _atom_site_type_symbol
 _atom_site_label
 _atom_site_symmetry_multiplicity
 _atom_site_fract_x
 _atom_site_fract_y
 _atom_site_fract_z
 _atom_site_occupancy
  In  In0  1  0.00410239  0.16346549  0.13617550  1
  In  In1  1  0.00480665  0.14910060  0.62642818  1
  In  In2  1  -0.00633651  0.50066195  0.12098088  1
  In  In3  1  0.00899684  0.49271729  0.62380276  1
  In  In4  1  0.01466271  0.83396563  0.12672637  1
  In  In5  1  0.01081167  0.84197028  0.61409112  1
  In  In6  1  0.35866703  0.17130443  0.12231783  1
  In  In7  1  0.32464405  0.15866345  0.61731621  1
  In  In8  1  0.32411094  0.49606147  0.12098694  1
  In  In9  1  0.33773752  0.50056505  0.62022493  1
  In  In10  1  0.33182220  0.84122419  0.11379543  1
  In  In11  1  0.33557172  0.83711584  0.62548415  1
  In  In12  1  0.65411350  0.18295570  0.13201535  1
  In  In13  1  0.66336777  0.18371146  0.62533522  1
  In  In14  1  0.66319456  0.50184734  0.12615245  1
  In  In15  1  0.64221941  0.51527627  0.64643163  1
  In  In16  1  0.64779573  0.82900829  0.13091006  1
  In  In17  1  0.64748129  0.81005565  0.60353493  1
  In  In18  1  0.16689565  0.00741043  0.38040988  1
  In  In19  1  0.16422171  -0.01194137  0.86222443  1
  In  In20  1  0.17202648  0.33333248  0.37343958  1
  In  In21  1  0.17566994  0.33622953  0.87688653  1
  In  In22  1  0.17300514  0.66337064  0.38668628  1
  In  In23  1  0.16951858  0.66561373  0.87814912  1
  In  In24  1  0.49915205  0.00393638  0.38267859  1
  In  In25  1  0.48328291  0.00857383  0.88643631  1
  In  In26  1  0.50227220  0.32899033  0.36552404  1
  In  In27  1  0.50331482  0.33348456  0.87994469  1
  In  In28  1  0.50803576  0.66957046  0.37939881  1
  In  In29  1  0.50725258  0.65980308  0.87993490  1
  In  In30  1  0.83800331  -0.01450843  0.37530677  1
  In  In31  1  0.84012115  -0.01016029  0.86988202  1
  In  In32  1  0.83195492  0.33410218  0.36678234  1
  In  In33  1  0.83008041  0.34896459  0.88248533  1
  In  In34  1  0.82446193  0.68037724  0.38015978  1
  In  In35  1  0.81667006  0.66115774  0.87046512  1
  In  In36  1  0.01177774  0.17683215  0.36699523  1
  In  In37  1  0.00966530  0.15916104  0.87349092  1
  In  In38  1  0.01170216  0.49844477  0.37422324  1
  In  In39  1  0.00377736  0.49420259  0.88402479  1
  In  In40  1  -0.00003749  0.83881230  0.37863408  1
  In  In41  1  0.00037486  0.84412887  0.86685222  1
  In  In42  1  0.33268379  0.16887023  0.37622880  1
  In  In43  1  0.34455937  0.16827389  0.87404004  1
  In  In44  1  0.34673914  0.49349185  0.37935856  1
  In  In45  1  0.33548294  0.50085826  0.88125204  1
  In  In46  1  0.33825346  0.83027685  0.38502043  1
  In  In47  1  0.32545760  0.84360275  0.88209044  1
  In  In48  1  0.65301503  0.17553123  0.37469850  1
  In  In49  1  0.64524441  0.16521097  0.87699570  1
  In  In50  1  0.65957027  0.49519739  0.36880711  1
  In  In51  1  0.66191525  0.50283375  0.87662735  1
  In  In52  1  0.66509466  0.82872278  0.38193522  1
  In  In53  1  0.66072171  0.81812092  0.87202275  1
  In  In54  1  0.17491196  -0.01311697  0.12561268  1
  In  In55  1  0.16657674  -0.00547643  0.62551190  1
  In  In56  1  0.15926413  0.34001659  0.13330824  1
  In  In57  1  0.17947127  0.33757965  0.61571852  1
  In  In58  1  0.17051706  0.67364028  0.11651749  1
  In  In59  1  0.16945567  0.66617734  0.62106912  1
  In  In60  1  0.48946653  -0.00251591  0.11308525  1
  In  In61  1  0.49011157  -0.00925258  0.62080286  1
  In  In62  1  0.49338669  0.33774556  0.12752690  1
  In  In63  1  0.50588669  0.34247852  0.61626409  1
  In  In64  1  0.51271785  0.67583544  0.12484264  1
  In  In65  1  0.50087696  0.66626062  0.62286056  1
  In  In66  1  0.83759940  0.00892491  0.12735453  1
  In  In67  1  0.84763030  -0.00580683  0.62657859  1
  In  In68  1  0.82229160  0.34778748  0.13483660  1
  In  In69  1  0.82201530  0.32654314  0.62524203  1
  In  In70  1  0.82966206  0.65245763  0.12482253  1
  In  In71  1  0.81218138  0.66387885  0.62035642  1
  In  In72  1  0.83765470  0.16210688  0.50452704  1
  In  In73  1  0.83168562  0.82979793  -0.00856894  1
  In  In74  1  -0.00123816  0.32877770  0.75554468  1
  In  In75  1  0.33934733  0.66508366  0.25602783  1
  In  In76  1  0.82731180  0.17364139  0.01142945  1
  In  In77  1  -0.00408566  0.66258338  0.25290170  1
  In  In78  1  0.34000491  0.33541587  0.75135746  1
  In  In79  1  0.33523145  0.67076775  0.74653498  1
  In  In80  1  0.17118083  0.16721769  -0.00121862  1
  In  In81  1  0.33667255  0.00530945  0.24501683  1
  In  In82  1  0.82850822  0.49948108  0.49502494  1
  In  In83  1  0.66877989  0.00420059  0.25182216  1
  In  In84  1  -0.00133266  0.66998326  0.74565233  1
  In  In85  1  0.66688895  -0.00603413  0.74610126  1
  Cu  Cu86  1  0.33377397  0.00132598  0.50182766  1
  Cu  Cu87  1  0.00044184  0.34263661  0.00860662  1
  Cu  Cu88  1  0.66039512  0.33835724  0.00663136  1
  Cu  Cu89  1  0.16891621  0.16784958  0.25524286  1
  Cu  Cu90  1  0.33814681  0.33286053  0.49426733  1
  Cu  Cu91  1  0.66677693  0.66041896  -0.00037846  1
  Cu  Cu92  1  0.82827345  0.49780130  0.24872850  1
  Cu  Cu93  1  0.00198279  -0.00216239  -0.00506640  1
  Cu  Cu94  1  0.82576581  0.49659480  0.75333673  1
  Cu  Cu95  1  0.83268108  0.83399416  0.74300937  1
  Cu  Cu96  1  0.50208191  0.83052976  0.74680717  1
  Cu  Cu97  1  0.50039224  0.49762850  0.25011331  1
  Cu  Cu98  1  0.16508589  0.15672833  0.74372626  1
  Cu  Cu99  1  0.66896259  0.00129790  0.49672218  1
  Cu  Cu100  1  0.33741617  0.66498135  -0.00044914  1
  Cu  Cu101  1  0.33356671  0.66955571  0.50350960  1
  Cu  Cu102  1  0.33482304  0.33830671  0.00145894  1
  Cu  Cu103  1  -0.00078318  0.66526504  0.49916967  1
  Cu  Cu104  1  0.82719566  0.16750189  0.74848468  1
  Cu  Cu105  1  0.16780437  0.83647766  0.25171390  1
  Cu  Cu106  1  0.49517725  0.16641205  0.75062036  1
  Cu  Cu107  1  0.16586411  0.49257330  0.24884682  1
  Cu  Cu108  1  0.65448702  -0.00033373  0.00083353  1
  Cu  Cu109  1  0.83330307  0.83183812  0.25548462  1
  Cu  Cu110  1  0.65977806  0.33824807  0.49756373  1
  Cu  Cu111  1  0.00867868  -0.00035329  0.49945122  1
  Cu  Cu112  1  0.01365982  0.32813819  0.49885241  1
  Cu  Cu113  1  0.84097962  0.16436021  0.25110484  1
  Cu  Cu114  1  0.00291584  0.66710651  -0.00138293  1
  Se  Se115  1  0.07694110  0.07888540  0.05833725  1
  Se  Se116  1  0.09061110  0.08362338  0.55270709  1
  Se  Se117  1  0.08953508  0.42349960  0.05777095  1
  Se  Se118  1  0.09022914  0.41898023  0.55070138  1
  Se  Se119  1  0.08321849  0.75478798  0.04987544  1
  Se  Se120  1  0.08595855  0.74636713  0.55159194  1
  Se  Se121  1  0.39326929  0.06889288  0.04947236  1
  Se  Se122  1  0.42035995  0.08498591  0.55257604  1
  Se  Se123  1  0.41781577  0.42206716  0.05465056  1
  Se  Se124  1  0.41764048  0.41991217  0.54905125  1
  Se  Se125  1  0.41668825  0.74623203  0.05780914  1
  Se  Se126  1  0.41658843  0.75179338  0.55782533  1
  Se  Se127  1  0.73376602  0.07726817  0.06306916  1
  Se  Se128  1  0.74364277  0.07701406  0.56479655  1
  Se  Se129  1  0.74933066  0.42002687  0.05612366  1
  Se  Se130  1  0.74010992  0.41500412  0.55950951  1
  Se  Se131  1  0.74517741  0.74689055  0.05901453  1
  Se  Se132  1  0.75846764  0.75428464  0.54499079  1
  Se  Se133  1  0.25406048  0.25815216  0.06255213  1
  Se  Se134  1  0.25313170  0.24953187  0.54737050  1
  Se  Se135  1  0.24882155  0.58441407  0.05159351  1
  Se  Se136  1  0.25114695  0.58174261  0.55366819  1
  Se  Se137  1  0.23982818  0.91211598  0.04651530  1
  Se  Se138  1  0.25140946  0.91606982  0.55495069  1
  Se  Se139  1  0.57542500  0.25279216  0.05563781  1
  Se  Se140  1  0.58007768  0.24860516  0.54866150  1
  Se  Se141  1  0.58086981  0.58229164  0.05524448  1
  Se  Se142  1  0.58460933  0.57849011  0.55894612  1
  Se  Se143  1  0.57985696  0.90951156  0.05402490  1
  Se  Se144  1  0.58185430  0.92119338  0.55051873  1
  Se  Se145  1  0.92411518  0.25914427  0.06795070  1
  Se  Se146  1  0.92914578  0.25648724  0.56223659  1
  Se  Se147  1  0.91647620  0.58653336  0.05088861  1
  Se  Se148  1  0.92083395  0.58427302  0.56051802  1
  Se  Se149  1  0.91936000  0.91996343  0.05629474  1
  Se  Se150  1  0.91754400  0.91857787  0.54760049  1
  Se  Se151  1  0.09294752  0.24496863  0.44364932  1
  Se  Se152  1  0.07296061  0.26056857  0.94407124  1
  Se  Se153  1  0.08297088  0.57948817  0.44887717  1
  Se  Se154  1  0.08717894  0.58254244  0.94685768  1
  Se  Se155  1  0.09038974  0.91419621  0.44582317  1
  Se  Se156  1  0.08324969  0.91667068  0.94039412  1
  Se  Se157  1  0.42208050  0.25064697  0.44062557  1
  Se  Se158  1  0.41487037  0.25286568  0.94704142  1
  Se  Se159  1  0.41540261  0.59070149  0.44438360  1
  Se  Se160  1  0.42105303  0.58053860  0.94863707  1
  Se  Se161  1  0.41914645  0.91818225  0.45027520  1
  Se  Se162  1  0.43102409  0.89874335  0.94640444  1
  Se  Se163  1  0.74939006  0.25643709  0.44466680  1
  Se  Se164  1  0.73801796  0.25502633  0.94431767  1
  Se  Se165  1  0.73523170  0.58971531  0.44099108  1
  Se  Se166  1  0.75251522  0.57896092  0.94760220  1
  Se  Se167  1  0.75163773  0.91587762  0.44643911  1
  Se  Se168  1  0.73738632  0.92604361  0.93839003  1
  Se  Se169  1  0.25315555  0.08662596  0.44734945  1
  Se  Se170  1  0.24989685  0.07880688  0.93241068  1
  Se  Se171  1  0.25207366  0.41768172  0.44344302  1
  Se  Se172  1  0.24840259  0.41921174  0.94881722  1
  Se  Se173  1  0.24858840  0.75425040  0.45230224  1
  Se  Se174  1  0.25186491  0.74733350  0.94647866  1
  Se  Se175  1  0.58578082  0.08829318  0.44778231  1
  Se  Se176  1  0.57249413  0.08905640  0.95300629  1
  Se  Se177  1  0.57760866  0.41562535  0.43913252  1
  Se  Se178  1  0.58128287  0.42069810  0.94820921  1
  Se  Se179  1  0.57660868  0.75762934  0.45190491  1
  Se  Se180  1  0.58427638  0.74869932  0.95025484  1
  Se  Se181  1  0.92664909  0.08011863  0.43839893  1
  Se  Se182  1  0.91490526  0.08210606  0.94477614  1
  Se  Se183  1  0.92510727  0.40490692  0.44234231  1
  Se  Se184  1  0.91446330  0.42166064  0.95425529  1
  Se  Se185  1  0.91989753  0.75029841  0.44501559  1
  Se  Se186  1  0.92362530  0.74053050  0.93200118  1
  Se  Se187  1  0.25515357  0.25097200  0.30392661  1
  Se  Se188  1  0.24191113  0.24010673  0.80453176  1
  Se  Se189  1  0.24304092  0.57458615  0.31004820  1
  Se  Se190  1  0.24790509  0.57676794  0.80724959  1
  Se  Se191  1  0.25192190  0.91370575  0.31065036  1
  Se  Se192  1  0.26078102  0.91536706  0.79986902  1
  Se  Se193  1  0.59114944  0.25344132  0.29598524  1
  Se  Se194  1  0.57680826  0.25069401  0.80380359  1
  Se  Se195  1  0.57835816  0.58501911  0.30410344  1
  Se  Se196  1  0.59615223  0.59643773  0.80626546  1
  Se  Se197  1  0.57958404  0.91635148  0.31164682  1
  Se  Se198  1  0.57531973  0.91414058  0.81119683  1
  Se  Se199  1  0.92042361  0.25378395  0.30171009  1
  Se  Se200  1  0.90485982  0.24199207  0.81656396  1
  Se  Se201  1  0.90419086  0.57601469  0.31488335  1
  Se  Se202  1  0.91483957  0.57369250  0.80934867  1
  Se  Se203  1  0.92273996  0.91425361  0.30172821  1
  Se  Se204  1  0.91697919  0.91817278  0.79325408  1
  Se  Se205  1  0.08677456  0.07926087  0.30397667  1
  Se  Se206  1  0.07904992  0.07827235  0.79901061  1
  Se  Se207  1  0.08211134  0.41140208  0.30313925  1
  Se  Se208  1  0.09210567  0.42282675  0.80707569  1
  Se  Se209  1  0.09326355  0.74892555  0.31011144  1
  Se  Se210  1  0.09175095  0.75532711  0.80552663  1
  Se  Se211  1  0.42707568  0.09072818  0.30649434  1
  Se  Se212  1  0.41564160  0.07978506  0.80280746  1
  Se  Se213  1  0.41411574  0.41516497  0.30073904  1
  Se  Se214  1  0.42775518  0.42779282  0.80884811  1
  Se  Se215  1  0.42593765  0.76227310  0.30908738  1
  Se  Se216  1  0.42399171  0.75329592  0.81174986  1
  Se  Se217  1  0.75973633  0.09091315  0.31547549  1
  Se  Se218  1  0.75038804  0.08774169  0.81248901  1
  Se  Se219  1  0.74477575  0.41329987  0.30095601  1
  Se  Se220  1  0.74464425  0.41403353  0.80822156  1
  Se  Se221  1  0.74481857  0.75279103  0.30490197  1
  Se  Se222  1  0.75140255  0.75332195  0.79914132  1
  Se  Se223  1  0.24508703  0.09547251  0.18540988  1
  Se  Se224  1  0.25405447  0.07775660  0.69319965  1
  Se  Se225  1  0.25561910  0.41400122  0.19788508  1
  Se  Se226  1  0.24628999  0.42374466  0.69326852  1
  Se  Se227  1  0.24911926  0.75629078  0.19286520  1
  Se  Se228  1  0.23832998  0.75966340  0.69318263  1
  Se  Se229  1  0.57228534  0.08132528  0.18809993  1
  Se  Se230  1  0.57766833  0.08873814  0.68885227  1
  Se  Se231  1  0.58443699  0.41573085  0.19511204  1
  Se  Se232  1  0.59001701  0.39712204  0.69661144  1
  Se  Se233  1  0.58604081  0.74348580  0.20573528  1
  Se  Se234  1  0.58458431  0.74899229  0.69254978  1
  Se  Se235  1  0.92199076  0.07572608  0.20185680  1
  Se  Se236  1  0.91342822  0.08501357  0.69912636  1
  Se  Se237  1  0.92094584  0.42155582  0.19746055  1
  Se  Se238  1  0.90840216  0.41996835  0.69222184  1
  Se  Se239  1  0.91089932  0.75481343  0.18914564  1
  Se  Se240  1  0.91015920  0.75302388  0.68080330  1
  Se  Se241  1  0.08347991  0.25100471  0.20161129  1
  Se  Se242  1  0.09060763  0.24806454  0.68789652  1
  Se  Se243  1  0.09216837  0.58235171  0.19046852  1
  Se  Se244  1  0.09256436  0.57494560  0.69405975  1
  Se  Se245  1  0.08493686  0.92039167  0.19931127  1
  Se  Se246  1  0.07127804  0.92399380  0.69241337  1
  Se  Se247  1  0.41828533  0.25281052  0.19977926  1
  Se  Se248  1  0.41906516  0.24439684  0.68513821  1
  Se  Se249  1  0.42086809  0.57825940  0.18841528  1
  Se  Se250  1  0.42510019  0.57330738  0.69478223  1
  Se  Se251  1  0.42275325  0.90650684  0.19074275  1
  Se  Se252  1  0.41659462  0.91600706  0.69860795  1
  Se  Se253  1  0.75577457  0.24463657  0.19687351  1
  Se  Se254  1  0.74406881  0.25458968  0.70198423  1
  Se  Se255  1  0.74555329  0.58422323  0.19847238  1
  Se  Se256  1  0.74880125  0.58679287  0.70177599  1
  Se  Se257  1  0.75635842  0.91003784  0.18923079  1
  Se  Se258  1  0.74732587  0.90517506  0.68005719  1
