# generated using pymatgen
data_In86Cu29Se144
_symmetry_space_group_name_H-M   'P 1'
_cell_length_a   17.58104148
_cell_length_b   17.58003733
_cell_length_c   23.43917225
_cell_angle_alpha   90.00980755
_cell_angle_beta   89.98459326
_cell_angle_gamma   90.00139092
_symmetry_Int_Tables_number   1
_chemical_formula_structural   In86Cu29Se144
_chemical_formula_sum   'In86 Cu29 Se144'
_cell_volume   7244.47036032
_cell_formula_units_Z   1
loop_
 _symmetry_equiv_pos_site_id
 _symmetry_equiv_pos_as_xyz
  1  'x, y, z'
loop_
 _atom_site_type_symbol
 _atom_site_label
 _atom_site_symmetry_multiplicity
 _atom_site_fract_x
 _atom_site_fract_y
 _atom_site_fract_z
 _atom_site_occupancy
  In  In0  1  -0.01548440  0.15631210  0.11680811  1
  In  In1  1  0.00285292  0.17689113  0.62436737  1
  In  In2  1  0.00166748  0.49703740  0.11525460  1
  In  In3  1  -0.01001475  0.49318907  0.61800326  1
  In  In4  1  -0.00997300  0.84607981  0.13044965  1
  In  In5  1  -0.01166709  0.84418508  0.61884945  1
  In  In6  1  0.35128194  0.16693467  0.12253053  1
  In  In7  1  0.32716799  0.17204017  0.63578219  1
  In  In8  1  0.33534065  0.50410963  0.12058948  1
  In  In9  1  0.32511372  0.50203838  0.64099563  1
  In  In10  1  0.33107795  0.81642061  0.12537120  1
  In  In11  1  0.34430264  0.82712731  0.62950472  1
  In  In12  1  0.65778795  0.15709188  0.12083281  1
  In  In13  1  0.66912887  0.16776407  0.63072455  1
  In  In14  1  0.65851632  0.49554483  0.10921013  1
  In  In15  1  0.67699436  0.48818891  0.63033447  1
  In  In16  1  0.67726001  0.84096097  0.11482140  1
  In  In17  1  0.67428145  0.83931983  0.61969436  1
  In  In18  1  0.16059050  0.01398715  0.37124014  1
  In  In19  1  0.17142902  -0.01581690  0.87338626  1
  In  In20  1  0.17902555  0.34047518  0.37524845  1
  In  In21  1  0.17921465  0.35632476  0.85706052  1
  In  In22  1  0.16245023  0.64962199  0.37912255  1
  In  In23  1  0.17295281  0.64300423  0.87150354  1
  In  In24  1  0.49978873  -0.01397072  0.37420715  1
  In  In25  1  0.50517490  0.00205386  0.87572691  1
  In  In26  1  0.49420158  0.34396721  0.37486984  1
  In  In27  1  0.50333470  0.33073341  0.87654159  1
  In  In28  1  0.50539961  0.67434771  0.36998252  1
  In  In29  1  0.49499875  0.67803463  0.88559838  1
  In  In30  1  0.82981963  -0.00034820  0.37304103  1
  In  In31  1  0.82615735  0.01900728  0.88558488  1
  In  In32  1  0.82832458  0.32975559  0.38851927  1
  In  In33  1  0.83076301  0.33430716  0.87120379  1
  In  In34  1  0.83396571  0.67336200  0.38670266  1
  In  In35  1  0.82341999  0.66947030  0.88932896  1
  In  In36  1  -0.01022147  0.15517092  0.37393115  1
  In  In37  1  -0.01793055  0.17298815  0.87807323  1
  In  In38  1  0.00287407  0.51233531  0.39232554  1
  In  In39  1  0.00861038  0.49112460  0.87701922  1
  In  In40  1  -0.01829635  0.83975402  0.38090939  1
  In  In41  1  -0.00337839  0.83070598  0.87808306  1
  In  In42  1  0.32295826  0.18224184  0.37357378  1
  In  In43  1  0.34555241  0.17560143  0.87169319  1
  In  In44  1  0.32882784  0.49078457  0.36949597  1
  In  In45  1  0.33348693  0.50260898  0.87152097  1
  In  In46  1  0.35101014  0.83207434  0.37553401  1
  In  In47  1  0.34379554  0.84118059  0.86779956  1
  In  In48  1  0.68629032  0.16592300  0.37724747  1
  In  In49  1  0.66700482  0.16725242  0.87311850  1
  In  In50  1  0.66565801  0.50938269  0.37506803  1
  In  In51  1  0.67857434  0.49109915  0.88269589  1
  In  In52  1  0.65837927  0.83583465  0.37546686  1
  In  In53  1  0.65480107  0.84192132  0.88470920  1
  In  In54  1  0.16347926  -0.01061713  0.12918400  1
  In  In55  1  0.16276197  0.00996941  0.62631522  1
  In  In56  1  0.16755367  0.34923008  0.12155958  1
  In  In57  1  0.14964797  0.34625828  0.64646597  1
  In  In58  1  0.18137239  0.66230264  0.12706467  1
  In  In59  1  0.17866997  0.66386006  0.62629909  1
  In  In60  1  0.51012972  0.01055014  0.11803896  1
  In  In61  1  0.51371934  -0.00696955  0.63265912  1
  In  In62  1  0.49314540  0.33307761  0.11939829  1
  In  In63  1  0.50389673  0.33205207  0.63791240  1
  In  In64  1  0.49062808  0.65797450  0.10798113  1
  In  In65  1  0.48839340  0.66460799  0.62747373  1
  In  In66  1  0.83059594  -0.00359630  0.12356863  1
  In  In67  1  0.82212437  -0.00883860  0.61613625  1
  In  In68  1  0.83352016  0.32857308  0.11409983  1
  In  In69  1  0.83338276  0.33602191  0.62513613  1
  In  In70  1  0.82208107  0.66416371  0.11079811  1
  In  In71  1  0.84005478  0.66745297  0.61310350  1
  In  In72  1  0.50691450  0.50095168  0.50144754  1
  In  In73  1  -0.00258209  0.00448209  0.74827649  1
  In  In74  1  0.16095373  0.17073584  0.50296797  1
  In  In75  1  0.50442377  0.16421027  0.51475632  1
  In  In76  1  -0.00231464  0.66972583  0.25875495  1
  In  In77  1  0.00673248  0.33079417  0.25142212  1
  In  In78  1  0.00197070  0.66186490  0.74894461  1
  In  In79  1  0.33432071  0.00251811  0.24961783  1
  In  In80  1  0.65793949  0.66316731  0.24174265  1
  In  In81  1  0.66364031  0.66490770  0.75782280  1
  In  In82  1  0.15820931  0.82910571  0.49503563  1
  In  In83  1  0.65773261  0.33183852  0.24110519  1
  In  In84  1  0.16311994  0.82632991  0.00367834  1
  In  In85  1  0.16563622  0.17119157  -0.00443102  1
  Cu  Cu86  1  0.33315620  -0.00720347  0.50413195  1
  Cu  Cu87  1  0.83780383  0.49828629  0.75206345  1
  Cu  Cu88  1  0.66968237  0.32662227  -0.00412937  1
  Cu  Cu89  1  0.66868171  0.66966487  0.49874731  1
  Cu  Cu90  1  0.34302217  -0.00192733  -0.00478916  1
  Cu  Cu91  1  0.50124352  0.16316940  0.75508069  1
  Cu  Cu92  1  0.17473509  0.50329418  0.24905143  1
  Cu  Cu93  1  0.66482139  -0.00301597  0.49861273  1
  Cu  Cu94  1  0.82766266  0.17039628  0.75004549  1
  Cu  Cu95  1  0.33649964  0.33804445  -0.00734171  1
  Cu  Cu96  1  0.83154975  0.49409096  0.25030845  1
  Cu  Cu97  1  -0.00161397  0.66465403  -0.00075704  1
  Cu  Cu98  1  0.16864744  0.16206696  0.75370241  1
  Cu  Cu99  1  0.33810787  0.66393834  0.50451104  1
  Cu  Cu100  1  0.83344734  0.15480546  0.24827404  1
  Cu  Cu101  1  0.50273557  0.83274362  0.24635944  1
  Cu  Cu102  1  0.50183221  0.83448254  0.75505895  1
  Cu  Cu103  1  0.66922464  0.00391940  -0.00124586  1
  Cu  Cu104  1  0.50274342  0.16839706  0.24667670  1
  Cu  Cu105  1  0.82651558  0.84244541  0.74831397  1
  Cu  Cu106  1  0.33338847  0.34124899  0.50429055  1
  Cu  Cu107  1  -0.00037655  0.33387525  -0.00681364  1
  Cu  Cu108  1  -0.00055130  0.33432678  0.50394190  1
  Cu  Cu109  1  0.16528329  0.83182295  0.24963963  1
  Cu  Cu110  1  0.49961408  0.49724080  0.75581095  1
  Cu  Cu111  1  0.17554566  0.82623451  0.74847662  1
  Cu  Cu112  1  0.16229677  0.17411071  0.25028800  1
  Cu  Cu113  1  0.32873215  0.66322822  -0.00300066  1
  Cu  Cu114  1  0.82593444  0.83478684  0.24820188  1
  Se  Se115  1  0.08426682  0.07396818  0.05673808  1
  Se  Se116  1  0.06781274  0.07418997  0.55393740  1
  Se  Se117  1  0.08504844  0.41680626  0.04585700  1
  Se  Se118  1  0.08802294  0.41033772  0.55859793  1
  Se  Se119  1  0.07398938  0.73972556  0.06787107  1
  Se  Se120  1  0.07836033  0.74451610  0.56514214  1
  Se  Se121  1  0.42217232  0.08624661  0.04775654  1
  Se  Se122  1  0.40652244  0.07487900  0.56747010  1
  Se  Se123  1  0.41730633  0.42100884  0.05025840  1
  Se  Se124  1  0.41767016  0.41526805  0.56512334  1
  Se  Se125  1  0.41061166  0.75348195  0.04574368  1
  Se  Se126  1  0.42139221  0.75127961  0.55274965  1
  Se  Se127  1  0.75235540  0.08585046  0.05475044  1
  Se  Se128  1  0.73975421  0.08411460  0.55520659  1
  Se  Se129  1  0.75144315  0.41354457  0.04872261  1
  Se  Se130  1  0.76160496  0.42719676  0.55497995  1
  Se  Se131  1  0.75036459  0.75441252  0.04476298  1
  Se  Se132  1  0.75305099  0.75385162  0.55093619  1
  Se  Se133  1  0.25909933  0.25702709  0.05716638  1
  Se  Se134  1  0.25120941  0.25954606  0.56214552  1
  Se  Se135  1  0.24469289  0.57981745  0.04969712  1
  Se  Se136  1  0.25993391  0.57848991  0.55853224  1
  Se  Se137  1  0.26019515  0.92224285  0.05716219  1
  Se  Se138  1  0.24724590  0.91611761  0.56136482  1
  Se  Se139  1  0.58447505  0.25184659  0.05603859  1
  Se  Se140  1  0.59303675  0.26544751  0.56100070  1
  Se  Se141  1  0.59122479  0.59230112  0.04461447  1
  Se  Se142  1  0.59427027  0.59082069  0.56474035  1
  Se  Se143  1  0.58380339  0.91992835  0.05050043  1
  Se  Se144  1  0.58057304  0.91463894  0.55301671  1
  Se  Se145  1  0.91874310  0.24833016  0.04613797  1
  Se  Se146  1  0.91575990  0.25036972  0.55505059  1
  Se  Se147  1  0.91462918  0.57941893  0.05127205  1
  Se  Se148  1  0.92197185  0.58384271  0.54850697  1
  Se  Se149  1  0.90956486  0.91013688  0.05446606  1
  Se  Se150  1  0.91059023  0.91862976  0.54641486  1
  Se  Se151  1  0.07551445  0.25848999  0.43505325  1
  Se  Se152  1  0.08531186  0.26192289  0.93058207  1
  Se  Se153  1  0.09467053  0.58099959  0.46005010  1
  Se  Se154  1  0.08278585  0.58274725  0.94615305  1
  Se  Se155  1  0.07557568  0.93180900  0.44088153  1
  Se  Se156  1  0.07596101  0.92291540  0.94711767  1
  Se  Se157  1  0.41301188  0.25451975  0.44883137  1
  Se  Se158  1  0.42146977  0.24819617  0.94889648  1
  Se  Se159  1  0.41602768  0.58672976  0.43871827  1
  Se  Se160  1  0.41439466  0.58133756  0.94458251  1
  Se  Se161  1  0.42012218  0.91471725  0.45099386  1
  Se  Se162  1  0.42455811  0.91190832  0.94368552  1
  Se  Se163  1  0.74772291  0.24647793  0.45490648  1
  Se  Se164  1  0.75490625  0.24641957  0.94177264  1
  Se  Se165  1  0.74916006  0.58223731  0.44705702  1
  Se  Se166  1  0.74907264  0.57893857  0.95389008  1
  Se  Se167  1  0.74672447  0.91425426  0.44202267  1
  Se  Se168  1  0.75198501  0.91925639  0.94601582  1
  Se  Se169  1  0.25923980  0.07884041  0.44461394  1
  Se  Se170  1  0.25681895  0.07608790  0.93855157  1
  Se  Se171  1  0.25053381  0.42303123  0.44967449  1
  Se  Se172  1  0.24912291  0.41931701  0.94213960  1
  Se  Se173  1  0.26039705  0.74356666  0.44065225  1
  Se  Se174  1  0.25154272  0.74673830  0.93504100  1
  Se  Se175  1  0.58283402  0.07951194  0.44070797  1
  Se  Se176  1  0.58482655  0.08705250  0.94515899  1
  Se  Se177  1  0.59528858  0.40758018  0.44279892  1
  Se  Se178  1  0.58493157  0.41290614  0.94672426  1
  Se  Se179  1  0.58110837  0.74931344  0.44588483  1
  Se  Se180  1  0.59526559  0.74062479  0.95087666  1
  Se  Se181  1  0.89780569  0.09306351  0.44321814  1
  Se  Se182  1  0.92562040  0.08206407  0.95145363  1
  Se  Se183  1  0.91778522  0.41678104  0.44779050  1
  Se  Se184  1  0.91355680  0.41737624  0.94172430  1
  Se  Se185  1  0.93423115  0.73763671  0.44997352  1
  Se  Se186  1  0.91742068  0.75236370  0.94950317  1
  Se  Se187  1  0.24811497  0.25876874  0.29783473  1
  Se  Se188  1  0.25184526  0.24744156  0.80468980  1
  Se  Se189  1  0.25275116  0.58763142  0.30557816  1
  Se  Se190  1  0.24961531  0.57366490  0.79586621  1
  Se  Se191  1  0.24567618  0.91231013  0.31263724  1
  Se  Se192  1  0.25485298  0.91667813  0.79828237  1
  Se  Se193  1  0.58024527  0.24355087  0.31335604  1
  Se  Se194  1  0.58520268  0.25079498  0.80404498  1
  Se  Se195  1  0.56962576  0.57022558  0.30176866  1
  Se  Se196  1  0.57737022  0.57545977  0.81892577  1
  Se  Se197  1  0.58425928  0.91666459  0.29972498  1
  Se  Se198  1  0.58736782  0.91843599  0.80479743  1
  Se  Se199  1  0.90369295  0.24851052  0.30592238  1
  Se  Se200  1  0.91470327  0.25234503  0.80036146  1
  Se  Se201  1  0.90652878  0.57321664  0.31323578  1
  Se  Se202  1  0.90820249  0.58417095  0.81476946  1
  Se  Se203  1  0.91189838  0.91513337  0.30220415  1
  Se  Se204  1  0.90987489  0.91611089  0.81085081  1
  Se  Se205  1  0.07805084  0.08845772  0.29903819  1
  Se  Se206  1  0.08699244  0.08598067  0.81557446  1
  Se  Se207  1  0.08690322  0.43070906  0.31080576  1
  Se  Se208  1  0.07596136  0.42052360  0.79540951  1
  Se  Se209  1  0.08924374  0.75884327  0.31768675  1
  Se  Se210  1  0.09214445  0.75362156  0.81084459  1
  Se  Se211  1  0.42098497  0.09378389  0.31314182  1
  Se  Se212  1  0.41640538  0.07891881  0.80613249  1
  Se  Se213  1  0.41240410  0.41066064  0.30111741  1
  Se  Se214  1  0.41752630  0.41161654  0.80802526  1
  Se  Se215  1  0.41897683  0.74988794  0.29899435  1
  Se  Se216  1  0.41986080  0.74561148  0.80407654  1
  Se  Se217  1  0.74438199  0.07778795  0.30080845  1
  Se  Se218  1  0.75027010  0.08206714  0.80359417  1
  Se  Se219  1  0.74999348  0.41482254  0.30850934  1
  Se  Se220  1  0.74754413  0.41771975  0.80140701  1
  Se  Se221  1  0.75139379  0.74754239  0.30689021  1
  Se  Se222  1  0.75475243  0.75981812  0.81221173  1
  Se  Se223  1  0.24438505  0.09400408  0.18836809  1
  Se  Se224  1  0.24903525  0.07787075  0.69937139  1
  Se  Se225  1  0.25352768  0.41991323  0.19286843  1
  Se  Se226  1  0.26829163  0.39219593  0.69958855  1
  Se  Se227  1  0.25031605  0.74671900  0.20206228  1
  Se  Se228  1  0.25968280  0.74385638  0.69664884  1
  Se  Se229  1  0.58438333  0.08026718  0.19860172  1
  Se  Se230  1  0.58706920  0.08431649  0.69941939  1
  Se  Se231  1  0.57133930  0.42962531  0.18805581  1
  Se  Se232  1  0.58735633  0.42010117  0.70184970  1
  Se  Se233  1  0.57745556  0.75667073  0.17967694  1
  Se  Se234  1  0.58069675  0.75430588  0.69151554  1
  Se  Se235  1  0.91881533  0.07563941  0.19458953  1
  Se  Se236  1  0.90578000  0.08933173  0.68671841  1
  Se  Se237  1  0.91289034  0.41764379  0.18966824  1
  Se  Se238  1  0.91905162  0.41582359  0.69636787  1
  Se  Se239  1  0.90377540  0.74663439  0.19177206  1
  Se  Se240  1  0.90866348  0.75840656  0.69364692  1
  Se  Se241  1  0.08546038  0.24408682  0.18046433  1
  Se  Se242  1  0.07803219  0.24272688  0.70491589  1
  Se  Se243  1  0.08292782  0.57779860  0.19335964  1
  Se  Se244  1  0.08729666  0.57362547  0.68714306  1
  Se  Se245  1  0.07990850  0.91662156  0.20194311  1
  Se  Se246  1  0.08870171  0.90615155  0.69250228  1
  Se  Se247  1  0.41879167  0.25254221  0.19672446  1
  Se  Se248  1  0.41807278  0.24779182  0.70191084  1
  Se  Se249  1  0.40840288  0.59830165  0.18661130  1
  Se  Se250  1  0.41882847  0.58324983  0.70267846  1
  Se  Se251  1  0.42015187  0.91387272  0.18599054  1
  Se  Se252  1  0.41990449  0.91670001  0.69755542  1
  Se  Se253  1  0.75738198  0.24152459  0.18906577  1
  Se  Se254  1  0.74815376  0.25749473  0.69656165  1
  Se  Se255  1  0.75359393  0.57038913  0.18705020  1
  Se  Se256  1  0.76217255  0.58710220  0.69391224  1
  Se  Se257  1  0.74418227  0.91854369  0.19488704  1
  Se  Se258  1  0.74296759  0.92345102  0.69558163  1
