# generated using pymatgen
data_In86Cu29Se144
_symmetry_space_group_name_H-M   'P 1'
_cell_length_a   17.58642205
_cell_length_b   17.58249297
_cell_length_c   23.43634309
_cell_angle_alpha   90.00942233
_cell_angle_beta   89.99178683
_cell_angle_gamma   89.97724243
_symmetry_Int_Tables_number   1
_chemical_formula_structural   In86Cu29Se144
_chemical_formula_sum   'In86 Cu29 Se144'
_cell_volume   7246.82454080
_cell_formula_units_Z   1
loop_
 _symmetry_equiv_pos_site_id
 _symmetry_equiv_pos_as_xyz
  1  'x, y, z'
loop_
 _atom_site_type_symbol
 _atom_site_label
 _atom_site_symmetry_multiplicity
 _atom_site_fract_x
 _atom_site_fract_y
 _atom_site_fract_z
 _atom_site_occupancy
  In  In0  1  0.00029593  0.16818017  0.12197037  1
  In  In1  1  -0.00033174  0.16335554  0.62206792  1
  In  In2  1  0.00795157  0.48901832  0.13245592  1
  In  In3  1  0.00176372  0.48483828  0.62394431  1
  In  In4  1  -0.01502772  0.84224170  0.14700700  1
  In  In5  1  0.00008653  0.86227379  0.62437309  1
  In  In6  1  0.32133933  0.18348140  0.14225566  1
  In  In7  1  0.33208114  0.18141632  0.62349586  1
  In  In8  1  0.32490247  0.50657645  0.13495580  1
  In  In9  1  0.32494782  0.49812380  0.62036887  1
  In  In10  1  0.33783169  0.83053615  0.13803299  1
  In  In11  1  0.33356022  0.82272038  0.61689757  1
  In  In12  1  0.66396242  0.15826804  0.12317558  1
  In  In13  1  0.68293149  0.15087854  0.64145426  1
  In  In14  1  0.67754122  0.49820468  0.12546438  1
  In  In15  1  0.66753521  0.49679167  0.63796968  1
  In  In16  1  0.66843549  0.84356386  0.13438549  1
  In  In17  1  0.66895592  0.83328813  0.61566546  1
  In  In18  1  0.17117760  0.00900205  0.36863580  1
  In  In19  1  0.17264753  0.01625994  0.87620777  1
  In  In20  1  0.16405180  0.33269311  0.37570817  1
  In  In21  1  0.16536096  0.33202760  0.87356402  1
  In  In22  1  0.15945650  0.65658713  0.37130776  1
  In  In23  1  0.15359353  0.65949126  0.88283163  1
  In  In24  1  0.48945671  -0.00442939  0.36802962  1
  In  In25  1  0.50750574  -0.01040622  0.87409731  1
  In  In26  1  0.49573067  0.34523991  0.37068997  1
  In  In27  1  0.49807409  0.34024655  0.86488489  1
  In  In28  1  0.51568347  0.67259530  0.36055275  1
  In  In29  1  0.50705953  0.65679981  0.87223179  1
  In  In30  1  0.83757848  0.00085955  0.37060115  1
  In  In31  1  0.85650196  0.02905742  0.84698259  1
  In  In32  1  0.83422084  0.31795213  0.37918525  1
  In  In33  1  0.82676386  0.31085381  0.86291076  1
  In  In34  1  0.84144772  0.68341433  0.36199668  1
  In  In35  1  0.82731423  0.67672825  0.87379478  1
  In  In36  1  -0.00043589  0.16828765  0.37310084  1
  In  In37  1  0.00089825  0.17252545  0.87068283  1
  In  In38  1  0.01114933  0.50659896  0.37348626  1
  In  In39  1  0.01768224  0.49597920  0.88086685  1
  In  In40  1  -0.01162286  0.83284257  0.36476567  1
  In  In41  1  -0.01525570  0.83409968  0.87357440  1
  In  In42  1  0.32384495  0.15640401  0.36523462  1
  In  In43  1  0.31572086  0.17197659  0.87923731  1
  In  In44  1  0.32789656  0.48607940  0.36277345  1
  In  In45  1  0.32936365  0.48421068  0.87392100  1
  In  In46  1  0.34347870  0.84114610  0.37118841  1
  In  In47  1  0.33842596  0.83885988  0.87869240  1
  In  In48  1  0.68658861  0.16826156  0.38052301  1
  In  In49  1  0.68316812  0.17953051  0.86160281  1
  In  In50  1  0.65693326  0.50801441  0.37397347  1
  In  In51  1  0.65702569  0.49596273  0.86023373  1
  In  In52  1  0.66833040  0.83273941  0.37688280  1
  In  In53  1  0.67558594  0.84078036  0.86371636  1
  In  In54  1  0.15419017  0.01250293  0.13080476  1
  In  In55  1  0.13759449  0.00339978  0.62661411  1
  In  In56  1  0.16349607  0.33236491  0.12234763  1
  In  In57  1  0.16726237  0.33101589  0.62105970  1
  In  In58  1  0.17156632  0.65983376  0.13497247  1
  In  In59  1  0.17823364  0.66534090  0.61719085  1
  In  In60  1  0.50357968  0.01145029  0.14303122  1
  In  In61  1  0.51359918  -0.00444484  0.61920514  1
  In  In62  1  0.49135897  0.31851444  0.13021822  1
  In  In63  1  0.50263612  0.33532979  0.63965605  1
  In  In64  1  0.50223984  0.65570690  0.13949806  1
  In  In65  1  0.50013518  0.67529784  0.61496718  1
  In  In66  1  0.82580268  0.00832132  0.13372486  1
  In  In67  1  0.83561167  0.00230663  0.61864264  1
  In  In68  1  0.84648951  0.33813380  0.12175186  1
  In  In69  1  0.85335747  0.30802169  0.64910018  1
  In  In70  1  0.82528083  0.67779991  0.14390718  1
  In  In71  1  0.82122663  0.66784716  0.61925929  1
  In  In72  1  0.49522483  0.50357350  0.49578276  1
  In  In73  1  0.83090929  0.49437209  0.50566291  1
  In  In74  1  0.33650397  0.66266832  0.73956114  1
  In  In75  1  0.50108893  0.16819433  0.50025607  1
  In  In76  1  0.50034384  0.16545675  0.00408359  1
  In  In77  1  -0.00193102  0.66800316  0.75165011  1
  In  In78  1  0.66394515  0.33452018  0.25053880  1
  In  In79  1  0.33249329  0.00197655  0.75260302  1
  In  In80  1  0.15826754  0.83469938  0.00689426  1
  In  In81  1  0.16315681  0.83921661  0.49963457  1
  In  In82  1  0.84124656  0.49797498  0.00061015  1
  In  In83  1  0.82952248  0.83909816  0.00499613  1
  In  In84  1  0.50408128  0.83185429  0.01535172  1
  In  In85  1  0.49799699  0.49291480  -0.00634182  1
  Cu  Cu86  1  0.83469488  0.50224954  0.25150855  1
  Cu  Cu87  1  0.32607913  0.33345376  0.00222691  1
  Cu  Cu88  1  0.15982095  0.17067252  0.25014542  1
  Cu  Cu89  1  0.16989773  0.49474741  0.74804419  1
  Cu  Cu90  1  0.32901130  0.00634957  0.01058046  1
  Cu  Cu91  1  0.00222125  0.32563218  -0.00208036  1
  Cu  Cu92  1  0.67223477  -0.00229660  0.49820162  1
  Cu  Cu93  1  -0.00128446  0.67124447  0.49229822  1
  Cu  Cu94  1  0.83913687  0.16797117  0.25031241  1
  Cu  Cu95  1  0.83754300  0.49988688  0.74762689  1
  Cu  Cu96  1  0.32867705  0.00245202  0.49311699  1
  Cu  Cu97  1  0.67913911  0.00755279  -0.00211234  1
  Cu  Cu98  1  0.82760589  0.83505282  0.74165166  1
  Cu  Cu99  1  -0.00278814  0.00936038  -0.00304741  1
  Cu  Cu100  1  0.66325051  0.66584485  -0.00436507  1
  Cu  Cu101  1  0.66929233  0.67155832  0.49296363  1
  Cu  Cu102  1  0.50242081  0.83447604  0.25350384  1
  Cu  Cu103  1  0.32599849  0.33266773  0.49533083  1
  Cu  Cu104  1  0.32206784  0.65824080  0.00765892  1
  Cu  Cu105  1  0.50562755  0.82828533  0.74276597  1
  Cu  Cu106  1  0.33596885  0.66640091  0.49201017  1
  Cu  Cu107  1  0.67021047  0.32839179  0.51225104  1
  Cu  Cu108  1  -0.00679839  0.00792456  0.49461628  1
  Cu  Cu109  1  0.16280659  0.49235327  0.25035713  1
  Cu  Cu110  1  0.16328343  0.17024833  0.74964554  1
  Cu  Cu111  1  0.49513671  0.16611736  0.74710282  1
  Cu  Cu112  1  0.00342271  0.32844365  0.50246330  1
  Cu  Cu113  1  0.00258780  0.66104179  0.01438361  1
  Cu  Cu114  1  0.16985238  0.83503942  0.25543548  1
  Se  Se115  1  0.08502751  0.08698714  0.05069896  1
  Se  Se116  1  0.08199711  0.08671196  0.54666953  1
  Se  Se117  1  0.07863425  0.41445825  0.05270146  1
  Se  Se118  1  0.08725412  0.41719020  0.55033304  1
  Se  Se119  1  0.07177715  0.75113559  0.07286732  1
  Se  Se120  1  0.07352902  0.74861361  0.56124237  1
  Se  Se121  1  0.41124342  0.08303553  0.06990362  1
  Se  Se122  1  0.40895917  0.07677581  0.55974291  1
  Se  Se123  1  0.40974953  0.41089304  0.06131981  1
  Se  Se124  1  0.41438988  0.40431031  0.55655357  1
  Se  Se125  1  0.40854321  0.73539954  0.06346760  1
  Se  Se126  1  0.41779186  0.75262347  0.54309597  1
  Se  Se127  1  0.75874182  0.08877258  0.05475938  1
  Se  Se128  1  0.74654720  0.08710196  0.55365244  1
  Se  Se129  1  0.74420085  0.40666894  0.05277321  1
  Se  Se130  1  0.75182447  0.40565372  0.57256659  1
  Se  Se131  1  0.73939325  0.74320428  0.06022370  1
  Se  Se132  1  0.75495736  0.75365211  0.54487831  1
  Se  Se133  1  0.25023847  0.24532903  0.05704552  1
  Se  Se134  1  0.24624045  0.24645556  0.54866813  1
  Se  Se135  1  0.24024815  0.57492569  0.05881069  1
  Se  Se136  1  0.25410043  0.58234558  0.54575031  1
  Se  Se137  1  0.25415629  0.91818548  0.06680514  1
  Se  Se138  1  0.25112748  0.92903032  0.56225795  1
  Se  Se139  1  0.59165762  0.26046293  0.05761144  1
  Se  Se140  1  0.58647234  0.24929669  0.56937039  1
  Se  Se141  1  0.58577383  0.58564635  0.05670025  1
  Se  Se142  1  0.59648447  0.58415784  0.55496105  1
  Se  Se143  1  0.59406460  0.93480814  0.06082157  1
  Se  Se144  1  0.58332828  0.91297815  0.54486223  1
  Se  Se145  1  0.91486536  0.24775030  0.05102719  1
  Se  Se146  1  0.91459714  0.25276162  0.55742580  1
  Se  Se147  1  0.91316645  0.58935420  0.07194177  1
  Se  Se148  1  0.92668913  0.58928820  0.55936159  1
  Se  Se149  1  0.92541664  0.92590451  0.06096914  1
  Se  Se150  1  0.91455112  0.91816307  0.54586317  1
  Se  Se151  1  0.08388034  0.24712259  0.44478090  1
  Se  Se152  1  0.08759045  0.24549489  0.94318582  1
  Se  Se153  1  0.08592483  0.58298367  0.45075973  1
  Se  Se154  1  0.08391947  0.57954616  0.95880181  1
  Se  Se155  1  0.07498252  0.92441525  0.43557174  1
  Se  Se156  1  0.07421353  0.92208678  0.93947917  1
  Se  Se157  1  0.41099634  0.25454860  0.43735941  1
  Se  Se158  1  0.41208735  0.25860621  0.94167026  1
  Se  Se159  1  0.41186671  0.58750714  0.42879718  1
  Se  Se160  1  0.40520833  0.59062583  0.94081174  1
  Se  Se161  1  0.41776613  0.91958688  0.44738206  1
  Se  Se162  1  0.41280781  0.92654369  0.95319817  1
  Se  Se163  1  0.75565960  0.24896375  0.45772632  1
  Se  Se164  1  0.75301591  0.24510723  0.94404373  1
  Se  Se165  1  0.75149316  0.58573382  0.43918197  1
  Se  Se166  1  0.74428359  0.58437542  0.93892397  1
  Se  Se167  1  0.75482185  0.91783869  0.44122448  1
  Se  Se168  1  0.75367295  0.92691010  0.93513484  1
  Se  Se169  1  0.24571726  0.08834240  0.44482926  1
  Se  Se170  1  0.24791516  0.08696264  0.95462973  1
  Se  Se171  1  0.24823031  0.42070578  0.44240072  1
  Se  Se172  1  0.24408815  0.41600193  0.94705744  1
  Se  Se173  1  0.25098305  0.75005012  0.43720507  1
  Se  Se174  1  0.25379652  0.74653738  0.94519028  1
  Se  Se175  1  0.58875860  0.07810368  0.43880647  1
  Se  Se176  1  0.58890402  0.07990243  0.93971979  1
  Se  Se177  1  0.59409893  0.40617413  0.44743565  1
  Se  Se178  1  0.59433019  0.40572055  0.93928177  1
  Se  Se179  1  0.57789364  0.74924889  0.44305528  1
  Se  Se180  1  0.58752215  0.75381401  0.93951098  1
  Se  Se181  1  0.90961499  0.09138714  0.44199934  1
  Se  Se182  1  0.91473219  0.08659359  0.93826949  1
  Se  Se183  1  0.92356953  0.41153949  0.44209484  1
  Se  Se184  1  0.92197788  0.40567637  0.93614318  1
  Se  Se185  1  0.91498067  0.75442400  0.44221835  1
  Se  Se186  1  0.92316544  0.73888242  0.95095637  1
  Se  Se187  1  0.24580094  0.25186996  0.30367492  1
  Se  Se188  1  0.25003051  0.25247924  0.80160461  1
  Se  Se189  1  0.24536653  0.57952534  0.30177737  1
  Se  Se190  1  0.24300946  0.58249144  0.80795976  1
  Se  Se191  1  0.25494198  0.92098706  0.30489138  1
  Se  Se192  1  0.24296371  0.90953999  0.81170966  1
  Se  Se193  1  0.58478128  0.24492487  0.31744690  1
  Se  Se194  1  0.57807209  0.24813603  0.80246466  1
  Se  Se195  1  0.56977571  0.56369485  0.29802291  1
  Se  Se196  1  0.59095868  0.59593893  0.79694181  1
  Se  Se197  1  0.58563623  0.91742335  0.30709194  1
  Se  Se198  1  0.58272249  0.91587570  0.79749475  1
  Se  Se199  1  0.91920794  0.25476100  0.30263419  1
  Se  Se200  1  0.91669246  0.24073812  0.79456951  1
  Se  Se201  1  0.91996059  0.58240755  0.30604104  1
  Se  Se202  1  0.91344935  0.57627621  0.81567953  1
  Se  Se203  1  0.91235472  0.91888625  0.29666529  1
  Se  Se204  1  0.91687999  0.91191356  0.79584094  1
  Se  Se205  1  0.07860167  0.08363775  0.30229956  1
  Se  Se206  1  0.08552257  0.08327564  0.80396425  1
  Se  Se207  1  0.07818670  0.41162552  0.30497731  1
  Se  Se208  1  0.08385676  0.41602991  0.80276163  1
  Se  Se209  1  0.08511385  0.75096400  0.30663130  1
  Se  Se210  1  0.08949030  0.75630276  0.81265833  1
  Se  Se211  1  0.42237039  0.09083464  0.30104507  1
  Se  Se212  1  0.42074864  0.09091414  0.81653378  1
  Se  Se213  1  0.41735740  0.41272886  0.29437017  1
  Se  Se214  1  0.42164734  0.43138448  0.80028125  1
  Se  Se215  1  0.41524578  0.74993429  0.30227103  1
  Se  Se216  1  0.42221324  0.75581499  0.80617516  1
  Se  Se217  1  0.75278717  0.08706905  0.30268612  1
  Se  Se218  1  0.72928289  0.06494756  0.80213756  1
  Se  Se219  1  0.75692055  0.42108391  0.31449837  1
  Se  Se220  1  0.75668657  0.41740677  0.80420746  1
  Se  Se221  1  0.72276206  0.72833808  0.30860282  1
  Se  Se222  1  0.75004136  0.74818903  0.79700481  1
  Se  Se223  1  0.24562293  0.08305321  0.20046170  1
  Se  Se224  1  0.24391155  0.08806800  0.68842561  1
  Se  Se225  1  0.24642838  0.41028307  0.19509458  1
  Se  Se226  1  0.25145537  0.41352036  0.69200640  1
  Se  Se227  1  0.25045852  0.74798076  0.20202538  1
  Se  Se228  1  0.23986350  0.76015551  0.69281379  1
  Se  Se229  1  0.60500241  0.07872443  0.20320319  1
  Se  Se230  1  0.57605746  0.07853266  0.69684975  1
  Se  Se231  1  0.57596079  0.42114381  0.18616635  1
  Se  Se232  1  0.58154260  0.42092625  0.70524273  1
  Se  Se233  1  0.58348755  0.75378106  0.19540420  1
  Se  Se234  1  0.58655387  0.74819733  0.68585723  1
  Se  Se235  1  0.92215576  0.08556997  0.19474804  1
  Se  Se236  1  0.92006591  0.07751008  0.68986424  1
  Se  Se237  1  0.91580316  0.41470466  0.20013610  1
  Se  Se238  1  0.92656262  0.41588766  0.70248151  1
  Se  Se239  1  0.92209120  0.74102254  0.20969355  1
  Se  Se240  1  0.91403761  0.75510977  0.68458131  1
  Se  Se241  1  0.07914533  0.25280434  0.19253870  1
  Se  Se242  1  0.08342860  0.24985387  0.68988891  1
  Se  Se243  1  0.08033936  0.58149063  0.20013568  1
  Se  Se244  1  0.09186844  0.58057751  0.68917799  1
  Se  Se245  1  0.08766158  0.91899732  0.20120794  1
  Se  Se246  1  0.09110502  0.90896118  0.70212434  1
  Se  Se247  1  0.43099154  0.23322154  0.20571355  1
  Se  Se248  1  0.40962846  0.25216457  0.70035376  1
  Se  Se249  1  0.40940416  0.58387575  0.20312971  1
  Se  Se250  1  0.42819452  0.57453868  0.68177344  1
  Se  Se251  1  0.41828382  0.91977266  0.20212732  1
  Se  Se252  1  0.41828793  0.90903766  0.68795215  1
  Se  Se253  1  0.75795304  0.24894611  0.18925459  1
  Se  Se254  1  0.73242887  0.26373965  0.70025832  1
  Se  Se255  1  0.74376690  0.58065027  0.20153965  1
  Se  Se256  1  0.75623636  0.58635772  0.69704442  1
  Se  Se257  1  0.77438672  0.89889221  0.19674303  1
  Se  Se258  1  0.74805176  0.91784280  0.68538264  1
