# generated using pymatgen
data_In86Cu29Se144
_symmetry_space_group_name_H-M   'P 1'
_cell_length_a   17.58984877
_cell_length_b   17.59338631
_cell_length_c   23.44981620
_cell_angle_alpha   89.98367978
_cell_angle_beta   90.00706439
_cell_angle_gamma   89.99820296
_symmetry_Int_Tables_number   1
_chemical_formula_structural   In86Cu29Se144
_chemical_formula_sum   'In86 Cu29 Se144'
_cell_volume   7256.89712533
_cell_formula_units_Z   1
loop_
 _symmetry_equiv_pos_site_id
 _symmetry_equiv_pos_as_xyz
  1  'x, y, z'
loop_
 _atom_site_type_symbol
 _atom_site_label
 _atom_site_symmetry_multiplicity
 _atom_site_fract_x
 _atom_site_fract_y
 _atom_site_fract_z
 _atom_site_occupancy
  In  In0  1  -0.00472664  0.17545533  0.12414369  1
  In  In1  1  -0.01491281  0.14660638  0.61884280  1
  In  In2  1  -0.01729696  0.51157616  0.12424642  1
  In  In3  1  -0.00232618  0.49912308  0.62571406  1
  In  In4  1  0.00220333  0.83448980  0.11544335  1
  In  In5  1  -0.00088698  0.85281478  0.62671255  1
  In  In6  1  0.33602295  0.14886234  0.12616040  1
  In  In7  1  0.33218045  0.17254977  0.63096780  1
  In  In8  1  0.35038228  0.50360604  0.12545436  1
  In  In9  1  0.35039407  0.49275129  0.62832756  1
  In  In10  1  0.33819608  0.83574793  0.12321021  1
  In  In11  1  0.35697341  0.82407991  0.64540681  1
  In  In12  1  0.66183664  0.16237612  0.12114623  1
  In  In13  1  0.67993419  0.16561310  0.63394810  1
  In  In14  1  0.68514764  0.49149113  0.14329576  1
  In  In15  1  0.65644845  0.50976965  0.63093185  1
  In  In16  1  0.66290479  0.83533610  0.12453294  1
  In  In17  1  0.65557888  0.82636834  0.61962099  1
  In  In18  1  0.18046393  0.00086494  0.37200034  1
  In  In19  1  0.16510828  0.00034308  0.87413680  1
  In  In20  1  0.15941900  0.32738151  0.38044584  1
  In  In21  1  0.17247264  0.31816789  0.87311113  1
  In  In22  1  0.17262321  0.66735280  0.36879089  1
  In  In23  1  0.18546159  0.67211760  0.87501614  1
  In  In24  1  0.49002548  -0.00927518  0.36915436  1
  In  In25  1  0.49510361  0.00076774  0.87505620  1
  In  In26  1  0.51743047  0.33274396  0.37695249  1
  In  In27  1  0.50472509  0.32728483  0.86773864  1
  In  In28  1  0.50130854  0.66931933  0.37686631  1
  In  In29  1  0.50711761  0.68069447  0.86682054  1
  In  In30  1  0.82321777  0.00831760  0.37732505  1
  In  In31  1  0.83568459  -0.00344937  0.88113096  1
  In  In32  1  0.81504370  0.32816756  0.37399662  1
  In  In33  1  0.81729116  0.33669639  0.88728898  1
  In  In34  1  0.83429055  0.67375745  0.37024043  1
  In  In35  1  0.82063986  0.67830171  0.88181384  1
  In  In36  1  -0.00162227  0.16155142  0.38331087  1
  In  In37  1  -0.00425849  0.15454152  0.87383196  1
  In  In38  1  -0.00374915  0.50778668  0.37435759  1
  In  In39  1  -0.00971985  0.49009588  0.87479104  1
  In  In40  1  -0.00883423  0.82444582  0.37469741  1
  In  In41  1  -0.00536948  0.84650088  0.88109773  1
  In  In42  1  0.33318750  0.15103984  0.37438671  1
  In  In43  1  0.35545824  0.17196014  0.85078830  1
  In  In44  1  0.33486848  0.51986409  0.37633217  1
  In  In45  1  0.34618237  0.50593937  0.86769714  1
  In  In46  1  0.34132039  0.84520345  0.36708669  1
  In  In47  1  0.33569779  0.83399104  0.87817915  1
  In  In48  1  0.67017306  0.17354062  0.36997124  1
  In  In49  1  0.66341484  0.17345694  0.88068803  1
  In  In50  1  0.66143362  0.48861044  0.36807322  1
  In  In51  1  0.66508591  0.50471821  0.87534969  1
  In  In52  1  0.66428567  0.83551712  0.37318720  1
  In  In53  1  0.66679987  0.83196805  0.87904683  1
  In  In54  1  0.19015335  -0.00545849  0.13462062  1
  In  In55  1  0.16127400  -0.00132506  0.62702342  1
  In  In56  1  0.16053342  0.32546862  0.12256650  1
  In  In57  1  0.18489709  0.32588244  0.62630969  1
  In  In58  1  0.16652932  0.68291816  0.12688981  1
  In  In59  1  0.17420887  0.68438277  0.62525516  1
  In  In60  1  0.50072571  -0.00082422  0.12271586  1
  In  In61  1  0.50733718  -0.01235883  0.62977900  1
  In  In62  1  0.52525931  0.33656335  0.11894580  1
  In  In63  1  0.49255817  0.33663483  0.63551088  1
  In  In64  1  0.49489816  0.67430079  0.12995909  1
  In  In65  1  0.50636200  0.66813172  0.62593119  1
  In  In66  1  0.82283560  -0.01397818  0.11637324  1
  In  In67  1  0.83655596  0.00912113  0.62433381  1
  In  In68  1  0.80717104  0.32160128  0.10794935  1
  In  In69  1  0.82957146  0.31483746  0.63121681  1
  In  In70  1  0.81740043  0.65911971  0.11617453  1
  In  In71  1  0.81077438  0.66865423  0.62574137  1
  In  In72  1  0.50697782  0.50273950  -0.00164784  1
  In  In73  1  0.34158463  0.33099222  0.25033179  1
  In  In74  1  0.00067944  0.67092858  0.74442703  1
  In  In75  1  0.16462509  0.50483022  -0.00401534  1
  In  In76  1  0.82933889  0.49393714  0.49340978  1
  In  In77  1  -0.00396464  0.33369620  0.24156551  1
  In  In78  1  -0.00520137  0.66627726  0.25201990  1
  In  In79  1  0.50589162  0.16206884  0.50297114  1
  In  In80  1  0.17469638  0.49473297  0.50510953  1
  In  In81  1  0.00355173  0.00067603  0.24435728  1
  In  In82  1  0.16541659  0.15595007  -0.00095081  1
  In  In83  1  0.66266263  0.00114701  0.75695946  1
  In  In84  1  0.16857913  0.84191251  0.49748784  1
  In  In85  1  0.00231753  0.33005832  0.75210319  1
  Cu  Cu86  1  0.82393280  0.50225125  0.75577216  1
  Cu  Cu87  1  0.82815890  0.83379203  0.24560070  1
  Cu  Cu88  1  0.50561310  0.16366559  0.24728855  1
  Cu  Cu89  1  0.82801518  0.83990414  0.75563745  1
  Cu  Cu90  1  0.00143922  0.00001126  0.00112013  1
  Cu  Cu91  1  0.16645514  0.16460630  0.74801378  1
  Cu  Cu92  1  0.50146697  0.83588085  0.24786337  1
  Cu  Cu93  1  0.33695656  0.00074750  -0.00268365  1
  Cu  Cu94  1  0.33523179  0.67965320  0.00346823  1
  Cu  Cu95  1  0.66785706  0.33328918  0.50115966  1
  Cu  Cu96  1  -0.00778616  0.66912337  0.49689714  1
  Cu  Cu97  1  0.33856376  0.32418622  -0.01068374  1
  Cu  Cu98  1  0.66911338  -0.00403123  0.50109954  1
  Cu  Cu99  1  -0.00874160  0.00188613  0.50132530  1
  Cu  Cu100  1  0.50307233  0.50154039  0.75097752  1
  Cu  Cu101  1  -0.01310413  0.33636622  0.00054538  1
  Cu  Cu102  1  0.82604780  0.16795256  0.24747498  1
  Cu  Cu103  1  0.34527309  0.67282158  0.50258931  1
  Cu  Cu104  1  0.16940256  0.83663333  0.75268113  1
  Cu  Cu105  1  0.50326832  0.50788829  0.25110153  1
  Cu  Cu106  1  0.66440660  -0.00180347  -0.00183519  1
  Cu  Cu107  1  0.17473672  0.49967416  0.25030748  1
  Cu  Cu108  1  -0.00028355  0.31874301  0.50210211  1
  Cu  Cu109  1  0.33272109  -0.00623082  0.50051842  1
  Cu  Cu110  1  0.18033307  0.50026920  0.74859806  1
  Cu  Cu111  1  0.66085624  0.66909059  0.00265376  1
  Cu  Cu112  1  0.66104140  0.67214545  0.49893081  1
  Cu  Cu113  1  0.34091868  0.32893902  0.50548689  1
  Cu  Cu114  1  -0.00489890  0.67067521  -0.00223317  1
  Se  Se115  1  0.08030653  0.07243290  0.06803004  1
  Se  Se116  1  0.08329184  0.07833671  0.55307820  1
  Se  Se117  1  0.07322712  0.41446745  0.05808747  1
  Se  Se118  1  0.07656349  0.40416716  0.56069510  1
  Se  Se119  1  0.08490535  0.74801910  0.04918868  1
  Se  Se120  1  0.07347588  0.74892532  0.55617035  1
  Se  Se121  1  0.42011393  0.08414665  0.05090429  1
  Se  Se122  1  0.41323316  0.07413729  0.56168456  1
  Se  Se123  1  0.41269574  0.40537790  0.05392399  1
  Se  Se124  1  0.42577992  0.41370689  0.55373493  1
  Se  Se125  1  0.42555047  0.75665250  0.05379323  1
  Se  Se126  1  0.42167428  0.75683209  0.55970554  1
  Se  Se127  1  0.74863626  0.08033553  0.05241144  1
  Se  Se128  1  0.74551479  0.08398866  0.55568210  1
  Se  Se129  1  0.74313554  0.43137525  0.05382493  1
  Se  Se130  1  0.74700761  0.41246927  0.56438726  1
  Se  Se131  1  0.74694368  0.75607329  0.05204217  1
  Se  Se132  1  0.74830398  0.75377653  0.54974838  1
  Se  Se133  1  0.25695514  0.25271020  0.05545141  1
  Se  Se134  1  0.25409511  0.24326092  0.55102358  1
  Se  Se135  1  0.25867972  0.58769242  0.05826986  1
  Se  Se136  1  0.26025939  0.59309293  0.56082847  1
  Se  Se137  1  0.25360508  0.91954218  0.05307335  1
  Se  Se138  1  0.26092820  0.91233818  0.56691564  1
  Se  Se139  1  0.58616041  0.24574920  0.04806184  1
  Se  Se140  1  0.58998801  0.25415665  0.56453029  1
  Se  Se141  1  0.58891005  0.58666655  0.06705908  1
  Se  Se142  1  0.58341139  0.58393919  0.55275689  1
  Se  Se143  1  0.58113940  0.91538501  0.05279415  1
  Se  Se144  1  0.57968984  0.91584414  0.55035730  1
  Se  Se145  1  0.91105854  0.24540742  0.05152327  1
  Se  Se146  1  0.91030527  0.24443319  0.55571466  1
  Se  Se147  1  0.91022693  0.58612415  0.04744443  1
  Se  Se148  1  0.91598708  0.58748380  0.55798129  1
  Se  Se149  1  0.91508478  0.91312578  0.04902629  1
  Se  Se150  1  0.90970519  0.91702944  0.55394972  1
  Se  Se151  1  0.08804027  0.24024115  0.45054554  1
  Se  Se152  1  0.07370657  0.25588952  0.94442534  1
  Se  Se153  1  0.08209325  0.59021757  0.44505830  1
  Se  Se154  1  0.07429641  0.59291732  0.93385709  1
  Se  Se155  1  0.07144826  0.92548745  0.43684870  1
  Se  Se156  1  0.08809306  0.91985900  0.94814250  1
  Se  Se157  1  0.41595170  0.25080582  0.43891949  1
  Se  Se158  1  0.41962747  0.24273813  0.93563036  1
  Se  Se159  1  0.42252830  0.58372453  0.44978657  1
  Se  Se160  1  0.41246819  0.59448302  0.94398437  1
  Se  Se161  1  0.41767041  0.91341096  0.44697059  1
  Se  Se162  1  0.42046509  0.91446036  0.94735320  1
  Se  Se163  1  0.74736944  0.24511521  0.44950170  1
  Se  Se164  1  0.75085755  0.24151235  0.95430591  1
  Se  Se165  1  0.74186887  0.59023946  0.43850604  1
  Se  Se166  1  0.74386553  0.58660661  0.94733726  1
  Se  Se167  1  0.75075591  0.91465204  0.44374730  1
  Se  Se168  1  0.75010018  0.91400189  0.94732283  1
  Se  Se169  1  0.25043254  0.07990794  0.44984034  1
  Se  Se170  1  0.26431033  0.08644681  0.93423959  1
  Se  Se171  1  0.26375923  0.40875459  0.43996349  1
  Se  Se172  1  0.25695237  0.41171851  0.93779508  1
  Se  Se173  1  0.25737893  0.74520401  0.44182276  1
  Se  Se174  1  0.24687460  0.75793409  0.95119079  1
  Se  Se175  1  0.58918337  0.07469302  0.43704821  1
  Se  Se176  1  0.58194163  0.07952069  0.94279199  1
  Se  Se177  1  0.58657228  0.41964646  0.44970584  1
  Se  Se178  1  0.59039145  0.40594794  0.94222448  1
  Se  Se179  1  0.58016618  0.75689169  0.44490200  1
  Se  Se180  1  0.57921510  0.75122180  0.94751759  1
  Se  Se181  1  0.90736329  0.08595383  0.44855418  1
  Se  Se182  1  0.91700801  0.08356719  0.95025018  1
  Se  Se183  1  0.92713339  0.40278777  0.43852238  1
  Se  Se184  1  0.90717824  0.42402235  0.94968530  1
  Se  Se185  1  0.90727387  0.75251604  0.44735949  1
  Se  Se186  1  0.91342668  0.75646453  0.94518551  1
  Se  Se187  1  0.24712796  0.24706354  0.31071915  1
  Se  Se188  1  0.25168520  0.25113391  0.79635925  1
  Se  Se189  1  0.25521715  0.58847205  0.29872797  1
  Se  Se190  1  0.25699080  0.58686129  0.80272869  1
  Se  Se191  1  0.24262197  0.90994005  0.30168804  1
  Se  Se192  1  0.25101368  0.91713889  0.80885993  1
  Se  Se193  1  0.58450470  0.25195063  0.29996805  1
  Se  Se194  1  0.58624592  0.24163331  0.80173644  1
  Se  Se195  1  0.58593985  0.58729875  0.30759328  1
  Se  Se196  1  0.58467934  0.58583707  0.80497015  1
  Se  Se197  1  0.58419838  0.91952575  0.30242680  1
  Se  Se198  1  0.57279071  0.90323349  0.80758936  1
  Se  Se199  1  0.91246863  0.24194615  0.30755383  1
  Se  Se200  1  0.91052183  0.25207715  0.81625884  1
  Se  Se201  1  0.90106760  0.56870471  0.30212097  1
  Se  Se202  1  0.91087057  0.58436537  0.80858933  1
  Se  Se203  1  0.91011671  0.91339337  0.30559869  1
  Se  Se204  1  0.91614094  0.92029387  0.80515776  1
  Se  Se205  1  0.08705396  0.08980786  0.30960357  1
  Se  Se206  1  0.08391538  0.08396585  0.80383466  1
  Se  Se207  1  0.08923172  0.42397321  0.30739203  1
  Se  Se208  1  0.09655657  0.42465903  0.80906886  1
  Se  Se209  1  0.09025941  0.76009795  0.30454116  1
  Se  Se210  1  0.08629554  0.75508400  0.81144452  1
  Se  Se211  1  0.41825363  0.08379012  0.30004742  1
  Se  Se212  1  0.40679942  0.05635538  0.79489391  1
  Se  Se213  1  0.42410872  0.42519688  0.31302417  1
  Se  Se214  1  0.42018953  0.41451829  0.80240402  1
  Se  Se215  1  0.42084349  0.75204495  0.30525234  1
  Se  Se216  1  0.39932978  0.73895398  0.80747236  1
  Se  Se217  1  0.74539058  0.08271766  0.30152753  1
  Se  Se218  1  0.75663743  0.08804036  0.81357619  1
  Se  Se219  1  0.75385643  0.41599324  0.30148546  1
  Se  Se220  1  0.74661631  0.41557642  0.80939348  1
  Se  Se221  1  0.74799970  0.75235624  0.30299801  1
  Se  Se222  1  0.74584747  0.75228900  0.80424146  1
  Se  Se223  1  0.25012690  0.09111696  0.20275838  1
  Se  Se224  1  0.24729930  0.08218004  0.69256115  1
  Se  Se225  1  0.24732536  0.41882455  0.18647411  1
  Se  Se226  1  0.25818737  0.41480023  0.69388159  1
  Se  Se227  1  0.26253291  0.74576062  0.19211111  1
  Se  Se228  1  0.25274333  0.75021010  0.70277462  1
  Se  Se229  1  0.58589837  0.07840432  0.19363845  1
  Se  Se230  1  0.57566430  0.09137099  0.69357658  1
  Se  Se231  1  0.58214522  0.41746402  0.20094588  1
  Se  Se232  1  0.58593075  0.41629141  0.69848994  1
  Se  Se233  1  0.58533472  0.75130909  0.19659621  1
  Se  Se234  1  0.58485741  0.75178940  0.69635728  1
  Se  Se235  1  0.90608229  0.08761209  0.18783180  1
  Se  Se236  1  0.91372139  0.08256759  0.70056245  1
  Se  Se237  1  0.90175356  0.41450221  0.18259996  1
  Se  Se238  1  0.90724198  0.42492629  0.69553472  1
  Se  Se239  1  0.91172963  0.75541904  0.18656413  1
  Se  Se240  1  0.90494234  0.76046219  0.68927894  1
  Se  Se241  1  0.09503199  0.23564040  0.19759476  1
  Se  Se242  1  0.08499332  0.24231219  0.68559178  1
  Se  Se243  1  0.08885537  0.57596926  0.19000508  1
  Se  Se244  1  0.09696642  0.57705108  0.68862985  1
  Se  Se245  1  0.09177768  0.90400791  0.19071604  1
  Se  Se246  1  0.08256142  0.91900027  0.70168694  1
  Se  Se247  1  0.42833680  0.24643964  0.18477606  1
  Se  Se248  1  0.41894681  0.24496189  0.70065012  1
  Se  Se249  1  0.41561361  0.58755022  0.20038462  1
  Se  Se250  1  0.42106501  0.58516052  0.69539505  1
  Se  Se251  1  0.41764193  0.91958462  0.19437530  1
  Se  Se252  1  0.40882650  0.93731443  0.70405466  1
  Se  Se253  1  0.74372536  0.24883490  0.19156418  1
  Se  Se254  1  0.74590274  0.25392814  0.70716639  1
  Se  Se255  1  0.74858292  0.59846403  0.20105486  1
  Se  Se256  1  0.74352122  0.58709943  0.70140442  1
  Se  Se257  1  0.74466724  0.91980400  0.19557929  1
  Se  Se258  1  0.74899251  0.91462053  0.68922256  1
