# generated using pymatgen
data_In86Cu29Se144
_symmetry_space_group_name_H-M   'P 1'
_cell_length_a   17.57276522
_cell_length_b   17.57348843
_cell_length_c   23.43541933
_cell_angle_alpha   89.97403556
_cell_angle_beta   89.99059936
_cell_angle_gamma   89.98507842
_symmetry_Int_Tables_number   1
_chemical_formula_structural   In86Cu29Se144
_chemical_formula_sum   'In86 Cu29 Se144'
_cell_volume   7237.20292179
_cell_formula_units_Z   1
loop_
 _symmetry_equiv_pos_site_id
 _symmetry_equiv_pos_as_xyz
  1  'x, y, z'
loop_
 _atom_site_type_symbol
 _atom_site_label
 _atom_site_symmetry_multiplicity
 _atom_site_fract_x
 _atom_site_fract_y
 _atom_site_fract_z
 _atom_site_occupancy
  In  In0  1  0.00328367  0.16364572  0.13468911  1
  In  In1  1  0.01504176  0.16424097  0.62230674  1
  In  In2  1  -0.01582239  0.49963119  0.12419833  1
  In  In3  1  -0.01023929  0.48825794  0.62015252  1
  In  In4  1  0.00297319  0.83330497  0.12561277  1
  In  In5  1  -0.00578873  0.84553384  0.62234153  1
  In  In6  1  0.32326078  0.16674217  0.11472484  1
  In  In7  1  0.33424139  0.16784352  0.62878012  1
  In  In8  1  0.34804351  0.49425787  0.11908660  1
  In  In9  1  0.32515149  0.50802224  0.63230251  1
  In  In10  1  0.32509807  0.83296614  0.11671685  1
  In  In11  1  0.33232109  0.82900702  0.64120088  1
  In  In12  1  0.67262198  0.15977227  0.13361062  1
  In  In13  1  0.66033173  0.16915801  0.62733467  1
  In  In14  1  0.66313186  0.49667495  0.12381269  1
  In  In15  1  0.67522920  0.49383919  0.62822135  1
  In  In16  1  0.66460341  0.84645769  0.12801453  1
  In  In17  1  0.66890252  0.82907530  0.63060898  1
  In  In18  1  0.17076196  0.01586528  0.37470414  1
  In  In19  1  0.20419268  -0.02582629  0.91423297  1
  In  In20  1  0.16298226  0.33659435  0.38309283  1
  In  In21  1  0.15856902  0.32453354  0.86562904  1
  In  In22  1  0.16522783  0.65647419  0.37444319  1
  In  In23  1  0.18308911  0.67378846  0.86870753  1
  In  In24  1  0.52982508  0.00336886  0.37680529  1
  In  In25  1  0.48611502  -0.01467426  0.86937813  1
  In  In26  1  0.49878716  0.31777215  0.37726213  1
  In  In27  1  0.51027131  0.34291903  0.86623117  1
  In  In28  1  0.49579322  0.68846068  0.36734874  1
  In  In29  1  0.50133342  0.66756518  0.87791274  1
  In  In30  1  0.82365749  -0.01393914  0.36179930  1
  In  In31  1  0.83785412  0.01179944  0.87395922  1
  In  In32  1  0.84122579  0.34872191  0.36471078  1
  In  In33  1  0.83925716  0.33539612  0.86875467  1
  In  In34  1  0.83583184  0.66273955  0.38373859  1
  In  In35  1  0.81430038  0.66949517  0.87795934  1
  In  In36  1  0.00536128  0.17611335  0.37157891  1
  In  In37  1  0.00377558  0.17018508  0.87534411  1
  In  In38  1  0.00756026  0.49678605  0.38055295  1
  In  In39  1  -0.00156899  0.48428133  0.87692526  1
  In  In40  1  -0.01618456  0.83353690  0.37122280  1
  In  In41  1  0.01880560  0.84603606  0.87983984  1
  In  In42  1  0.33459942  0.16753941  0.38693083  1
  In  In43  1  0.31709481  0.15402712  0.86606494  1
  In  In44  1  0.32354732  0.50168048  0.37518252  1
  In  In45  1  0.34823206  0.51206907  0.86561405  1
  In  In46  1  0.35727898  0.82876063  0.36755470  1
  In  In47  1  0.33845646  0.83529339  0.87898377  1
  In  In48  1  0.66154779  0.16295346  0.37338591  1
  In  In49  1  0.66491679  0.16418639  0.86270652  1
  In  In50  1  0.68209387  0.50075545  0.37507902  1
  In  In51  1  0.66468858  0.49866816  0.87731421  1
  In  In52  1  0.67334020  0.84912902  0.36585119  1
  In  In53  1  0.65619978  0.82432474  0.86874045  1
  In  In54  1  0.15031734  -0.01121264  0.10613030  1
  In  In55  1  0.16758234  0.00896474  0.62534861  1
  In  In56  1  0.16001931  0.32122983  0.12266935  1
  In  In57  1  0.16432845  0.33128001  0.62832997  1
  In  In58  1  0.16523124  0.68335699  0.11980918  1
  In  In59  1  0.18326282  0.66334109  0.62804999  1
  In  In60  1  0.50705871  0.00058818  0.12042692  1
  In  In61  1  0.49463996  0.00308253  0.63171321  1
  In  In62  1  0.50112522  0.34067682  0.12048989  1
  In  In63  1  0.50886015  0.32407402  0.63307892  1
  In  In64  1  0.49300091  0.66049318  0.12057392  1
  In  In65  1  0.49578176  0.67332088  0.63381350  1
  In  In66  1  0.82907547  -0.00891532  0.14307787  1
  In  In67  1  0.82970498  -0.01220590  0.61942995  1
  In  In68  1  0.82695565  0.34447863  0.13963151  1
  In  In69  1  0.82377643  0.33875403  0.62866401  1
  In  In70  1  0.83978436  0.65828950  0.12386237  1
  In  In71  1  0.82775967  0.65743815  0.61997335  1
  In  In72  1  0.00758407  0.00416404  0.74985245  1
  In  In73  1  0.83234312  0.83164172  0.00693371  1
  In  In74  1  0.83788202  0.16866916  -0.00001167  1
  In  In75  1  0.49821752  0.49925635  0.50728001  1
  In  In76  1  0.50565382  0.83791722  0.49856529  1
  In  In77  1  0.66484367  0.66351547  0.24843752  1
  In  In78  1  0.16881492  0.50198587  -0.01190684  1
  In  In79  1  0.83191723  0.16650722  0.49399451  1
  In  In80  1  0.49472934  0.16422489  -0.00592719  1
  In  In81  1  0.00057378  0.67010933  0.24754579  1
  In  In82  1  0.33493336  0.33140073  0.24394795  1
  In  In83  1  0.16497275  0.83170653  0.50242054  1
  In  In84  1  -0.00015062  0.66419815  0.75633439  1
  In  In85  1  0.33369163  0.00156145  0.24659127  1
  Cu  Cu86  1  0.82962297  0.83368784  0.74903744  1
  Cu  Cu87  1  0.50242192  0.50377561  0.74974030  1
  Cu  Cu88  1  0.16228776  0.16905585  0.25004621  1
  Cu  Cu89  1  -0.00237271  0.66851952  0.00106017  1
  Cu  Cu90  1  0.16994001  0.16494690  0.74920969  1
  Cu  Cu91  1  0.17002650  0.84033028  0.24243600  1
  Cu  Cu92  1  0.00313428  0.33070190  0.49945853  1
  Cu  Cu93  1  0.66753991  -0.00350001  -0.00185750  1
  Cu  Cu94  1  0.66861893  0.33550022  0.00103776  1
  Cu  Cu95  1  0.16624071  0.50118702  0.25235304  1
  Cu  Cu96  1  0.50309046  0.83555447  0.75579267  1
  Cu  Cu97  1  0.33607297  0.66844289  -0.00411505  1
  Cu  Cu98  1  -0.00431571  0.00019227  0.49736522  1
  Cu  Cu99  1  -0.00741463  0.33532234  -0.00180370  1
  Cu  Cu100  1  0.33654916  0.33468052  -0.00818561  1
  Cu  Cu101  1  0.00056270  0.66271946  0.49936328  1
  Cu  Cu102  1  0.32568241  0.33148691  0.50655895  1
  Cu  Cu103  1  0.66901830  0.33534018  0.50373836  1
  Cu  Cu104  1  0.33032362  0.66321583  0.50123045  1
  Cu  Cu105  1  0.65784940  0.65965354  -0.00014403  1
  Cu  Cu106  1  0.50515843  0.16108635  0.25067933  1
  Cu  Cu107  1  0.33693619  0.00789697  0.50527651  1
  Cu  Cu108  1  0.49748344  0.16771858  0.75098473  1
  Cu  Cu109  1  0.83248318  0.16840164  0.74678395  1
  Cu  Cu110  1  0.50272071  0.49809475  0.24520081  1
  Cu  Cu111  1  0.67569050  0.66943041  0.50370452  1
  Cu  Cu112  1  0.16184173  0.49464061  0.75068362  1
  Cu  Cu113  1  0.82520910  0.49898096  0.74880163  1
  Cu  Cu114  1  0.83184955  0.17000278  0.25557398  1
  Se  Se115  1  0.09377039  0.10794652  0.05881001  1
  Se  Se116  1  0.08459855  0.07774805  0.54929925  1
  Se  Se117  1  0.07920276  0.41744403  0.05477074  1
  Se  Se118  1  0.08459618  0.41391720  0.55558271  1
  Se  Se119  1  0.07961731  0.75676306  0.04894895  1
  Se  Se120  1  0.07700692  0.74050810  0.56415111  1
  Se  Se121  1  0.40656907  0.07208094  0.05321421  1
  Se  Se122  1  0.42117813  0.08811876  0.55899494  1
  Se  Se123  1  0.42214033  0.41433805  0.04473126  1
  Se  Se124  1  0.40888423  0.40980044  0.56695882  1
  Se  Se125  1  0.41626659  0.75024540  0.05316695  1
  Se  Se126  1  0.40862207  0.74938160  0.55781845  1
  Se  Se127  1  0.74936611  0.07251399  0.05894535  1
  Se  Se128  1  0.74353436  0.08051928  0.55701000  1
  Se  Se129  1  0.75153777  0.41323701  0.05848271  1
  Se  Se130  1  0.75420687  0.42064674  0.55166401  1
  Se  Se131  1  0.73782999  0.73914909  0.06271950  1
  Se  Se132  1  0.75439545  0.75650281  0.55711419  1
  Se  Se133  1  0.25044766  0.25935716  0.04805613  1
  Se  Se134  1  0.24518664  0.24513471  0.55943540  1
  Se  Se135  1  0.25397603  0.58659685  0.05639790  1
  Se  Se136  1  0.24827526  0.57814590  0.55187407  1
  Se  Se137  1  0.25181478  0.92028850  0.04663283  1
  Se  Se138  1  0.26132904  0.91744034  0.56082176  1
  Se  Se139  1  0.59190136  0.24658627  0.05799745  1
  Se  Se140  1  0.58406779  0.25241155  0.55401761  1
  Se  Se141  1  0.57757592  0.57523538  0.05486068  1
  Se  Se142  1  0.58831334  0.59481758  0.56265091  1
  Se  Se143  1  0.58358844  0.91379058  0.05010424  1
  Se  Se144  1  0.58980377  0.92458021  0.56244912  1
  Se  Se145  1  0.91789439  0.25937434  0.06551867  1
  Se  Se146  1  0.92011267  0.25253986  0.56005072  1
  Se  Se147  1  0.91367620  0.58096463  0.04757533  1
  Se  Se148  1  0.91534240  0.57959097  0.55245437  1
  Se  Se149  1  0.91723372  0.92919472  0.06262639  1
  Se  Se150  1  0.91277396  0.91341622  0.54596067  1
  Se  Se151  1  0.08677971  0.24439867  0.44941984  1
  Se  Se152  1  0.08005240  0.25711881  0.94545791  1
  Se  Se153  1  0.08902277  0.58130158  0.44979384  1
  Se  Se154  1  0.07542775  0.59503160  0.93278082  1
  Se  Se155  1  0.07993942  0.92022375  0.43738386  1
  Se  Se156  1  0.07687262  0.92718010  0.95784057  1
  Se  Se157  1  0.41513631  0.25335285  0.45421617  1
  Se  Se158  1  0.41394129  0.25455367  0.92925101  1
  Se  Se159  1  0.41784546  0.59207302  0.43984180  1
  Se  Se160  1  0.41958355  0.58111062  0.94717552  1
  Se  Se161  1  0.41253579  0.92953520  0.44024373  1
  Se  Se162  1  0.42320083  0.91240952  0.95037879  1
  Se  Se163  1  0.74692051  0.26264193  0.43593280  1
  Se  Se164  1  0.74214183  0.25147351  0.93899212  1
  Se  Se165  1  0.75325008  0.57922829  0.45202951  1
  Se  Se166  1  0.74754146  0.58002621  0.94961671  1
  Se  Se167  1  0.74341735  0.92513191  0.44238054  1
  Se  Se168  1  0.74985431  0.91856075  0.93704656  1
  Se  Se169  1  0.24731076  0.08592007  0.45315849  1
  Se  Se170  1  0.24636764  0.10403232  0.95412846  1
  Se  Se171  1  0.25220436  0.41784744  0.44832692  1
  Se  Se172  1  0.25765593  0.41240754  0.92850974  1
  Se  Se173  1  0.25923341  0.74931243  0.43812985  1
  Se  Se174  1  0.24879958  0.75148957  0.94738904  1
  Se  Se175  1  0.57576510  0.09972937  0.44991042  1
  Se  Se176  1  0.58974124  0.07638001  0.93649345  1
  Se  Se177  1  0.58574301  0.41367545  0.44178687  1
  Se  Se178  1  0.58188752  0.41451525  0.94718549  1
  Se  Se179  1  0.59587842  0.74471250  0.44012455  1
  Se  Se180  1  0.58330547  0.75189927  0.94800260  1
  Se  Se181  1  0.91933201  0.07681058  0.43245920  1
  Se  Se182  1  0.93128867  0.07467226  0.94770821  1
  Se  Se183  1  0.91925412  0.41397292  0.44583524  1
  Se  Se184  1  0.90637617  0.41713848  0.94768793  1
  Se  Se185  1  0.91914952  0.75005955  0.44855354  1
  Se  Se186  1  0.92067312  0.74960027  0.93697945  1
  Se  Se187  1  0.24920964  0.24466302  0.30973723  1
  Se  Se188  1  0.25300276  0.25362961  0.79874688  1
  Se  Se189  1  0.25168906  0.58552375  0.30105388  1
  Se  Se190  1  0.24805113  0.57927610  0.79995360  1
  Se  Se191  1  0.24741013  0.91096905  0.31241456  1
  Se  Se192  1  0.24975479  0.92342020  0.81814335  1
  Se  Se193  1  0.58317140  0.25058699  0.30253509  1
  Se  Se194  1  0.58599957  0.25317614  0.79760777  1
  Se  Se195  1  0.57387654  0.57650892  0.31336392  1
  Se  Se196  1  0.58410558  0.58419193  0.80810998  1
  Se  Se197  1  0.55138172  0.88855148  0.31181163  1
  Se  Se198  1  0.58889411  0.92340993  0.80330760  1
  Se  Se199  1  0.91970162  0.25421406  0.30273289  1
  Se  Se200  1  0.91820185  0.24467389  0.80369978  1
  Se  Se201  1  0.91691529  0.57937018  0.31043390  1
  Se  Se202  1  0.90475848  0.57574896  0.81335543  1
  Se  Se203  1  0.92140993  0.91835814  0.29628849  1
  Se  Se204  1  0.91453600  0.90968627  0.80874439  1
  Se  Se205  1  0.08158253  0.08351074  0.30343533  1
  Se  Se206  1  0.09634039  0.08438777  0.81417064  1
  Se  Se207  1  0.08851269  0.41697731  0.30802511  1
  Se  Se208  1  0.07474527  0.41227231  0.80006622  1
  Se  Se209  1  0.09318313  0.75988328  0.30819003  1
  Se  Se210  1  0.09293288  0.76248711  0.80431551  1
  Se  Se211  1  0.42095280  0.08787147  0.31274849  1
  Se  Se212  1  0.41567045  0.08169708  0.80356092  1
  Se  Se213  1  0.42183175  0.41961557  0.30931194  1
  Se  Se214  1  0.41767216  0.41661054  0.79840456  1
  Se  Se215  1  0.40262159  0.73539580  0.29062431  1
  Se  Se216  1  0.41912705  0.75078199  0.80867891  1
  Se  Se217  1  0.74494059  0.08453729  0.30310153  1
  Se  Se218  1  0.75396986  0.08027410  0.79950504  1
  Se  Se219  1  0.74165501  0.41474261  0.29963703  1
  Se  Se220  1  0.74597667  0.41494389  0.80622505  1
  Se  Se221  1  0.75828366  0.74875362  0.30960381  1
  Se  Se222  1  0.74614554  0.74781689  0.80008927  1
  Se  Se223  1  0.23993168  0.08895887  0.18830425  1
  Se  Se224  1  0.25321397  0.07950931  0.69739998  1
  Se  Se225  1  0.24266143  0.42312173  0.18587298  1
  Se  Se226  1  0.24823389  0.41462759  0.69679410  1
  Se  Se227  1  0.25079299  0.75201891  0.19328257  1
  Se  Se228  1  0.24981527  0.74289524  0.70411448  1
  Se  Se229  1  0.58476293  0.07457814  0.19697043  1
  Se  Se230  1  0.58287927  0.08414288  0.69827954  1
  Se  Se231  1  0.58392901  0.41133933  0.19508289  1
  Se  Se232  1  0.58526024  0.41950506  0.69596519  1
  Se  Se233  1  0.57583748  0.75157133  0.18847551  1
  Se  Se234  1  0.58391084  0.75083630  0.70041949  1
  Se  Se235  1  0.91305875  0.08552139  0.20053454  1
  Se  Se236  1  0.91207150  0.08647088  0.68567152  1
  Se  Se237  1  0.92676968  0.41536456  0.20155319  1
  Se  Se238  1  0.91212936  0.41610245  0.69771801  1
  Se  Se239  1  0.90356602  0.75933727  0.19221223  1
  Se  Se240  1  0.91308521  0.75390009  0.69100434  1
  Se  Se241  1  0.07952273  0.25768277  0.20148399  1
  Se  Se242  1  0.08125978  0.24689135  0.69864662  1
  Se  Se243  1  0.09095271  0.57984063  0.18560540  1
  Se  Se244  1  0.08298060  0.57649806  0.68927196  1
  Se  Se245  1  0.08382261  0.92162858  0.19193139  1
  Se  Se246  1  0.09459906  0.90739985  0.69106056  1
  Se  Se247  1  0.42432749  0.23616159  0.18590430  1
  Se  Se248  1  0.41386935  0.25249377  0.69903565  1
  Se  Se249  1  0.41492377  0.57827600  0.19445507  1
  Se  Se250  1  0.41461752  0.58627324  0.69886306  1
  Se  Se251  1  0.42012323  0.91133441  0.18645309  1
  Se  Se252  1  0.41763825  0.91694132  0.70188439  1
  Se  Se253  1  0.74625320  0.25028670  0.20068915  1
  Se  Se254  1  0.74597429  0.25048715  0.69547468  1
  Se  Se255  1  0.75974294  0.57223070  0.19449979  1
  Se  Se256  1  0.74671114  0.58758990  0.69673524  1
  Se  Se257  1  0.73723157  0.91584091  0.20722781  1
  Se  Se258  1  0.74886555  0.92053227  0.69697033  1
