# generated using pymatgen
data_In86Cu29Se144
_symmetry_space_group_name_H-M   'P 1'
_cell_length_a   17.58571144
_cell_length_b   17.58306368
_cell_length_c   23.44840776
_cell_angle_alpha   90.00738890
_cell_angle_beta   89.99804430
_cell_angle_gamma   90.00095287
_symmetry_Int_Tables_number   1
_chemical_formula_structural   In86Cu29Se144
_chemical_formula_sum   'In86 Cu29 Se144'
_cell_volume   7250.49814246
_cell_formula_units_Z   1
loop_
 _symmetry_equiv_pos_site_id
 _symmetry_equiv_pos_as_xyz
  1  'x, y, z'
loop_
 _atom_site_type_symbol
 _atom_site_label
 _atom_site_symmetry_multiplicity
 _atom_site_fract_x
 _atom_site_fract_y
 _atom_site_fract_z
 _atom_site_occupancy
  In  In0  1  -0.00844248  0.17478601  0.13199517  1
  In  In1  1  -0.01135067  0.18067195  0.63280223  1
  In  In2  1  -0.00803123  0.49328622  0.11813303  1
  In  In3  1  -0.00064809  0.50019110  0.61788467  1
  In  In4  1  0.00468016  0.84447745  0.12262172  1
  In  In5  1  0.01424830  0.80984583  0.64366386  1
  In  In6  1  0.33424100  0.16778923  0.13027813  1
  In  In7  1  0.32695346  0.16102445  0.62269137  1
  In  In8  1  0.33113081  0.50195360  0.12894390  1
  In  In9  1  0.33016504  0.50684671  0.61502995  1
  In  In10  1  0.32968254  0.83212181  0.13658447  1
  In  In11  1  0.31864864  0.83282277  0.61955618  1
  In  In12  1  0.68062636  0.17825999  0.12169228  1
  In  In13  1  0.68843785  0.16656151  0.62463507  1
  In  In14  1  0.66033841  0.49036020  0.12196448  1
  In  In15  1  0.65986871  0.48547197  0.62510995  1
  In  In16  1  0.66897856  0.81971600  0.12080048  1
  In  In17  1  0.67315711  0.83625359  0.62696148  1
  In  In18  1  0.16522732  0.00142588  0.37802825  1
  In  In19  1  0.16558942  -0.00397368  0.86460218  1
  In  In20  1  0.16549569  0.33296395  0.37171013  1
  In  In21  1  0.16554297  0.35516687  0.87201874  1
  In  In22  1  0.19815462  0.65016355  0.40436489  1
  In  In23  1  0.15075981  0.64143829  0.85693404  1
  In  In24  1  0.49833579  0.01228432  0.37224445  1
  In  In25  1  0.49288680  0.01040675  0.86850665  1
  In  In26  1  0.50847227  0.34932089  0.36088425  1
  In  In27  1  0.51421660  0.33243277  0.87233304  1
  In  In28  1  0.47389901  0.65165925  0.37026239  1
  In  In29  1  0.48284768  0.66355191  0.87302850  1
  In  In30  1  0.85377872  0.00117083  0.37436373  1
  In  In31  1  0.84751387  -0.00487877  0.88270505  1
  In  In32  1  0.83888603  0.33513273  0.37491705  1
  In  In33  1  0.83441321  0.33420894  0.87605197  1
  In  In34  1  0.82692425  0.65440853  0.37594109  1
  In  In35  1  0.83936788  0.66029132  0.87815502  1
  In  In36  1  -0.00052883  0.16531214  0.37548395  1
  In  In37  1  -0.00602180  0.15886947  0.86885436  1
  In  In38  1  0.01353702  0.48879589  0.38721820  1
  In  In39  1  -0.00088502  0.49292321  0.87145288  1
  In  In40  1  0.00825831  0.84642376  0.37460333  1
  In  In41  1  -0.00909888  0.82785266  0.86401125  1
  In  In42  1  0.33116824  0.17029601  0.36810541  1
  In  In43  1  0.34516278  0.16006946  0.86520291  1
  In  In44  1  0.33346197  0.49618068  0.37604308  1
  In  In45  1  0.32512915  0.50891261  0.88345103  1
  In  In46  1  0.32198516  0.83046328  0.37710148  1
  In  In47  1  0.32674251  0.82226551  0.86455350  1
  In  In48  1  0.66600599  0.18654186  0.37615947  1
  In  In49  1  0.66959765  0.19214815  0.87010232  1
  In  In50  1  0.67663075  0.49060759  0.38072170  1
  In  In51  1  0.67572173  0.48909809  0.88087369  1
  In  In52  1  0.66927085  0.82444302  0.37808727  1
  In  In53  1  0.67128392  0.84612705  0.87565019  1
  In  In54  1  0.16614673  -0.00384415  0.13435259  1
  In  In55  1  0.17422398  -0.01294229  0.62518192  1
  In  In56  1  0.15412842  0.34428235  0.13246662  1
  In  In57  1  0.14710421  0.34441337  0.62469368  1
  In  In58  1  0.17977109  0.66432157  0.12883250  1
  In  In59  1  0.16084646  0.66441653  0.61613475  1
  In  In60  1  0.49139656  -0.00820576  0.12661901  1
  In  In61  1  0.49406220  -0.00769765  0.62344717  1
  In  In62  1  0.48881160  0.35759040  0.14390918  1
  In  In63  1  0.49365656  0.34509007  0.62692716  1
  In  In64  1  0.49498480  0.64964310  0.12740758  1
  In  In65  1  0.49759631  0.64985341  0.62278956  1
  In  In66  1  0.84493355  0.01158503  0.11752814  1
  In  In67  1  0.83707623  0.00757643  0.62819366  1
  In  In68  1  0.83555201  0.33417508  0.12669026  1
  In  In69  1  0.83830608  0.33225484  0.62605054  1
  In  In70  1  0.83046773  0.66167876  0.11240043  1
  In  In71  1  0.87538926  0.65222558  0.64444599  1
  In  In72  1  0.50653723  0.17198381  -0.00437533  1
  In  In73  1  0.32511477  0.33314088  0.74301402  1
  In  In74  1  0.66867868  0.66085894  0.75862072  1
  In  In75  1  0.50065038  0.17492658  0.50313990  1
  In  In76  1  0.16224916  0.17186708  0.00034607  1
  In  In77  1  0.83957948  0.82867015  0.51062323  1
  In  In78  1  0.66145155  0.66157845  0.24778897  1
  In  In79  1  0.66709355  0.00874477  0.24214082  1
  In  In80  1  0.15942933  0.17410258  0.49931934  1
  In  In81  1  0.16324467  0.82425423  -0.00612049  1
  In  In82  1  0.49646180  0.82310422  0.48841218  1
  In  In83  1  0.00800925  0.67166926  0.25470106  1
  In  In84  1  0.66515558  0.00627431  0.74868802  1
  In  In85  1  0.50375111  0.82885193  -0.00024279  1
  Cu  Cu86  1  0.32917871  -0.00501588  -0.00396367  1
  Cu  Cu87  1  0.83454204  0.49361392  0.75214695  1
  Cu  Cu88  1  -0.00447373  0.33553493  0.00010235  1
  Cu  Cu89  1  0.17252890  0.83195782  0.74545005  1
  Cu  Cu90  1  -0.00577758  0.00301131  -0.00061666  1
  Cu  Cu91  1  0.84057837  0.83706798  0.24415499  1
  Cu  Cu92  1  0.83792855  0.49009546  0.25038023  1
  Cu  Cu93  1  0.33314013  0.33865397  0.49634992  1
  Cu  Cu94  1  0.00256609  0.00303603  0.50365691  1
  Cu  Cu95  1  0.67790558  0.00553504  -0.00191094  1
  Cu  Cu96  1  0.49205958  0.84110699  0.25564006  1
  Cu  Cu97  1  0.67485966  0.00004538  0.50304969  1
  Cu  Cu98  1  0.16653448  0.83332654  0.25840970  1
  Cu  Cu99  1  0.49185882  0.82664453  0.74236682  1
  Cu  Cu100  1  0.67183434  0.66274090  -0.00220118  1
  Cu  Cu101  1  0.16505985  0.16551747  0.74323189  1
  Cu  Cu102  1  0.49413961  0.49154668  0.74692292  1
  Cu  Cu103  1  0.16550079  0.16363900  0.25253996  1
  Cu  Cu104  1  0.00150795  0.66189275  -0.00968789  1
  Cu  Cu105  1  -0.00246408  0.66917521  0.50300238  1
  Cu  Cu106  1  0.67505216  0.33703998  0.49767761  1
  Cu  Cu107  1  0.66960107  0.33746151  0.00246355  1
  Cu  Cu108  1  0.33577262  0.34166510  0.00418538  1
  Cu  Cu109  1  0.49624020  0.17324274  0.25076056  1
  Cu  Cu110  1  0.66830140  0.65638500  0.50763762  1
  Cu  Cu111  1  0.83615535  0.16860216  0.25049964  1
  Cu  Cu112  1  0.83515453  0.17194683  0.75232427  1
  Cu  Cu113  1  0.16873385  0.50084747  0.25822505  1
  Cu  Cu114  1  0.33194057  0.65614045  0.00161043  1
  Se  Se115  1  0.07893101  0.07655526  0.06151085  1
  Se  Se116  1  0.07939160  0.08414529  0.56671868  1
  Se  Se117  1  0.08377929  0.41629042  0.05139126  1
  Se  Se118  1  0.07962833  0.41933274  0.54658501  1
  Se  Se119  1  0.07630139  0.73722155  0.05964928  1
  Se  Se120  1  0.07847673  0.75870629  0.55248689  1
  Se  Se121  1  0.41102446  0.07775235  0.05293960  1
  Se  Se122  1  0.40991643  0.07523878  0.55163342  1
  Se  Se123  1  0.41919455  0.42145222  0.05923473  1
  Se  Se124  1  0.41761967  0.41896709  0.55159967  1
  Se  Se125  1  0.40632316  0.74654390  0.05931308  1
  Se  Se126  1  0.41428349  0.74255916  0.55852350  1
  Se  Se127  1  0.75511537  0.09149747  0.05254900  1
  Se  Se128  1  0.76108393  0.08339540  0.55128505  1
  Se  Se129  1  0.75541484  0.41902750  0.05633762  1
  Se  Se130  1  0.75429000  0.41736697  0.55727400  1
  Se  Se131  1  0.75310625  0.75286549  0.04610476  1
  Se  Se132  1  0.74881896  0.73583545  0.56652650  1
  Se  Se133  1  0.25445594  0.25842128  0.06123522  1
  Se  Se134  1  0.25411765  0.26292399  0.56004289  1
  Se  Se135  1  0.24531392  0.57745841  0.05513223  1
  Se  Se136  1  0.24493857  0.58445963  0.54702915  1
  Se  Se137  1  0.25198400  0.91596997  0.05768194  1
  Se  Se138  1  0.24929610  0.91812914  0.54587641  1
  Se  Se139  1  0.58217972  0.26350213  0.06326090  1
  Se  Se140  1  0.59495990  0.25985574  0.56241770  1
  Se  Se141  1  0.58746008  0.58636525  0.05598938  1
  Se  Se142  1  0.58155818  0.57088559  0.55454086  1
  Se  Se143  1  0.59357845  0.92721319  0.05687692  1
  Se  Se144  1  0.58970445  0.91564288  0.55275210  1
  Se  Se145  1  0.91679519  0.25013483  0.05549848  1
  Se  Se146  1  0.91223794  0.24580922  0.55437281  1
  Se  Se147  1  0.91805110  0.58078808  0.04773778  1
  Se  Se148  1  0.90977033  0.58564792  0.55096621  1
  Se  Se149  1  0.91552908  0.91375667  0.05183798  1
  Se  Se150  1  0.93074774  0.91857684  0.56761262  1
  Se  Se151  1  0.06795165  0.26524626  0.44456526  1
  Se  Se152  1  0.07702967  0.25965926  0.93656107  1
  Se  Se153  1  0.08324176  0.58472464  0.45331777  1
  Se  Se154  1  0.08519158  0.57609437  0.94165480  1
  Se  Se155  1  0.08556161  0.92036558  0.45060494  1
  Se  Se156  1  0.07714387  0.92341600  0.94023229  1
  Se  Se157  1  0.41496405  0.25953872  0.43679474  1
  Se  Se158  1  0.40648660  0.25804178  0.93995786  1
  Se  Se159  1  0.40683952  0.58116679  0.45017328  1
  Se  Se160  1  0.42306300  0.57842454  0.95097899  1
  Se  Se161  1  0.41367141  0.92759561  0.43880198  1
  Se  Se162  1  0.41175718  0.91610881  0.93759177  1
  Se  Se163  1  0.75725716  0.25045093  0.44701460  1
  Se  Se164  1  0.75125161  0.25304955  0.94885407  1
  Se  Se165  1  0.75310859  0.57767314  0.45127102  1
  Se  Se166  1  0.75502503  0.57859359  0.94598111  1
  Se  Se167  1  0.75230464  0.91762597  0.44168355  1
  Se  Se168  1  0.75645067  0.91568793  0.94820240  1
  Se  Se169  1  0.25677227  0.08697161  0.44456776  1
  Se  Se170  1  0.25309490  0.08034504  0.93857863  1
  Se  Se171  1  0.24405206  0.41462801  0.44308598  1
  Se  Se172  1  0.24772630  0.41902783  0.95043076  1
  Se  Se173  1  0.24660071  0.76824623  0.45893447  1
  Se  Se174  1  0.25395061  0.73332943  0.93757899  1
  Se  Se175  1  0.59493503  0.08096660  0.44375508  1
  Se  Se176  1  0.59448973  0.07818640  0.93566817  1
  Se  Se177  1  0.58296072  0.41173239  0.44497283  1
  Se  Se178  1  0.58176389  0.41588353  0.94832590  1
  Se  Se179  1  0.59122472  0.72607498  0.43776881  1
  Se  Se180  1  0.59111239  0.74050857  0.93536593  1
  Se  Se181  1  0.91978493  0.08492446  0.44968132  1
  Se  Se182  1  0.91549609  0.09376765  0.94952779  1
  Se  Se183  1  0.89824328  0.43699104  0.44191002  1
  Se  Se184  1  0.91407425  0.41975534  0.94511774  1
  Se  Se185  1  0.92052264  0.74625130  0.43625715  1
  Se  Se186  1  0.92019911  0.75202653  0.94313150  1
  Se  Se187  1  0.24762756  0.25235154  0.30137511  1
  Se  Se188  1  0.24020666  0.24366139  0.81083599  1
  Se  Se189  1  0.24782667  0.58740677  0.31152972  1
  Se  Se190  1  0.26516949  0.58687351  0.80240355  1
  Se  Se191  1  0.24976466  0.92169774  0.30767988  1
  Se  Se192  1  0.25477389  0.91686780  0.79937803  1
  Se  Se193  1  0.58683904  0.25326676  0.29889415  1
  Se  Se194  1  0.55979934  0.22767067  0.80389050  1
  Se  Se195  1  0.58017758  0.57433724  0.31300785  1
  Se  Se196  1  0.57329692  0.56920270  0.81202343  1
  Se  Se197  1  0.58546134  0.91312146  0.30889512  1
  Se  Se198  1  0.57133355  0.90732584  0.80326609  1
  Se  Se199  1  0.91976315  0.24972816  0.30556385  1
  Se  Se200  1  0.91935960  0.25527916  0.80563798  1
  Se  Se201  1  0.91626346  0.57562926  0.30794754  1
  Se  Se202  1  0.91533232  0.58092135  0.80446243  1
  Se  Se203  1  0.92262159  0.91651560  0.30005038  1
  Se  Se204  1  0.92819417  0.93453993  0.80427202  1
  Se  Se205  1  0.08238918  0.08173838  0.30769505  1
  Se  Se206  1  0.08339377  0.08365517  0.80080303  1
  Se  Se207  1  0.07948327  0.41707585  0.30426146  1
  Se  Se208  1  0.08685673  0.42463650  0.79739510  1
  Se  Se209  1  0.09833424  0.74767271  0.32237411  1
  Se  Se210  1  0.08826227  0.75315458  0.80202734  1
  Se  Se211  1  0.41516129  0.08542326  0.30055647  1
  Se  Se212  1  0.40837541  0.07137713  0.79281301  1
  Se  Se213  1  0.40490172  0.41331991  0.30127756  1
  Se  Se214  1  0.41395151  0.41554625  0.81177170  1
  Se  Se215  1  0.41184437  0.75514194  0.30774073  1
  Se  Se216  1  0.41175763  0.74136562  0.79623276  1
  Se  Se217  1  0.75521767  0.08745974  0.31131720  1
  Se  Se218  1  0.75543361  0.08992653  0.81353805  1
  Se  Se219  1  0.75007519  0.41246477  0.30413975  1
  Se  Se220  1  0.74779094  0.41181421  0.80392009  1
  Se  Se221  1  0.76042872  0.75565075  0.30302688  1
  Se  Se222  1  0.75661173  0.75804476  0.81140731  1
  Se  Se223  1  0.25053206  0.08334041  0.19656450  1
  Se  Se224  1  0.24872697  0.08078260  0.69351386  1
  Se  Se225  1  0.24701019  0.41851194  0.19801462  1
  Se  Se226  1  0.23896552  0.43002864  0.68873755  1
  Se  Se227  1  0.24791499  0.74848025  0.20382127  1
  Se  Se228  1  0.24600190  0.74331574  0.68892490  1
  Se  Se229  1  0.57271825  0.09722620  0.18361858  1
  Se  Se230  1  0.57912770  0.08990304  0.68204554  1
  Se  Se231  1  0.59200619  0.42297474  0.20414084  1
  Se  Se232  1  0.58381388  0.40827592  0.70154998  1
  Se  Se233  1  0.56920642  0.75998284  0.19283208  1
  Se  Se234  1  0.58103081  0.74830263  0.68940782  1
  Se  Se235  1  0.91747839  0.08030053  0.19870127  1
  Se  Se236  1  0.91701843  0.08594632  0.70058986  1
  Se  Se237  1  0.92468489  0.41229536  0.19580024  1
  Se  Se238  1  0.92017687  0.41918741  0.69277412  1
  Se  Se239  1  0.91392669  0.74943117  0.18594262  1
  Se  Se240  1  0.90146779  0.76697995  0.70708523  1
  Se  Se241  1  0.08373845  0.24803472  0.19800176  1
  Se  Se242  1  0.08212400  0.25583512  0.69866408  1
  Se  Se243  1  0.08797827  0.57571280  0.19195286  1
  Se  Se244  1  0.05516002  0.60769513  0.68296989  1
  Se  Se245  1  0.08261835  0.91207009  0.20130780  1
  Se  Se246  1  0.08542338  0.91813832  0.69750658  1
  Se  Se247  1  0.41032215  0.25546851  0.19878441  1
  Se  Se248  1  0.41989056  0.24104748  0.68888438  1
  Se  Se249  1  0.40648565  0.58922807  0.19952295  1
  Se  Se250  1  0.41320706  0.57542314  0.69398594  1
  Se  Se251  1  0.40893129  0.92354569  0.20150507  1
  Se  Se252  1  0.41023208  0.91003112  0.68862972  1
  Se  Se253  1  0.75239197  0.25344797  0.19904841  1
  Se  Se254  1  0.75136329  0.25452842  0.69904300  1
  Se  Se255  1  0.76116922  0.57718535  0.19165345  1
  Se  Se256  1  0.75430495  0.57599614  0.69165861  1
  Se  Se257  1  0.75458030  0.91187870  0.18546179  1
  Se  Se258  1  0.75993846  0.91171520  0.69790750  1
