# generated using pymatgen
data_In86Cu29Se144
_symmetry_space_group_name_H-M   'P 1'
_cell_length_a   17.58339184
_cell_length_b   17.58492857
_cell_length_c   23.44466073
_cell_angle_alpha   90.03031965
_cell_angle_beta   89.99748651
_cell_angle_gamma   90.01815369
_symmetry_Int_Tables_number   1
_chemical_formula_structural   In86Cu29Se144
_chemical_formula_sum   'In86 Cu29 Se144'
_cell_volume   7249.15076706
_cell_formula_units_Z   1
loop_
 _symmetry_equiv_pos_site_id
 _symmetry_equiv_pos_as_xyz
  1  'x, y, z'
loop_
 _atom_site_type_symbol
 _atom_site_label
 _atom_site_symmetry_multiplicity
 _atom_site_fract_x
 _atom_site_fract_y
 _atom_site_fract_z
 _atom_site_occupancy
  In  In0  1  0.00979403  0.17617289  0.12040349  1
  In  In1  1  0.00013076  0.16704117  0.62688380  1
  In  In2  1  -0.00026705  0.49991484  0.12692216  1
  In  In3  1  -0.00172142  0.49903513  0.63083468  1
  In  In4  1  0.00526155  0.82154785  0.12512516  1
  In  In5  1  0.01531610  0.82393249  0.63078487  1
  In  In6  1  0.33685246  0.17414390  0.12144790  1
  In  In7  1  0.30385473  0.13986542  0.59283344  1
  In  In8  1  0.33480293  0.49598651  0.13051778  1
  In  In9  1  0.34557580  0.49556718  0.62264987  1
  In  In10  1  0.32004112  0.82189076  0.11625734  1
  In  In11  1  0.31825516  0.84868547  0.64264955  1
  In  In12  1  0.66531280  0.16457776  0.11519803  1
  In  In13  1  0.66743584  0.16783735  0.62070318  1
  In  In14  1  0.66469290  0.50308712  0.10998080  1
  In  In15  1  0.65476691  0.51270272  0.63390248  1
  In  In16  1  0.66093323  0.83911495  0.11568277  1
  In  In17  1  0.64777527  0.82445161  0.63678471  1
  In  In18  1  0.17372536  0.00484184  0.39007074  1
  In  In19  1  0.17129516  0.00069212  0.87473482  1
  In  In20  1  0.16107009  0.32917158  0.36978238  1
  In  In21  1  0.15201817  0.33257591  0.87061955  1
  In  In22  1  0.16709090  0.66931623  0.37163309  1
  In  In23  1  0.18089839  0.67912521  0.86637897  1
  In  In24  1  0.49573950  0.01066928  0.37921015  1
  In  In25  1  0.49176681  0.00491222  0.87511055  1
  In  In26  1  0.48212151  0.35174677  0.39291813  1
  In  In27  1  0.50146322  0.33359175  0.88124433  1
  In  In28  1  0.48521824  0.67509656  0.37487640  1
  In  In29  1  0.49664117  0.66690207  0.87955807  1
  In  In30  1  0.84724545  0.00895553  0.37748008  1
  In  In31  1  0.84993308  -0.00266653  0.87434452  1
  In  In32  1  0.83988439  0.32177792  0.37686563  1
  In  In33  1  0.84029923  0.33023530  0.88081384  1
  In  In34  1  0.84073023  0.65294629  0.37402889  1
  In  In35  1  0.83054485  0.65690076  0.87136010  1
  In  In36  1  0.00307979  0.17813855  0.38955923  1
  In  In37  1  0.00368310  0.16629646  0.87460494  1
  In  In38  1  0.00901759  0.50200912  0.36936096  1
  In  In39  1  -0.00639859  0.49153645  0.86870957  1
  In  In40  1  0.01723230  0.82587311  0.38148272  1
  In  In41  1  0.01399613  0.84548379  0.86766894  1
  In  In42  1  0.31047985  0.19163326  0.39866050  1
  In  In43  1  0.34244347  0.15877336  0.87648503  1
  In  In44  1  0.33822188  0.51224981  0.36955414  1
  In  In45  1  0.33710610  0.51537366  0.87302102  1
  In  In46  1  0.32869726  0.82576511  0.37303411  1
  In  In47  1  0.33495809  0.83272716  0.87647505  1
  In  In48  1  0.66384451  0.17468323  0.38146836  1
  In  In49  1  0.66275454  0.17275736  0.87909235  1
  In  In50  1  0.66543380  0.49142958  0.37566832  1
  In  In51  1  0.65806366  0.52050915  0.89435604  1
  In  In52  1  0.65651847  0.83407462  0.37057850  1
  In  In53  1  0.65845997  0.81147996  0.87219955  1
  In  In54  1  0.16290266  -0.00070101  0.11702255  1
  In  In55  1  0.16723529  -0.00845003  0.62504874  1
  In  In56  1  0.17584281  0.32652085  0.13462583  1
  In  In57  1  0.16279546  0.31636496  0.61580847  1
  In  In58  1  0.16523253  0.67481894  0.13126282  1
  In  In59  1  0.15409135  0.68090365  0.62814172  1
  In  In60  1  0.49851959  0.00456811  0.11475673  1
  In  In61  1  0.46964606  -0.00370753  0.62845460  1
  In  In62  1  0.49392066  0.33100386  0.11954636  1
  In  In63  1  0.48119425  0.32473697  0.61076127  1
  In  In64  1  0.48598823  0.65325412  0.11055725  1
  In  In65  1  0.49675492  0.66787083  0.63544254  1
  In  In66  1  0.82411673  -0.00021746  0.11667947  1
  In  In67  1  0.83386034  0.01628989  0.62969845  1
  In  In68  1  0.84095775  0.33988307  0.11910175  1
  In  In69  1  0.84575825  0.32744144  0.62593364  1
  In  In70  1  0.84722757  0.66607100  0.11801988  1
  In  In71  1  0.83330315  0.66262133  0.63537326  1
  In  In72  1  0.00282973  -0.00406528  0.24965749  1
  In  In73  1  0.83386614  0.83186230  -0.00698895  1
  In  In74  1  0.66805973  0.33326593  0.24390567  1
  In  In75  1  0.33010225  0.00120560  0.25828789  1
  In  In76  1  0.16809827  0.49893429  -0.00629563  1
  In  In77  1  0.83537850  0.49563941  0.50625957  1
  In  In78  1  0.66627502  0.66438634  0.23490890  1
  In  In79  1  0.32536804  0.32944132  0.73845656  1
  In  In80  1  0.16736076  0.49637925  0.50210035  1
  In  In81  1  0.66814057  -0.00583515  0.75735268  1
  In  In82  1  0.66539297  0.34080146  0.75878722  1
  In  In83  1  0.83583426  0.83634529  0.50139660  1
  In  In84  1  0.48823925  0.83748016  0.50566602  1
  In  In85  1  0.66601379  0.00090154  0.23894164  1
  Cu  Cu86  1  0.33151545  0.00313202  -0.00207662  1
  Cu  Cu87  1  0.16029837  0.50387435  0.74973229  1
  Cu  Cu88  1  0.49713071  0.50545116  0.25070969  1
  Cu  Cu89  1  0.66049308  0.66462075  0.51029995  1
  Cu  Cu90  1  0.84461685  0.17271912  0.75315160  1
  Cu  Cu91  1  0.84147639  0.16526870  0.25287791  1
  Cu  Cu92  1  0.49850494  0.50044067  0.75309836  1
  Cu  Cu93  1  0.84013599  0.83284581  0.75276437  1
  Cu  Cu94  1  0.49123263  0.18289502  0.25100596  1
  Cu  Cu95  1  0.16733087  0.16446028  0.25495872  1
  Cu  Cu96  1  0.00669810  0.66614829  -0.00192764  1
  Cu  Cu97  1  0.67120194  -0.00039677  0.50544772  1
  Cu  Cu98  1  0.00171569  0.32870289  -0.00138875  1
  Cu  Cu99  1  0.16643192  0.15960373  0.74452138  1
  Cu  Cu100  1  0.83268415  0.50002033  0.75338975  1
  Cu  Cu101  1  0.49106179  0.15372574  0.74490741  1
  Cu  Cu102  1  0.33129980  0.66463253  0.49835872  1
  Cu  Cu103  1  0.84219158  0.81882910  0.24977561  1
  Cu  Cu104  1  0.00347078  0.00567263  -0.00525413  1
  Cu  Cu105  1  0.84961092  0.49512795  0.24632550  1
  Cu  Cu106  1  0.66277211  0.00276778  -0.00656088  1
  Cu  Cu107  1  0.66858836  0.33350042  -0.00139322  1
  Cu  Cu108  1  0.66607139  0.33768535  0.50165791  1
  Cu  Cu109  1  0.16869586  0.49889585  0.25083040  1
  Cu  Cu110  1  0.33162691  0.33315378  0.00289345  1
  Cu  Cu111  1  0.48696407  0.83338231  0.24346884  1
  Cu  Cu112  1  0.00080902  0.00664612  0.50499301  1
  Cu  Cu113  1  0.16886284  0.83618713  0.75309445  1
  Cu  Cu114  1  0.33337217  0.66981655  -0.00376675  1
  Se  Se115  1  0.08498189  0.08807010  0.05119568  1
  Se  Se116  1  0.08697466  0.08438302  0.56023597  1
  Se  Se117  1  0.08514335  0.40860977  0.05861387  1
  Se  Se118  1  0.06979948  0.40778527  0.55680853  1
  Se  Se119  1  0.08888554  0.74851317  0.05216746  1
  Se  Se120  1  0.08771344  0.75892216  0.54943427  1
  Se  Se121  1  0.41453159  0.08979825  0.05065875  1
  Se  Se122  1  0.43186349  0.09064949  0.55201766  1
  Se  Se123  1  0.41312135  0.42045968  0.05428952  1
  Se  Se124  1  0.41471841  0.42107577  0.54439901  1
  Se  Se125  1  0.41706500  0.75562785  0.04894405  1
  Se  Se126  1  0.40361698  0.74501909  0.56489619  1
  Se  Se127  1  0.74934185  0.08350695  0.04620130  1
  Se  Se128  1  0.75431623  0.08707954  0.55343432  1
  Se  Se129  1  0.75350046  0.41609395  0.05076153  1
  Se  Se130  1  0.74028063  0.41394958  0.56940499  1
  Se  Se131  1  0.74624251  0.74398822  0.05581126  1
  Se  Se132  1  0.74338030  0.74817324  0.56372530  1
  Se  Se133  1  0.24571586  0.25138361  0.05448391  1
  Se  Se134  1  0.27999098  0.27684779  0.55769043  1
  Se  Se135  1  0.25320109  0.58771678  0.05807306  1
  Se  Se136  1  0.25183678  0.59014290  0.56360393  1
  Se  Se137  1  0.24880083  0.91823550  0.05094329  1
  Se  Se138  1  0.26048680  0.91834105  0.55803890  1
  Se  Se139  1  0.58212185  0.25219605  0.05237711  1
  Se  Se140  1  0.58495676  0.25100084  0.55379299  1
  Se  Se141  1  0.58941908  0.59431774  0.04689885  1
  Se  Se142  1  0.57230967  0.58504229  0.55993812  1
  Se  Se143  1  0.57980313  0.91961288  0.04699045  1
  Se  Se144  1  0.58771120  0.92255792  0.56343442  1
  Se  Se145  1  0.91573603  0.24683335  0.05273242  1
  Se  Se146  1  0.91502087  0.24295478  0.55493319  1
  Se  Se147  1  0.92622130  0.57989625  0.05021020  1
  Se  Se148  1  0.92316816  0.59341628  0.55941383  1
  Se  Se149  1  0.92617070  0.92073679  0.05660957  1
  Se  Se150  1  0.92139751  0.92443915  0.56503814  1
  Se  Se151  1  0.10600622  0.24340372  0.44974387  1
  Se  Se152  1  0.08727869  0.24756964  0.94628625  1
  Se  Se153  1  0.07809774  0.58950105  0.44445898  1
  Se  Se154  1  0.08276590  0.58915129  0.93162322  1
  Se  Se155  1  0.08065295  0.92160079  0.45041389  1
  Se  Se156  1  0.08753623  0.91863126  0.94609142  1
  Se  Se157  1  0.44067295  0.22824467  0.44120159  1
  Se  Se158  1  0.41467267  0.25073557  0.94571057  1
  Se  Se159  1  0.41924491  0.58555447  0.44666333  1
  Se  Se160  1  0.41700828  0.57894330  0.95141491  1
  Se  Se161  1  0.40337869  0.92528969  0.44050285  1
  Se  Se162  1  0.41562372  0.91903306  0.94563676  1
  Se  Se163  1  0.75011647  0.25505085  0.44850752  1
  Se  Se164  1  0.75151425  0.24897457  0.94623502  1
  Se  Se165  1  0.74149781  0.58927398  0.44660784  1
  Se  Se166  1  0.76560479  0.58357115  0.95250040  1
  Se  Se167  1  0.74235247  0.92316813  0.43660919  1
  Se  Se168  1  0.74177584  0.92120523  0.93237078  1
  Se  Se169  1  0.25197990  0.08608802  0.46035667  1
  Se  Se170  1  0.24945382  0.08767473  0.94472612  1
  Se  Se171  1  0.25455725  0.41789441  0.43374454  1
  Se  Se172  1  0.25843258  0.40825474  0.93355735  1
  Se  Se173  1  0.24840575  0.74791578  0.44526253  1
  Se  Se174  1  0.24659013  0.75398465  0.94767271  1
  Se  Se175  1  0.59065443  0.07890239  0.44561024  1
  Se  Se176  1  0.57757285  0.08726224  0.94263829  1
  Se  Se177  1  0.58425672  0.42560576  0.45205272  1
  Se  Se178  1  0.58099958  0.41732979  0.94980264  1
  Se  Se179  1  0.58650471  0.74699670  0.44612737  1
  Se  Se180  1  0.58362012  0.74329536  0.95006798  1
  Se  Se181  1  0.91628329  0.08953899  0.45228711  1
  Se  Se182  1  0.91573233  0.08779975  0.94583413  1
  Se  Se183  1  0.92493514  0.41399652  0.44055563  1
  Se  Se184  1  0.92147668  0.41785010  0.94830177  1
  Se  Se185  1  0.92041572  0.74030718  0.44409023  1
  Se  Se186  1  0.92996819  0.74778580  0.93462210  1
  Se  Se187  1  0.25437708  0.24785119  0.30596503  1
  Se  Se188  1  0.24396766  0.24221641  0.80755265  1
  Se  Se189  1  0.24972341  0.58750557  0.30187751  1
  Se  Se190  1  0.25017263  0.58198190  0.79961571  1
  Se  Se191  1  0.23365801  0.91202046  0.31126616  1
  Se  Se192  1  0.25459498  0.91805287  0.80575010  1
  Se  Se193  1  0.57768951  0.25624474  0.31112792  1
  Se  Se194  1  0.56825303  0.23925261  0.80350060  1
  Se  Se195  1  0.58234089  0.58388237  0.30866572  1
  Se  Se196  1  0.58054316  0.57921470  0.81106657  1
  Se  Se197  1  0.56811612  0.91533194  0.30128512  1
  Se  Se198  1  0.57271910  0.90574719  0.81049239  1
  Se  Se199  1  0.92501897  0.24474842  0.30735432  1
  Se  Se200  1  0.92411110  0.25726131  0.80732168  1
  Se  Se201  1  0.92456182  0.58427351  0.30033956  1
  Se  Se202  1  0.92093370  0.58502980  0.80129631  1
  Se  Se203  1  0.91122764  0.90571176  0.31113340  1
  Se  Se204  1  0.92373646  0.92150872  0.79860524  1
  Se  Se205  1  0.08735616  0.08514589  0.31489396  1
  Se  Se206  1  0.08516395  0.08180632  0.80573290  1
  Se  Se207  1  0.08273686  0.41369383  0.30000032  1
  Se  Se208  1  0.07893092  0.41439018  0.79734349  1
  Se  Se209  1  0.07824283  0.74610540  0.30320707  1
  Se  Se210  1  0.08285773  0.74874172  0.80110819  1
  Se  Se211  1  0.41644901  0.09965184  0.31181347  1
  Se  Se212  1  0.40714900  0.07372586  0.79901669  1
  Se  Se213  1  0.42027234  0.41884496  0.30613735  1
  Se  Se214  1  0.41603546  0.41399333  0.80697119  1
  Se  Se215  1  0.40918149  0.74894509  0.29890886  1
  Se  Se216  1  0.39473342  0.72654725  0.81348732  1
  Se  Se217  1  0.75258702  0.08676875  0.30718962  1
  Se  Se218  1  0.75865142  0.09329091  0.81075407  1
  Se  Se219  1  0.76275174  0.42127255  0.30613402  1
  Se  Se220  1  0.75256435  0.42871042  0.81989467  1
  Se  Se221  1  0.75136248  0.74866134  0.30842503  1
  Se  Se222  1  0.75608225  0.74936188  0.80403499  1
  Se  Se223  1  0.24404846  0.08724810  0.19076100  1
  Se  Se224  1  0.25323727  0.08409436  0.68802786  1
  Se  Se225  1  0.25464858  0.41448387  0.20105110  1
  Se  Se226  1  0.23524379  0.42516372  0.68358682  1
  Se  Se227  1  0.25623477  0.74946491  0.19797082  1
  Se  Se228  1  0.24694261  0.74523266  0.70057376  1
  Se  Se229  1  0.56976623  0.09878875  0.19202729  1
  Se  Se230  1  0.58224282  0.07979854  0.68927457  1
  Se  Se231  1  0.57901345  0.42896413  0.18852910  1
  Se  Se232  1  0.56823482  0.41196655  0.69125186  1
  Se  Se233  1  0.57076525  0.75743724  0.18402794  1
  Se  Se234  1  0.59012335  0.73142519  0.70756179  1
  Se  Se235  1  0.91135038  0.08260929  0.18743996  1
  Se  Se236  1  0.92244026  0.08407489  0.70126789  1
  Se  Se237  1  0.92675364  0.40519379  0.19480053  1
  Se  Se238  1  0.91297244  0.41649188  0.69815795  1
  Se  Se239  1  0.92461261  0.73909720  0.19515223  1
  Se  Se240  1  0.92049485  0.74957209  0.69660665  1
  Se  Se241  1  0.08393484  0.24692016  0.20008276  1
  Se  Se242  1  0.08574510  0.24978777  0.69596923  1
  Se  Se243  1  0.08697240  0.58002583  0.19323330  1
  Se  Se244  1  0.07820161  0.58821762  0.69545470  1
  Se  Se245  1  0.09459488  0.90736246  0.19203172  1
  Se  Se246  1  0.08368775  0.91850739  0.69966322  1
  Se  Se247  1  0.40912125  0.26124264  0.19439817  1
  Se  Se248  1  0.41389397  0.23431725  0.68450505  1
  Se  Se249  1  0.41646353  0.58795496  0.19481056  1
  Se  Se250  1  0.41129887  0.57894580  0.69934329  1
  Se  Se251  1  0.41370821  0.92075287  0.18559898  1
  Se  Se252  1  0.44096084  0.88761490  0.69626929  1
  Se  Se253  1  0.75845358  0.23811168  0.18882897  1
  Se  Se254  1  0.75203759  0.24653273  0.69773864  1
  Se  Se255  1  0.76334799  0.56971750  0.18599868  1
  Se  Se256  1  0.74627654  0.58283362  0.70254729  1
  Se  Se257  1  0.76159358  0.90013626  0.19081581  1
  Se  Se258  1  0.75661369  0.90869132  0.69014311  1
