# generated using pymatgen
data_In86Cu29Se144
_symmetry_space_group_name_H-M   'P 1'
_cell_length_a   17.57924164
_cell_length_b   17.57831027
_cell_length_c   23.43333230
_cell_angle_alpha   90.01444319
_cell_angle_beta   90.02859360
_cell_angle_gamma   89.99468924
_symmetry_Int_Tables_number   1
_chemical_formula_structural   In86Cu29Se144
_chemical_formula_sum   'In86 Cu29 Se144'
_cell_volume   7241.21167996
_cell_formula_units_Z   1
loop_
 _symmetry_equiv_pos_site_id
 _symmetry_equiv_pos_as_xyz
  1  'x, y, z'
loop_
 _atom_site_type_symbol
 _atom_site_label
 _atom_site_symmetry_multiplicity
 _atom_site_fract_x
 _atom_site_fract_y
 _atom_site_fract_z
 _atom_site_occupancy
  In  In0  1  0.00026391  0.15277830  0.12413564  1
  In  In1  1  0.01134908  0.16349596  0.61931186  1
  In  In2  1  0.00345901  0.51327289  0.13050705  1
  In  In3  1  -0.00621399  0.48694992  0.60229307  1
  In  In4  1  -0.00279666  0.83263918  0.13078270  1
  In  In5  1  0.00010835  0.82036154  0.61944290  1
  In  In6  1  0.33388176  0.16725300  0.12213607  1
  In  In7  1  0.32415332  0.16744638  0.63603090  1
  In  In8  1  0.36686663  0.47553183  0.15812314  1
  In  In9  1  0.32460744  0.48890158  0.61526118  1
  In  In10  1  0.34269066  0.82583929  0.13288140  1
  In  In11  1  0.32887402  0.84538575  0.62540145  1
  In  In12  1  0.65690774  0.18067106  0.13068343  1
  In  In13  1  0.66658999  0.16663314  0.63437234  1
  In  In14  1  0.65474716  0.48683037  0.12015815  1
  In  In15  1  0.65934417  0.49230760  0.61813587  1
  In  In16  1  0.67516238  0.84335516  0.11997967  1
  In  In17  1  0.66813926  0.84682865  0.63037191  1
  In  In18  1  0.16876799  0.00420885  0.37249012  1
  In  In19  1  0.18911195  0.00788797  0.86624873  1
  In  In20  1  0.17074383  0.32168150  0.38681411  1
  In  In21  1  0.17290273  0.31680177  0.87515362  1
  In  In22  1  0.16185967  0.66723602  0.37897573  1
  In  In23  1  0.16641924  0.66706881  0.87266688  1
  In  In24  1  0.50102082  0.00584354  0.36412495  1
  In  In25  1  0.50022889  0.00257173  0.88287414  1
  In  In26  1  0.50382178  0.34673196  0.35966229  1
  In  In27  1  0.49831798  0.33328811  0.87468716  1
  In  In28  1  0.48673502  0.65868240  0.36667387  1
  In  In29  1  0.51087162  0.65779056  0.89242243  1
  In  In30  1  0.82870534  -0.00667275  0.36867651  1
  In  In31  1  0.81976762  -0.00063299  0.87607097  1
  In  In32  1  0.83457414  0.34915461  0.37719354  1
  In  In33  1  0.82727429  0.35142009  0.87363417  1
  In  In34  1  0.83601361  0.65204433  0.37607300  1
  In  In35  1  0.83011478  0.66861106  0.88418557  1
  In  In36  1  0.01594508  0.16821140  0.37677139  1
  In  In37  1  0.01265500  0.16750339  0.87842007  1
  In  In38  1  -0.00780017  0.50793154  0.38928263  1
  In  In39  1  -0.00963154  0.49450884  0.87333393  1
  In  In40  1  0.00639955  0.84060703  0.37062254  1
  In  In41  1  -0.00345968  0.82579353  0.87873111  1
  In  In42  1  0.32779267  0.16440918  0.36526631  1
  In  In43  1  0.33721796  0.17087210  0.87703886  1
  In  In44  1  0.33284083  0.49700594  0.37328350  1
  In  In45  1  0.34644917  0.50175825  0.87510179  1
  In  In46  1  0.32145205  0.82713078  0.36548650  1
  In  In47  1  0.33538100  0.84399655  0.87708151  1
  In  In48  1  0.65964738  0.16347596  0.36767404  1
  In  In49  1  0.65365221  0.15720032  0.86969056  1
  In  In50  1  0.66805535  0.49698147  0.37598916  1
  In  In51  1  0.67227783  0.49211303  0.87678573  1
  In  In52  1  0.65941784  0.83945328  0.37185439  1
  In  In53  1  0.66208385  0.83752813  0.88569733  1
  In  In54  1  0.16095589  0.00498471  0.12897474  1
  In  In55  1  0.17971408  0.00963914  0.60980722  1
  In  In56  1  0.18219396  0.33437730  0.12623869  1
  In  In57  1  0.17209259  0.33351932  0.61716379  1
  In  In58  1  0.17135701  0.66552796  0.13816257  1
  In  In59  1  0.14562116  0.65410385  0.59790046  1
  In  In60  1  0.49986373  0.00478961  0.12380103  1
  In  In61  1  0.49557287  0.00084820  0.63388356  1
  In  In62  1  0.50181978  0.33056068  0.12338190  1
  In  In63  1  0.49149353  0.33272996  0.62955079  1
  In  In64  1  0.49342540  0.65921260  0.12160990  1
  In  In65  1  0.50776726  0.65478454  0.62227383  1
  In  In66  1  0.84420759  -0.00724165  0.12978867  1
  In  In67  1  0.82238967  -0.00293813  0.63267136  1
  In  In68  1  0.81529587  0.33349602  0.12463345  1
  In  In69  1  0.82200877  0.33722969  0.62745345  1
  In  In70  1  0.83707247  0.67059650  0.12331724  1
  In  In71  1  0.83938358  0.66046416  0.62251312  1
  In  In72  1  0.66646054  0.66907327  0.75023661  1
  In  In73  1  0.17090382  0.50244268  0.00844740  1
  In  In74  1  0.82925670  0.16729981  0.00088187  1
  In  In75  1  -0.00182867  -0.00168969  0.75182888  1
  In  In76  1  0.33180985  0.67651188  0.74760423  1
  In  In77  1  0.66505387  0.66549930  0.25173024  1
  In  In78  1  0.00115416  0.33395963  0.73972681  1
  In  In79  1  0.83395869  0.83015741  0.50161815  1
  In  In80  1  0.16724767  0.83759847  -0.00084502  1
  In  In81  1  0.49432668  0.82749846  0.49820842  1
  In  In82  1  0.49707148  0.16660967  0.49384573  1
  In  In83  1  -0.00390695  0.66380998  0.73986549  1
  In  In84  1  0.83565102  0.16866421  0.50852089  1
  In  In85  1  0.00173656  0.33461003  0.26033703  1
  Cu  Cu86  1  0.16686325  0.50685969  0.25814018  1
  Cu  Cu87  1  0.66633567  0.65796547  0.49828213  1
  Cu  Cu88  1  0.33328249  0.66394421  0.49101956  1
  Cu  Cu89  1  0.16858123  0.83656994  0.73847606  1
  Cu  Cu90  1  0.16811960  0.16696715  0.24983043  1
  Cu  Cu91  1  0.50009367  0.16425003  0.75592060  1
  Cu  Cu92  1  -0.00232786  0.33500181  -0.00460978  1
  Cu  Cu93  1  0.83031690  0.16220114  0.24814893  1
  Cu  Cu94  1  0.66655725  0.33460315  0.49708951  1
  Cu  Cu95  1  0.66469521  0.00214350  0.00288659  1
  Cu  Cu96  1  0.33058236  0.00090310  0.49454989  1
  Cu  Cu97  1  0.83200141  0.49890573  0.25225218  1
  Cu  Cu98  1  0.00451610  0.00053063  0.49585689  1
  Cu  Cu99  1  0.49527695  0.16917902  0.24528789  1
  Cu  Cu100  1  0.83196859  0.17612645  0.75352153  1
  Cu  Cu101  1  0.33966953  0.33486846  0.00382949  1
  Cu  Cu102  1  0.66043620  0.33665780  -0.00196202  1
  Cu  Cu103  1  0.33707842  0.66346891  0.01085671  1
  Cu  Cu104  1  0.49907461  0.84003679  0.75966129  1
  Cu  Cu105  1  0.66811381  0.66823196  0.00677588  1
  Cu  Cu106  1  -0.00637405  0.66494688  0.00424907  1
  Cu  Cu107  1  0.33905726  0.33344436  0.50108923  1
  Cu  Cu108  1  0.50426634  0.84195654  0.24608324  1
  Cu  Cu109  1  0.00474105  -0.00403945  0.00475911  1
  Cu  Cu110  1  0.33666645  0.00416561  0.00003280  1
  Cu  Cu111  1  0.49792864  0.49057846  0.74827507  1
  Cu  Cu112  1  0.16882335  0.49068884  0.74044969  1
  Cu  Cu113  1  0.16626250  0.84069877  0.25195519  1
  Cu  Cu114  1  0.84189446  0.83070757  0.24710792  1
  Se  Se115  1  0.08814943  0.08436698  0.05120790  1
  Se  Se116  1  0.08859566  0.08801303  0.54461366  1
  Se  Se117  1  0.07570114  0.40966945  0.06308907  1
  Se  Se118  1  0.09846295  0.41936512  0.54697302  1
  Se  Se119  1  0.08436402  0.74100682  0.05938674  1
  Se  Se120  1  0.08368680  0.76268821  0.54181788  1
  Se  Se121  1  0.42005343  0.08837546  0.05269172  1
  Se  Se122  1  0.41076762  0.07766663  0.55754568  1
  Se  Se123  1  0.41485745  0.42178089  0.06132073  1
  Se  Se124  1  0.42433264  0.41589703  0.55280711  1
  Se  Se125  1  0.42035744  0.75521428  0.05489470  1
  Se  Se126  1  0.40653575  0.73865141  0.56200485  1
  Se  Se127  1  0.74573032  0.07993582  0.06626418  1
  Se  Se128  1  0.73837742  0.07610521  0.55889926  1
  Se  Se129  1  0.74855282  0.41770358  0.04930002  1
  Se  Se130  1  0.75143406  0.41689785  0.55029041  1
  Se  Se131  1  0.75465790  0.75271535  0.05483797  1
  Se  Se132  1  0.73552437  0.74333845  0.56143004  1
  Se  Se133  1  0.25075198  0.25135794  0.05151574  1
  Se  Se134  1  0.26037670  0.24540419  0.55450531  1
  Se  Se135  1  0.26128304  0.58298494  0.07204897  1
  Se  Se136  1  0.25255009  0.57978366  0.54661950  1
  Se  Se137  1  0.25758671  0.92189070  0.06167686  1
  Se  Se138  1  0.25097602  0.91102892  0.54534098  1
  Se  Se139  1  0.58176139  0.24877916  0.05046426  1
  Se  Se140  1  0.58898879  0.25192034  0.55769768  1
  Se  Se141  1  0.58222664  0.58189703  0.05443008  1
  Se  Se142  1  0.57833183  0.57488884  0.54712928  1
  Se  Se143  1  0.58092843  0.91790339  0.05509770  1
  Se  Se144  1  0.58029516  0.92189894  0.55755595  1
  Se  Se145  1  0.92116306  0.25656184  0.06145360  1
  Se  Se146  1  0.92551701  0.26269770  0.56342825  1
  Se  Se147  1  0.91460754  0.57741004  0.05647185  1
  Se  Se148  1  0.92913170  0.60008548  0.55090724  1
  Se  Se149  1  0.92098961  0.91248058  0.05555990  1
  Se  Se150  1  0.92070838  0.92954176  0.56026211  1
  Se  Se151  1  0.07523718  0.25249517  0.45324211  1
  Se  Se152  1  0.08653968  0.25070006  0.95081858  1
  Se  Se153  1  0.08787042  0.58277722  0.45091853  1
  Se  Se154  1  0.07644643  0.58799769  0.94219685  1
  Se  Se155  1  0.08787430  0.91911007  0.44237095  1
  Se  Se156  1  0.08292880  0.92780613  0.93378267  1
  Se  Se157  1  0.41327534  0.25831906  0.43241619  1
  Se  Se158  1  0.42008542  0.25155162  0.94765393  1
  Se  Se159  1  0.41933211  0.57873512  0.44386029  1
  Se  Se160  1  0.41575503  0.57849716  0.95339151  1
  Se  Se161  1  0.41275549  0.92188960  0.43498489  1
  Se  Se162  1  0.41797693  0.91474887  0.95077217  1
  Se  Se163  1  0.74467471  0.24949866  0.43974409  1
  Se  Se164  1  0.74258962  0.25543735  0.93750833  1
  Se  Se165  1  0.75219684  0.57640935  0.44681420  1
  Se  Se166  1  0.74452651  0.58365165  0.94692705  1
  Se  Se167  1  0.74090943  0.92139405  0.44585998  1
  Se  Se168  1  0.75161084  0.91880322  0.95283746  1
  Se  Se169  1  0.25099664  0.08933158  0.44204092  1
  Se  Se170  1  0.25190398  0.08592850  0.94641829  1
  Se  Se171  1  0.25467304  0.41488507  0.44625061  1
  Se  Se172  1  0.25572944  0.41391014  0.94242364  1
  Se  Se173  1  0.25084175  0.75334317  0.44445889  1
  Se  Se174  1  0.25922028  0.73860722  0.94413161  1
  Se  Se175  1  0.59034224  0.07147316  0.44262617  1
  Se  Se176  1  0.58284758  0.08835098  0.95134260  1
  Se  Se177  1  0.58096660  0.41259727  0.44127846  1
  Se  Se178  1  0.57796492  0.42124941  0.94382820  1
  Se  Se179  1  0.58816983  0.73807922  0.43755253  1
  Se  Se180  1  0.58266265  0.75379565  0.95578213  1
  Se  Se181  1  0.91674072  0.07807422  0.43960189  1
  Se  Se182  1  0.92367211  0.07610269  0.94195750  1
  Se  Se183  1  0.91691747  0.41276990  0.45253201  1
  Se  Se184  1  0.91229713  0.42078260  0.94886729  1
  Se  Se185  1  0.92155360  0.74712285  0.43739184  1
  Se  Se186  1  0.91473099  0.75260626  0.95149606  1
  Se  Se187  1  0.24434656  0.25627477  0.30338664  1
  Se  Se188  1  0.25638110  0.24851493  0.80326602  1
  Se  Se189  1  0.25152412  0.59041871  0.30995392  1
  Se  Se190  1  0.24234872  0.57554620  0.80362156  1
  Se  Se191  1  0.25292247  0.92577654  0.30077822  1
  Se  Se192  1  0.25304740  0.90894647  0.79892232  1
  Se  Se193  1  0.58172663  0.24951130  0.29951648  1
  Se  Se194  1  0.58341360  0.25367249  0.80434543  1
  Se  Se195  1  0.57367342  0.56959751  0.30248224  1
  Se  Se196  1  0.57279626  0.57842694  0.80722998  1
  Se  Se197  1  0.58970361  0.92359989  0.29854585  1
  Se  Se198  1  0.58457453  0.91926783  0.81317595  1
  Se  Se199  1  0.90708257  0.24047494  0.31401577  1
  Se  Se200  1  0.91779711  0.24929971  0.81297159  1
  Se  Se201  1  0.92005224  0.57671446  0.30491030  1
  Se  Se202  1  0.90648744  0.58200398  0.80688621  1
  Se  Se203  1  0.91954346  0.91899324  0.30178197  1
  Se  Se204  1  0.90879708  0.90834811  0.81057537  1
  Se  Se205  1  0.08264164  0.08394438  0.30144942  1
  Se  Se206  1  0.09399572  0.09194801  0.80213562  1
  Se  Se207  1  0.08961037  0.42461453  0.31981935  1
  Se  Se208  1  0.08999837  0.42041917  0.80880849  1
  Se  Se209  1  0.08669812  0.75234283  0.30483819  1
  Se  Se210  1  0.08977044  0.75768680  0.80156208  1
  Se  Se211  1  0.41308325  0.08349487  0.29746989  1
  Se  Se212  1  0.41803004  0.08059381  0.81051931  1
  Se  Se213  1  0.40550906  0.41661383  0.29666695  1
  Se  Se214  1  0.41195128  0.41265004  0.80300902  1
  Se  Se215  1  0.42354781  0.75959002  0.30235731  1
  Se  Se216  1  0.42729166  0.74839931  0.81677717  1
  Se  Se217  1  0.74635839  0.07962535  0.30265085  1
  Se  Se218  1  0.75141284  0.08702755  0.80405696  1
  Se  Se219  1  0.74738377  0.41538335  0.30311670  1
  Se  Se220  1  0.74758920  0.42106341  0.79889100  1
  Se  Se221  1  0.75954958  0.75551749  0.31090931  1
  Se  Se222  1  0.75230808  0.75703974  0.81327065  1
  Se  Se223  1  0.25041916  0.08577255  0.19334250  1
  Se  Se224  1  0.25519507  0.06313412  0.69414176  1
  Se  Se225  1  0.24333747  0.41974423  0.20296929  1
  Se  Se226  1  0.25542684  0.40821073  0.69232563  1
  Se  Se227  1  0.25145048  0.75503461  0.20215032  1
  Se  Se228  1  0.23568063  0.74494370  0.67872843  1
  Se  Se229  1  0.58308644  0.08542226  0.19505442  1
  Se  Se230  1  0.58272677  0.08178907  0.69992631  1
  Se  Se231  1  0.58546634  0.40839180  0.19506626  1
  Se  Se232  1  0.58422049  0.41313092  0.69325092  1
  Se  Se233  1  0.58264366  0.75701974  0.18744690  1
  Se  Se234  1  0.56943767  0.75922503  0.69217697  1
  Se  Se235  1  0.91989637  0.08191296  0.19933026  1
  Se  Se236  1  0.91124158  0.09658364  0.69123008  1
  Se  Se237  1  0.91265267  0.41695619  0.19158308  1
  Se  Se238  1  0.91151692  0.43171759  0.68901122  1
  Se  Se239  1  0.92177886  0.74081040  0.19817392  1
  Se  Se240  1  0.90089448  0.76309666  0.69366356  1
  Se  Se241  1  0.08481802  0.24787668  0.19057588  1
  Se  Se242  1  0.09733043  0.24001688  0.69171284  1
  Se  Se243  1  0.08122070  0.58791953  0.20507181  1
  Se  Se244  1  0.08600625  0.57022675  0.68309659  1
  Se  Se245  1  0.08034352  0.91885275  0.19593054  1
  Se  Se246  1  0.08391980  0.91569127  0.68250981  1
  Se  Se247  1  0.41207587  0.25275948  0.19225954  1
  Se  Se248  1  0.41756794  0.24518074  0.69892213  1
  Se  Se249  1  0.40718495  0.60395969  0.20020155  1
  Se  Se250  1  0.41739688  0.57632092  0.69094417  1
  Se  Se251  1  0.41684957  0.92365188  0.19500699  1
  Se  Se252  1  0.41374057  0.91395212  0.70020290  1
  Se  Se253  1  0.74851989  0.25195665  0.20088945  1
  Se  Se254  1  0.74644124  0.25581619  0.70003988  1
  Se  Se255  1  0.75199211  0.57575305  0.18883759  1
  Se  Se256  1  0.75036814  0.57773835  0.68813974  1
  Se  Se257  1  0.75493426  0.91439999  0.19728356  1
  Se  Se258  1  0.74474479  0.92031088  0.70481285  1
