# generated using pymatgen
data_In86Cu29Se144
_symmetry_space_group_name_H-M   'P 1'
_cell_length_a   17.57757608
_cell_length_b   17.57497554
_cell_length_c   23.44061313
_cell_angle_alpha   89.97979909
_cell_angle_beta   89.98753961
_cell_angle_gamma   90.03458887
_symmetry_Int_Tables_number   1
_chemical_formula_structural   In86Cu29Se144
_chemical_formula_sum   'In86 Cu29 Se144'
_cell_volume   7241.40048306
_cell_formula_units_Z   1
loop_
 _symmetry_equiv_pos_site_id
 _symmetry_equiv_pos_as_xyz
  1  'x, y, z'
loop_
 _atom_site_type_symbol
 _atom_site_label
 _atom_site_symmetry_multiplicity
 _atom_site_fract_x
 _atom_site_fract_y
 _atom_site_fract_z
 _atom_site_occupancy
  In  In0  1  -0.00097940  0.15257100  0.12039517  1
  In  In1  1  -0.00833497  0.16237579  0.61907040  1
  In  In2  1  0.01496544  0.49049408  0.12080979  1
  In  In3  1  0.01385222  0.50027025  0.62734219  1
  In  In4  1  -0.00409636  0.84959057  0.12050033  1
  In  In5  1  -0.00792232  0.84431105  0.63624673  1
  In  In6  1  0.33374757  0.18676720  0.12761085  1
  In  In7  1  0.32862047  0.18899799  0.62515870  1
  In  In8  1  0.33773871  0.49685705  0.12159499  1
  In  In9  1  0.33394407  0.49693711  0.62286800  1
  In  In10  1  0.33412797  0.81469858  0.12382319  1
  In  In11  1  0.31908738  0.82885329  0.62987833  1
  In  In12  1  0.67062833  0.16998593  0.13062166  1
  In  In13  1  0.67341741  0.15965581  0.63456156  1
  In  In14  1  0.65268995  0.51563973  0.13077844  1
  In  In15  1  0.65497155  0.50907745  0.63060407  1
  In  In16  1  0.65040970  0.80948062  0.10029331  1
  In  In17  1  0.67899733  0.82268247  0.62981758  1
  In  In18  1  0.16113608  0.01556077  0.37291834  1
  In  In19  1  0.16066495  0.01676402  0.87570911  1
  In  In20  1  0.17614126  0.32609663  0.38357278  1
  In  In21  1  0.18065929  0.31850716  0.88158393  1
  In  In22  1  0.16957059  0.64241271  0.37908166  1
  In  In23  1  0.15988157  0.65658464  0.87023807  1
  In  In24  1  0.50515269  0.00009966  0.37446713  1
  In  In25  1  0.50197492  -0.01641472  0.87718818  1
  In  In26  1  0.50940388  0.33876739  0.36965648  1
  In  In27  1  0.50623128  0.34415844  0.87004894  1
  In  In28  1  0.48857373  0.65368394  0.36774391  1
  In  In29  1  0.50314633  0.66550050  0.87246579  1
  In  In30  1  0.84300745  -0.01302178  0.38178014  1
  In  In31  1  0.82921121  -0.00565937  0.86785745  1
  In  In32  1  0.81515492  0.33596556  0.37862141  1
  In  In33  1  0.83108690  0.34384252  0.87138170  1
  In  In34  1  0.83657566  0.67986608  0.37697713  1
  In  In35  1  0.83745906  0.67541374  0.87025176  1
  In  In36  1  0.00677667  0.15769603  0.37970760  1
  In  In37  1  0.02343257  0.16231147  0.87191933  1
  In  In38  1  0.02736046  0.50503861  0.38406980  1
  In  In39  1  -0.00101176  0.51005264  0.87759717  1
  In  In40  1  -0.01601644  0.82950672  0.37342496  1
  In  In41  1  -0.00636468  0.83015935  0.87159102  1
  In  In42  1  0.32641368  0.17341980  0.37371656  1
  In  In43  1  0.31431553  0.17215739  0.87026334  1
  In  In44  1  0.33305487  0.49826011  0.37579105  1
  In  In45  1  0.33561501  0.49867363  0.87241450  1
  In  In46  1  0.34541639  0.82730553  0.37012213  1
  In  In47  1  0.35099929  0.82817885  0.87712354  1
  In  In48  1  0.66474383  0.18137185  0.37897653  1
  In  In49  1  0.67431459  0.17071519  0.86800230  1
  In  In50  1  0.65440725  0.49178731  0.36903926  1
  In  In51  1  0.66161058  0.49946683  0.87107271  1
  In  In52  1  0.68142841  0.83428413  0.37524775  1
  In  In53  1  0.66413052  0.82840810  0.87294561  1
  In  In54  1  0.14732913  0.00219446  0.12371247  1
  In  In55  1  0.15211857  0.00321487  0.63041343  1
  In  In56  1  0.17420703  0.34635034  0.11181713  1
  In  In57  1  0.17709331  0.33914660  0.61557293  1
  In  In58  1  0.18460560  0.66046304  0.12502554  1
  In  In59  1  0.17646385  0.65921694  0.63845292  1
  In  In60  1  0.51215100  -0.00454992  0.12223796  1
  In  In61  1  0.50385794  0.01308057  0.62974900  1
  In  In62  1  0.48344509  0.34480551  0.13844622  1
  In  In63  1  0.48592022  0.34693628  0.63173758  1
  In  In64  1  0.50254331  0.65671678  0.11876538  1
  In  In65  1  0.50612820  0.65545495  0.62838899  1
  In  In66  1  0.84375324  -0.00668237  0.12496360  1
  In  In67  1  0.83590269  -0.00205280  0.62707521  1
  In  In68  1  0.82917128  0.32377117  0.12814832  1
  In  In69  1  0.83639913  0.31991067  0.62516031  1
  In  In70  1  0.81594753  0.66634176  0.12038331  1
  In  In71  1  0.82876636  0.67302261  0.62863766  1
  In  In72  1  -0.00354371  0.32878359  0.24674013  1
  In  In73  1  0.16758076  0.83139204  -0.00140003  1
  In  In74  1  0.83286974  0.50504012  -0.00435661  1
  In  In75  1  0.83919542  0.16356986  0.00054872  1
  In  In76  1  0.83612885  0.49858389  0.50110499  1
  In  In77  1  0.67222720  -0.00083998  0.24486578  1
  In  In78  1  0.33162591  0.00200331  0.25494022  1
  In  In79  1  0.33542806  -0.00269127  0.75475266  1
  In  In80  1  -0.00409369  0.66677527  0.25798246  1
  In  In81  1  0.15891525  0.82779117  0.50354110  1
  In  In82  1  0.00293081  0.33306506  0.74867388  1
  In  In83  1  0.49771208  0.16752696  0.00480299  1
  In  In84  1  0.49852030  0.17738877  0.49781581  1
  In  In85  1  0.50584130  0.82964580  0.50140852  1
  Cu  Cu86  1  0.00328531  0.66772922  -0.00336102  1
  Cu  Cu87  1  0.50395411  0.17044147  0.75259645  1
  Cu  Cu88  1  0.17019707  0.49650102  0.75112390  1
  Cu  Cu89  1  0.82652707  0.50494752  0.75114330  1
  Cu  Cu90  1  0.67920433  0.00069189  0.50682099  1
  Cu  Cu91  1  0.33745861  0.33862748  -0.00118451  1
  Cu  Cu92  1  0.00197393  0.33152807  0.50309817  1
  Cu  Cu93  1  0.82847659  0.16593696  0.25212065  1
  Cu  Cu94  1  0.83675757  0.16167688  0.74723201  1
  Cu  Cu95  1  0.66621698  0.66234701  0.50307863  1
  Cu  Cu96  1  0.66950109  -0.00671664  -0.00652003  1
  Cu  Cu97  1  0.16276969  0.17020109  0.25153155  1
  Cu  Cu98  1  0.66231697  0.33367567  0.50246348  1
  Cu  Cu99  1  0.34011062  0.65573844  -0.00119524  1
  Cu  Cu100  1  0.49484045  0.49949903  0.75005473  1
  Cu  Cu101  1  0.50684801  0.82869681  0.75274592  1
  Cu  Cu102  1  0.49786565  0.50314198  0.24877140  1
  Cu  Cu103  1  -0.00342046  0.00033425  0.50492065  1
  Cu  Cu104  1  0.16257130  0.83016551  0.24399649  1
  Cu  Cu105  1  0.33123165  0.65894422  0.50206340  1
  Cu  Cu106  1  0.82786193  0.50391113  0.25340087  1
  Cu  Cu107  1  0.82999860  0.83590181  0.75080412  1
  Cu  Cu108  1  0.17946345  0.49706687  0.24874550  1
  Cu  Cu109  1  0.32580518  0.00900362  0.49724184  1
  Cu  Cu110  1  0.16478620  0.82871713  0.75580088  1
  Cu  Cu111  1  0.50260279  0.82244321  0.24238993  1
  Cu  Cu112  1  0.66228993  0.34245781  0.00225359  1
  Cu  Cu113  1  0.32806559  -0.00015614  -0.00255454  1
  Cu  Cu114  1  0.82970172  0.83253016  0.24781904  1
  Se  Se115  1  0.08338736  0.08345815  0.04716971  1
  Se  Se116  1  0.08446869  0.08357719  0.55299762  1
  Se  Se117  1  0.08347743  0.41692542  0.04324518  1
  Se  Se118  1  0.08367284  0.41942242  0.55179545  1
  Se  Se119  1  0.08101927  0.74232300  0.06449640  1
  Se  Se120  1  0.08105960  0.74762606  0.57566696  1
  Se  Se121  1  0.40618014  0.07622597  0.06441838  1
  Se  Se122  1  0.41011377  0.08226197  0.55845378  1
  Se  Se123  1  0.42490796  0.41634009  0.05270909  1
  Se  Se124  1  0.41462749  0.41529977  0.55232393  1
  Se  Se125  1  0.41859776  0.74489957  0.05132777  1
  Se  Se126  1  0.40818755  0.74593818  0.56019152  1
  Se  Se127  1  0.74058159  0.07604124  0.05852553  1
  Se  Se128  1  0.75634212  0.08872392  0.55948986  1
  Se  Se129  1  0.74747229  0.41654880  0.06290617  1
  Se  Se130  1  0.74425928  0.41292522  0.56361409  1
  Se  Se131  1  0.76751227  0.76087550  0.04588393  1
  Se  Se132  1  0.75094853  0.74794210  0.55097422  1
  Se  Se133  1  0.25416320  0.25145417  0.04928372  1
  Se  Se134  1  0.25330497  0.25300137  0.54547757  1
  Se  Se135  1  0.25140176  0.57603316  0.05053700  1
  Se  Se136  1  0.24482968  0.58337602  0.55839382  1
  Se  Se137  1  0.25447805  0.91999692  0.06404835  1
  Se  Se138  1  0.25182065  0.92530472  0.55856889  1
  Se  Se139  1  0.58703789  0.25906497  0.06375365  1
  Se  Se140  1  0.58707791  0.25404133  0.56761844  1
  Se  Se141  1  0.59267253  0.58659345  0.04763977  1
  Se  Se142  1  0.57915187  0.57890514  0.55055373  1
  Se  Se143  1  0.57814518  0.91595777  0.04478344  1
  Se  Se144  1  0.59015948  0.92394055  0.56271871  1
  Se  Se145  1  0.92584072  0.25963811  0.05813938  1
  Se  Se146  1  0.91311728  0.24759128  0.54844433  1
  Se  Se147  1  0.92549583  0.58878186  0.06210813  1
  Se  Se148  1  0.92143230  0.58664017  0.56376810  1
  Se  Se149  1  0.91685792  0.92241235  0.04686420  1
  Se  Se150  1  0.91566696  0.91314566  0.55615998  1
  Se  Se151  1  0.08324852  0.24758295  0.44634575  1
  Se  Se152  1  0.08114119  0.25192485  0.94603243  1
  Se  Se153  1  0.06532777  0.61292093  0.45241612  1
  Se  Se154  1  0.08751192  0.58150661  0.94950074  1
  Se  Se155  1  0.07654261  0.92284931  0.43995149  1
  Se  Se156  1  0.07873327  0.92062946  0.93983701  1
  Se  Se157  1  0.40870069  0.26562241  0.43924571  1
  Se  Se158  1  0.41368231  0.25319538  0.93768247  1
  Se  Se159  1  0.41695542  0.58053849  0.44680029  1
  Se  Se160  1  0.42285788  0.57736698  0.94128090  1
  Se  Se161  1  0.41005055  0.92532028  0.44452637  1
  Se  Se162  1  0.41631395  0.91577166  0.95196899  1
  Se  Se163  1  0.74937713  0.24930320  0.45417125  1
  Se  Se164  1  0.74443424  0.26040017  0.94575637  1
  Se  Se165  1  0.74438604  0.58402814  0.43811899  1
  Se  Se166  1  0.74294910  0.59410531  0.93794086  1
  Se  Se167  1  0.75386326  0.91160328  0.45160006  1
  Se  Se168  1  0.75212051  0.91245262  0.93983428  1
  Se  Se169  1  0.24494127  0.09129159  0.44364238  1
  Se  Se170  1  0.24907845  0.08752631  0.94750988  1
  Se  Se171  1  0.21961713  0.44636937  0.43659333  1
  Se  Se172  1  0.25228168  0.41818474  0.94379196  1
  Se  Se173  1  0.25829628  0.74648715  0.44162393  1
  Se  Se174  1  0.25799360  0.73922106  0.94048171  1
  Se  Se175  1  0.59306907  0.07581558  0.44690707  1
  Se  Se176  1  0.58999081  0.08297500  0.93993780  1
  Se  Se177  1  0.58190639  0.41702325  0.44769266  1
  Se  Se178  1  0.58143499  0.42213279  0.94578795  1
  Se  Se179  1  0.58899996  0.74105201  0.43647729  1
  Se  Se180  1  0.56717521  0.76315611  0.94033031  1
  Se  Se181  1  0.91509663  0.08268980  0.44705127  1
  Se  Se182  1  0.92174638  0.07986808  0.93347214  1
  Se  Se183  1  0.92626039  0.41018270  0.43699309  1
  Se  Se184  1  0.92498883  0.40826713  0.94345506  1
  Se  Se185  1  0.92158577  0.74706373  0.45031964  1
  Se  Se186  1  0.91810849  0.74931834  0.94614459  1
  Se  Se187  1  0.24692669  0.25441136  0.30181956  1
  Se  Se188  1  0.24520470  0.25333871  0.79611017  1
  Se  Se189  1  0.25685189  0.58562335  0.30194388  1
  Se  Se190  1  0.25257828  0.58321463  0.80358871  1
  Se  Se191  1  0.23947781  0.90814600  0.31204032  1
  Se  Se192  1  0.24538778  0.90885053  0.81791728  1
  Se  Se193  1  0.58363147  0.24604867  0.30376831  1
  Se  Se194  1  0.58782709  0.25524686  0.80454154  1
  Se  Se195  1  0.58511651  0.58615338  0.30055515  1
  Se  Se196  1  0.58230488  0.58246545  0.80028847  1
  Se  Se197  1  0.57805824  0.90497421  0.30507762  1
  Se  Se198  1  0.58673321  0.91839774  0.80184273  1
  Se  Se199  1  0.90824370  0.24583085  0.31378250  1
  Se  Se200  1  0.91265874  0.24316554  0.81087134  1
  Se  Se201  1  0.91318652  0.56947743  0.31819886  1
  Se  Se202  1  0.91500767  0.58221346  0.80475729  1
  Se  Se203  1  0.91425558  0.91609175  0.29979074  1
  Se  Se204  1  0.91938933  0.91740760  0.80037122  1
  Se  Se205  1  0.07615286  0.08393833  0.29798377  1
  Se  Se206  1  0.09033012  0.08356111  0.79385425  1
  Se  Se207  1  0.08975887  0.41890579  0.30437332  1
  Se  Se208  1  0.08814362  0.42021291  0.81347417  1
  Se  Se209  1  0.09266831  0.75318670  0.31472727  1
  Se  Se210  1  0.07817672  0.74491486  0.80560084  1
  Se  Se211  1  0.42630506  0.09225697  0.30992402  1
  Se  Se212  1  0.42515299  0.08972402  0.81580740  1
  Se  Se213  1  0.41800335  0.41943113  0.30574869  1
  Se  Se214  1  0.41255499  0.41236947  0.80098124  1
  Se  Se215  1  0.41579103  0.74436194  0.29709859  1
  Se  Se216  1  0.41766379  0.74641973  0.80057759  1
  Se  Se217  1  0.75412122  0.08300494  0.31545260  1
  Se  Se218  1  0.74914195  0.08155766  0.80042151  1
  Se  Se219  1  0.74539584  0.41431409  0.30162513  1
  Se  Se220  1  0.74546412  0.41669772  0.80136346  1
  Se  Se221  1  0.74987324  0.74705727  0.30181337  1
  Se  Se222  1  0.74705122  0.74881427  0.80117947  1
  Se  Se223  1  0.24235785  0.08687694  0.19023245  1
  Se  Se224  1  0.25301775  0.08568293  0.68934829  1
  Se  Se225  1  0.25422211  0.41202096  0.19078973  1
  Se  Se226  1  0.24994611  0.41503018  0.69369518  1
  Se  Se227  1  0.25181008  0.74610278  0.20013410  1
  Se  Se228  1  0.25429299  0.74796857  0.70731781  1
  Se  Se229  1  0.57279297  0.09141690  0.19557958  1
  Se  Se230  1  0.58601561  0.08184598  0.70440758  1
  Se  Se231  1  0.58471551  0.41893061  0.19766485  1
  Se  Se232  1  0.58252596  0.41633164  0.69829639  1
  Se  Se233  1  0.58682569  0.74432078  0.18694304  1
  Se  Se234  1  0.58505501  0.74604953  0.69351735  1
  Se  Se235  1  0.91101425  0.08640328  0.19533921  1
  Se  Se236  1  0.92232050  0.08011356  0.69549333  1
  Se  Se237  1  0.90897878  0.42851633  0.19025376  1
  Se  Se238  1  0.90818540  0.42468225  0.69047885  1
  Se  Se239  1  0.91406944  0.75258825  0.18863713  1
  Se  Se240  1  0.91389142  0.74986942  0.69964638  1
  Se  Se241  1  0.08858565  0.24699984  0.18354368  1
  Se  Se242  1  0.08640426  0.24937965  0.68141409  1
  Se  Se243  1  0.08958513  0.57856723  0.19557698  1
  Se  Se244  1  0.08232415  0.58173177  0.70396421  1
  Se  Se245  1  0.07808187  0.91675806  0.19812184  1
  Se  Se246  1  0.08530092  0.91692274  0.70427804  1
  Se  Se247  1  0.41622961  0.24803229  0.20396713  1
  Se  Se248  1  0.41744324  0.25063034  0.70024184  1
  Se  Se249  1  0.41570835  0.58372088  0.19118808  1
  Se  Se250  1  0.41244391  0.58251130  0.69434996  1
  Se  Se251  1  0.42082815  0.91141134  0.19044341  1
  Se  Se252  1  0.42504513  0.90758307  0.68997822  1
  Se  Se253  1  0.74632879  0.25298507  0.20291350  1
  Se  Se254  1  0.75294765  0.25131011  0.70036742  1
  Se  Se255  1  0.74764486  0.58793065  0.19887283  1
  Se  Se256  1  0.74532051  0.58820130  0.69577174  1
  Se  Se257  1  0.74745265  0.90272144  0.18173141  1
  Se  Se258  1  0.74753327  0.91955831  0.69590022  1
