# generated using pymatgen
data_In86Cu29Se144
_symmetry_space_group_name_H-M   'P 1'
_cell_length_a   17.58003747
_cell_length_b   17.57673329
_cell_length_c   23.43642395
_cell_angle_alpha   90.01050116
_cell_angle_beta   89.99608418
_cell_angle_gamma   90.02415370
_symmetry_Int_Tables_number   1
_chemical_formula_structural   In86Cu29Se144
_chemical_formula_sum   'In86 Cu29 Se144'
_cell_volume   7241.84554278
_cell_formula_units_Z   1
loop_
 _symmetry_equiv_pos_site_id
 _symmetry_equiv_pos_as_xyz
  1  'x, y, z'
loop_
 _atom_site_type_symbol
 _atom_site_label
 _atom_site_symmetry_multiplicity
 _atom_site_fract_x
 _atom_site_fract_y
 _atom_site_fract_z
 _atom_site_occupancy
  In  In0  1  -0.00865897  0.17703874  0.12500289  1
  In  In1  1  -0.00159389  0.17371827  0.62287379  1
  In  In2  1  -0.00624118  0.52234939  0.13121701  1
  In  In3  1  -0.00658056  0.50430789  0.60961089  1
  In  In4  1  -0.01461693  0.81123482  0.10984803  1
  In  In5  1  -0.00437181  0.81876275  0.61256697  1
  In  In6  1  0.33916225  0.16455632  0.12938071  1
  In  In7  1  0.34610126  0.15195410  0.63195468  1
  In  In8  1  0.32215288  0.49405186  0.13086976  1
  In  In9  1  0.33569661  0.50034891  0.62504856  1
  In  In10  1  0.33700431  0.84053686  0.12162482  1
  In  In11  1  0.32473565  0.84515441  0.62486132  1
  In  In12  1  0.67317983  0.15741567  0.13470341  1
  In  In13  1  0.66669289  0.16926246  0.62431540  1
  In  In14  1  0.67813191  0.49113386  0.13474483  1
  In  In15  1  0.65831239  0.49490629  0.61687517  1
  In  In16  1  0.67883351  0.82535427  0.14038721  1
  In  In17  1  0.67944432  0.83689125  0.62458150  1
  In  In18  1  0.16717852  -0.01435952  0.37652789  1
  In  In19  1  0.16637587  -0.00909551  0.86952405  1
  In  In20  1  0.18068444  0.33908370  0.37585663  1
  In  In21  1  0.17190131  0.32928533  0.86893120  1
  In  In22  1  0.15386467  0.67217792  0.38788759  1
  In  In23  1  0.17530904  0.66972763  0.87460915  1
  In  In24  1  0.50416302  0.00752744  0.37431130  1
  In  In25  1  0.50489351  0.00292217  0.86445665  1
  In  In26  1  0.50214607  0.33314358  0.37807204  1
  In  In27  1  0.49758627  0.32808216  0.86465465  1
  In  In28  1  0.50686048  0.65162147  0.38199468  1
  In  In29  1  0.48970257  0.67643778  0.87037769  1
  In  In30  1  0.82579816  0.01055756  0.38286077  1
  In  In31  1  0.83175006  -0.00056805  0.88140039  1
  In  In32  1  0.81774618  0.34641456  0.38086895  1
  In  In33  1  0.81906600  0.33983603  0.87865743  1
  In  In34  1  0.82699610  0.66741665  0.37318530  1
  In  In35  1  0.83817544  0.66367585  0.88594895  1
  In  In36  1  -0.00794239  0.15638065  0.37899430  1
  In  In37  1  -0.00445289  0.15546578  0.87496613  1
  In  In38  1  -0.02622286  0.52902307  0.39746741  1
  In  In39  1  -0.01175602  0.49767519  0.87581510  1
  In  In40  1  0.00058627  0.81582970  0.38448081  1
  In  In41  1  0.00294205  0.82598761  0.88908718  1
  In  In42  1  0.34200114  0.17230767  0.37524270  1
  In  In43  1  0.33089775  0.16633685  0.85682764  1
  In  In44  1  0.34521796  0.49295468  0.38661987  1
  In  In45  1  0.33437241  0.50279753  0.86414050  1
  In  In46  1  0.32234917  0.83743267  0.37633773  1
  In  In47  1  0.32091480  0.82579901  0.86272661  1
  In  In48  1  0.66307421  0.16916454  0.37712217  1
  In  In49  1  0.67202387  0.17149247  0.86879531  1
  In  In50  1  0.66904496  0.49834957  0.37322693  1
  In  In51  1  0.67964740  0.49664104  0.86803938  1
  In  In52  1  0.67578334  0.84142334  0.37123837  1
  In  In53  1  0.66700207  0.84172408  0.87526748  1
  In  In54  1  0.17891592  -0.00926508  0.12771126  1
  In  In55  1  0.19449528  -0.00430659  0.61974202  1
  In  In56  1  0.17175235  0.34760922  0.13063559  1
  In  In57  1  0.16678010  0.34491532  0.62588195  1
  In  In58  1  0.15562942  0.66589787  0.12418915  1
  In  In59  1  0.17017510  0.67921514  0.61341034  1
  In  In60  1  0.50043413  -0.00009331  0.13630119  1
  In  In61  1  0.49078970  0.01514971  0.62514598  1
  In  In62  1  0.49992627  0.33629020  0.13333968  1
  In  In63  1  0.50263541  0.33147236  0.62296921  1
  In  In64  1  0.50292467  0.68047236  0.12898651  1
  In  In65  1  0.50094423  0.64705712  0.61732207  1
  In  In66  1  0.82979259  -0.00787399  0.12554370  1
  In  In67  1  0.82370297  -0.00854298  0.62170011  1
  In  In68  1  0.82406344  0.32954028  0.12027043  1
  In  In69  1  0.82816392  0.32979131  0.62113569  1
  In  In70  1  0.83490326  0.66294216  0.12731992  1
  In  In71  1  0.81414145  0.65282188  0.59837156  1
  In  In72  1  0.66356138  0.66507012  0.74092461  1
  In  In73  1  -0.00011111  0.33368629  0.74106340  1
  In  In74  1  0.50277468  0.83540342  0.00289731  1
  In  In75  1  0.33930259  0.66466116  0.25574809  1
  In  In76  1  0.50332167  0.83262802  0.49323229  1
  In  In77  1  0.16664688  0.16546636  0.50229637  1
  In  In78  1  0.50248969  0.50532770  -0.00828388  1
  In  In79  1  0.00263025  -0.00721322  0.25228712  1
  In  In80  1  0.00555395  -0.00332372  0.75147200  1
  In  In81  1  0.00548736  0.33854809  0.25458407  1
  In  In82  1  0.15621012  0.50697070  0.00299748  1
  In  In83  1  -0.00329438  0.66728948  0.74805075  1
  In  In84  1  0.15966873  0.16488211  -0.00321652  1
  In  In85  1  0.50445194  0.16600496  0.00134006  1
  Cu  Cu86  1  0.67613571  -0.00273390  0.00496143  1
  Cu  Cu87  1  0.49806373  0.17111967  0.25522645  1
  Cu  Cu88  1  0.82918580  0.16503980  0.75058885  1
  Cu  Cu89  1  0.49864927  0.49638185  0.74333749  1
  Cu  Cu90  1  0.67120556  0.66284829  0.00631831  1
  Cu  Cu91  1  0.16572268  0.82821116  0.25448203  1
  Cu  Cu92  1  -0.00507798  -0.00483969  0.50023470  1
  Cu  Cu93  1  0.16890244  0.50714061  0.74504295  1
  Cu  Cu94  1  0.50421978  0.83716822  0.25472250  1
  Cu  Cu95  1  0.33231151  0.33453944  -0.00157976  1
  Cu  Cu96  1  0.83406485  0.50450226  0.25583608  1
  Cu  Cu97  1  0.66587574  0.33186451  0.49920860  1
  Cu  Cu98  1  0.50561408  0.16777510  0.74386345  1
  Cu  Cu99  1  -0.01408984  0.33753486  0.00078015  1
  Cu  Cu100  1  0.16989094  0.50070025  0.25843664  1
  Cu  Cu101  1  0.49565179  0.83780741  0.74572083  1
  Cu  Cu102  1  -0.00247414  -0.00012061  0.00092871  1
  Cu  Cu103  1  0.83325227  0.83139299  0.74807581  1
  Cu  Cu104  1  0.16980674  0.83801141  0.74188707  1
  Cu  Cu105  1  0.18020603  0.16418823  0.25137372  1
  Cu  Cu106  1  0.67430473  0.33146284  -0.00033834  1
  Cu  Cu107  1  0.33448938  0.66445291  0.50049186  1
  Cu  Cu108  1  -0.00362246  0.33114042  0.50151011  1
  Cu  Cu109  1  0.83654575  0.83284019  0.25160078  1
  Cu  Cu110  1  0.33926546  0.33338218  0.50333925  1
  Cu  Cu111  1  0.82653256  0.17007274  0.25495917  1
  Cu  Cu112  1  0.66303563  0.00701189  0.50021604  1
  Cu  Cu113  1  0.33057155  -0.00982237  -0.00520667  1
  Cu  Cu114  1  0.50233268  0.49548372  0.25860319  1
  Se  Se115  1  0.07696339  0.07658955  0.06519123  1
  Se  Se116  1  0.07798904  0.07141881  0.56241964  1
  Se  Se117  1  0.06917823  0.41138109  0.06346059  1
  Se  Se118  1  0.08240302  0.41384181  0.55202182  1
  Se  Se119  1  0.09347144  0.75295818  0.05004670  1
  Se  Se120  1  0.08098328  0.74610942  0.54216697  1
  Se  Se121  1  0.41116458  0.06982580  0.05570627  1
  Se  Se122  1  0.41063262  0.08382067  0.54860494  1
  Se  Se123  1  0.41242320  0.41484954  0.05709329  1
  Se  Se124  1  0.42164185  0.41994133  0.55606003  1
  Se  Se125  1  0.40836272  0.73979748  0.05399214  1
  Se  Se126  1  0.41387320  0.74803370  0.55992469  1
  Se  Se127  1  0.75365651  0.08547724  0.05887371  1
  Se  Se128  1  0.75069997  0.08533572  0.55551008  1
  Se  Se129  1  0.75028575  0.42228181  0.05259284  1
  Se  Se130  1  0.75037108  0.41583502  0.55179988  1
  Se  Se131  1  0.74804250  0.74995189  0.06098926  1
  Se  Se132  1  0.74761081  0.76208193  0.54639174  1
  Se  Se133  1  0.25156095  0.25500363  0.05890675  1
  Se  Se134  1  0.25620765  0.25432389  0.56298668  1
  Se  Se135  1  0.25785429  0.58868203  0.05939347  1
  Se  Se136  1  0.25145096  0.58145771  0.55540223  1
  Se  Se137  1  0.24765292  0.91050721  0.04975355  1
  Se  Se138  1  0.24107188  0.90203686  0.54429306  1
  Se  Se139  1  0.59081952  0.25720411  0.06197559  1
  Se  Se140  1  0.58299516  0.24774763  0.55290098  1
  Se  Se141  1  0.58632212  0.58585556  0.06395644  1
  Se  Se142  1  0.60033200  0.59529449  0.54830555  1
  Se  Se143  1  0.59278675  0.92132282  0.06608170  1
  Se  Se144  1  0.58468368  0.92392083  0.56033959  1
  Se  Se145  1  0.90840639  0.24671435  0.05148166  1
  Se  Se146  1  0.91297138  0.24651732  0.55261996  1
  Se  Se147  1  0.91878753  0.58936337  0.05364627  1
  Se  Se148  1  0.93300503  0.60575292  0.54505591  1
  Se  Se149  1  0.91396034  0.91693962  0.05425296  1
  Se  Se150  1  0.91133553  0.91294994  0.55433826  1
  Se  Se151  1  0.07783266  0.25522880  0.43841515  1
  Se  Se152  1  0.07084597  0.26266810  0.94010345  1
  Se  Se153  1  0.09996086  0.56140616  0.44735932  1
  Se  Se154  1  0.07167469  0.59355522  0.93737901  1
  Se  Se155  1  0.07842188  0.91430771  0.44533615  1
  Se  Se156  1  0.08498729  0.92368425  0.94596207  1
  Se  Se157  1  0.42047309  0.24966325  0.44908636  1
  Se  Se158  1  0.40874039  0.25036834  0.93987264  1
  Se  Se159  1  0.42368272  0.58004150  0.45535629  1
  Se  Se160  1  0.40309145  0.59369212  0.94115734  1
  Se  Se161  1  0.40942204  0.92586975  0.44155238  1
  Se  Se162  1  0.41710333  0.91854838  0.93435718  1
  Se  Se163  1  0.75053543  0.24778111  0.44659181  1
  Se  Se164  1  0.75145856  0.24239866  0.94624157  1
  Se  Se165  1  0.76945244  0.56164402  0.43853597  1
  Se  Se166  1  0.74476368  0.57930389  0.94537527  1
  Se  Se167  1  0.74613702  0.92132748  0.44889787  1
  Se  Se168  1  0.75266624  0.91029137  0.94924541  1
  Se  Se169  1  0.25326251  0.07877871  0.43924344  1
  Se  Se170  1  0.25862407  0.08179286  0.93826877  1
  Se  Se171  1  0.25261632  0.41628201  0.45325867  1
  Se  Se172  1  0.25147124  0.41727187  0.94187243  1
  Se  Se173  1  0.25275169  0.74932340  0.44740853  1
  Se  Se174  1  0.24735678  0.75876108  0.94268026  1
  Se  Se175  1  0.57861357  0.08938523  0.44819571  1
  Se  Se176  1  0.59285218  0.07278822  0.94300060  1
  Se  Se177  1  0.58511628  0.41819304  0.44503968  1
  Se  Se178  1  0.58833413  0.40475687  0.93854199  1
  Se  Se179  1  0.59859257  0.74346256  0.43969263  1
  Se  Se180  1  0.59069597  0.73919029  0.94260966  1
  Se  Se181  1  0.91278142  0.08602419  0.45447966  1
  Se  Se182  1  0.91458116  0.08467083  0.94945798  1
  Se  Se183  1  0.91205298  0.41447756  0.44969773  1
  Se  Se184  1  0.90584944  0.42110976  0.94646005  1
  Se  Se185  1  0.89887802  0.75357469  0.44700557  1
  Se  Se186  1  0.90763394  0.75585278  0.95222489  1
  Se  Se187  1  0.25501572  0.25215514  0.30610638  1
  Se  Se188  1  0.25654733  0.26235173  0.79686125  1
  Se  Se189  1  0.25143975  0.58011418  0.31927331  1
  Se  Se190  1  0.24982136  0.59003894  0.80034261  1
  Se  Se191  1  0.24999026  0.91730627  0.29956801  1
  Se  Se192  1  0.25245312  0.92260895  0.79548833  1
  Se  Se193  1  0.58441255  0.25358878  0.30600955  1
  Se  Se194  1  0.58751182  0.25010181  0.79978882  1
  Se  Se195  1  0.58603085  0.58430397  0.30395922  1
  Se  Se196  1  0.57411595  0.57812261  0.80832906  1
  Se  Se197  1  0.58631162  0.92281982  0.30632159  1
  Se  Se198  1  0.58537205  0.91260752  0.80018583  1
  Se  Se199  1  0.91126451  0.24867371  0.31243675  1
  Se  Se200  1  0.91357193  0.24569905  0.80822106  1
  Se  Se201  1  0.92017629  0.58859291  0.30514441  1
  Se  Se202  1  0.90230792  0.57702185  0.80438820  1
  Se  Se203  1  0.91127281  0.91268060  0.31664910  1
  Se  Se204  1  0.91584757  0.90507036  0.81127715  1
  Se  Se205  1  0.09287416  0.09016865  0.30936738  1
  Se  Se206  1  0.09561972  0.09528481  0.80503459  1
  Se  Se207  1  0.08391658  0.42870690  0.31985972  1
  Se  Se208  1  0.08725144  0.42800028  0.80613264  1
  Se  Se209  1  0.08255309  0.74573602  0.30763409  1
  Se  Se210  1  0.08746762  0.76168230  0.80491225  1
  Se  Se211  1  0.41488680  0.08312007  0.30430165  1
  Se  Se212  1  0.42075999  0.08254979  0.79627909  1
  Se  Se213  1  0.41482254  0.41422488  0.30847561  1
  Se  Se214  1  0.41515379  0.41484964  0.79978571  1
  Se  Se215  1  0.42747025  0.75576984  0.31739919  1
  Se  Se216  1  0.41276328  0.75035269  0.79531308  1
  Se  Se217  1  0.74608869  0.08372846  0.30744047  1
  Se  Se218  1  0.75318869  0.07757883  0.80728037  1
  Se  Se219  1  0.74775980  0.41501514  0.29904267  1
  Se  Se220  1  0.74792916  0.40827439  0.79796816  1
  Se  Se221  1  0.74794821  0.75064780  0.30126540  1
  Se  Se222  1  0.75287021  0.74924876  0.80864272  1
  Se  Se223  1  0.25614263  0.07860837  0.19508753  1
  Se  Se224  1  0.24562909  0.08512823  0.69624449  1
  Se  Se225  1  0.25315644  0.41415239  0.20805929  1
  Se  Se226  1  0.25241106  0.41934112  0.69679242  1
  Se  Se227  1  0.24981389  0.75169037  0.19244946  1
  Se  Se228  1  0.25027137  0.74934703  0.69090232  1
  Se  Se229  1  0.58156737  0.08524728  0.20231094  1
  Se  Se230  1  0.58811927  0.08076612  0.69341262  1
  Se  Se231  1  0.58532582  0.41557169  0.20033538  1
  Se  Se232  1  0.58589581  0.41556923  0.69297817  1
  Se  Se233  1  0.58460832  0.74818973  0.20437964  1
  Se  Se234  1  0.57300578  0.75719956  0.68306600  1
  Se  Se235  1  0.91247893  0.09091953  0.19715530  1
  Se  Se236  1  0.91278974  0.08634203  0.69214511  1
  Se  Se237  1  0.91139094  0.42150399  0.19219493  1
  Se  Se238  1  0.91133860  0.42734981  0.68616473  1
  Se  Se239  1  0.91825628  0.74956434  0.19633969  1
  Se  Se240  1  0.90188320  0.74755686  0.68513670  1
  Se  Se241  1  0.09518841  0.24249303  0.19303034  1
  Se  Se242  1  0.09625863  0.24017676  0.69189062  1
  Se  Se243  1  0.08978497  0.58330650  0.20195163  1
  Se  Se244  1  0.08565871  0.58102947  0.68434094  1
  Se  Se245  1  0.08536807  0.90250891  0.18844936  1
  Se  Se246  1  0.08376415  0.90996835  0.68113125  1
  Se  Se247  1  0.41455277  0.25194326  0.19769403  1
  Se  Se248  1  0.41907384  0.25111846  0.69374950  1
  Se  Se249  1  0.42637990  0.57369316  0.19138483  1
  Se  Se250  1  0.41673197  0.58568679  0.69573970  1
  Se  Se251  1  0.41550935  0.91155566  0.19865156  1
  Se  Se252  1  0.41391947  0.92259356  0.69187957  1
  Se  Se253  1  0.74913722  0.25418114  0.19743269  1
  Se  Se254  1  0.75090561  0.25046520  0.69530056  1
  Se  Se255  1  0.75040622  0.58659640  0.19978533  1
  Se  Se256  1  0.75664469  0.57638035  0.68503380  1
  Se  Se257  1  0.75212882  0.92286418  0.20409027  1
  Se  Se258  1  0.74860910  0.91929126  0.70134514  1
