# generated using pymatgen
data_In86Cu29Se144
_symmetry_space_group_name_H-M   'P 1'
_cell_length_a   17.56446619
_cell_length_b   17.56749204
_cell_length_c   23.41598195
_cell_angle_alpha   89.97923259
_cell_angle_beta   90.01154024
_cell_angle_gamma   90.02687395
_symmetry_Int_Tables_number   1
_chemical_formula_structural   In86Cu29Se144
_chemical_formula_sum   'In86 Cu29 Se144'
_cell_volume   7225.31874154
_cell_formula_units_Z   1
loop_
 _symmetry_equiv_pos_site_id
 _symmetry_equiv_pos_as_xyz
  1  'x, y, z'
loop_
 _atom_site_type_symbol
 _atom_site_label
 _atom_site_symmetry_multiplicity
 _atom_site_fract_x
 _atom_site_fract_y
 _atom_site_fract_z
 _atom_site_occupancy
  In  In0  1  0.00156646  0.16442045  0.11312924  1
  In  In1  1  -0.00522500  0.15845437  0.62589274  1
  In  In2  1  -0.00257725  0.50637010  0.12456278  1
  In  In3  1  -0.00679506  0.49277035  0.61304172  1
  In  In4  1  0.00779457  0.85299436  0.10214137  1
  In  In5  1  0.00578726  0.84078184  0.62846284  1
  In  In6  1  0.34121995  0.17259287  0.11779884  1
  In  In7  1  0.33834912  0.17029171  0.61945998  1
  In  In8  1  0.34462668  0.48897603  0.13458501  1
  In  In9  1  0.33505318  0.51467772  0.62809701  1
  In  In10  1  0.33015534  0.83261293  0.11863309  1
  In  In11  1  0.31707854  0.83863001  0.63023447  1
  In  In12  1  0.66646439  0.16705944  0.11560947  1
  In  In13  1  0.66828559  0.17333729  0.63077225  1
  In  In14  1  0.66507264  0.49858837  0.12279604  1
  In  In15  1  0.67075838  0.48518425  0.62875197  1
  In  In16  1  0.65903352  0.82684558  0.11307349  1
  In  In17  1  0.68226784  0.83863033  0.62946094  1
  In  In18  1  0.16079748  0.00547841  0.38430005  1
  In  In19  1  0.15805099  0.00563100  0.89363666  1
  In  In20  1  0.18260824  0.32309639  0.38014625  1
  In  In21  1  0.15342249  0.32207403  0.87543606  1
  In  In22  1  0.17357434  0.66176597  0.38191757  1
  In  In23  1  0.17955126  0.67525474  0.86983450  1
  In  In24  1  0.51084352  0.01317098  0.37530657  1
  In  In25  1  0.50919142  0.00159513  0.88612776  1
  In  In26  1  0.49266197  0.32377275  0.36705923  1
  In  In27  1  0.52219321  0.31436676  0.88584664  1
  In  In28  1  0.49673608  0.65848332  0.36299056  1
  In  In29  1  0.49095376  0.67357547  0.88327196  1
  In  In30  1  0.84409003  0.00231411  0.37573017  1
  In  In31  1  0.82826424  0.00907909  0.87769632  1
  In  In32  1  0.82814451  0.33698116  0.37888435  1
  In  In33  1  0.81865340  0.33835232  0.87355381  1
  In  In34  1  0.82145623  0.65923302  0.36654232  1
  In  In35  1  0.83021317  0.66269121  0.87691631  1
  In  In36  1  0.00186249  0.16384521  0.38227565  1
  In  In37  1  0.00116051  0.15667880  0.88025089  1
  In  In38  1  -0.00059011  0.50244585  0.38306860  1
  In  In39  1  -0.01165954  0.49162150  0.87403937  1
  In  In40  1  0.00452201  0.84587477  0.37524211  1
  In  In41  1  -0.02354102  0.86297737  0.90058777  1
  In  In42  1  0.32353143  0.17914105  0.37845155  1
  In  In43  1  0.34059389  0.15171841  0.89266976  1
  In  In44  1  0.33288738  0.49396182  0.37085807  1
  In  In45  1  0.33035911  0.51404344  0.87292176  1
  In  In46  1  0.33189272  0.82316249  0.37215376  1
  In  In47  1  0.34367109  0.83347197  0.88876200  1
  In  In48  1  0.65936853  0.17496981  0.38232814  1
  In  In49  1  0.66740211  0.16818734  0.87051385  1
  In  In50  1  0.66992519  0.49677069  0.36798441  1
  In  In51  1  0.67783305  0.48286035  0.87872378  1
  In  In52  1  0.68178654  0.82750916  0.36656157  1
  In  In53  1  0.65378656  0.85304688  0.89714643  1
  In  In54  1  0.18351008  0.01718135  0.09787506  1
  In  In55  1  0.16299426  -0.00142955  0.62372862  1
  In  In56  1  0.17677992  0.33399258  0.13022911  1
  In  In57  1  0.16024591  0.32631521  0.61470772  1
  In  In58  1  0.17508293  0.68203957  0.12723785  1
  In  In59  1  0.16900904  0.67942384  0.62096904  1
  In  In60  1  0.50165975  0.00043272  0.09595971  1
  In  In61  1  0.50413985  0.01499394  0.63274480  1
  In  In62  1  0.49933527  0.33817068  0.12378244  1
  In  In63  1  0.51564114  0.32571075  0.63256396  1
  In  In64  1  0.50303909  0.66351608  0.12476178  1
  In  In65  1  0.49560791  0.65510097  0.63119184  1
  In  In66  1  0.83264305  0.01240121  0.09393275  1
  In  In67  1  0.80822366  0.03498384  0.66105179  1
  In  In68  1  0.81542478  0.31786351  0.11768196  1
  In  In69  1  0.82708664  0.32588867  0.62430077  1
  In  In70  1  0.82896453  0.65349232  0.11445596  1
  In  In71  1  0.84221466  0.67093154  0.62260315  1
  In  In72  1  0.66552178  -0.00140631  0.23784582  1
  In  In73  1  0.49738466  0.83678627  0.49713953  1
  In  In74  1  -0.00779583  0.32576261  0.74385364  1
  In  In75  1  0.33434501  0.00071148  0.23587766  1
  In  In76  1  0.33815912  0.33412253  0.74971317  1
  In  In77  1  0.00281079  0.00202197  0.24432400  1
  In  In78  1  0.00222260  0.67162147  0.75639773  1
  In  In79  1  0.34105115  -0.00091167  0.76463466  1
  In  In80  1  0.16238348  0.49363643  0.00087317  1
  In  In81  1  0.66367646  0.67029540  0.75234502  1
  In  In82  1  0.84532748  0.83914951  0.50122437  1
  In  In83  1  0.00031499  0.33242656  0.25241437  1
  In  In84  1  -0.00073623  0.67295976  0.24289536  1
  In  In85  1  0.49754631  0.49187357  0.50073420  1
  Cu  Cu86  1  0.17704936  0.50157464  0.25710975  1
  Cu  Cu87  1  0.49459220  0.50373233  0.75769134  1
  Cu  Cu88  1  0.33591675  0.33291857  0.49666140  1
  Cu  Cu89  1  0.00111922  0.33474381  0.49842027  1
  Cu  Cu90  1  0.50370606  0.82781119  0.24183797  1
  Cu  Cu91  1  0.17419776  0.15650100  0.75861726  1
  Cu  Cu92  1  0.33199803  0.00343891  0.50433317  1
  Cu  Cu93  1  -0.00287650  0.00413193  0.50749692  1
  Cu  Cu94  1  0.82953644  0.82769842  0.23303194  1
  Cu  Cu95  1  -0.01170788  0.32615560  -0.00457410  1
  Cu  Cu96  1  0.49522954  0.17068157  0.24513419  1
  Cu  Cu97  1  0.82518017  0.49256586  0.24481037  1
  Cu  Cu98  1  0.49910301  0.83323777  0.76293432  1
  Cu  Cu99  1  0.33691250  0.66110763  0.00528346  1
  Cu  Cu100  1  0.66613999  0.65921303  0.49072506  1
  Cu  Cu101  1  0.33569631  0.33558489  0.00247424  1
  Cu  Cu102  1  0.50783003  0.50262379  0.24541850  1
  Cu  Cu103  1  0.32586547  0.67112332  0.50229289  1
  Cu  Cu104  1  0.82706870  0.16312574  0.24452398  1
  Cu  Cu105  1  0.67136176  0.32746287  0.50349504  1
  Cu  Cu106  1  0.00128382  0.66891060  0.50060396  1
  Cu  Cu107  1  0.83318197  0.84284303  0.76638380  1
  Cu  Cu108  1  0.00251286  0.65946115  -0.00008473  1
  Cu  Cu109  1  0.16193370  0.50441921  0.74341674  1
  Cu  Cu110  1  0.17142014  0.83772278  0.24543107  1
  Cu  Cu111  1  0.16714385  0.83518517  0.75371337  1
  Cu  Cu112  1  0.67321998  0.01020769  0.50874478  1
  Cu  Cu113  1  0.66248634  0.33554406  0.00047013  1
  Cu  Cu114  1  0.66342497  0.66055773  -0.00241621  1
  Se  Se115  1  0.05613761  0.05579532  0.05183770  1
  Se  Se116  1  0.08663747  0.08824448  0.55559115  1
  Se  Se117  1  0.07046695  0.40214569  0.06013974  1
  Se  Se118  1  0.08769701  0.41959533  0.54822524  1
  Se  Se119  1  0.08439149  0.74268121  0.05354797  1
  Se  Se120  1  0.07829081  0.75722683  0.55447245  1
  Se  Se121  1  0.39964184  0.07837272  0.04476577  1
  Se  Se122  1  0.42162010  0.08131324  0.55541134  1
  Se  Se123  1  0.41765089  0.42249988  0.05287313  1
  Se  Se124  1  0.41000122  0.40680504  0.56716122  1
  Se  Se125  1  0.41968422  0.74794409  0.05626828  1
  Se  Se126  1  0.41173212  0.74639327  0.56261122  1
  Se  Se127  1  0.72130915  0.07409161  0.03893587  1
  Se  Se128  1  0.75778094  0.08792869  0.56467281  1
  Se  Se129  1  0.74994507  0.41769403  0.05264947  1
  Se  Se130  1  0.75268011  0.41646876  0.55300028  1
  Se  Se131  1  0.74923522  0.74291632  0.04962906  1
  Se  Se132  1  0.74374460  0.74446987  0.55136456  1
  Se  Se133  1  0.24779525  0.25485477  0.05395532  1
  Se  Se134  1  0.25229850  0.24789730  0.55075152  1
  Se  Se135  1  0.25290810  0.58008067  0.06340210  1
  Se  Se136  1  0.24706935  0.58453615  0.55656149  1
  Se  Se137  1  0.24235290  0.90295689  0.04727284  1
  Se  Se138  1  0.24781114  0.91737248  0.55357201  1
  Se  Se139  1  0.57739046  0.25249556  0.05362993  1
  Se  Se140  1  0.58368029  0.24677852  0.55489737  1
  Se  Se141  1  0.58018392  0.57869418  0.05318682  1
  Se  Se142  1  0.58971833  0.58647702  0.55816242  1
  Se  Se143  1  0.59296694  0.91523408  0.04009887  1
  Se  Se144  1  0.59217706  0.91987291  0.56053136  1
  Se  Se145  1  0.90692259  0.24228325  0.05124100  1
  Se  Se146  1  0.92356103  0.25376498  0.55929866  1
  Se  Se147  1  0.91735478  0.57274348  0.04715722  1
  Se  Se148  1  0.91316421  0.58667112  0.54996290  1
  Se  Se149  1  0.89724251  0.90229633  0.03870423  1
  Se  Se150  1  0.91296681  0.93236839  0.57085516  1
  Se  Se151  1  0.08538917  0.25183182  0.44540907  1
  Se  Se152  1  0.08061411  0.24451720  0.95049673  1
  Se  Se153  1  0.08544546  0.58436369  0.44897583  1
  Se  Se154  1  0.08171301  0.58455984  0.93383292  1
  Se  Se155  1  0.07922900  0.91934943  0.45216733  1
  Se  Se156  1  0.10288210  0.89279601  0.95164300  1
  Se  Se157  1  0.42083695  0.24798028  0.44601729  1
  Se  Se158  1  0.41995817  0.25021939  0.95063294  1
  Se  Se159  1  0.41193163  0.59240404  0.44441154  1
  Se  Se160  1  0.41589830  0.57800117  0.94908167  1
  Se  Se161  1  0.40892606  0.92889483  0.43625796  1
  Se  Se162  1  0.41195013  0.93217887  0.95130770  1
  Se  Se163  1  0.75579125  0.24512819  0.44831655  1
  Se  Se164  1  0.74494183  0.25239246  0.94482232  1
  Se  Se165  1  0.75184705  0.57560149  0.44138079  1
  Se  Se166  1  0.74955949  0.57851408  0.94535389  1
  Se  Se167  1  0.74335581  0.92509722  0.44279021  1
  Se  Se168  1  0.77743352  0.89891471  0.94581101  1
  Se  Se169  1  0.25097135  0.08690197  0.44712945  1
  Se  Se170  1  0.23697812  0.09605524  0.95733671  1
  Se  Se171  1  0.25338889  0.42044252  0.44657029  1
  Se  Se172  1  0.25289013  0.40789305  0.93712334  1
  Se  Se173  1  0.24678883  0.75785202  0.44816699  1
  Se  Se174  1  0.25471904  0.74319481  0.94963674  1
  Se  Se175  1  0.58491095  0.08610713  0.45298553  1
  Se  Se176  1  0.60155098  0.08276321  0.94967800  1
  Se  Se177  1  0.58887986  0.40519384  0.44038806  1
  Se  Se178  1  0.57946729  0.42229157  0.94885705  1
  Se  Se179  1  0.58861131  0.74603941  0.43558208  1
  Se  Se180  1  0.57757272  0.75007119  0.95273304  1
  Se  Se181  1  0.91401445  0.08465489  0.45028599  1
  Se  Se182  1  0.91605036  0.08063196  0.95020979  1
  Se  Se183  1  0.91464882  0.41686334  0.44670827  1
  Se  Se184  1  0.90843964  0.41452513  0.94521031  1
  Se  Se185  1  0.92098856  0.74229095  0.43297093  1
  Se  Se186  1  0.91924945  0.73935693  0.94448123  1
  Se  Se187  1  0.25369137  0.25344782  0.29969608  1
  Se  Se188  1  0.25286005  0.24120970  0.81472101  1
  Se  Se189  1  0.25676196  0.59118268  0.30737576  1
  Se  Se190  1  0.24642492  0.58432752  0.79792251  1
  Se  Se191  1  0.24579993  0.92069552  0.30889071  1
  Se  Se192  1  0.24476641  0.91240087  0.81903130  1
  Se  Se193  1  0.58436909  0.24417326  0.30203007  1
  Se  Se194  1  0.59303919  0.25884450  0.80069753  1
  Se  Se195  1  0.59195357  0.58504304  0.30007694  1
  Se  Se196  1  0.57853876  0.58237267  0.81680965  1
  Se  Se197  1  0.57827534  0.90919986  0.30647703  1
  Se  Se198  1  0.58377734  0.91733587  0.81217863  1
  Se  Se199  1  0.90845670  0.23726165  0.30803470  1
  Se  Se200  1  0.91135161  0.24398248  0.81364932  1
  Se  Se201  1  0.91448547  0.57199590  0.30043227  1
  Se  Se202  1  0.90586161  0.57418416  0.80185174  1
  Se  Se203  1  0.90645260  0.90556024  0.29896778  1
  Se  Se204  1  0.92193930  0.92736972  0.81070658  1
  Se  Se205  1  0.09051819  0.09181163  0.30602507  1
  Se  Se206  1  0.08816917  0.07729589  0.81134455  1
  Se  Se207  1  0.08982819  0.42337877  0.31279562  1
  Se  Se208  1  0.08703608  0.42134178  0.80329241  1
  Se  Se209  1  0.09005174  0.75903523  0.30707609  1
  Se  Se210  1  0.08139684  0.76595408  0.81769455  1
  Se  Se211  1  0.41822950  0.08713193  0.30547066  1
  Se  Se212  1  0.43332515  0.09568972  0.81353405  1
  Se  Se213  1  0.42377424  0.42183179  0.30265899  1
  Se  Se214  1  0.42193670  0.41730023  0.81807163  1
  Se  Se215  1  0.41862985  0.75275342  0.30044521  1
  Se  Se216  1  0.41051578  0.75136394  0.80952008  1
  Se  Se217  1  0.75075670  0.08249586  0.30857873  1
  Se  Se218  1  0.74772202  0.08105544  0.80245694  1
  Se  Se219  1  0.74841819  0.40659592  0.30111494  1
  Se  Se220  1  0.74781330  0.41720187  0.79621809  1
  Se  Se221  1  0.75240300  0.74552171  0.29185799  1
  Se  Se222  1  0.74589350  0.76054897  0.81751220  1
  Se  Se223  1  0.23975103  0.09343563  0.18512529  1
  Se  Se224  1  0.25543469  0.08406158  0.69372991  1
  Se  Se225  1  0.25381257  0.41382641  0.20274830  1
  Se  Se226  1  0.24140703  0.41813751  0.68769715  1
  Se  Se227  1  0.26066975  0.75397172  0.19935991  1
  Se  Se228  1  0.24740917  0.74879478  0.70088572  1
  Se  Se229  1  0.56670419  0.08429498  0.18257391  1
  Se  Se230  1  0.60136007  0.07463373  0.69908645  1
  Se  Se231  1  0.58720859  0.41390611  0.19437535  1
  Se  Se232  1  0.57689497  0.42445747  0.70078851  1
  Se  Se233  1  0.59145308  0.74694995  0.19194511  1
  Se  Se234  1  0.57338902  0.76178241  0.68998575  1
  Se  Se235  1  0.90351447  0.08332780  0.18326897  1
  Se  Se236  1  0.93118540  0.08423493  0.70705643  1
  Se  Se237  1  0.90918968  0.41416375  0.18637804  1
  Se  Se238  1  0.90841836  0.42651566  0.69054581  1
  Se  Se239  1  0.91945343  0.75866445  0.17389376  1
  Se  Se240  1  0.90653590  0.76463244  0.69867635  1
  Se  Se241  1  0.08434087  0.24099663  0.18981274  1
  Se  Se242  1  0.09842938  0.23953683  0.69571335  1
  Se  Se243  1  0.09698504  0.57669855  0.19282934  1
  Se  Se244  1  0.08010843  0.58226494  0.68450507  1
  Se  Se245  1  0.09481413  0.91674453  0.18324032  1
  Se  Se246  1  0.08709877  0.92051346  0.69960834  1
  Se  Se247  1  0.41297503  0.25501831  0.19258221  1
  Se  Se248  1  0.42728252  0.23618935  0.69750516  1
  Se  Se249  1  0.41861268  0.58593562  0.19766188  1
  Se  Se250  1  0.41108463  0.58816243  0.70630385  1
  Se  Se251  1  0.43354052  0.91431993  0.18114458  1
  Se  Se252  1  0.42333987  0.91010483  0.69387625  1
  Se  Se253  1  0.73883536  0.24382643  0.19476888  1
  Se  Se254  1  0.74152327  0.26431141  0.70025111  1
  Se  Se255  1  0.74981326  0.58318693  0.19211973  1
  Se  Se256  1  0.75458443  0.58586053  0.68905985  1
  Se  Se257  1  0.75950963  0.91844091  0.17523166  1
  Se  Se258  1  0.74461742  0.91726587  0.70901480  1
