# generated using pymatgen
data_In86Cu29Se144
_symmetry_space_group_name_H-M   'P 1'
_cell_length_a   17.59423836
_cell_length_b   17.59758620
_cell_length_c   23.45144504
_cell_angle_alpha   89.98605729
_cell_angle_beta   89.96826774
_cell_angle_gamma   89.96484575
_symmetry_Int_Tables_number   1
_chemical_formula_structural   In86Cu29Se144
_chemical_formula_sum   'In86 Cu29 Se144'
_cell_volume   7260.94287529
_cell_formula_units_Z   1
loop_
 _symmetry_equiv_pos_site_id
 _symmetry_equiv_pos_as_xyz
  1  'x, y, z'
loop_
 _atom_site_type_symbol
 _atom_site_label
 _atom_site_symmetry_multiplicity
 _atom_site_fract_x
 _atom_site_fract_y
 _atom_site_fract_z
 _atom_site_occupancy
  In  In0  1  0.00949334  0.17520924  0.11821899  1
  In  In1  1  -0.00150011  0.16552648  0.62858381  1
  In  In2  1  0.00339356  0.47708227  0.12025233  1
  In  In3  1  0.00287072  0.47883383  0.62631125  1
  In  In4  1  0.01278967  0.84969821  0.11351360  1
  In  In5  1  0.01265753  0.85068544  0.62305915  1
  In  In6  1  0.34482056  0.17351205  0.11792437  1
  In  In7  1  0.32387359  0.17550248  0.61990979  1
  In  In8  1  0.33217361  0.50006788  0.12623796  1
  In  In9  1  0.32724389  0.51524949  0.62302849  1
  In  In10  1  0.31519029  0.83601987  0.12945123  1
  In  In11  1  0.30331292  0.81077518  0.59368592  1
  In  In12  1  0.67898634  0.17728855  0.12137195  1
  In  In13  1  0.68307007  0.16476301  0.62469445  1
  In  In14  1  0.65067673  0.49918097  0.12212098  1
  In  In15  1  0.66983908  0.49090629  0.63410024  1
  In  In16  1  0.67731256  0.82860195  0.12651993  1
  In  In17  1  0.67193747  0.83808772  0.61553569  1
  In  In18  1  0.16051474  0.01272394  0.38410652  1
  In  In19  1  0.14798099  0.00961730  0.88728851  1
  In  In20  1  0.16246720  0.32993487  0.36897813  1
  In  In21  1  0.15823940  0.33997098  0.88990929  1
  In  In22  1  0.17739699  0.65737805  0.38756600  1
  In  In23  1  0.17015246  0.66280797  0.87847815  1
  In  In24  1  0.48314663  -0.00542080  0.37934728  1
  In  In25  1  0.50605896  0.00741631  0.87621331  1
  In  In26  1  0.50376492  0.34021506  0.36787206  1
  In  In27  1  0.50922426  0.32566437  0.88455109  1
  In  In28  1  0.49033834  0.67786367  0.38197606  1
  In  In29  1  0.48061757  0.66919016  0.87184098  1
  In  In30  1  0.84474779  -0.00724049  0.37779635  1
  In  In31  1  0.85347488  -0.00725873  0.89213954  1
  In  In32  1  0.82588754  0.31606234  0.36699664  1
  In  In33  1  0.82814559  0.33394410  0.86930450  1
  In  In34  1  0.83877319  0.67474075  0.37805944  1
  In  In35  1  0.84830099  0.66736163  0.87589974  1
  In  In36  1  0.00112223  0.16324131  0.37062609  1
  In  In37  1  -0.00129925  0.17169649  0.88168898  1
  In  In38  1  0.01231551  0.49407491  0.37419292  1
  In  In39  1  0.01077383  0.49642755  0.87575843  1
  In  In40  1  -0.00358815  0.84290242  0.37976860  1
  In  In41  1  0.00367525  0.83636787  0.88208296  1
  In  In42  1  0.31495307  0.16687976  0.37319778  1
  In  In43  1  0.32753770  0.17435928  0.88406015  1
  In  In44  1  0.32642318  0.49561935  0.36913605  1
  In  In45  1  0.32490282  0.50974963  0.88093228  1
  In  In46  1  0.33376896  0.82633891  0.38794735  1
  In  In47  1  0.32375098  0.81949402  0.86821319  1
  In  In48  1  0.67578528  0.18433126  0.37413764  1
  In  In49  1  0.66835202  0.17353550  0.88112428  1
  In  In50  1  0.67028539  0.48925117  0.37494841  1
  In  In51  1  0.67081281  0.47906585  0.87651028  1
  In  In52  1  0.66833610  0.83142376  0.38022314  1
  In  In53  1  0.67041337  0.84679352  0.87182216  1
  In  In54  1  0.15518295  -0.00306861  0.11508090  1
  In  In55  1  0.15339819  -0.01245775  0.61724216  1
  In  In56  1  0.16860678  0.33753399  0.12100966  1
  In  In57  1  0.15514928  0.31915799  0.61489211  1
  In  In58  1  0.17483817  0.67288950  0.12321766  1
  In  In59  1  0.17212519  0.67013907  0.61644500  1
  In  In60  1  0.48616588  0.00346846  0.12402717  1
  In  In61  1  0.50337393  -0.00511585  0.62212640  1
  In  In62  1  0.49925455  0.33576177  0.12765247  1
  In  In63  1  0.50225895  0.33885778  0.62648906  1
  In  In64  1  0.49746073  0.65227262  0.12576452  1
  In  In65  1  0.47860972  0.66391442  0.62337491  1
  In  In66  1  0.87676206  0.03665583  0.09008204  1
  In  In67  1  0.84281813  0.01288412  0.62077438  1
  In  In68  1  0.84840762  0.31530613  0.13562097  1
  In  In69  1  0.84478649  0.32682240  0.63526128  1
  In  In70  1  0.83364825  0.67816255  0.12172223  1
  In  In71  1  0.82821211  0.67268266  0.62477545  1
  In  In72  1  0.49787076  0.83554779  -0.00287897  1
  In  In73  1  0.32925059  0.33883809  0.75381464  1
  In  In74  1  0.49817467  0.50111158  0.49758380  1
  In  In75  1  0.32514769  -0.00282575  0.74621259  1
  In  In76  1  0.83418660  0.49628575  -0.00206266  1
  In  In77  1  0.66508583  0.66113028  0.74451088  1
  In  In78  1  0.66371795  0.66045368  0.25309660  1
  In  In79  1  0.67205420  0.00001549  0.24645124  1
  In  In80  1  0.67209747  0.00484647  0.75318404  1
  In  In81  1  0.50472302  0.16637001  0.49576781  1
  In  In82  1  0.00371888  0.65938771  0.25495457  1
  In  In83  1  0.32076689  0.00393750  0.25420253  1
  In  In84  1  0.83847633  0.49559614  0.50694391  1
  In  In85  1  0.00361165  0.66193453  0.75531297  1
  Cu  Cu86  1  0.49205009  0.49778749  0.24799030  1
  Cu  Cu87  1  0.84013869  0.16656924  0.75403833  1
  Cu  Cu88  1  0.66581128  0.66658820  0.50420040  1
  Cu  Cu89  1  0.66308612  0.66699489  0.00081277  1
  Cu  Cu90  1  0.00438598  0.66782303  -0.00087322  1
  Cu  Cu91  1  0.16940436  0.49727459  0.75294066  1
  Cu  Cu92  1  0.33157759  0.66506428  0.00126467  1
  Cu  Cu93  1  0.50155850  0.17561024  0.24635224  1
  Cu  Cu94  1  0.67234252  0.00095027  0.49658280  1
  Cu  Cu95  1  0.16250614  0.83142274  0.25094603  1
  Cu  Cu96  1  0.84159841  0.83717791  0.75375010  1
  Cu  Cu97  1  0.32372146  0.33460950  0.49316057  1
  Cu  Cu98  1  0.82770998  0.49016744  0.24804973  1
  Cu  Cu99  1  0.48824660  0.82795346  0.74171714  1
  Cu  Cu100  1  0.50374965  0.17190815  0.75757886  1
  Cu  Cu101  1  0.50087914  0.49673383  0.75067485  1
  Cu  Cu102  1  0.16835891  0.49514272  0.24887086  1
  Cu  Cu103  1  0.15293893  0.16624470  0.75219404  1
  Cu  Cu104  1  0.33785089  0.33795157  0.00391765  1
  Cu  Cu105  1  0.66663207  0.00181357  -0.00287719  1
  Cu  Cu106  1  -0.00466259  0.00722952  0.50140836  1
  Cu  Cu107  1  0.66573264  0.33432856  0.00507158  1
  Cu  Cu108  1  -0.00066337  0.32381881  0.49762687  1
  Cu  Cu109  1  0.00045124  0.67317361  0.49788150  1
  Cu  Cu110  1  0.84429243  0.84431490  0.24645738  1
  Cu  Cu111  1  0.49332923  0.82651748  0.25893864  1
  Cu  Cu112  1  0.84239830  0.16276804  0.24312619  1
  Cu  Cu113  1  0.16317955  0.17058952  0.24531204  1
  Cu  Cu114  1  0.32971005  0.00094386  0.00030525  1
  Se  Se115  1  0.07494732  0.07934575  0.04807093  1
  Se  Se116  1  0.08093572  0.08751052  0.55594939  1
  Se  Se117  1  0.08737252  0.41294080  0.04633460  1
  Se  Se118  1  0.08157896  0.41256814  0.54736738  1
  Se  Se119  1  0.08780693  0.74989033  0.05420677  1
  Se  Se120  1  0.08060477  0.75445115  0.55525844  1
  Se  Se121  1  0.41918327  0.08326809  0.04751700  1
  Se  Se122  1  0.41434823  0.08400785  0.55938881  1
  Se  Se123  1  0.42066927  0.42154416  0.05782715  1
  Se  Se124  1  0.40486918  0.40843987  0.55720530  1
  Se  Se125  1  0.41054214  0.74881122  0.06203398  1
  Se  Se126  1  0.42489313  0.75380921  0.54855577  1
  Se  Se127  1  0.74721112  0.08613123  0.05102141  1
  Se  Se128  1  0.75417009  0.08499141  0.54934535  1
  Se  Se129  1  0.74945718  0.41193081  0.06606946  1
  Se  Se130  1  0.74695852  0.40558280  0.56289891  1
  Se  Se131  1  0.74843817  0.75039487  0.04918853  1
  Se  Se132  1  0.75480097  0.75150222  0.55000706  1
  Se  Se133  1  0.25372999  0.25163805  0.05385022  1
  Se  Se134  1  0.24382592  0.24570687  0.54405868  1
  Se  Se135  1  0.24889433  0.58170306  0.05551244  1
  Se  Se136  1  0.24336835  0.57809795  0.54809933  1
  Se  Se137  1  0.24834598  0.91492542  0.05212560  1
  Se  Se138  1  0.26132989  0.93854942  0.55164609  1
  Se  Se139  1  0.58169240  0.25079790  0.05836333  1
  Se  Se140  1  0.59001849  0.25363312  0.56069137  1
  Se  Se141  1  0.57809204  0.58314818  0.04910151  1
  Se  Se142  1  0.59011690  0.58483628  0.56494611  1
  Se  Se143  1  0.58849177  0.92221216  0.06100746  1
  Se  Se144  1  0.58684564  0.92076899  0.54977009  1
  Se  Se145  1  0.90982151  0.24589558  0.05288957  1
  Se  Se146  1  0.91585012  0.24837859  0.55764078  1
  Se  Se147  1  0.92419630  0.58767732  0.06062744  1
  Se  Se148  1  0.92832945  0.59065086  0.56363630  1
  Se  Se149  1  0.89644607  0.89820594  0.05826918  1
  Se  Se150  1  0.91606422  0.91837027  0.55520682  1
  Se  Se151  1  0.08449906  0.24537781  0.44048041  1
  Se  Se152  1  0.10242645  0.23070457  0.94802608  1
  Se  Se153  1  0.07708853  0.58224499  0.44720663  1
  Se  Se154  1  0.08526055  0.58162940  0.94659714  1
  Se  Se155  1  0.07996331  0.92308844  0.44907983  1
  Se  Se156  1  0.07979409  0.91584051  0.95543915  1
  Se  Se157  1  0.41221349  0.25769540  0.43676609  1
  Se  Se158  1  0.41809445  0.25009440  0.95061100  1
  Se  Se159  1  0.40188782  0.58811842  0.44405093  1
  Se  Se160  1  0.41805693  0.58470751  0.94867273  1
  Se  Se161  1  0.42472444  0.90553049  0.45214035  1
  Se  Se162  1  0.40671911  0.92208016  0.93515742  1
  Se  Se163  1  0.75545856  0.25148202  0.45033043  1
  Se  Se164  1  0.75115874  0.25891000  0.94708222  1
  Se  Se165  1  0.74543101  0.58684998  0.44291162  1
  Se  Se166  1  0.74386051  0.58952459  0.93765292  1
  Se  Se167  1  0.75459969  0.91456573  0.44419398  1
  Se  Se168  1  0.74947011  0.91466441  0.94783580  1
  Se  Se169  1  0.26976538  0.06858740  0.44572634  1
  Se  Se170  1  0.24726222  0.08538555  0.94812178  1
  Se  Se171  1  0.24207294  0.41687271  0.43870277  1
  Se  Se172  1  0.25310763  0.42019325  0.95014258  1
  Se  Se173  1  0.23523727  0.76010913  0.45253044  1
  Se  Se174  1  0.24975616  0.74981192  0.94797552  1
  Se  Se175  1  0.59289791  0.07641909  0.43199098  1
  Se  Se176  1  0.58268027  0.08743491  0.94721369  1
  Se  Se177  1  0.59227309  0.40486025  0.44830441  1
  Se  Se178  1  0.58291517  0.41886736  0.95237464  1
  Se  Se179  1  0.58548488  0.74813182  0.44732641  1
  Se  Se180  1  0.58770577  0.74656903  0.93463681  1
  Se  Se181  1  0.91500600  0.08853949  0.44360897  1
  Se  Se182  1  0.90922393  0.09850341  0.95385737  1
  Se  Se183  1  0.91969626  0.40852991  0.43851469  1
  Se  Se184  1  0.92491853  0.40673116  0.94140322  1
  Se  Se185  1  0.91457302  0.75645365  0.44836412  1
  Se  Se186  1  0.91786595  0.75019130  0.94862749  1
  Se  Se187  1  0.24939415  0.25134339  0.29816393  1
  Se  Se188  1  0.23940080  0.24533035  0.80904681  1
  Se  Se189  1  0.24330181  0.58421136  0.30413390  1
  Se  Se190  1  0.25009386  0.58479421  0.80354858  1
  Se  Se191  1  0.24079801  0.90953775  0.31553881  1
  Se  Se192  1  0.23849752  0.92072559  0.81602333  1
  Se  Se193  1  0.58627608  0.25266397  0.30264485  1
  Se  Se194  1  0.58878354  0.25356134  0.80776067  1
  Se  Se195  1  0.57077432  0.57473518  0.31437644  1
  Se  Se196  1  0.57792683  0.57927807  0.81256346  1
  Se  Se197  1  0.57774836  0.91221187  0.30904507  1
  Se  Se198  1  0.56839132  0.90940655  0.80089699  1
  Se  Se199  1  0.92146883  0.24819132  0.29991301  1
  Se  Se200  1  0.92058696  0.25233898  0.80723260  1
  Se  Se201  1  0.90337617  0.57165568  0.31086289  1
  Se  Se202  1  0.90958746  0.56722813  0.80765224  1
  Se  Se203  1  0.92758743  0.92372730  0.30151156  1
  Se  Se204  1  0.92072844  0.91737491  0.81094658  1
  Se  Se205  1  0.08904733  0.08244391  0.30227909  1
  Se  Se206  1  0.07422107  0.08385604  0.80878003  1
  Se  Se207  1  0.08003520  0.41284450  0.29804279  1
  Se  Se208  1  0.09035452  0.41182574  0.80648750  1
  Se  Se209  1  0.08756535  0.75194550  0.31572335  1
  Se  Se210  1  0.09151770  0.75627792  0.80993908  1
  Se  Se211  1  0.42266715  0.09336219  0.30625920  1
  Se  Se212  1  0.41648006  0.09077958  0.80907660  1
  Se  Se213  1  0.41083835  0.41289269  0.30186311  1
  Se  Se214  1  0.42253765  0.42089408  0.81623347  1
  Se  Se215  1  0.40532696  0.74744506  0.30838525  1
  Se  Se216  1  0.40668721  0.74494383  0.79509185  1
  Se  Se217  1  0.76034828  0.08857515  0.30826470  1
  Se  Se218  1  0.76228187  0.08542060  0.81725730  1
  Se  Se219  1  0.74511767  0.40901058  0.30260028  1
  Se  Se220  1  0.74684072  0.41436562  0.79853995  1
  Se  Se221  1  0.76017718  0.76028216  0.30215355  1
  Se  Se222  1  0.75588595  0.75410197  0.80698072  1
  Se  Se223  1  0.24362288  0.08989783  0.18344788  1
  Se  Se224  1  0.23914339  0.09515244  0.69052824  1
  Se  Se225  1  0.25227098  0.41372999  0.19440525  1
  Se  Se226  1  0.24180214  0.41812009  0.68524607  1
  Se  Se227  1  0.24881998  0.74724046  0.20230015  1
  Se  Se228  1  0.24895698  0.75437543  0.68586809  1
  Se  Se229  1  0.57711379  0.08883545  0.18859098  1
  Se  Se230  1  0.57797697  0.09156988  0.69278992  1
  Se  Se231  1  0.58295747  0.41820439  0.19878171  1
  Se  Se232  1  0.58333220  0.41078524  0.70132271  1
  Se  Se233  1  0.57509117  0.75507255  0.19309725  1
  Se  Se234  1  0.57968770  0.75595607  0.68537845  1
  Se  Se235  1  0.92716622  0.08493328  0.18723068  1
  Se  Se236  1  0.91941969  0.08015165  0.69996154  1
  Se  Se237  1  0.92018371  0.41412827  0.19855600  1
  Se  Se238  1  0.91950445  0.41670818  0.70197648  1
  Se  Se239  1  0.92208947  0.75411507  0.19249837  1
  Se  Se240  1  0.91729255  0.75478099  0.69220401  1
  Se  Se241  1  0.08378292  0.25703729  0.19217034  1
  Se  Se242  1  0.07838197  0.25533331  0.69630402  1
  Se  Se243  1  0.08725344  0.57420128  0.18691787  1
  Se  Se244  1  0.08973795  0.57524436  0.68943022  1
  Se  Se245  1  0.08678825  0.91769087  0.19486697  1
  Se  Se246  1  0.08808793  0.92018137  0.70067397  1
  Se  Se247  1  0.41221762  0.25390338  0.19575719  1
  Se  Se248  1  0.42011702  0.24431592  0.69414975  1
  Se  Se249  1  0.41074574  0.58622261  0.19886698  1
  Se  Se250  1  0.41434171  0.57835892  0.69942335  1
  Se  Se251  1  0.41780478  0.91031514  0.19749324  1
  Se  Se252  1  0.41186059  0.91007591  0.68290112  1
  Se  Se253  1  0.74926621  0.24877491  0.20219113  1
  Se  Se254  1  0.75242674  0.24568940  0.70024201  1
  Se  Se255  1  0.75655049  0.57785204  0.18801592  1
  Se  Se256  1  0.76693250  0.57299633  0.69571954  1
  Se  Se257  1  0.76484138  0.91996718  0.18444963  1
  Se  Se258  1  0.75843107  0.91273283  0.69179188  1
