# generated using pymatgen
data_In86Cu29Se144
_symmetry_space_group_name_H-M   'P 1'
_cell_length_a   17.57334546
_cell_length_b   17.57080723
_cell_length_c   23.42412924
_cell_angle_alpha   90.00816822
_cell_angle_beta   90.01442661
_cell_angle_gamma   89.98452241
_symmetry_Int_Tables_number   1
_chemical_formula_structural   In86Cu29Se144
_chemical_formula_sum   'In86 Cu29 Se144'
_cell_volume   7232.85206007
_cell_formula_units_Z   1
loop_
 _symmetry_equiv_pos_site_id
 _symmetry_equiv_pos_as_xyz
  1  'x, y, z'
loop_
 _atom_site_type_symbol
 _atom_site_label
 _atom_site_symmetry_multiplicity
 _atom_site_fract_x
 _atom_site_fract_y
 _atom_site_fract_z
 _atom_site_occupancy
  In  In0  1  -0.01265183  0.15891414  0.13037817  1
  In  In1  1  -0.00125531  0.16316365  0.61990027  1
  In  In2  1  0.00608794  0.48297574  0.11814023  1
  In  In3  1  -0.00889039  0.47171829  0.62880048  1
  In  In4  1  0.01319223  0.83252736  0.12920232  1
  In  In5  1  0.02291836  0.86013413  0.60181249  1
  In  In6  1  0.34787238  0.15817795  0.12484638  1
  In  In7  1  0.33548179  0.16406431  0.62212639  1
  In  In8  1  0.33552402  0.49910795  0.12292233  1
  In  In9  1  0.33610946  0.49631830  0.63673519  1
  In  In10  1  0.32388566  0.83033429  0.11879344  1
  In  In11  1  0.32830110  0.84373071  0.62537974  1
  In  In12  1  0.66833911  0.17442266  0.12718182  1
  In  In13  1  0.66965953  0.17057099  0.62540567  1
  In  In14  1  0.64644614  0.49660260  0.12022026  1
  In  In15  1  0.67328737  0.49402892  0.63339740  1
  In  In16  1  0.65874590  0.84838555  0.12609417  1
  In  In17  1  0.67518153  0.84859228  0.62163630  1
  In  In18  1  0.16534265  0.02403944  0.40901713  1
  In  In19  1  0.16213297  -0.01279669  0.86859504  1
  In  In20  1  0.17159424  0.31888561  0.37849269  1
  In  In21  1  0.17452914  0.34021937  0.86481460  1
  In  In22  1  0.17610466  0.66810767  0.37064524  1
  In  In23  1  0.17983013  0.66085433  0.87676098  1
  In  In24  1  0.49035722  0.00101171  0.39343482  1
  In  In25  1  0.50004029  -0.00023557  0.86479607  1
  In  In26  1  0.49938896  0.33356205  0.36878803  1
  In  In27  1  0.49720512  0.33215861  0.87672483  1
  In  In28  1  0.48940555  0.68108491  0.37394806  1
  In  In29  1  0.47934911  0.68551056  0.88216642  1
  In  In30  1  0.84182936  0.00645184  0.39365185  1
  In  In31  1  0.83069089  0.00533357  0.85183654  1
  In  In32  1  0.82809019  0.33325146  0.37918960  1
  In  In33  1  0.81647344  0.31265037  0.84675218  1
  In  In34  1  0.83988733  0.67072530  0.37700623  1
  In  In35  1  0.83497218  0.67042051  0.87288139  1
  In  In36  1  0.00769503  0.16350780  0.39414049  1
  In  In37  1  -0.00665271  0.15953129  0.85764653  1
  In  In38  1  -0.00575935  0.49257540  0.37600749  1
  In  In39  1  0.01131941  0.49899674  0.87109030  1
  In  In40  1  -0.00664628  0.85975623  0.40621299  1
  In  In41  1  0.00597508  0.84833947  0.87164990  1
  In  In42  1  0.33264756  0.17075261  0.38335007  1
  In  In43  1  0.34445638  0.17686246  0.86528378  1
  In  In44  1  0.33542488  0.50613795  0.36447298  1
  In  In45  1  0.32969757  0.50092499  0.87571453  1
  In  In46  1  0.33265486  0.83354454  0.38125331  1
  In  In47  1  0.33857349  0.83107673  0.86525455  1
  In  In48  1  0.65843709  0.17272615  0.38199715  1
  In  In49  1  0.65579966  0.15102868  0.85592559  1
  In  In50  1  0.67547336  0.48831429  0.37315747  1
  In  In51  1  0.65918614  0.48178762  0.87167165  1
  In  In52  1  0.65431435  0.84687017  0.38681386  1
  In  In53  1  0.64733893  0.83651955  0.85954792  1
  In  In54  1  0.16630604  -0.01100203  0.12641765  1
  In  In55  1  0.16298937  0.00763526  0.61874906  1
  In  In56  1  0.16063396  0.34531758  0.12019471  1
  In  In57  1  0.17705147  0.32311958  0.62555713  1
  In  In58  1  0.18005323  0.67775073  0.12152570  1
  In  In59  1  0.16920567  0.67842811  0.62836617  1
  In  In60  1  0.49856193  -0.00070624  0.11147568  1
  In  In61  1  0.49391535  0.00157055  0.62219292  1
  In  In62  1  0.49843626  0.33181876  0.12464298  1
  In  In63  1  0.51109347  0.32100421  0.63536748  1
  In  In64  1  0.48537694  0.65779252  0.11513433  1
  In  In65  1  0.48446118  0.68085468  0.63673204  1
  In  In66  1  0.84058096  0.02109314  0.13251164  1
  In  In67  1  0.83976817  0.00431138  0.62356957  1
  In  In68  1  0.81889372  0.31384609  0.12444400  1
  In  In69  1  0.85866295  0.28564348  0.67132131  1
  In  In70  1  0.83925910  0.67111146  0.12618275  1
  In  In71  1  0.82806811  0.67831772  0.62123939  1
  In  In72  1  0.16619923  0.49889873  0.50441200  1
  In  In73  1  0.00385112  0.66824405  0.74663574  1
  In  In74  1  0.84064391  0.49708285  -0.01043577  1
  In  In75  1  0.82957497  0.16515666  -0.00557317  1
  In  In76  1  0.50235607  0.50313580  0.51545401  1
  In  In77  1  0.82887775  0.49634048  0.49916770  1
  In  In78  1  0.66479212  0.66515811  0.74799775  1
  In  In79  1  0.66704646  0.00142844  0.26491996  1
  In  In80  1  0.82798862  0.83611199  -0.00315802  1
  In  In81  1  0.00549202  0.32592733  0.25749401  1
  In  In82  1  0.00898414  0.66836200  0.25500782  1
  In  In83  1  0.17336629  0.16719257  -0.00540599  1
  In  In84  1  0.65855368  0.66349020  0.25136559  1
  In  In85  1  0.32659197  0.00133979  0.26010979  1
  Cu  Cu86  1  0.33538737  0.32523199  0.49946769  1
  Cu  Cu87  1  0.17167813  0.83948267  0.74118826  1
  Cu  Cu88  1  0.83487388  0.84460106  0.26836092  1
  Cu  Cu89  1  0.65790429  -0.00322919  -0.01211541  1
  Cu  Cu90  1  0.49284273  0.16716169  0.74462421  1
  Cu  Cu91  1  0.65795781  0.67538701  0.50411645  1
  Cu  Cu92  1  0.33483284  0.33699058  -0.00323333  1
  Cu  Cu93  1  0.00251010  -0.00497764  -0.00156522  1
  Cu  Cu94  1  0.66616287  0.00488546  0.50731898  1
  Cu  Cu95  1  0.01615751  0.66923081  -0.00125565  1
  Cu  Cu96  1  0.00435255  0.33422062  -0.01146985  1
  Cu  Cu97  1  0.49505935  0.50206081  0.75849170  1
  Cu  Cu98  1  0.65839242  0.32897837  -0.00197717  1
  Cu  Cu99  1  -0.00621930  0.66441754  0.50255801  1
  Cu  Cu100  1  0.33692025  -0.00326072  -0.00886867  1
  Cu  Cu101  1  0.16071875  0.84327771  0.25689074  1
  Cu  Cu102  1  0.50645083  0.16889397  0.25004686  1
  Cu  Cu103  1  0.65577553  0.66846981  -0.00497651  1
  Cu  Cu104  1  0.84353768  0.83793576  0.73817241  1
  Cu  Cu105  1  0.33197064  0.67054556  -0.00327907  1
  Cu  Cu106  1  0.33750893  0.67296365  0.50279047  1
  Cu  Cu107  1  0.16327834  0.49356496  0.74979035  1
  Cu  Cu108  1  0.16699721  0.16507090  0.26271163  1
  Cu  Cu109  1  0.49809752  0.49258759  0.24465813  1
  Cu  Cu110  1  0.48368561  0.83113588  0.24774363  1
  Cu  Cu111  1  0.16755073  0.15722440  0.74541821  1
  Cu  Cu112  1  0.82439178  0.48521183  0.24714263  1
  Cu  Cu113  1  0.66727734  0.32810502  0.50633746  1
  Cu  Cu114  1  0.17660531  0.50380022  0.24386831  1
  Se  Se115  1  0.07794101  0.08163275  0.05779985  1
  Se  Se116  1  0.06759108  0.07204226  0.54732043  1
  Se  Se117  1  0.08785922  0.41879054  0.04007427  1
  Se  Se118  1  0.07858784  0.40117637  0.55570106  1
  Se  Se119  1  0.09033301  0.75735156  0.05442244  1
  Se  Se120  1  0.08462662  0.74182458  0.55203260  1
  Se  Se121  1  0.41619469  0.08378752  0.04471593  1
  Se  Se122  1  0.40476882  0.07459386  0.54961013  1
  Se  Se123  1  0.41871553  0.41594087  0.05466601  1
  Se  Se124  1  0.40987454  0.40517078  0.56413170  1
  Se  Se125  1  0.41516527  0.75593940  0.05122421  1
  Se  Se126  1  0.41626142  0.75711769  0.55786253  1
  Se  Se127  1  0.73931347  0.07116606  0.05493553  1
  Se  Se128  1  0.75268060  0.08833549  0.55652480  1
  Se  Se129  1  0.74677750  0.40981597  0.05431106  1
  Se  Se130  1  0.74979042  0.40687515  0.56441202  1
  Se  Se131  1  0.73909428  0.74243375  0.05917679  1
  Se  Se132  1  0.74854896  0.75760992  0.55076294  1
  Se  Se133  1  0.25836425  0.25485760  0.06067187  1
  Se  Se134  1  0.24924466  0.24285258  0.54954501  1
  Se  Se135  1  0.25310489  0.58581784  0.05476289  1
  Se  Se136  1  0.26051326  0.58778369  0.56213075  1
  Se  Se137  1  0.25066547  0.92315491  0.05078088  1
  Se  Se138  1  0.22529960  0.89854704  0.55598760  1
  Se  Se139  1  0.58174131  0.24520142  0.05621653  1
  Se  Se140  1  0.57757800  0.24638155  0.55431717  1
  Se  Se141  1  0.57629526  0.58125935  0.04767453  1
  Se  Se142  1  0.59151048  0.59769812  0.57264969  1
  Se  Se143  1  0.58067572  0.91143063  0.04576921  1
  Se  Se144  1  0.58079099  0.91775911  0.55392062  1
  Se  Se145  1  0.92614579  0.25663338  0.05340390  1
  Se  Se146  1  0.90482760  0.25802210  0.56990160  1
  Se  Se147  1  0.92876651  0.59009913  0.05583260  1
  Se  Se148  1  0.92216915  0.58108574  0.56387495  1
  Se  Se149  1  0.91729546  0.92375257  0.06260470  1
  Se  Se150  1  0.89912459  0.90276403  0.55464750  1
  Se  Se151  1  0.09400917  0.25195509  0.45470345  1
  Se  Se152  1  0.07708215  0.24574339  0.93045932  1
  Se  Se153  1  0.07476524  0.58713099  0.44015923  1
  Se  Se154  1  0.08872590  0.58136192  0.94237735  1
  Se  Se155  1  0.11439902  0.90285240  0.46031733  1
  Se  Se156  1  0.08933758  0.91307289  0.94913378  1
  Se  Se157  1  0.42632196  0.25337284  0.44407784  1
  Se  Se158  1  0.41500573  0.24784241  0.94665084  1
  Se  Se159  1  0.41289775  0.58486014  0.44536199  1
  Se  Se160  1  0.41372601  0.58332447  0.94506496  1
  Se  Se161  1  0.41646339  0.90563190  0.45368714  1
  Se  Se162  1  0.42035693  0.91589102  0.93585268  1
  Se  Se163  1  0.75067270  0.24895245  0.44918361  1
  Se  Se164  1  0.73866990  0.25207305  0.93441898  1
  Se  Se165  1  0.73676810  0.59356635  0.44237755  1
  Se  Se166  1  0.74129684  0.58985293  0.93776508  1
  Se  Se167  1  0.74696332  0.92075225  0.45120262  1
  Se  Se168  1  0.74819767  0.92498122  0.92937468  1
  Se  Se169  1  0.29202899  0.06616427  0.45665314  1
  Se  Se170  1  0.25668585  0.07752182  0.93154029  1
  Se  Se171  1  0.26312461  0.41708165  0.44105366  1
  Se  Se172  1  0.24654948  0.41450095  0.94404735  1
  Se  Se173  1  0.24789403  0.74541496  0.44705057  1
  Se  Se174  1  0.25369123  0.75587690  0.94034023  1
  Se  Se175  1  0.58230027  0.08592932  0.45133767  1
  Se  Se176  1  0.57962720  0.08673038  0.93743777  1
  Se  Se177  1  0.58899190  0.41571647  0.44842626  1
  Se  Se178  1  0.57643601  0.41719098  0.94894722  1
  Se  Se179  1  0.57349347  0.75180590  0.44709053  1
  Se  Se180  1  0.58347748  0.75897507  0.94065404  1
  Se  Se181  1  0.94121612  0.06751114  0.46335872  1
  Se  Se182  1  0.92116919  0.07228496  0.93676054  1
  Se  Se183  1  0.92759119  0.40246022  0.44863633  1
  Se  Se184  1  0.91550436  0.40101738  0.92630801  1
  Se  Se185  1  0.91049813  0.75065117  0.45227871  1
  Se  Se186  1  0.92852313  0.74609435  0.94163288  1
  Se  Se187  1  0.25799629  0.24864486  0.30637170  1
  Se  Se188  1  0.24595973  0.24444639  0.79981378  1
  Se  Se189  1  0.25504126  0.59208626  0.29618084  1
  Se  Se190  1  0.24727816  0.57865518  0.80078691  1
  Se  Se191  1  0.23381628  0.92167152  0.32278386  1
  Se  Se192  1  0.25459966  0.91857815  0.79914072  1
  Se  Se193  1  0.58938819  0.25269271  0.30299071  1
  Se  Se194  1  0.57390127  0.25122732  0.80180879  1
  Se  Se195  1  0.57190243  0.57141620  0.31401012  1
  Se  Se196  1  0.57583954  0.58514940  0.81612766  1
  Se  Se197  1  0.56156345  0.91160808  0.31016780  1
  Se  Se198  1  0.60527896  0.94583286  0.79581112  1
  Se  Se199  1  0.91868016  0.23954608  0.31940010  1
  Se  Se200  1  0.92654378  0.25392988  0.78928928  1
  Se  Se201  1  0.90492331  0.57097730  0.30379209  1
  Se  Se202  1  0.91219605  0.57874731  0.80678539  1
  Se  Se203  1  0.92103418  0.92261421  0.32112121  1
  Se  Se204  1  0.92540942  0.91883139  0.79617216  1
  Se  Se205  1  0.09427145  0.08438524  0.32359266  1
  Se  Se206  1  0.08369969  0.07370610  0.79884523  1
  Se  Se207  1  0.09837930  0.42575697  0.30919370  1
  Se  Se208  1  0.07684262  0.40925294  0.79812276  1
  Se  Se209  1  0.07959384  0.76561907  0.32061993  1
  Se  Se210  1  0.09461627  0.75814956  0.80676689  1
  Se  Se211  1  0.42751580  0.08913769  0.31166272  1
  Se  Se212  1  0.41143660  0.08067048  0.79765262  1
  Se  Se213  1  0.41301921  0.41371744  0.30098266  1
  Se  Se214  1  0.41189363  0.41460822  0.80848489  1
  Se  Se215  1  0.40108112  0.74998648  0.30219277  1
  Se  Se216  1  0.42372900  0.75255173  0.79517598  1
  Se  Se217  1  0.75875411  0.08971069  0.32115871  1
  Se  Se218  1  0.77065474  0.11235210  0.79345451  1
  Se  Se219  1  0.74495928  0.40124101  0.30112442  1
  Se  Se220  1  0.75174180  0.42658249  0.79861038  1
  Se  Se221  1  0.74648705  0.75749124  0.31440253  1
  Se  Se222  1  0.76252756  0.76251891  0.80263174  1
  Se  Se223  1  0.24140566  0.09042035  0.19272924  1
  Se  Se224  1  0.25172888  0.07814917  0.68983121  1
  Se  Se225  1  0.25098695  0.41291776  0.19072301  1
  Se  Se226  1  0.24936905  0.41017194  0.69822996  1
  Se  Se227  1  0.24308857  0.76459374  0.19838177  1
  Se  Se228  1  0.25688757  0.74926892  0.69781230  1
  Se  Se229  1  0.57856162  0.07902124  0.19131688  1
  Se  Se230  1  0.57736423  0.08857665  0.68882119  1
  Se  Se231  1  0.58650437  0.40960950  0.19627747  1
  Se  Se232  1  0.57575583  0.42514280  0.69832413  1
  Se  Se233  1  0.57193208  0.75587570  0.18917606  1
  Se  Se234  1  0.58421247  0.76555423  0.69282577  1
  Se  Se235  1  0.92768936  0.07787108  0.20906902  1
  Se  Se236  1  0.91957586  0.08488634  0.69421904  1
  Se  Se237  1  0.91258309  0.41043779  0.18952649  1
  Se  Se238  1  0.90554717  0.41922981  0.70629499  1
  Se  Se239  1  0.90849781  0.76204029  0.20143748  1
  Se  Se240  1  0.92688710  0.76010967  0.68057484  1
  Se  Se241  1  0.09370822  0.24006861  0.19014367  1
  Se  Se242  1  0.08827416  0.24192692  0.68971464  1
  Se  Se243  1  0.08633603  0.57720096  0.18575108  1
  Se  Se244  1  0.08695216  0.57105557  0.68448643  1
  Se  Se245  1  0.07761222  0.92423757  0.20134377  1
  Se  Se246  1  0.08322191  0.92078979  0.69102621  1
  Se  Se247  1  0.41838176  0.24613388  0.19541169  1
  Se  Se248  1  0.40672170  0.25259778  0.69476709  1
  Se  Se249  1  0.41740775  0.58203820  0.19471905  1
  Se  Se250  1  0.41424804  0.58538836  0.70267520  1
  Se  Se251  1  0.41440044  0.92096088  0.18860420  1
  Se  Se252  1  0.41506079  0.92046446  0.69430976  1
  Se  Se253  1  0.76752268  0.22231373  0.19966581  1
  Se  Se254  1  0.71721231  0.27355038  0.69757854  1
  Se  Se255  1  0.75294438  0.57628311  0.18837726  1
  Se  Se256  1  0.76722600  0.58192639  0.69436593  1
  Se  Se257  1  0.75630220  0.91469979  0.19797863  1
  Se  Se258  1  0.75361271  0.92420707  0.69594474  1
