# generated using pymatgen
data_In86Cu29Se144
_symmetry_space_group_name_H-M   'P 1'
_cell_length_a   17.61192814
_cell_length_b   17.61877424
_cell_length_c   23.46641445
_cell_angle_alpha   90.00748383
_cell_angle_beta   90.00575781
_cell_angle_gamma   90.04249006
_symmetry_Int_Tables_number   1
_chemical_formula_structural   In86Cu29Se144
_chemical_formula_sum   'In86 Cu29 Se144'
_cell_volume   7281.64004989
_cell_formula_units_Z   1
loop_
 _symmetry_equiv_pos_site_id
 _symmetry_equiv_pos_as_xyz
  1  'x, y, z'
loop_
 _atom_site_type_symbol
 _atom_site_label
 _atom_site_symmetry_multiplicity
 _atom_site_fract_x
 _atom_site_fract_y
 _atom_site_fract_z
 _atom_site_occupancy
  In  In0  1  0.01252584  0.15457561  0.12152370  1
  In  In1  1  -0.00168433  0.15650497  0.63294802  1
  In  In2  1  0.00304272  0.50382180  0.11622773  1
  In  In3  1  -0.00003414  0.48383772  0.63242668  1
  In  In4  1  -0.00321718  0.85138887  0.11832405  1
  In  In5  1  0.01126664  0.84491323  0.61989523  1
  In  In6  1  0.32708046  0.16529565  0.12206615  1
  In  In7  1  0.33392483  0.16908818  0.63228945  1
  In  In8  1  0.33069966  0.49479049  0.10486481  1
  In  In9  1  0.33522326  0.48892909  0.63809025  1
  In  In10  1  0.34736800  0.82884184  0.12471030  1
  In  In11  1  0.33545378  0.83639731  0.62748436  1
  In  In12  1  0.67171659  0.16724884  0.12514051  1
  In  In13  1  0.65852826  0.16056957  0.63603572  1
  In  In14  1  0.67376231  0.50930928  0.11259513  1
  In  In15  1  0.65691917  0.49397684  0.62652124  1
  In  In16  1  0.65133751  0.82386515  0.11662590  1
  In  In17  1  0.66746366  0.83709413  0.61830785  1
  In  In18  1  0.17833038  -0.00325100  0.38712576  1
  In  In19  1  0.17628756  0.00746981  0.86577655  1
  In  In20  1  0.15891489  0.32683329  0.37939876  1
  In  In21  1  0.16292384  0.34044079  0.87051111  1
  In  In22  1  0.18181121  0.66760062  0.37857333  1
  In  In23  1  0.17837248  0.64391054  0.87454426  1
  In  In24  1  0.49165003  0.00876604  0.38745625  1
  In  In25  1  0.49671441  -0.00394619  0.85432372  1
  In  In26  1  0.50204560  0.33776554  0.39354603  1
  In  In27  1  0.50403081  0.33429491  0.86656140  1
  In  In28  1  0.49982292  0.66259911  0.38242577  1
  In  In29  1  0.48586896  0.67458698  0.87316483  1
  In  In30  1  0.83218777  0.00259139  0.38876150  1
  In  In31  1  0.82871507  -0.00663550  0.85900722  1
  In  In32  1  0.82257779  0.33844132  0.38611120  1
  In  In33  1  0.83744334  0.33386879  0.86671717  1
  In  In34  1  0.83335486  0.68304810  0.37020816  1
  In  In35  1  0.82968881  0.66746414  0.88455518  1
  In  In36  1  0.00826659  0.15684486  0.39133100  1
  In  In37  1  0.00987854  0.17901455  0.85996326  1
  In  In38  1  -0.00127543  0.48770986  0.37338857  1
  In  In39  1  0.01051343  0.47954008  0.88188749  1
  In  In40  1  -0.00592575  0.84360042  0.38362097  1
  In  In41  1  -0.00906617  0.82812478  0.87486805  1
  In  In42  1  0.34456130  0.16143931  0.38862731  1
  In  In43  1  0.33170218  0.16351560  0.86566016  1
  In  In44  1  0.34175873  0.50699919  0.37846406  1
  In  In45  1  0.32776177  0.50461388  0.86747574  1
  In  In46  1  0.32052588  0.84106439  0.39497321  1
  In  In47  1  0.34882472  0.83752086  0.86000968  1
  In  In48  1  0.66788087  0.16847995  0.39363542  1
  In  In49  1  0.67052478  0.16211287  0.84126160  1
  In  In50  1  0.65114191  0.50308566  0.37777019  1
  In  In51  1  0.67237264  0.49357708  0.88184238  1
  In  In52  1  0.67110512  0.83022354  0.37855677  1
  In  In53  1  0.65806014  0.84189148  0.86792412  1
  In  In54  1  0.16963536  0.01229463  0.11978229  1
  In  In55  1  0.16827284  0.00199168  0.63054023  1
  In  In56  1  0.17484124  0.33403275  0.10834021  1
  In  In57  1  0.19192910  0.32258190  0.64818190  1
  In  In58  1  0.17817117  0.66408110  0.12439442  1
  In  In59  1  0.17026273  0.67790093  0.61918660  1
  In  In60  1  0.50465058  -0.01230175  0.12269231  1
  In  In61  1  0.49319959  -0.00697276  0.63086366  1
  In  In62  1  0.48965794  0.33794968  0.11663141  1
  In  In63  1  0.49855294  0.33130869  0.63545775  1
  In  In64  1  0.50310541  0.67082090  0.11740623  1
  In  In65  1  0.49008878  0.66380171  0.61442448  1
  In  In66  1  0.84338217  0.00700006  0.11794206  1
  In  In67  1  0.83180782  -0.00028222  0.62851509  1
  In  In68  1  0.82253630  0.33603605  0.12106332  1
  In  In69  1  0.84681170  0.29682305  0.65835460  1
  In  In70  1  0.82162341  0.66136938  0.11453984  1
  In  In71  1  0.82649095  0.66940562  0.62057080  1
  In  In72  1  0.33128220  0.33488051  0.24212713  1
  In  In73  1  0.83681399  0.17048363  -0.01468051  1
  In  In74  1  -0.00002705  0.33100062  0.25076328  1
  In  In75  1  0.82341067  0.49682089  0.50972568  1
  In  In76  1  0.49906163  0.16142023  -0.02168907  1
  In  In77  1  0.65937704  0.66943197  0.74144552  1
  In  In78  1  0.00353681  -0.00084731  0.25666107  1
  In  In79  1  0.16921361  0.82904605  0.00246293  1
  In  In80  1  0.66701577  -0.00551741  0.25323440  1
  In  In81  1  0.65862658  0.33786246  0.25740394  1
  In  In82  1  0.16744565  0.49825131  0.49981041  1
  In  In83  1  -0.00129339  0.67336470  0.24255643  1
  In  In84  1  0.00562424  0.66589213  0.75609940  1
  In  In85  1  0.34166599  0.66509549  0.25289410  1
  Cu  Cu86  1  0.33550607  0.33167156  0.51410506  1
  Cu  Cu87  1  0.67070786  0.32395163  0.51658633  1
  Cu  Cu88  1  0.66257594  0.00371642  0.51038811  1
  Cu  Cu89  1  0.65941365  0.67088784  -0.00612131  1
  Cu  Cu90  1  0.17791420  0.16526446  0.24659022  1
  Cu  Cu91  1  0.50156945  0.50422837  0.75109807  1
  Cu  Cu92  1  0.00280386  0.32146521  0.51257461  1
  Cu  Cu93  1  0.17083053  0.83564874  0.74766943  1
  Cu  Cu94  1  0.33528536  0.66808525  -0.00494657  1
  Cu  Cu95  1  0.66874582  -0.00534159  -0.01206424  1
  Cu  Cu96  1  0.16205913  0.16443876  0.74995598  1
  Cu  Cu97  1  0.83830688  0.82985817  0.74759069  1
  Cu  Cu98  1  0.83858412  0.17183657  0.26210561  1
  Cu  Cu99  1  0.50088982  0.50209323  0.24924485  1
  Cu  Cu100  1  0.82921618  0.51001238  0.24163539  1
  Cu  Cu101  1  0.16812974  0.83639244  0.26246095  1
  Cu  Cu102  1  0.82102550  0.83206683  0.24613776  1
  Cu  Cu103  1  0.66657170  0.67127282  0.49941762  1
  Cu  Cu104  1  -0.00581093  0.66496224  -0.00499533  1
  Cu  Cu105  1  0.33158793  0.00658014  0.51291686  1
  Cu  Cu106  1  -0.00299018  0.32737576  -0.00725119  1
  Cu  Cu107  1  0.49628642  0.15982092  0.26015784  1
  Cu  Cu108  1  0.49404521  0.83481924  0.24882172  1
  Cu  Cu109  1  0.66064975  0.32732836  -0.00632968  1
  Cu  Cu110  1  0.00182524  0.00233840  -0.00742866  1
  Cu  Cu111  1  0.83395131  0.49690802  0.75749290  1
  Cu  Cu112  1  -0.00259820  0.00375516  0.50946679  1
  Cu  Cu113  1  -0.00278874  0.67054574  0.49944228  1
  Cu  Cu114  1  0.34371812  -0.00239817  -0.01216018  1
  Se  Se115  1  0.08892673  0.08350862  0.04445716  1
  Se  Se116  1  0.08441840  0.08452539  0.56037798  1
  Se  Se117  1  0.07679680  0.41200407  0.05008158  1
  Se  Se118  1  0.08808789  0.40468971  0.56390900  1
  Se  Se119  1  0.07254602  0.74135954  0.06168575  1
  Se  Se120  1  0.08262266  0.75341231  0.55023840  1
  Se  Se121  1  0.41998866  0.07809371  0.05342052  1
  Se  Se122  1  0.41880376  0.08755400  0.56381321  1
  Se  Se123  1  0.41491079  0.41107053  0.04203256  1
  Se  Se124  1  0.41908940  0.41728288  0.56368824  1
  Se  Se125  1  0.41888257  0.75293500  0.04838328  1
  Se  Se126  1  0.41372743  0.75891514  0.55308702  1
  Se  Se127  1  0.74287878  0.07949831  0.04912309  1
  Se  Se128  1  0.74628871  0.08579342  0.56319649  1
  Se  Se129  1  0.74458529  0.41041031  0.04801847  1
  Se  Se130  1  0.75583600  0.40011467  0.57575941  1
  Se  Se131  1  0.74443011  0.75258676  0.04930889  1
  Se  Se132  1  0.75263766  0.75320560  0.54988066  1
  Se  Se133  1  0.25326559  0.24141256  0.04880393  1
  Se  Se134  1  0.24676875  0.24948560  0.56142443  1
  Se  Se135  1  0.24617763  0.58843310  0.04625336  1
  Se  Se136  1  0.25800683  0.58033446  0.56173733  1
  Se  Se137  1  0.26366991  0.92425501  0.05526394  1
  Se  Se138  1  0.24616559  0.91837505  0.55936168  1
  Se  Se139  1  0.58507122  0.24625129  0.05552997  1
  Se  Se140  1  0.57827996  0.24623141  0.56535778  1
  Se  Se141  1  0.57948825  0.58397757  0.04817334  1
  Se  Se142  1  0.59120650  0.58540426  0.55544933  1
  Se  Se143  1  0.58469165  0.91891427  0.04700878  1
  Se  Se144  1  0.57556122  0.91690158  0.55531419  1
  Se  Se145  1  0.92193744  0.24978167  0.06121080  1
  Se  Se146  1  0.91433839  0.24575763  0.56704809  1
  Se  Se147  1  0.91282751  0.58082907  0.05138163  1
  Se  Se148  1  0.92748777  0.58448074  0.56073527  1
  Se  Se149  1  0.91389899  0.92254699  0.04450461  1
  Se  Se150  1  0.91254883  0.91667671  0.55683691  1
  Se  Se151  1  0.08935431  0.24642552  0.45502242  1
  Se  Se152  1  0.08400930  0.24903424  0.93969511  1
  Se  Se153  1  0.07260989  0.58758698  0.43733962  1
  Se  Se154  1  0.07945569  0.58310312  0.94315720  1
  Se  Se155  1  0.07918623  0.92448286  0.44943527  1
  Se  Se156  1  0.08506686  0.91829021  0.93754685  1
  Se  Se157  1  0.41978709  0.25049044  0.45686921  1
  Se  Se158  1  0.40570779  0.26031979  0.93559994  1
  Se  Se159  1  0.42686480  0.57226354  0.45047388  1
  Se  Se160  1  0.41424756  0.58226722  0.94030092  1
  Se  Se161  1  0.41271430  0.92297449  0.45553442  1
  Se  Se162  1  0.42728341  0.91841181  0.93341451  1
  Se  Se163  1  0.75654048  0.25002628  0.45759935  1
  Se  Se164  1  0.73265543  0.24622649  0.92866750  1
  Se  Se165  1  0.74919769  0.58980677  0.43926861  1
  Se  Se166  1  0.74774671  0.58261568  0.95026947  1
  Se  Se167  1  0.74113712  0.92161069  0.44919653  1
  Se  Se168  1  0.75367582  0.91488518  0.93448244  1
  Se  Se169  1  0.24990711  0.08920117  0.45470639  1
  Se  Se170  1  0.25699074  0.08131160  0.94020328  1
  Se  Se171  1  0.26117530  0.40457747  0.44228402  1
  Se  Se172  1  0.23169974  0.43794442  0.93553019  1
  Se  Se173  1  0.25365970  0.73828640  0.45550202  1
  Se  Se174  1  0.25764225  0.75081215  0.93393887  1
  Se  Se175  1  0.57931122  0.08694924  0.45535997  1
  Se  Se176  1  0.59886519  0.07737090  0.92401051  1
  Se  Se177  1  0.59893847  0.41228503  0.45565547  1
  Se  Se178  1  0.57834200  0.41252694  0.94290220  1
  Se  Se179  1  0.58228500  0.75287071  0.44570029  1
  Se  Se180  1  0.58181098  0.75313771  0.93577675  1
  Se  Se181  1  0.91219901  0.08721735  0.45606586  1
  Se  Se182  1  0.92425657  0.07787116  0.92853810  1
  Se  Se183  1  0.92640216  0.40778099  0.45352938  1
  Se  Se184  1  0.90852879  0.41083650  0.94550072  1
  Se  Se185  1  0.91213691  0.75300002  0.44652653  1
  Se  Se186  1  0.91234023  0.75465702  0.95003314  1
  Se  Se187  1  0.25121794  0.24523243  0.31104098  1
  Se  Se188  1  0.24365430  0.24942464  0.80408098  1
  Se  Se189  1  0.24484781  0.57154279  0.30550380  1
  Se  Se190  1  0.25697937  0.59046476  0.79210626  1
  Se  Se191  1  0.25440880  0.91709813  0.31303753  1
  Se  Se192  1  0.25674720  0.92012409  0.79922851  1
  Se  Se193  1  0.57511976  0.24174752  0.31744411  1
  Se  Se194  1  0.55150677  0.22618131  0.79727544  1
  Se  Se195  1  0.57896028  0.58671180  0.30499669  1
  Se  Se196  1  0.58329811  0.58088323  0.81218984  1
  Se  Se197  1  0.57172166  0.91278339  0.31292058  1
  Se  Se198  1  0.60140012  0.93322491  0.79055202  1
  Se  Se199  1  0.91582315  0.24868321  0.32265471  1
  Se  Se200  1  0.91126199  0.24862069  0.79719281  1
  Se  Se201  1  0.91270139  0.57929246  0.30685767  1
  Se  Se202  1  0.91279478  0.57849783  0.81598965  1
  Se  Se203  1  0.89929229  0.91251536  0.30724769  1
  Se  Se204  1  0.92405963  0.91077953  0.79939720  1
  Se  Se205  1  0.09580279  0.09154326  0.31095740  1
  Se  Se206  1  0.07929041  0.07545612  0.79949423  1
  Se  Se207  1  0.09629838  0.42282514  0.30353888  1
  Se  Se208  1  0.07317303  0.41121169  0.79844438  1
  Se  Se209  1  0.08372697  0.75584087  0.31536119  1
  Se  Se210  1  0.09847460  0.75577173  0.81475660  1
  Se  Se211  1  0.41074323  0.07924114  0.31046798  1
  Se  Se212  1  0.43872201  0.11031024  0.79891193  1
  Se  Se213  1  0.42707062  0.41560886  0.30892707  1
  Se  Se214  1  0.41781402  0.42003260  0.80327968  1
  Se  Se215  1  0.41752535  0.76072283  0.31632006  1
  Se  Se216  1  0.42558566  0.75114794  0.79184383  1
  Se  Se217  1  0.75234638  0.09073220  0.31450649  1
  Se  Se218  1  0.77993503  0.09582455  0.78815044  1
  Se  Se219  1  0.75692303  0.43079291  0.30932130  1
  Se  Se220  1  0.74330969  0.41521349  0.80489414  1
  Se  Se221  1  0.74063734  0.74936047  0.30011645  1
  Se  Se222  1  0.75650961  0.74978790  0.80511124  1
  Se  Se223  1  0.25647311  0.07755738  0.19468173  1
  Se  Se224  1  0.25153771  0.08272167  0.70054162  1
  Se  Se225  1  0.24310551  0.42606341  0.18427860  1
  Se  Se226  1  0.23188427  0.43896383  0.70815339  1
  Se  Se227  1  0.24531236  0.75996564  0.19640347  1
  Se  Se228  1  0.25021476  0.74910019  0.69491902  1
  Se  Se229  1  0.57909206  0.09006855  0.19456077  1
  Se  Se230  1  0.60230670  0.04767509  0.69757139  1
  Se  Se231  1  0.57818426  0.42225424  0.18660471  1
  Se  Se232  1  0.58503765  0.41626622  0.70297558  1
  Se  Se233  1  0.57555929  0.75118790  0.19426253  1
  Se  Se234  1  0.57063720  0.75890017  0.68484635  1
  Se  Se235  1  0.91266496  0.09456609  0.19751197  1
  Se  Se236  1  0.90365462  0.08611797  0.70197827  1
  Se  Se237  1  0.90849344  0.42290390  0.18998284  1
  Se  Se238  1  0.91680667  0.41265894  0.70534359  1
  Se  Se239  1  0.90780793  0.76284207  0.18383577  1
  Se  Se240  1  0.91791594  0.74950714  0.68820943  1
  Se  Se241  1  0.09407732  0.24394790  0.18937841  1
  Se  Se242  1  0.08056609  0.24939820  0.69708974  1
  Se  Se243  1  0.09097728  0.57747985  0.19207232  1
  Se  Se244  1  0.08640477  0.58355040  0.68608744  1
  Se  Se245  1  0.09403037  0.91132136  0.19365683  1
  Se  Se246  1  0.08214741  0.91844960  0.69940426  1
  Se  Se247  1  0.42863713  0.24007706  0.19155259  1
  Se  Se248  1  0.38572233  0.27954181  0.69566509  1
  Se  Se249  1  0.41826078  0.57364325  0.18459772  1
  Se  Se250  1  0.42197643  0.58504996  0.69390480  1
  Se  Se251  1  0.41518525  0.92065734  0.19520398  1
  Se  Se252  1  0.39972854  0.92738142  0.70117298  1
  Se  Se253  1  0.75706912  0.24602588  0.20070038  1
  Se  Se254  1  0.71943584  0.26152591  0.70406616  1
  Se  Se255  1  0.74214689  0.58896583  0.19124819  1
  Se  Se256  1  0.75923885  0.57429662  0.69262232  1
  Se  Se257  1  0.75311529  0.91701264  0.18184270  1
  Se  Se258  1  0.75214558  0.90705502  0.69309018  1
