# generated using pymatgen
data_In86Cu29Se144
_symmetry_space_group_name_H-M   'P 1'
_cell_length_a   17.70540915
_cell_length_b   17.71609167
_cell_length_c   23.52960113
_cell_angle_alpha   89.99123782
_cell_angle_beta   90.00144264
_cell_angle_gamma   89.92943055
_symmetry_Int_Tables_number   1
_chemical_formula_structural   In86Cu29Se144
_chemical_formula_sum   'In86 Cu29 Se144'
_cell_volume   7380.53963086
_cell_formula_units_Z   1
loop_
 _symmetry_equiv_pos_site_id
 _symmetry_equiv_pos_as_xyz
  1  'x, y, z'
loop_
 _atom_site_type_symbol
 _atom_site_label
 _atom_site_symmetry_multiplicity
 _atom_site_fract_x
 _atom_site_fract_y
 _atom_site_fract_z
 _atom_site_occupancy
  In  In0  1  -0.00188338  0.17526495  0.12607700  1
  In  In1  1  0.00247236  0.17282595  0.62040578  1
  In  In2  1  -0.01171925  0.50169022  0.11685152  1
  In  In3  1  0.00199933  0.49283639  0.63121734  1
  In  In4  1  0.01067929  0.83335645  0.13205054  1
  In  In5  1  -0.01233258  0.81520496  0.61746724  1
  In  In6  1  0.32101334  0.17806984  0.13479344  1
  In  In7  1  0.32451158  0.17206499  0.62923061  1
  In  In8  1  0.32839517  0.50106963  0.12481310  1
  In  In9  1  0.33210363  0.49225570  0.62219298  1
  In  In10  1  0.33922971  0.83289173  0.12968399  1
  In  In11  1  0.29777094  0.79430843  0.57178528  1
  In  In12  1  0.67592999  0.16418944  0.13516672  1
  In  In13  1  0.67864059  0.16292241  0.62265311  1
  In  In14  1  0.67127663  0.49328868  0.12966692  1
  In  In15  1  0.68652288  0.54144600  0.59080495  1
  In  In16  1  0.67895612  0.83578915  0.13586466  1
  In  In17  1  0.64811771  0.79030848  0.58130943  1
  In  In18  1  0.16380533  0.00052358  0.37902913  1
  In  In19  1  0.16945115  -0.00398987  0.87921076  1
  In  In20  1  0.16107572  0.33500957  0.37180917  1
  In  In21  1  0.16181242  0.32028876  0.87219471  1
  In  In22  1  0.16926714  0.67504646  0.39009871  1
  In  In23  1  0.11192294  0.60708763  0.80983123  1
  In  In24  1  0.50020944  0.00223547  0.36940018  1
  In  In25  1  0.49798773  -0.01578888  0.87731954  1
  In  In26  1  0.50024400  0.33853231  0.36953361  1
  In  In27  1  0.49436650  0.34071285  0.87326506  1
  In  In28  1  0.50277412  0.66314057  0.42038145  1
  In  In29  1  0.48456251  0.65164982  0.86076500  1
  In  In30  1  0.84442635  0.01620299  0.37427600  1
  In  In31  1  0.84198657  0.00288192  0.87940229  1
  In  In32  1  0.83591005  0.34082031  0.37835251  1
  In  In33  1  0.83331399  0.32221595  0.88907707  1
  In  In34  1  0.82743837  0.66141978  0.39254203  1
  In  In35  1  0.82008656  0.63882367  0.84671342  1
  In  In36  1  -0.00177518  0.17375302  0.37703457  1
  In  In37  1  -0.00718921  0.17268750  0.88597504  1
  In  In38  1  0.00806274  0.49681650  0.38314344  1
  In  In39  1  -0.03664861  0.43490655  0.82499200  1
  In  In40  1  -0.01600545  0.86245094  0.40678455  1
  In  In41  1  0.00925058  0.81980303  0.86605583  1
  In  In42  1  0.31939092  0.15805166  0.36515681  1
  In  In43  1  0.31768367  0.16073522  0.88225600  1
  In  In44  1  0.33791036  0.49688575  0.38630199  1
  In  In45  1  0.28571859  0.46474870  0.81593890  1
  In  In46  1  0.33251707  0.84620265  0.38376471  1
  In  In47  1  0.32985263  0.82171736  0.86779411  1
  In  In48  1  0.68057534  0.18693729  0.36675898  1
  In  In49  1  0.66881383  0.17236698  0.88312971  1
  In  In50  1  0.67402107  0.49448945  0.38874528  1
  In  In51  1  0.65442333  0.50483165  0.87206589  1
  In  In52  1  0.66022217  0.84239304  0.38735554  1
  In  In53  1  0.67647536  0.82548792  0.86968327  1
  In  In54  1  0.14744550  0.01913952  0.14276326  1
  In  In55  1  0.14537451  -0.00573729  0.59128747  1
  In  In56  1  0.17676617  0.32476406  0.13144438  1
  In  In57  1  0.16876729  0.33242165  0.62942208  1
  In  In58  1  0.17195187  0.66869335  0.12109340  1
  In  In59  1  0.17682317  0.65278113  0.62418278  1
  In  In60  1  0.49897466  0.00116949  0.14085773  1
  In  In61  1  0.50740721  -0.01171284  0.61640713  1
  In  In62  1  0.49547507  0.34453505  0.13847920  1
  In  In63  1  0.48031123  0.33033250  0.63060134  1
  In  In64  1  0.49630132  0.67010244  0.12426683  1
  In  In65  1  0.48809250  0.66427536  0.61590939  1
  In  In66  1  0.82560916  0.01176751  0.13910260  1
  In  In67  1  0.84134765  -0.00676536  0.61477907  1
  In  In68  1  0.83775418  0.33906626  0.12630751  1
  In  In69  1  0.83745087  0.34562500  0.63044564  1
  In  In70  1  0.84239982  0.66384482  0.11935157  1
  In  In71  1  0.83607669  0.66465129  0.63101015  1
  In  In72  1  0.00441570  0.66943757  0.25989268  1
  In  In73  1  0.66791305  0.66340465  0.27090707  1
  In  In74  1  0.50012125  0.16903888  0.00827547  1
  In  In75  1  0.33510417  0.67377216  0.27273511  1
  In  In76  1  0.66064943  0.33821726  0.74012993  1
  In  In77  1  0.68053882  0.00121591  0.74521444  1
  In  In78  1  0.14938364  0.49336410  -0.02913782  1
  In  In79  1  0.00212515  -0.00505299  0.74043000  1
  In  In80  1  0.49925996  0.50477424  0.00307030  1
  In  In81  1  0.50538926  0.17351242  0.48949110  1
  In  In82  1  0.84386011  0.83465602  -0.00236748  1
  In  In83  1  0.50025153  0.83130619  0.00251540  1
  In  In84  1  0.33648629  0.00227758  0.73548527  1
  In  In85  1  0.16958331  0.83432445  0.00073343  1
  Cu  Cu86  1  -0.00002332  0.34160573  0.50283008  1
  Cu  Cu87  1  0.17750558  0.83161754  0.73261985  1
  Cu  Cu88  1  0.66900934  0.67051941  -0.01084054  1
  Cu  Cu89  1  0.33992003  0.01208896  0.49388104  1
  Cu  Cu90  1  0.66937268  0.00350623  0.01026375  1
  Cu  Cu91  1  0.32047497  0.65847553  -0.01232507  1
  Cu  Cu92  1  0.00780378  0.65250755  0.50856960  1
  Cu  Cu93  1  0.16933491  0.83780927  0.26000987  1
  Cu  Cu94  1  0.49818333  0.15937004  0.75244889  1
  Cu  Cu95  1  -0.00111138  0.00393143  0.00860137  1
  Cu  Cu96  1  0.00233759  0.33879437  -0.00406440  1
  Cu  Cu97  1  0.67428005  0.33339907  0.00948092  1
  Cu  Cu98  1  0.32535170  0.00279448  0.00892838  1
  Cu  Cu99  1  0.50299891  0.17070927  0.25259946  1
  Cu  Cu100  1  0.83248677  0.49813305  0.25349680  1
  Cu  Cu101  1  0.15885343  0.16258094  0.74992555  1
  Cu  Cu102  1  0.49653741  0.51122276  0.26100187  1
  Cu  Cu103  1  0.32066999  0.32374445  0.50118231  1
  Cu  Cu104  1  0.83315143  0.82836877  0.74255979  1
  Cu  Cu105  1  -0.00650686  0.66240560  -0.01256380  1
  Cu  Cu106  1  0.84114131  0.17757705  0.25150710  1
  Cu  Cu107  1  0.16104062  0.16964622  0.25387892  1
  Cu  Cu108  1  0.49972464  0.50621915  0.74009882  1
  Cu  Cu109  1  0.66617393  0.33045314  0.49871505  1
  Cu  Cu110  1  0.51108049  0.82621444  0.73659967  1
  Cu  Cu111  1  0.68424974  0.01032344  0.49473019  1
  Cu  Cu112  1  0.84108121  0.84292308  0.26019692  1
  Cu  Cu113  1  0.16085508  0.49867876  0.25088216  1
  Cu  Cu114  1  0.50326027  0.82830581  0.26094612  1
  Se  Se115  1  0.08213859  0.08736226  0.05956256  1
  Se  Se116  1  0.05193688  0.08189539  0.54003848  1
  Se  Se117  1  0.08419238  0.41759096  0.05620141  1
  Se  Se118  1  0.08674148  0.41605761  0.56027848  1
  Se  Se119  1  0.06980254  0.73937065  0.05398285  1
  Se  Se120  1  0.08792585  0.73872287  0.56002773  1
  Se  Se121  1  0.41163051  0.07635235  0.06681230  1
  Se  Se122  1  0.42124824  0.09011750  0.55889370  1
  Se  Se123  1  0.40978780  0.41044776  0.05831310  1
  Se  Se124  1  0.40900467  0.40345106  0.55193045  1
  Se  Se125  1  0.39896403  0.73660527  0.05141422  1
  Se  Se126  1  0.43680433  0.76754826  0.54527666  1
  Se  Se127  1  0.75303362  0.08578822  0.06037790  1
  Se  Se128  1  0.76315884  0.08969159  0.55253079  1
  Se  Se129  1  0.75480480  0.42408490  0.05645691  1
  Se  Se130  1  0.74125314  0.41003005  0.56058990  1
  Se  Se131  1  0.74354559  0.74782412  0.05554097  1
  Se  Se132  1  0.78924654  0.76971464  0.56037242  1
  Se  Se133  1  0.25718047  0.25647518  0.05625990  1
  Se  Se134  1  0.24067298  0.24264237  0.55660960  1
  Se  Se135  1  0.24385811  0.57871148  0.05019034  1
  Se  Se136  1  0.26591493  0.58462544  0.54993392  1
  Se  Se137  1  0.24816750  0.92161076  0.07007003  1
  Se  Se138  1  0.27880803  0.94259132  0.57057061  1
  Se  Se139  1  0.58749515  0.26067328  0.06884913  1
  Se  Se140  1  0.58700400  0.25328356  0.56246411  1
  Se  Se141  1  0.59488293  0.59642535  0.05892178  1
  Se  Se142  1  0.55787446  0.57131443  0.54541428  1
  Se  Se143  1  0.59018241  0.91958429  0.06561689  1
  Se  Se144  1  0.60330041  0.92680105  0.54873797  1
  Se  Se145  1  0.92054370  0.26014797  0.05542911  1
  Se  Se146  1  0.91647558  0.26312366  0.55994214  1
  Se  Se147  1  0.91214326  0.58330196  0.04416005  1
  Se  Se148  1  0.92060093  0.57843089  0.56387722  1
  Se  Se149  1  0.92122040  0.92148990  0.06788607  1
  Se  Se150  1  0.92442410  0.91022478  0.54915002  1
  Se  Se151  1  0.07951027  0.25925797  0.44513547  1
  Se  Se152  1  0.08583262  0.24873843  0.95002622  1
  Se  Se153  1  0.09267717  0.57810683  0.45025243  1
  Se  Se154  1  0.08238682  0.60453636  0.92396820  1
  Se  Se155  1  0.10748813  0.90628095  0.45343225  1
  Se  Se156  1  0.06806748  0.91947785  0.94379971  1
  Se  Se157  1  0.40386644  0.25396851  0.43450721  1
  Se  Se158  1  0.41303891  0.25094844  0.94132764  1
  Se  Se159  1  0.38126294  0.60019479  0.45852490  1
  Se  Se160  1  0.40717305  0.57758874  0.93642450  1
  Se  Se161  1  0.42516783  0.92719568  0.44613061  1
  Se  Se162  1  0.39924797  0.91862246  0.94744201  1
  Se  Se163  1  0.75537684  0.25340654  0.44701405  1
  Se  Se164  1  0.74940235  0.24231882  0.95787993  1
  Se  Se165  1  0.74577453  0.58054317  0.45976949  1
  Se  Se166  1  0.74636943  0.58553723  0.93492971  1
  Se  Se167  1  0.76058554  0.92514341  0.43893717  1
  Se  Se168  1  0.74098562  0.92237671  0.94390473  1
  Se  Se169  1  0.24834268  0.08790632  0.44555129  1
  Se  Se170  1  0.24009905  0.07916072  0.95339619  1
  Se  Se171  1  0.24628073  0.41107093  0.44381255  1
  Se  Se172  1  0.25974438  0.41477579  0.92523177  1
  Se  Se173  1  0.25159730  0.76434251  0.45311665  1
  Se  Se174  1  0.24129502  0.74293397  0.93347582  1
  Se  Se175  1  0.59922333  0.08485566  0.43364501  1
  Se  Se176  1  0.58461591  0.07165444  0.94532362  1
  Se  Se177  1  0.57930398  0.40996707  0.44602119  1
  Se  Se178  1  0.59014654  0.40673273  0.94733532  1
  Se  Se179  1  0.61001803  0.74587060  0.46249407  1
  Se  Se180  1  0.58045430  0.74421160  0.93374717  1
  Se  Se181  1  0.93438862  0.07984708  0.44938968  1
  Se  Se182  1  0.91436156  0.08320211  0.95284085  1
  Se  Se183  1  0.91535524  0.42387119  0.44931933  1
  Se  Se184  1  0.92717343  0.41989067  0.93373267  1
  Se  Se185  1  0.93451409  0.73327830  0.44484185  1
  Se  Se186  1  0.91121335  0.74115320  0.92829168  1
  Se  Se187  1  0.24678513  0.25495301  0.30225588  1
  Se  Se188  1  0.24811570  0.23731370  0.80457453  1
  Se  Se189  1  0.23712486  0.57806933  0.31473403  1
  Se  Se190  1  0.26055374  0.60639883  0.81341191  1
  Se  Se191  1  0.25385249  0.92217704  0.30949139  1
  Se  Se192  1  0.24475479  0.91373275  0.80123174  1
  Se  Se193  1  0.58471957  0.25800589  0.30195517  1
  Se  Se194  1  0.57740272  0.24176544  0.81008499  1
  Se  Se195  1  0.56886550  0.58480288  0.32935449  1
  Se  Se196  1  0.58369537  0.58471888  0.79631949  1
  Se  Se197  1  0.58869722  0.91510536  0.30736721  1
  Se  Se198  1  0.58166533  0.90903594  0.80203569  1
  Se  Se199  1  0.91931526  0.26013721  0.30848070  1
  Se  Se200  1  0.92440998  0.26016914  0.81408269  1
  Se  Se201  1  0.90826275  0.58082874  0.31399455  1
  Se  Se202  1  0.94435985  0.58368421  0.80861568  1
  Se  Se203  1  0.92718992  0.91943080  0.31421126  1
  Se  Se204  1  0.90955266  0.90838597  0.80625498  1
  Se  Se205  1  0.08326975  0.08685081  0.31098359  1
  Se  Se206  1  0.08298668  0.08094485  0.81181176  1
  Se  Se207  1  0.07609048  0.41955627  0.30406716  1
  Se  Se208  1  0.10818706  0.42522719  0.80566570  1
  Se  Se209  1  0.08856104  0.76021924  0.31949683  1
  Se  Se210  1  0.09476721  0.75738427  0.79245485  1
  Se  Se211  1  0.41850723  0.08619018  0.30271822  1
  Se  Se212  1  0.41968487  0.07994366  0.81354541  1
  Se  Se213  1  0.41107181  0.42418729  0.30706037  1
  Se  Se214  1  0.42475917  0.41760561  0.79646136  1
  Se  Se215  1  0.43500757  0.75204731  0.32979136  1
  Se  Se216  1  0.42448993  0.75815086  0.79905154  1
  Se  Se217  1  0.75863619  0.09312689  0.30444297  1
  Se  Se218  1  0.75880656  0.09218820  0.81281510  1
  Se  Se219  1  0.74745866  0.42147834  0.30971400  1
  Se  Se220  1  0.74268479  0.40782387  0.81760106  1
  Se  Se221  1  0.76225650  0.75946829  0.31847175  1
  Se  Se222  1  0.74594497  0.74637171  0.79438156  1
  Se  Se223  1  0.25005737  0.08589596  0.20281890  1
  Se  Se224  1  0.22888756  0.08021396  0.68506904  1
  Se  Se225  1  0.24882915  0.42345366  0.19564810  1
  Se  Se226  1  0.25839860  0.41087731  0.69809854  1
  Se  Se227  1  0.24496468  0.75323580  0.19919602  1
  Se  Se228  1  0.26128030  0.75490750  0.67616819  1
  Se  Se229  1  0.58692849  0.08539483  0.20128381  1
  Se  Se230  1  0.57853868  0.08673626  0.69002032  1
  Se  Se231  1  0.57878836  0.43291854  0.20151149  1
  Se  Se232  1  0.57512690  0.42496683  0.67909888  1
  Se  Se233  1  0.58132165  0.74886938  0.19814993  1
  Se  Se234  1  0.58652074  0.74492276  0.67652531  1
  Se  Se235  1  0.92072215  0.09056667  0.19807877  1
  Se  Se236  1  0.91050947  0.08736008  0.68897933  1
  Se  Se237  1  0.91856348  0.42557307  0.19484338  1
  Se  Se238  1  0.91526932  0.42182305  0.70578830  1
  Se  Se239  1  0.90865642  0.75619887  0.19587465  1
  Se  Se240  1  0.92455354  0.74352555  0.70102559  1
  Se  Se241  1  0.08270082  0.25411189  0.19660751  1
  Se  Se242  1  0.08091170  0.24869447  0.69534472  1
  Se  Se243  1  0.08720013  0.58314052  0.18901275  1
  Se  Se244  1  0.09547078  0.57309797  0.69400675  1
  Se  Se245  1  0.08248445  0.91517592  0.20444751  1
  Se  Se246  1  0.09153939  0.91042157  0.67731956  1
  Se  Se247  1  0.41703821  0.25151571  0.19932889  1
  Se  Se248  1  0.41150990  0.24114091  0.70203668  1
  Se  Se249  1  0.41709610  0.58811727  0.19782837  1
  Se  Se250  1  0.41007453  0.58408370  0.68888310  1
  Se  Se251  1  0.42018092  0.90662568  0.20215629  1
  Se  Se252  1  0.42499772  0.90680745  0.68424913  1
  Se  Se253  1  0.75544482  0.25740095  0.19610306  1
  Se  Se254  1  0.75846900  0.24288840  0.69596659  1
  Se  Se255  1  0.75651655  0.58744343  0.19633907  1
  Se  Se256  1  0.74375034  0.57805048  0.68757552  1
  Se  Se257  1  0.75241597  0.91912021  0.20612812  1
  Se  Se258  1  0.75587218  0.90850651  0.68241976  1
