# generated using pymatgen
data_In86Cu29Se144
_symmetry_space_group_name_H-M   'P 1'
_cell_length_a   17.58413653
_cell_length_b   17.58408945
_cell_length_c   23.43567994
_cell_angle_alpha   89.97516273
_cell_angle_beta   89.98906479
_cell_angle_gamma   90.01091148
_symmetry_Int_Tables_number   1
_chemical_formula_structural   In86Cu29Se144
_chemical_formula_sum   'In86 Cu29 Se144'
_cell_volume   7246.33542638
_cell_formula_units_Z   1
loop_
 _symmetry_equiv_pos_site_id
 _symmetry_equiv_pos_as_xyz
  1  'x, y, z'
loop_
 _atom_site_type_symbol
 _atom_site_label
 _atom_site_symmetry_multiplicity
 _atom_site_fract_x
 _atom_site_fract_y
 _atom_site_fract_z
 _atom_site_occupancy
  In  In0  1  0.01241357  0.16464028  0.12616135  1
  In  In1  1  0.00197970  0.18403869  0.62688482  1
  In  In2  1  -0.00727805  0.50811032  0.12461055  1
  In  In3  1  -0.00635080  0.50702552  0.63471935  1
  In  In4  1  0.00663355  0.82166838  0.12723167  1
  In  In5  1  0.00097133  0.82046423  0.62598870  1
  In  In6  1  0.33001791  0.16475990  0.12488410  1
  In  In7  1  0.31617316  0.15814886  0.62801209  1
  In  In8  1  0.34614410  0.49834046  0.13286795  1
  In  In9  1  0.33978093  0.51140790  0.62919533  1
  In  In10  1  0.32970850  0.83636035  0.12402003  1
  In  In11  1  0.32970199  0.82978714  0.62507051  1
  In  In12  1  0.66571548  0.17172294  0.13658838  1
  In  In13  1  0.66398607  0.15032077  0.62044534  1
  In  In14  1  0.65744724  0.49476459  0.12162249  1
  In  In15  1  0.67831127  0.49806671  0.62329523  1
  In  In16  1  0.65957878  0.84692675  0.12990684  1
  In  In17  1  0.65231751  0.84302280  0.63032183  1
  In  In18  1  0.17100156  -0.01477259  0.37922591  1
  In  In19  1  0.18577493  -0.01695810  0.89452042  1
  In  In20  1  0.17097347  0.33853394  0.36202206  1
  In  In21  1  0.15519899  0.34051427  0.87842019  1
  In  In22  1  0.17648891  0.67629850  0.36909094  1
  In  In23  1  0.19796551  0.68669197  0.84291331  1
  In  In24  1  0.49440382  -0.01421284  0.36018217  1
  In  In25  1  0.47646713  -0.02339847  0.86803956  1
  In  In26  1  0.50148051  0.33817842  0.35555529  1
  In  In27  1  0.51150856  0.33729342  0.88273199  1
  In  In28  1  0.49928040  0.67995390  0.37078873  1
  In  In29  1  0.49861047  0.67406968  0.88164855  1
  In  In30  1  0.83217592  0.01514033  0.37444890  1
  In  In31  1  0.82699624  0.00721964  0.86831774  1
  In  In32  1  0.83642889  0.33358512  0.37169399  1
  In  In33  1  0.85173781  0.34094180  0.87413437  1
  In  In34  1  0.83285523  0.65157920  0.37923048  1
  In  In35  1  0.82448542  0.66011577  0.87087253  1
  In  In36  1  -0.01413182  0.17225166  0.37294882  1
  In  In37  1  0.00303897  0.18080004  0.87366457  1
  In  In38  1  -0.00450503  0.49155788  0.36903689  1
  In  In39  1  0.00474409  0.49921118  0.86775315  1
  In  In40  1  0.01943791  0.83587218  0.37860717  1
  In  In41  1  0.02108136  0.82778374  0.86960175  1
  In  In42  1  0.33946114  0.16690250  0.36500899  1
  In  In43  1  0.32953460  0.14749878  0.87809538  1
  In  In44  1  0.34232404  0.50720621  0.35413253  1
  In  In45  1  0.33234417  0.51992632  0.87812981  1
  In  In46  1  0.33577750  0.83391637  0.37226845  1
  In  In47  1  0.33401433  0.83712673  0.88246409  1
  In  In48  1  0.68192140  0.17309950  0.35869398  1
  In  In49  1  0.67439470  0.16566694  0.87351413  1
  In  In50  1  0.68190518  0.50525485  0.37710733  1
  In  In51  1  0.65599373  0.51432884  0.88825133  1
  In  In52  1  0.64879641  0.83151116  0.37392735  1
  In  In53  1  0.65685721  0.82373482  0.86955534  1
  In  In54  1  0.18084117  0.00858899  0.10676062  1
  In  In55  1  0.18353146  -0.00497260  0.63640347  1
  In  In56  1  0.17609343  0.32386234  0.13000929  1
  In  In57  1  0.14789522  0.32338587  0.63268360  1
  In  In58  1  0.16435660  0.67530820  0.12451607  1
  In  In59  1  0.15174108  0.67842154  0.64331542  1
  In  In60  1  0.49487449  -0.01148519  0.12449943  1
  In  In61  1  0.50156099  -0.01356679  0.62633726  1
  In  In62  1  0.49644835  0.34524191  0.13740861  1
  In  In63  1  0.49876181  0.34140325  0.62357876  1
  In  In64  1  0.48867094  0.66397581  0.12548099  1
  In  In65  1  0.48335222  0.68085337  0.63523228  1
  In  In66  1  0.82553896  0.00723356  0.13150465  1
  In  In67  1  0.81645741  -0.00181327  0.62145916  1
  In  In68  1  0.81948602  0.34293835  0.13936801  1
  In  In69  1  0.84339746  0.34329682  0.61305495  1
  In  In70  1  0.85082880  0.66664306  0.12505257  1
  In  In71  1  0.83988929  0.65317085  0.63189315  1
  In  In72  1  0.50095646  0.16498430  0.00532331  1
  In  In73  1  0.83556527  0.17523381  0.00280900  1
  In  In74  1  0.66931032  0.33108175  0.74875852  1
  In  In75  1  0.00156562  0.00088277  0.75393671  1
  In  In76  1  0.50752266  0.50978656  0.48980597  1
  In  In77  1  0.83252486  0.82632616  0.50437027  1
  In  In78  1  0.16791347  0.50490865  0.50317823  1
  In  In79  1  0.16402118  0.50815832  -0.00429290  1
  In  In80  1  0.66242557  0.66468671  0.25142174  1
  In  In81  1  0.50497567  0.16049226  0.49015225  1
  In  In82  1  0.00380905  -0.00220984  0.25527095  1
  In  In83  1  0.33117183  0.33357749  0.75289284  1
  In  In84  1  0.83475017  0.83507284  0.00551921  1
  In  In85  1  0.16088274  0.16410090  0.50418482  1
  Cu  Cu86  1  0.83023768  0.49615354  0.75122648  1
  Cu  Cu87  1  0.66279881  0.66914225  0.50174545  1
  Cu  Cu88  1  0.49741964  0.15671822  0.24381035  1
  Cu  Cu89  1  0.33778955  -0.00545909  0.49953604  1
  Cu  Cu90  1  0.66605605  0.00034206  0.49575736  1
  Cu  Cu91  1  0.49439888  0.15447933  0.74694808  1
  Cu  Cu92  1  0.83072192  0.82948967  0.74388513  1
  Cu  Cu93  1  0.66584653  0.66916772  0.00066038  1
  Cu  Cu94  1  0.16803913  0.16421997  0.24729922  1
  Cu  Cu95  1  0.00237723  0.66772024  -0.00473933  1
  Cu  Cu96  1  0.50198382  0.51386046  0.75907905  1
  Cu  Cu97  1  0.65777057  -0.00165537  -0.00282164  1
  Cu  Cu98  1  0.00020111  0.33881419  0.00059012  1
  Cu  Cu99  1  0.33614284  0.66971093  -0.00143908  1
  Cu  Cu100  1  0.82878375  0.16489314  0.74715885  1
  Cu  Cu101  1  0.00335091  0.00175880  0.49811621  1
  Cu  Cu102  1  0.83696858  0.49977844  0.25182556  1
  Cu  Cu103  1  -0.00759233  0.33394792  0.49542522  1
  Cu  Cu104  1  0.83423475  0.83040374  0.24825105  1
  Cu  Cu105  1  0.32900523  0.68108154  0.49925587  1
  Cu  Cu106  1  0.32966179  0.33776961  0.49303495  1
  Cu  Cu107  1  0.16077849  0.50659776  0.24186285  1
  Cu  Cu108  1  0.67474056  0.32565884  0.49432042  1
  Cu  Cu109  1  0.17238373  0.83428297  0.24831608  1
  Cu  Cu110  1  0.49522288  0.83416733  0.75338159  1
  Cu  Cu111  1  0.00355316  -0.00028079  -0.00035221  1
  Cu  Cu112  1  0.33617277  0.33311779  0.00846024  1
  Cu  Cu113  1  0.66987550  0.34659966  0.00675332  1
  Cu  Cu114  1  0.00466275  0.66025406  0.50696391  1
  Se  Se115  1  0.08381430  0.08976276  0.04811162  1
  Se  Se116  1  0.07761873  0.07367821  0.56844291  1
  Se  Se117  1  0.08440819  0.41512998  0.06160278  1
  Se  Se118  1  0.07474560  0.41068001  0.55750573  1
  Se  Se119  1  0.08409517  0.75100442  0.04918776  1
  Se  Se120  1  0.08851263  0.74566593  0.55622344  1
  Se  Se121  1  0.40639423  0.07166898  0.05460058  1
  Se  Se122  1  0.41159939  0.08274158  0.55817256  1
  Se  Se123  1  0.42106526  0.41688905  0.05800265  1
  Se  Se124  1  0.41103699  0.41937953  0.55133428  1
  Se  Se125  1  0.41562313  0.75238407  0.05527389  1
  Se  Se126  1  0.41979009  0.75621602  0.55297183  1
  Se  Se127  1  0.73832400  0.08139838  0.05498380  1
  Se  Se128  1  0.75092136  0.08479282  0.54545079  1
  Se  Se129  1  0.75925342  0.42412126  0.05811063  1
  Se  Se130  1  0.74859369  0.41697756  0.54792121  1
  Se  Se131  1  0.74388333  0.74585788  0.06630606  1
  Se  Se132  1  0.74221749  0.74307602  0.56777852  1
  Se  Se133  1  0.24952327  0.24708332  0.05309103  1
  Se  Se134  1  0.25338970  0.26241809  0.55785446  1
  Se  Se135  1  0.25872056  0.58677737  0.06055265  1
  Se  Se136  1  0.25579249  0.59743257  0.56125047  1
  Se  Se137  1  0.22956914  0.89215522  0.05277086  1
  Se  Se138  1  0.25071215  0.91919173  0.55611550  1
  Se  Se139  1  0.59086832  0.25869892  0.06204885  1
  Se  Se140  1  0.58738422  0.25646448  0.55614323  1
  Se  Se141  1  0.58199666  0.58869058  0.05779623  1
  Se  Se142  1  0.58268552  0.59041399  0.56572797  1
  Se  Se143  1  0.57974328  0.91304522  0.05126715  1
  Se  Se144  1  0.58306789  0.91731595  0.54936403  1
  Se  Se145  1  0.92279594  0.26148236  0.06552108  1
  Se  Se146  1  0.91562300  0.24471469  0.54925798  1
  Se  Se147  1  0.91808190  0.58551894  0.04726291  1
  Se  Se148  1  0.91706877  0.57762378  0.55537725  1
  Se  Se149  1  0.92366335  0.92766479  0.06569140  1
  Se  Se150  1  0.92298735  0.92199057  0.56087192  1
  Se  Se151  1  0.08399899  0.26042518  0.43919404  1
  Se  Se152  1  0.08260493  0.25236902  0.95041133  1
  Se  Se153  1  0.08031965  0.58834779  0.43695565  1
  Se  Se154  1  0.08475000  0.59768712  0.93026311  1
  Se  Se155  1  0.09052395  0.91431802  0.45565430  1
  Se  Se156  1  0.08074963  0.90840287  0.95048649  1
  Se  Se157  1  0.41515545  0.26036077  0.43720596  1
  Se  Se158  1  0.41180772  0.25484097  0.94119257  1
  Se  Se159  1  0.40279669  0.59281433  0.43940132  1
  Se  Se160  1  0.42229307  0.58302656  0.95096131  1
  Se  Se161  1  0.42036860  0.91740893  0.44176283  1
  Se  Se162  1  0.41795495  0.91279749  0.95478610  1
  Se  Se163  1  0.75507547  0.24389712  0.43911918  1
  Se  Se164  1  0.74410522  0.26603336  0.94147979  1
  Se  Se165  1  0.75020913  0.58361586  0.45590082  1
  Se  Se166  1  0.75399222  0.58646263  0.95203531  1
  Se  Se167  1  0.74812973  0.91529946  0.43900897  1
  Se  Se168  1  0.74612466  0.92150721  0.94057450  1
  Se  Se169  1  0.25975340  0.08237541  0.44276736  1
  Se  Se170  1  0.25083554  0.08539308  0.95704852  1
  Se  Se171  1  0.25637405  0.42283603  0.43403916  1
  Se  Se172  1  0.26002818  0.41277969  0.94294980  1
  Se  Se173  1  0.24524842  0.76054195  0.44415299  1
  Se  Se174  1  0.24728605  0.73911782  0.93900272  1
  Se  Se175  1  0.59189470  0.07511091  0.42723643  1
  Se  Se176  1  0.58300223  0.08000976  0.93513094  1
  Se  Se177  1  0.58965421  0.40486312  0.43664575  1
  Se  Se178  1  0.57937722  0.42393375  0.95546752  1
  Se  Se179  1  0.57808427  0.74943305  0.44930498  1
  Se  Se180  1  0.58360048  0.75629383  0.95107824  1
  Se  Se181  1  0.91934838  0.08487072  0.44742244  1
  Se  Se182  1  0.91883140  0.07825918  0.94157866  1
  Se  Se183  1  0.91219342  0.42130204  0.44398862  1
  Se  Se184  1  0.92341573  0.42560511  0.94615916  1
  Se  Se185  1  0.92719271  0.74254364  0.44299452  1
  Se  Se186  1  0.91831716  0.75019760  0.93728664  1
  Se  Se187  1  0.25316718  0.24913984  0.29909641  1
  Se  Se188  1  0.24674527  0.24680810  0.81726074  1
  Se  Se189  1  0.24495738  0.58705096  0.29735240  1
  Se  Se190  1  0.23559373  0.55565780  0.80188371  1
  Se  Se191  1  0.25260611  0.91984443  0.30269471  1
  Se  Se192  1  0.24336011  0.90797012  0.81172674  1
  Se  Se193  1  0.58039926  0.24208949  0.29661053  1
  Se  Se194  1  0.57209870  0.24045343  0.80543786  1
  Se  Se195  1  0.57684083  0.57279244  0.31341857  1
  Se  Se196  1  0.58710291  0.59448404  0.81142797  1
  Se  Se197  1  0.58975466  0.91333340  0.29580578  1
  Se  Se198  1  0.58280869  0.91854891  0.80423210  1
  Se  Se199  1  0.92391808  0.26016668  0.30064262  1
  Se  Se200  1  0.91129933  0.24652494  0.80168038  1
  Se  Se201  1  0.91834242  0.58630514  0.30406062  1
  Se  Se202  1  0.91315876  0.58136593  0.80386169  1
  Se  Se203  1  0.91195611  0.90676045  0.31529251  1
  Se  Se204  1  0.90864283  0.90518234  0.81081893  1
  Se  Se205  1  0.09359462  0.08956973  0.31661826  1
  Se  Se206  1  0.08615356  0.07628776  0.82475878  1
  Se  Se207  1  0.08296755  0.41970356  0.29776212  1
  Se  Se208  1  0.07257777  0.40198907  0.80134713  1
  Se  Se209  1  0.08481506  0.75378643  0.30156927  1
  Se  Se210  1  0.07742838  0.73941030  0.79419619  1
  Se  Se211  1  0.41180380  0.07642424  0.29736565  1
  Se  Se212  1  0.40980673  0.07648877  0.80206519  1
  Se  Se213  1  0.40673544  0.40728563  0.29141278  1
  Se  Se214  1  0.42560115  0.42218667  0.81327552  1
  Se  Se215  1  0.40559206  0.74218323  0.30244588  1
  Se  Se216  1  0.41500385  0.75221587  0.81094751  1
  Se  Se217  1  0.75134727  0.07371799  0.29562534  1
  Se  Se218  1  0.74234411  0.08281607  0.79707909  1
  Se  Se219  1  0.75044048  0.41878975  0.30446582  1
  Se  Se220  1  0.74788379  0.42248077  0.81538371  1
  Se  Se221  1  0.75655780  0.75239354  0.31365143  1
  Se  Se222  1  0.74847469  0.74945517  0.80261896  1
  Se  Se223  1  0.24561398  0.07884468  0.19171914  1
  Se  Se224  1  0.24285438  0.09021470  0.70635124  1
  Se  Se225  1  0.24746943  0.42147589  0.19313809  1
  Se  Se226  1  0.24699602  0.41626005  0.68408726  1
  Se  Se227  1  0.25256060  0.74724305  0.19529144  1
  Se  Se228  1  0.26361205  0.73841487  0.69714040  1
  Se  Se229  1  0.58114144  0.07485390  0.19029455  1
  Se  Se230  1  0.58146654  0.07705602  0.69264259  1
  Se  Se231  1  0.60192462  0.40627146  0.19883398  1
  Se  Se232  1  0.57428300  0.42893932  0.69638986  1
  Se  Se233  1  0.57450961  0.75623079  0.19341560  1
  Se  Se234  1  0.58117291  0.75167505  0.69979507  1
  Se  Se235  1  0.91636880  0.09053057  0.19550981  1
  Se  Se236  1  0.90965650  0.08399263  0.68732055  1
  Se  Se237  1  0.92148785  0.41946697  0.19643203  1
  Se  Se238  1  0.91165438  0.41179039  0.69607970  1
  Se  Se239  1  0.92196415  0.74884145  0.20039888  1
  Se  Se240  1  0.91743374  0.74477425  0.69708593  1
  Se  Se241  1  0.08396698  0.25039358  0.19866447  1
  Se  Se242  1  0.08990147  0.23225648  0.70597732  1
  Se  Se243  1  0.07795226  0.59178918  0.19073339  1
  Se  Se244  1  0.09379076  0.56722811  0.69925215  1
  Se  Se245  1  0.09206752  0.91699894  0.18864616  1
  Se  Se246  1  0.08711359  0.90627967  0.69474205  1
  Se  Se247  1  0.41586856  0.24492359  0.19261962  1
  Se  Se248  1  0.42234774  0.24334380  0.68760983  1
  Se  Se249  1  0.42494983  0.58047256  0.20264401  1
  Se  Se250  1  0.41211836  0.58932029  0.70531682  1
  Se  Se251  1  0.40704022  0.91952941  0.19565134  1
  Se  Se252  1  0.41222184  0.91452762  0.69531100  1
  Se  Se253  1  0.76088110  0.23843957  0.20207402  1
  Se  Se254  1  0.75389716  0.24532868  0.68228034  1
  Se  Se255  1  0.75780223  0.58132508  0.19002878  1
  Se  Se256  1  0.74573261  0.58030628  0.69943345  1
  Se  Se257  1  0.75202483  0.91656472  0.19892764  1
  Se  Se258  1  0.74652170  0.91760778  0.69704899  1
