# generated using pymatgen
data_In86Cu29Se144
_symmetry_space_group_name_H-M   'P 1'
_cell_length_a   17.57576809
_cell_length_b   17.57863000
_cell_length_c   23.43070626
_cell_angle_alpha   90.00165743
_cell_angle_beta   89.97091109
_cell_angle_gamma   89.98003646
_symmetry_Int_Tables_number   1
_chemical_formula_structural   In86Cu29Se144
_chemical_formula_sum   'In86 Cu29 Se144'
_cell_volume   7239.10098935
_cell_formula_units_Z   1
loop_
 _symmetry_equiv_pos_site_id
 _symmetry_equiv_pos_as_xyz
  1  'x, y, z'
loop_
 _atom_site_type_symbol
 _atom_site_label
 _atom_site_symmetry_multiplicity
 _atom_site_fract_x
 _atom_site_fract_y
 _atom_site_fract_z
 _atom_site_occupancy
  In  In0  1  -0.00803114  0.17854637  0.13658647  1
  In  In1  1  0.00035565  0.16910200  0.62021663  1
  In  In2  1  -0.00145357  0.49346632  0.13471254  1
  In  In3  1  -0.01775475  0.48319493  0.60917850  1
  In  In4  1  -0.02939022  0.84009846  0.14725994  1
  In  In5  1  0.00238066  0.84321764  0.62602896  1
  In  In6  1  0.32142803  0.17567841  0.14442021  1
  In  In7  1  0.34400471  0.17917043  0.61355787  1
  In  In8  1  0.32377250  0.50768997  0.13001253  1
  In  In9  1  0.31722791  0.49261010  0.61855859  1
  In  In10  1  0.34025257  0.83049984  0.12912828  1
  In  In11  1  0.34712378  0.83204285  0.62396324  1
  In  In12  1  0.66062210  0.15405595  0.12224895  1
  In  In13  1  0.67445500  0.17518805  0.61682580  1
  In  In14  1  0.68498696  0.50798123  0.12611989  1
  In  In15  1  0.68920096  0.48156545  0.64559597  1
  In  In16  1  0.67014534  0.83674883  0.12416820  1
  In  In17  1  0.66299379  0.81468914  0.63425525  1
  In  In18  1  0.17728946  0.01983581  0.35564827  1
  In  In19  1  0.16465066  0.01787227  0.87830385  1
  In  In20  1  0.16776143  0.32804399  0.37547456  1
  In  In21  1  0.16885718  0.33874590  0.87018958  1
  In  In22  1  0.15706759  0.65375300  0.36664152  1
  In  In23  1  0.14877783  0.65909084  0.88267379  1
  In  In24  1  0.51047308  0.00602600  0.37255823  1
  In  In25  1  0.49599659  -0.00242636  0.88214607  1
  In  In26  1  0.48573102  0.33176640  0.37644354  1
  In  In27  1  0.50493705  0.33733661  0.85996603  1
  In  In28  1  0.50771253  0.67288605  0.36562329  1
  In  In29  1  0.51163591  0.67384264  0.87667858  1
  In  In30  1  0.85290509  0.01217781  0.35385932  1
  In  In31  1  0.83503562  -0.00541160  0.88087914  1
  In  In32  1  0.84444217  0.32279094  0.37910198  1
  In  In33  1  0.82350855  0.32368430  0.86295836  1
  In  In34  1  0.83379001  0.65837433  0.36165578  1
  In  In35  1  0.83882875  0.67224306  0.87896743  1
  In  In36  1  -0.00057622  0.16612588  0.37230355  1
  In  In37  1  -0.01021050  0.16030908  0.86960761  1
  In  In38  1  -0.00001833  0.49805294  0.37212887  1
  In  In39  1  0.00517141  0.50448804  0.87703520  1
  In  In40  1  -0.00491818  0.84596713  0.35676315  1
  In  In41  1  -0.01538277  0.82820570  0.88015855  1
  In  In42  1  0.33231846  0.16875876  0.37759623  1
  In  In43  1  0.33028629  0.17175275  0.87117112  1
  In  In44  1  0.32147428  0.48472245  0.36641789  1
  In  In45  1  0.32886500  0.48925431  0.87450009  1
  In  In46  1  0.33365148  0.83325723  0.36605828  1
  In  In47  1  0.33853301  0.84619858  0.88620933  1
  In  In48  1  0.67626902  0.16418023  0.38395188  1
  In  In49  1  0.67759283  0.19077126  0.87301348  1
  In  In50  1  0.67142391  0.51196406  0.37089120  1
  In  In51  1  0.66723150  0.49414659  0.86553152  1
  In  In52  1  0.67835772  0.83316846  0.35970461  1
  In  In53  1  0.67280678  0.83005943  0.88285442  1
  In  In54  1  0.15794749  0.01537779  0.14297146  1
  In  In55  1  0.14943586  0.00340038  0.62310291  1
  In  In56  1  0.15335386  0.34190234  0.13737317  1
  In  In57  1  0.16498858  0.33102941  0.62238467  1
  In  In58  1  0.16830491  0.66138174  0.12886827  1
  In  In59  1  0.17645137  0.65939762  0.62009455  1
  In  In60  1  0.51109794  -0.00679435  0.13321399  1
  In  In61  1  0.49358427  0.00301813  0.62258602  1
  In  In62  1  0.49860756  0.32231223  0.12324842  1
  In  In63  1  0.50719194  0.31781559  0.63685160  1
  In  In64  1  0.49331981  0.67510636  0.12768630  1
  In  In65  1  0.52311770  0.66825816  0.62693319  1
  In  In66  1  0.83018248  0.00053430  0.12502038  1
  In  In67  1  0.83229543  0.01570911  0.62048151  1
  In  In68  1  0.84675350  0.33956159  0.12253408  1
  In  In69  1  0.84125007  0.33491165  0.62450876  1
  In  In70  1  0.81466178  0.67997511  0.15429361  1
  In  In71  1  0.83383951  0.64691367  0.62689610  1
  In  In72  1  -0.00511840  0.66100714  0.75355984  1
  In  In73  1  0.16428989  0.16988402  0.01053802  1
  In  In74  1  0.16123119  0.83736131  0.49333432  1
  In  In75  1  0.66803572  0.00198241  0.74881417  1
  In  In76  1  0.66701129  0.33691513  0.24825290  1
  In  In77  1  0.50169729  0.16272284  -0.00138541  1
  In  In78  1  0.50235024  0.50041658  -0.01186843  1
  In  In79  1  0.33611905  0.66344077  0.75061903  1
  In  In80  1  0.83895295  0.49949030  0.00211583  1
  In  In81  1  0.16412691  0.83266394  0.01229833  1
  In  In82  1  0.50377485  0.83536394  0.50274283  1
  In  In83  1  0.83341936  0.83449144  0.48266272  1
  In  In84  1  0.50090747  0.49840621  0.49837256  1
  In  In85  1  0.33269379  0.00916593  0.74757451  1
  Cu  Cu86  1  0.00349383  0.65964836  0.49406040  1
  Cu  Cu87  1  0.66827492  0.33791138  0.50609847  1
  Cu  Cu88  1  0.83373821  0.83526156  0.75678677  1
  Cu  Cu89  1  0.17166573  0.49437570  0.25481338  1
  Cu  Cu90  1  0.15871384  0.49418435  0.74456699  1
  Cu  Cu91  1  -0.00503498  0.66408661  0.01093017  1
  Cu  Cu92  1  0.49291236  0.50100129  0.74979976  1
  Cu  Cu93  1  0.67631598  0.66413172  0.49740160  1
  Cu  Cu94  1  0.66861381  0.67022543  0.00539330  1
  Cu  Cu95  1  0.84120351  0.16808935  0.74303569  1
  Cu  Cu96  1  0.16008066  0.17291955  0.74685227  1
  Cu  Cu97  1  0.67321000  -0.00309249  0.00205503  1
  Cu  Cu98  1  0.49605407  0.16570521  0.25292338  1
  Cu  Cu99  1  0.00305140  0.33038707  0.00461295  1
  Cu  Cu100  1  0.82962904  0.16733158  0.25176736  1
  Cu  Cu101  1  0.33201942  0.65651234  0.49241565  1
  Cu  Cu102  1  0.33004241  0.66730529  0.00817499  1
  Cu  Cu103  1  0.34244378  0.00062216  0.01295618  1
  Cu  Cu104  1  0.17060654  0.83332835  0.24429451  1
  Cu  Cu105  1  -0.00786341  -0.00709300  0.00210912  1
  Cu  Cu106  1  0.32530973  0.00469170  0.49709672  1
  Cu  Cu107  1  0.49979324  0.50419010  0.24920434  1
  Cu  Cu108  1  0.49959288  0.83528231  0.24730384  1
  Cu  Cu109  1  -0.00412726  0.01004628  0.49134483  1
  Cu  Cu110  1  0.33054068  0.34207484  -0.00270424  1
  Cu  Cu111  1  0.32898643  0.32933645  0.49763719  1
  Cu  Cu112  1  0.16465399  0.84241126  0.74843088  1
  Cu  Cu113  1  0.00230096  0.33202376  0.49683165  1
  Cu  Cu114  1  0.66612688  0.00650551  0.49781736  1
  Se  Se115  1  0.07068572  0.07548340  0.06148089  1
  Se  Se116  1  0.08213705  0.08619307  0.54787847  1
  Se  Se117  1  0.08003746  0.41676225  0.05920173  1
  Se  Se118  1  0.08676795  0.41585220  0.55045937  1
  Se  Se119  1  0.06908864  0.75015479  0.07114214  1
  Se  Se120  1  0.07505573  0.74345029  0.55772738  1
  Se  Se121  1  0.41350197  0.08948391  0.07175014  1
  Se  Se122  1  0.41638867  0.08071149  0.54966886  1
  Se  Se123  1  0.41546025  0.41756932  0.05757626  1
  Se  Se124  1  0.41401805  0.40694624  0.55936705  1
  Se  Se125  1  0.41643878  0.75350145  0.05247610  1
  Se  Se126  1  0.41478324  0.73127934  0.55484258  1
  Se  Se127  1  0.75262508  0.08544696  0.05264894  1
  Se  Se128  1  0.75376308  0.09002566  0.54672302  1
  Se  Se129  1  0.74277628  0.40696153  0.05539942  1
  Se  Se130  1  0.75299353  0.42089140  0.55766456  1
  Se  Se131  1  0.75607853  0.74250920  0.06391391  1
  Se  Se132  1  0.75304373  0.74969570  0.55636203  1
  Se  Se133  1  0.25801950  0.26247135  0.06283790  1
  Se  Se134  1  0.24330522  0.24626799  0.55049152  1
  Se  Se135  1  0.24489643  0.58084083  0.05341727  1
  Se  Se136  1  0.24546093  0.57697147  0.54474456  1
  Se  Se137  1  0.24905756  0.93063202  0.06880416  1
  Se  Se138  1  0.25516071  0.91935851  0.56056632  1
  Se  Se139  1  0.59439159  0.25681712  0.05236917  1
  Se  Se140  1  0.57952290  0.25347999  0.55300459  1
  Se  Se141  1  0.58638891  0.58434910  0.05918996  1
  Se  Se142  1  0.59926911  0.58044814  0.55698482  1
  Se  Se143  1  0.58420372  0.91862299  0.05478788  1
  Se  Se144  1  0.59875762  0.92170071  0.56318629  1
  Se  Se145  1  0.91839051  0.24607641  0.05443528  1
  Se  Se146  1  0.91619682  0.25081113  0.55143114  1
  Se  Se147  1  0.91167482  0.58905487  0.07242693  1
  Se  Se148  1  0.91225668  0.58415852  0.54635937  1
  Se  Se149  1  0.91338626  0.91014098  0.05894804  1
  Se  Se150  1  0.92050660  0.92272436  0.55041094  1
  Se  Se151  1  0.08211521  0.24557822  0.44329381  1
  Se  Se152  1  0.07989699  0.25098690  0.94018122  1
  Se  Se153  1  0.08801280  0.57537855  0.44455583  1
  Se  Se154  1  0.07634100  0.57967861  0.95738539  1
  Se  Se155  1  0.07586993  0.92745418  0.43234949  1
  Se  Se156  1  0.08158429  0.92158202  0.94273877  1
  Se  Se157  1  0.41794626  0.24615237  0.45037084  1
  Se  Se158  1  0.41293713  0.26079139  0.94016572  1
  Se  Se159  1  0.41654798  0.58460365  0.43134176  1
  Se  Se160  1  0.40436501  0.59440895  0.93716028  1
  Se  Se161  1  0.40952337  0.92023598  0.44212627  1
  Se  Se162  1  0.42361369  0.91762548  0.95874639  1
  Se  Se163  1  0.75139285  0.25513977  0.45025826  1
  Se  Se164  1  0.76893268  0.24593591  0.94701267  1
  Se  Se165  1  0.75928407  0.58434507  0.44172174  1
  Se  Se166  1  0.74125982  0.58635337  0.94218387  1
  Se  Se167  1  0.74235081  0.93102271  0.43244659  1
  Se  Se168  1  0.75714247  0.91046251  0.95144794  1
  Se  Se169  1  0.24173556  0.08457440  0.44275902  1
  Se  Se170  1  0.26377361  0.08124051  0.95090575  1
  Se  Se171  1  0.24747854  0.41600591  0.44641795  1
  Se  Se172  1  0.24069376  0.42082942  0.94700289  1
  Se  Se173  1  0.25359936  0.74426082  0.43807741  1
  Se  Se174  1  0.24963001  0.74518182  0.94269267  1
  Se  Se175  1  0.57880781  0.08945322  0.44863085  1
  Se  Se176  1  0.59887742  0.07927460  0.93770925  1
  Se  Se177  1  0.59245259  0.41035311  0.43663181  1
  Se  Se178  1  0.59373071  0.40275993  0.93900568  1
  Se  Se179  1  0.59657041  0.74875567  0.44096449  1
  Se  Se180  1  0.58358036  0.75287549  0.95260961  1
  Se  Se181  1  0.90575015  0.08794920  0.43990326  1
  Se  Se182  1  0.91758928  0.08212624  0.94666804  1
  Se  Se183  1  0.91860226  0.41728859  0.44467385  1
  Se  Se184  1  0.92299558  0.40721203  0.94004515  1
  Se  Se185  1  0.93111499  0.74444699  0.43182989  1
  Se  Se186  1  0.91380243  0.74806371  0.95580499  1
  Se  Se187  1  0.26181871  0.25851409  0.30771871  1
  Se  Se188  1  0.24720599  0.25023531  0.80242498  1
  Se  Se189  1  0.25598468  0.58573539  0.30133709  1
  Se  Se190  1  0.23429747  0.57931405  0.80717810  1
  Se  Se191  1  0.25263175  0.91743282  0.29875402  1
  Se  Se192  1  0.24438313  0.91644958  0.81224234  1
  Se  Se193  1  0.58013111  0.24670421  0.31172997  1
  Se  Se194  1  0.58060776  0.24068669  0.80073683  1
  Se  Se195  1  0.58745674  0.58569256  0.29871430  1
  Se  Se196  1  0.57553766  0.58058971  0.80639584  1
  Se  Se197  1  0.58266714  0.91652861  0.30291501  1
  Se  Se198  1  0.58195294  0.91379684  0.81320557  1
  Se  Se199  1  0.91861272  0.24986260  0.30030287  1
  Se  Se200  1  0.92202217  0.25181246  0.79894033  1
  Se  Se201  1  0.94131751  0.59828314  0.30028828  1
  Se  Se202  1  0.90146986  0.57072121  0.80869384  1
  Se  Se203  1  0.88120415  0.89105557  0.29542189  1
  Se  Se204  1  0.91884057  0.91775081  0.80757039  1
  Se  Se205  1  0.05156321  0.05644666  0.30728289  1
  Se  Se206  1  0.08339819  0.08454907  0.80234429  1
  Se  Se207  1  0.08482585  0.41211040  0.30600150  1
  Se  Se208  1  0.07753800  0.41767594  0.80506632  1
  Se  Se209  1  0.09031934  0.75655014  0.30455937  1
  Se  Se210  1  0.08798449  0.75827428  0.80927662  1
  Se  Se211  1  0.41622879  0.08228832  0.30923721  1
  Se  Se212  1  0.42860588  0.09141706  0.80905127  1
  Se  Se213  1  0.41985903  0.41632720  0.30047969  1
  Se  Se214  1  0.40786052  0.41633197  0.79995185  1
  Se  Se215  1  0.41711555  0.74917224  0.29966248  1
  Se  Se216  1  0.41556399  0.75948716  0.81310540  1
  Se  Se217  1  0.74243110  0.08640769  0.30373255  1
  Se  Se218  1  0.76105952  0.08999958  0.80714597  1
  Se  Se219  1  0.75868937  0.41675345  0.31220076  1
  Se  Se220  1  0.74746253  0.41357125  0.79719404  1
  Se  Se221  1  0.74310892  0.73456090  0.29581919  1
  Se  Se222  1  0.75285091  0.75068876  0.80979542  1
  Se  Se223  1  0.25273218  0.08135609  0.20963504  1
  Se  Se224  1  0.24117487  0.09244121  0.68540782  1
  Se  Se225  1  0.25504044  0.41326714  0.19818159  1
  Se  Se226  1  0.24776681  0.41311461  0.69495690  1
  Se  Se227  1  0.25354984  0.74697280  0.19381520  1
  Se  Se228  1  0.24386390  0.76021377  0.69117386  1
  Se  Se229  1  0.58465234  0.08525353  0.20136016  1
  Se  Se230  1  0.58131797  0.09012337  0.68627625  1
  Se  Se231  1  0.57721293  0.42598187  0.18458421  1
  Se  Se232  1  0.57915898  0.41572675  0.70010560  1
  Se  Se233  1  0.58337278  0.75315036  0.19251222  1
  Se  Se234  1  0.57020090  0.75629441  0.70618047  1
  Se  Se235  1  0.91235519  0.08312502  0.19654734  1
  Se  Se236  1  0.92254468  0.08063414  0.69190147  1
  Se  Se237  1  0.92163849  0.40389044  0.20192561  1
  Se  Se238  1  0.91168602  0.42781978  0.69396714  1
  Se  Se239  1  0.94072259  0.71681702  0.20556125  1
  Se  Se240  1  0.91015100  0.75580597  0.69010955  1
  Se  Se241  1  0.10929167  0.22338122  0.19271520  1
  Se  Se242  1  0.07706264  0.25438668  0.69199504  1
  Se  Se243  1  0.09011701  0.57543636  0.19782670  1
  Se  Se244  1  0.08391472  0.57985393  0.68567865  1
  Se  Se245  1  0.07825243  0.91535579  0.19895610  1
  Se  Se246  1  0.07689713  0.92369274  0.69957764  1
  Se  Se247  1  0.41971451  0.25657565  0.20155636  1
  Se  Se248  1  0.40720539  0.24664173  0.69756672  1
  Se  Se249  1  0.41540694  0.58614839  0.19454678  1
  Se  Se250  1  0.41997818  0.57721074  0.68224040  1
  Se  Se251  1  0.41433291  0.92078944  0.19754776  1
  Se  Se252  1  0.42763120  0.90971312  0.69837337  1
  Se  Se253  1  0.75235914  0.24463014  0.18640046  1
  Se  Se254  1  0.75435311  0.24961791  0.69125047  1
  Se  Se255  1  0.75862154  0.56502085  0.20882973  1
  Se  Se256  1  0.72570923  0.60863608  0.69389864  1
  Se  Se257  1  0.74965939  0.91834281  0.19491124  1
  Se  Se258  1  0.75986537  0.91048079  0.68775656  1
