# generated using pymatgen
data_In86Cu29Se144
_symmetry_space_group_name_H-M   'P 1'
_cell_length_a   17.57092534
_cell_length_b   17.57274261
_cell_length_c   23.42965440
_cell_angle_alpha   89.97811038
_cell_angle_beta   89.97376326
_cell_angle_gamma   90.00640969
_symmetry_Int_Tables_number   1
_chemical_formula_structural   In86Cu29Se144
_chemical_formula_sum   'In86 Cu29 Se144'
_cell_volume   7234.35779171
_cell_formula_units_Z   1
loop_
 _symmetry_equiv_pos_site_id
 _symmetry_equiv_pos_as_xyz
  1  'x, y, z'
loop_
 _atom_site_type_symbol
 _atom_site_label
 _atom_site_symmetry_multiplicity
 _atom_site_fract_x
 _atom_site_fract_y
 _atom_site_fract_z
 _atom_site_occupancy
  In  In0  1  0.00275053  0.18472288  0.12727988  1
  In  In1  1  0.00186192  0.16793377  0.61601271  1
  In  In2  1  0.00770328  0.48438040  0.13317305  1
  In  In3  1  0.00494954  0.50838780  0.61834560  1
  In  In4  1  -0.01511987  0.83567637  0.12628123  1
  In  In5  1  -0.00515992  0.82596390  0.62926900  1
  In  In6  1  0.32834457  0.14749034  0.12502966  1
  In  In7  1  0.33166476  0.17600136  0.63121594  1
  In  In8  1  0.32126177  0.51791796  0.11754610  1
  In  In9  1  0.33126601  0.49808782  0.62430979  1
  In  In10  1  0.35223748  0.83791471  0.11706656  1
  In  In11  1  0.35627982  0.81019372  0.65429659  1
  In  In12  1  0.64845822  0.15614710  0.10898783  1
  In  In13  1  0.66985016  0.16363098  0.63041703  1
  In  In14  1  0.67368572  0.49537472  0.12312052  1
  In  In15  1  0.66580148  0.50055308  0.62958901  1
  In  In16  1  0.66633692  0.84145958  0.11827094  1
  In  In17  1  0.64820219  0.84206205  0.64407949  1
  In  In18  1  0.18118463  -0.00425190  0.37673549  1
  In  In19  1  0.18298719  -0.01347224  0.87115018  1
  In  In20  1  0.15957035  0.34339684  0.38395961  1
  In  In21  1  0.18390310  0.32946088  0.87834209  1
  In  In22  1  0.15891459  0.66337968  0.37355192  1
  In  In23  1  0.15992985  0.66855745  0.85786276  1
  In  In24  1  0.49668869  -0.01322966  0.36548630  1
  In  In25  1  0.50538235  -0.00460281  0.86831879  1
  In  In26  1  0.51037987  0.33861204  0.37883489  1
  In  In27  1  0.49800040  0.32911626  0.87262795  1
  In  In28  1  0.49606044  0.67256104  0.38732664  1
  In  In29  1  0.50914445  0.67667595  0.86355795  1
  In  In30  1  0.83274930  0.01491357  0.37379677  1
  In  In31  1  0.81939138  0.01219987  0.88300398  1
  In  In32  1  0.84002059  0.32525987  0.37993162  1
  In  In33  1  0.82198568  0.33191399  0.87942549  1
  In  In34  1  0.83782314  0.65272617  0.37951353  1
  In  In35  1  0.83754851  0.67084817  0.87098044  1
  In  In36  1  -0.00725811  0.17742395  0.37814160  1
  In  In37  1  -0.00317133  0.16238657  0.88376631  1
  In  In38  1  0.00203459  0.49553643  0.37615472  1
  In  In39  1  -0.00118056  0.51378549  0.87534177  1
  In  In40  1  0.01482561  0.82615344  0.36795714  1
  In  In41  1  0.00003158  0.81818058  0.87700064  1
  In  In42  1  0.33437933  0.14939357  0.37712912  1
  In  In43  1  0.34675791  0.17521622  0.86877854  1
  In  In44  1  0.33310829  0.50357820  0.38965549  1
  In  In45  1  0.32523948  0.49726599  0.86906370  1
  In  In46  1  0.33970095  0.84249861  0.37555578  1
  In  In47  1  0.34910332  0.84733745  0.85120572  1
  In  In48  1  0.67819364  0.16458348  0.37289287  1
  In  In49  1  0.66549710  0.16328328  0.87389691  1
  In  In50  1  0.66785855  0.50616805  0.38961039  1
  In  In51  1  0.66249698  0.49476882  0.86517190  1
  In  In52  1  0.65546145  0.83532375  0.37682932  1
  In  In53  1  0.66113644  0.83794657  0.87193662  1
  In  In54  1  0.18455871  0.01042508  0.12937229  1
  In  In55  1  0.17438485  0.00955393  0.62089044  1
  In  In56  1  0.14409444  0.33248598  0.12267759  1
  In  In57  1  0.16962187  0.33852079  0.61831541  1
  In  In58  1  0.16912771  0.64425409  0.11920510  1
  In  In59  1  0.17859060  0.65935413  0.63825824  1
  In  In60  1  0.49669072  -0.00272952  0.12237867  1
  In  In61  1  0.50457933  -0.01046394  0.63521579  1
  In  In62  1  0.51338772  0.32991123  0.12041573  1
  In  In63  1  0.48915358  0.34755969  0.63465971  1
  In  In64  1  0.49515217  0.68287960  0.11529485  1
  In  In65  1  0.50155054  0.66412801  0.63173757  1
  In  In66  1  0.82154107  -0.00885066  0.11740254  1
  In  In67  1  0.81975870  0.00361031  0.62439700  1
  In  In68  1  0.84719004  0.33148287  0.12010117  1
  In  In69  1  0.82272801  0.32538896  0.62129150  1
  In  In70  1  0.83226447  0.67916109  0.12262066  1
  In  In71  1  0.83772174  0.65833273  0.63256380  1
  In  In72  1  0.67582344  0.32749303  0.24849256  1
  In  In73  1  0.32792786  0.32640075  0.25111025  1
  In  In74  1  0.66586591  0.67232397  0.24319224  1
  In  In75  1  0.17585445  0.83185086  0.50329314  1
  In  In76  1  0.00217343  -0.00085726  0.25133514  1
  In  In77  1  0.16564055  0.16970814  0.00578293  1
  In  In78  1  0.33203444  0.67415272  0.24957927  1
  In  In79  1  0.82826021  0.82946030  0.50874631  1
  In  In80  1  0.00040176  -0.00347061  0.75677820  1
  In  In81  1  0.50271535  0.17012761  0.50093830  1
  In  In82  1  0.49704027  0.50118709  -0.01377950  1
  In  In83  1  -0.00071508  0.34023902  0.74978895  1
  In  In84  1  0.83572568  0.49762363  -0.00065597  1
  In  In85  1  0.17226932  0.82170906  -0.00914291  1
  Cu  Cu86  1  0.16928837  0.49746349  0.74378854  1
  Cu  Cu87  1  0.00266515  0.66033570  0.49973944  1
  Cu  Cu88  1  0.66514234  0.34075025  0.50397496  1
  Cu  Cu89  1  0.83122735  0.82797376  0.24658696  1
  Cu  Cu90  1  0.49861858  0.15540712  0.24523517  1
  Cu  Cu91  1  0.17135558  0.82769710  0.24796243  1
  Cu  Cu92  1  0.49714551  0.50739308  0.25592181  1
  Cu  Cu93  1  0.00098574  0.66519518  -0.00232275  1
  Cu  Cu94  1  0.17281992  0.16829358  0.75119023  1
  Cu  Cu95  1  0.33671693  0.33812481  -0.00222865  1
  Cu  Cu96  1  0.66177531  0.66868649  0.50877125  1
  Cu  Cu97  1  0.15981794  0.49374277  0.24979690  1
  Cu  Cu98  1  -0.00611906  0.33726190  0.50018814  1
  Cu  Cu99  1  0.32968990  0.33267085  0.50654367  1
  Cu  Cu100  1  0.83012833  0.50283809  0.75073225  1
  Cu  Cu101  1  -0.00597548  -0.00451644  0.00247124  1
  Cu  Cu102  1  0.66403340  0.00256775  0.50691842  1
  Cu  Cu103  1  0.50382337  0.16409665  0.75090443  1
  Cu  Cu104  1  0.83281625  0.16246922  0.24636464  1
  Cu  Cu105  1  0.49617717  0.49799410  0.75025833  1
  Cu  Cu106  1  0.66081221  0.67014371  -0.00566105  1
  Cu  Cu107  1  0.84422897  0.49620095  0.25572476  1
  Cu  Cu108  1  -0.00075346  0.00921702  0.49733654  1
  Cu  Cu109  1  0.82797166  0.16416153  0.75179583  1
  Cu  Cu110  1  0.33603683  0.66687104  0.51270968  1
  Cu  Cu111  1  0.82919561  0.83029082  0.75258591  1
  Cu  Cu112  1  0.34154106  -0.00367028  0.50181926  1
  Cu  Cu113  1  0.65734098  -0.00497740  -0.00452402  1
  Cu  Cu114  1  0.34250818  0.00160176  -0.00635845  1
  Se  Se115  1  0.07666849  0.07272047  0.06335484  1
  Se  Se116  1  0.08839039  0.08566977  0.55040053  1
  Se  Se117  1  0.09062313  0.43005490  0.05224914  1
  Se  Se118  1  0.08156301  0.41785502  0.55226183  1
  Se  Se119  1  0.07767897  0.74749848  0.06066816  1
  Se  Se120  1  0.08147198  0.74173362  0.56013618  1
  Se  Se121  1  0.41888016  0.08600500  0.05141793  1
  Se  Se122  1  0.41684049  0.08070324  0.56324494  1
  Se  Se123  1  0.41396555  0.41913892  0.06127915  1
  Se  Se124  1  0.41672733  0.41765413  0.55390296  1
  Se  Se125  1  0.39741773  0.73665543  0.04573839  1
  Se  Se126  1  0.41787895  0.75240990  0.56412392  1
  Se  Se127  1  0.74432560  0.07732693  0.04849582  1
  Se  Se128  1  0.74899421  0.09091890  0.55229557  1
  Se  Se129  1  0.74292993  0.40232361  0.05392213  1
  Se  Se130  1  0.75043819  0.42233940  0.55697191  1
  Se  Se131  1  0.74479344  0.74949340  0.05206788  1
  Se  Se132  1  0.73726482  0.74842823  0.57285693  1
  Se  Se133  1  0.25929650  0.25985368  0.06421123  1
  Se  Se134  1  0.24795179  0.24380938  0.55461715  1
  Se  Se135  1  0.25655269  0.59666802  0.03909682  1
  Se  Se136  1  0.24547319  0.58375270  0.55743378  1
  Se  Se137  1  0.25353043  0.92451436  0.05057421  1
  Se  Se138  1  0.26636010  0.91453587  0.56518984  1
  Se  Se139  1  0.58005311  0.25278496  0.04358277  1
  Se  Se140  1  0.58547027  0.26055153  0.56492683  1
  Se  Se141  1  0.58840742  0.58594004  0.05751188  1
  Se  Se142  1  0.58014498  0.58151325  0.56010037  1
  Se  Se143  1  0.57345316  0.91221920  0.05013178  1
  Se  Se144  1  0.58465696  0.91554632  0.55944653  1
  Se  Se145  1  0.92376096  0.24992075  0.04963416  1
  Se  Se146  1  0.91304285  0.25020346  0.55305443  1
  Se  Se147  1  0.92302505  0.58673397  0.06216004  1
  Se  Se148  1  0.91158397  0.58545449  0.55298358  1
  Se  Se149  1  0.90889844  0.90890989  0.05013566  1
  Se  Se150  1  0.92388698  0.92686235  0.55974922  1
  Se  Se151  1  0.07927323  0.25231620  0.44891868  1
  Se  Se152  1  0.07929661  0.26059930  0.94372964  1
  Se  Se153  1  0.08705282  0.57894720  0.44576089  1
  Se  Se154  1  0.08831887  0.59305824  0.94021303  1
  Se  Se155  1  0.07761373  0.92023922  0.44318585  1
  Se  Se156  1  0.07856200  0.92313989  0.94020366  1
  Se  Se157  1  0.40868556  0.25797654  0.44004621  1
  Se  Se158  1  0.41785189  0.25141060  0.94748434  1
  Se  Se159  1  0.41956642  0.58472118  0.45513892  1
  Se  Se160  1  0.41220619  0.59461294  0.92928098  1
  Se  Se161  1  0.42513101  0.91517166  0.44758347  1
  Se  Se162  1  0.41625894  0.91422250  0.93692552  1
  Se  Se163  1  0.74211960  0.25508516  0.44578299  1
  Se  Se164  1  0.76034240  0.23186090  0.94291704  1
  Se  Se165  1  0.75116321  0.59041157  0.45595328  1
  Se  Se166  1  0.74195381  0.58545732  0.93897168  1
  Se  Se167  1  0.74775531  0.92378679  0.44459734  1
  Se  Se168  1  0.74614855  0.91342359  0.94511291  1
  Se  Se169  1  0.25246999  0.07759589  0.45263429  1
  Se  Se170  1  0.25544064  0.08339454  0.93959287  1
  Se  Se171  1  0.24767113  0.41913940  0.45325646  1
  Se  Se172  1  0.25106527  0.42158490  0.94877810  1
  Se  Se173  1  0.26213477  0.73878922  0.43964114  1
  Se  Se174  1  0.25911259  0.75316651  0.91791927  1
  Se  Se175  1  0.58764513  0.07780009  0.43929790  1
  Se  Se176  1  0.57779797  0.08162378  0.94163954  1
  Se  Se177  1  0.57841797  0.42283792  0.45279412  1
  Se  Se178  1  0.59521938  0.40655119  0.94184670  1
  Se  Se179  1  0.58440390  0.75422598  0.45231147  1
  Se  Se180  1  0.57793964  0.75422016  0.94301660  1
  Se  Se181  1  0.91168104  0.09036218  0.44698216  1
  Se  Se182  1  0.91322351  0.08329794  0.95173958  1
  Se  Se183  1  0.91144304  0.42082630  0.44552672  1
  Se  Se184  1  0.92661742  0.41081322  0.93844881  1
  Se  Se185  1  0.92655423  0.74981076  0.44330020  1
  Se  Se186  1  0.91220931  0.74733134  0.94904770  1
  Se  Se187  1  0.24459905  0.24543703  0.31989453  1
  Se  Se188  1  0.25654840  0.25428824  0.80157494  1
  Se  Se189  1  0.24808213  0.57195184  0.30702054  1
  Se  Se190  1  0.25139156  0.58320424  0.79678603  1
  Se  Se191  1  0.25135899  0.91100249  0.30279496  1
  Se  Se192  1  0.24293703  0.91205341  0.79001029  1
  Se  Se193  1  0.57491318  0.24035527  0.30596121  1
  Se  Se194  1  0.58501726  0.24959575  0.80474791  1
  Se  Se195  1  0.58158590  0.58489742  0.31305552  1
  Se  Se196  1  0.58444899  0.58162648  0.79877610  1
  Se  Se197  1  0.59736800  0.92238488  0.30139098  1
  Se  Se198  1  0.58239537  0.91268919  0.79654580  1
  Se  Se199  1  0.91121089  0.24824772  0.30122249  1
  Se  Se200  1  0.91462871  0.24202659  0.80790458  1
  Se  Se201  1  0.92393875  0.58470878  0.30612840  1
  Se  Se202  1  0.91706779  0.58511204  0.80128075  1
  Se  Se203  1  0.90904622  0.90764120  0.31140504  1
  Se  Se204  1  0.90543480  0.91219293  0.81641053  1
  Se  Se205  1  0.08574126  0.08437511  0.31714888  1
  Se  Se206  1  0.09438309  0.09108938  0.81381517  1
  Se  Se207  1  0.07969317  0.40991148  0.30458077  1
  Se  Se208  1  0.09358135  0.42229784  0.81190780  1
  Se  Se209  1  0.08668987  0.74140077  0.29575522  1
  Se  Se210  1  0.07494583  0.75718307  0.79597052  1
  Se  Se211  1  0.41466353  0.07762409  0.30220924  1
  Se  Se212  1  0.41736343  0.08142510  0.80231106  1
  Se  Se213  1  0.41809455  0.42269425  0.31143735  1
  Se  Se214  1  0.41504179  0.41421076  0.80577572  1
  Se  Se215  1  0.42947370  0.75794712  0.30692191  1
  Se  Se216  1  0.42913057  0.75294012  0.78792891  1
  Se  Se217  1  0.74728769  0.08002129  0.29759695  1
  Se  Se218  1  0.74454883  0.07777151  0.80138789  1
  Se  Se219  1  0.75153821  0.42506935  0.31348492  1
  Se  Se220  1  0.75337086  0.41236806  0.80234550  1
  Se  Se221  1  0.75672846  0.75030615  0.31364298  1
  Se  Se222  1  0.74523526  0.74751752  0.80624634  1
  Se  Se223  1  0.24365392  0.09584404  0.20602501  1
  Se  Se224  1  0.25265615  0.08439356  0.69667396  1
  Se  Se225  1  0.24734670  0.42299009  0.18825586  1
  Se  Se226  1  0.25109275  0.41009883  0.69347936  1
  Se  Se227  1  0.24573738  0.75408706  0.17954701  1
  Se  Se228  1  0.23399940  0.76218332  0.70326044  1
  Se  Se229  1  0.58587372  0.07880942  0.19038150  1
  Se  Se230  1  0.58731423  0.08065868  0.69762382  1
  Se  Se231  1  0.57860569  0.42559424  0.19710272  1
  Se  Se232  1  0.58648616  0.41550613  0.70055217  1
  Se  Se233  1  0.57139497  0.76311557  0.19092767  1
  Se  Se234  1  0.56292589  0.75662051  0.70814591  1
  Se  Se235  1  0.91258690  0.08174346  0.18533584  1
  Se  Se236  1  0.91516598  0.08874493  0.69202453  1
  Se  Se237  1  0.91702161  0.40716434  0.19968290  1
  Se  Se238  1  0.90877813  0.42415055  0.68681763  1
  Se  Se239  1  0.91849082  0.74469995  0.19884719  1
  Se  Se240  1  0.91503077  0.74814975  0.70073009  1
  Se  Se241  1  0.09754997  0.23955839  0.19951036  1
  Se  Se242  1  0.08709854  0.24446958  0.69231115  1
  Se  Se243  1  0.08264233  0.58271872  0.19616124  1
  Se  Se244  1  0.07881404  0.58068718  0.69703981  1
  Se  Se245  1  0.09235117  0.91060239  0.18745828  1
  Se  Se246  1  0.08510488  0.91845225  0.68613219  1
  Se  Se247  1  0.42495651  0.24506991  0.18873629  1
  Se  Se248  1  0.41928500  0.25084625  0.70038261  1
  Se  Se249  1  0.42410145  0.58264981  0.18909880  1
  Se  Se250  1  0.41195755  0.57933895  0.69545692  1
  Se  Se251  1  0.40354059  0.92816372  0.19259938  1
  Se  Se252  1  0.39893186  0.93591362  0.70012444  1
  Se  Se253  1  0.75364740  0.23823256  0.18114873  1
  Se  Se254  1  0.74784004  0.25189890  0.69944305  1
  Se  Se255  1  0.76263614  0.57348443  0.19350546  1
  Se  Se256  1  0.74421818  0.58722628  0.70024360  1
  Se  Se257  1  0.74938356  0.91194384  0.19434792  1
  Se  Se258  1  0.75249741  0.91873984  0.69873117  1
