# generated using pymatgen
data_In86Cu29Se144
_symmetry_space_group_name_H-M   'P 1'
_cell_length_a   17.57319201
_cell_length_b   17.57352514
_cell_length_c   23.43911144
_cell_angle_alpha   89.99984293
_cell_angle_beta   89.98417486
_cell_angle_gamma   90.01614597
_symmetry_Int_Tables_number   1
_chemical_formula_structural   In86Cu29Se144
_chemical_formula_sum   'In86 Cu29 Se144'
_cell_volume   7238.53454125
_cell_formula_units_Z   1
loop_
 _symmetry_equiv_pos_site_id
 _symmetry_equiv_pos_as_xyz
  1  'x, y, z'
loop_
 _atom_site_type_symbol
 _atom_site_label
 _atom_site_symmetry_multiplicity
 _atom_site_fract_x
 _atom_site_fract_y
 _atom_site_fract_z
 _atom_site_occupancy
  In  In0  1  0.01332738  0.17312198  0.12100362  1
  In  In1  1  0.00237997  0.15805762  0.61712305  1
  In  In2  1  0.00897946  0.48160902  0.14214634  1
  In  In3  1  0.02023100  0.50474861  0.62053705  1
  In  In4  1  -0.00858852  0.83950688  0.12933258  1
  In  In5  1  -0.00884517  0.82864377  0.61563045  1
  In  In6  1  0.32451328  0.17699397  0.13373349  1
  In  In7  1  0.33829689  0.16519655  0.62226039  1
  In  In8  1  0.32078333  0.49171503  0.11566028  1
  In  In9  1  0.32199300  0.50925750  0.63380211  1
  In  In10  1  0.33828848  0.83579827  0.13023093  1
  In  In11  1  0.31863268  0.84547368  0.63795211  1
  In  In12  1  0.66514704  0.14978968  0.12493663  1
  In  In13  1  0.65650709  0.17567512  0.63086505  1
  In  In14  1  0.66629815  0.50917682  0.11748530  1
  In  In15  1  0.66425683  0.50310052  0.63325706  1
  In  In16  1  0.67696322  0.82939394  0.12435315  1
  In  In17  1  0.67746983  0.82653637  0.63190529  1
  In  In18  1  0.18130949  -0.00891628  0.38524090  1
  In  In19  1  0.17691111  0.00029180  0.87100103  1
  In  In20  1  0.16558791  0.33038613  0.38191414  1
  In  In21  1  0.17581874  0.32496221  0.87775959  1
  In  In22  1  0.14889587  0.67597815  0.38444079  1
  In  In23  1  0.15735880  0.66357502  0.86607144  1
  In  In24  1  0.50645706  0.01236794  0.37529675  1
  In  In25  1  0.49290888  -0.00836177  0.86512278  1
  In  In26  1  0.48223720  0.33517170  0.37492414  1
  In  In27  1  0.50318764  0.34182597  0.87208076  1
  In  In28  1  0.50380329  0.67296057  0.38081530  1
  In  In29  1  0.48805993  0.65604537  0.86428718  1
  In  In30  1  0.81875353  0.00776743  0.37287817  1
  In  In31  1  0.82678359  0.00615317  0.88242802  1
  In  In32  1  0.84757741  0.33328603  0.36199433  1
  In  In33  1  0.82243708  0.32973459  0.87767357  1
  In  In34  1  0.85083894  0.66209376  0.37506223  1
  In  In35  1  0.84441639  0.67513223  0.86981784  1
  In  In36  1  0.00954045  0.18979264  0.37067710  1
  In  In37  1  -0.00094663  0.16669278  0.88555851  1
  In  In38  1  0.00431163  0.50842447  0.36786406  1
  In  In39  1  0.00106329  0.51616658  0.87421797  1
  In  In40  1  0.01335546  0.82233610  0.37794426  1
  In  In41  1  0.00035289  0.81734513  0.87399008  1
  In  In42  1  0.33000573  0.16584136  0.38065697  1
  In  In43  1  0.32395873  0.16034316  0.86807688  1
  In  In44  1  0.33019641  0.48252794  0.37434943  1
  In  In45  1  0.33114719  0.49626588  0.87457994  1
  In  In46  1  0.31337632  0.84209058  0.38313620  1
  In  In47  1  0.31893485  0.83452898  0.85552659  1
  In  In48  1  0.67999042  0.15130032  0.37581621  1
  In  In49  1  0.66533204  0.16695879  0.87321289  1
  In  In50  1  0.66924338  0.50336346  0.37751370  1
  In  In51  1  0.65874882  0.48911048  0.86842036  1
  In  In52  1  0.66098839  0.84786217  0.38221231  1
  In  In53  1  0.67489884  0.84242678  0.86651930  1
  In  In54  1  0.15944880  0.01340807  0.13065709  1
  In  In55  1  0.18416586  0.00478809  0.60817895  1
  In  In56  1  0.16786127  0.33334732  0.12782979  1
  In  In57  1  0.17230870  0.34681471  0.61458345  1
  In  In58  1  0.17076163  0.65230948  0.12623284  1
  In  In59  1  0.16897338  0.66937294  0.62549899  1
  In  In60  1  0.49527909  0.00271320  0.13522781  1
  In  In61  1  0.48798178  0.01604227  0.62982519  1
  In  In62  1  0.48475770  0.33067982  0.12420744  1
  In  In63  1  0.50527306  0.32393000  0.62959334  1
  In  In64  1  0.51167050  0.66685048  0.11863356  1
  In  In65  1  0.50238963  0.66453448  0.63287289  1
  In  In66  1  0.82912024  -0.00888872  0.12077053  1
  In  In67  1  0.83781224  -0.01327476  0.62345884  1
  In  In68  1  0.85517293  0.33172759  0.12923828  1
  In  In69  1  0.82699199  0.32434182  0.62843494  1
  In  In70  1  0.83465408  0.67601039  0.12400510  1
  In  In71  1  0.82480975  0.67937731  0.63301342  1
  In  In72  1  0.33026601  0.66818836  0.25148990  1
  In  In73  1  0.66864581  0.32747411  0.25055480  1
  In  In74  1  0.16443657  0.83500458  -0.00583718  1
  In  In75  1  0.49816734  0.16808179  -0.00367083  1
  In  In76  1  -0.00059319  0.00239906  0.25234096  1
  In  In77  1  0.67181501  0.66858100  0.24686430  1
  In  In78  1  0.83550447  0.50310422  0.49212185  1
  In  In79  1  0.83895937  0.49932364  0.00065949  1
  In  In80  1  -0.00153119  0.33847970  0.74381938  1
  In  In81  1  0.83923280  0.16652805  0.49375646  1
  In  In82  1  0.00557241  -0.00377292  0.74269546  1
  In  In83  1  0.49676838  0.50127638  0.51428223  1
  In  In84  1  0.49339186  0.83960737  0.50981335  1
  In  In85  1  0.50122343  0.83022717  -0.01308119  1
  Cu  Cu86  1  0.00082056  0.66358941  0.50096076  1
  Cu  Cu87  1  0.17145699  0.16625029  0.74396002  1
  Cu  Cu88  1  0.83390805  0.50558648  0.75404087  1
  Cu  Cu89  1  0.49735580  0.49182595  0.74979853  1
  Cu  Cu90  1  0.32829102  0.33835859  0.00149782  1
  Cu  Cu91  1  0.49713248  0.16706793  0.75202220  1
  Cu  Cu92  1  0.33594253  0.65795209  -0.00634788  1
  Cu  Cu93  1  0.66940013  0.32950229  -0.00555549  1
  Cu  Cu94  1  0.82258187  0.16631321  0.75411228  1
  Cu  Cu95  1  0.66781658  0.66113321  -0.00488354  1
  Cu  Cu96  1  0.49428257  0.49992150  0.24446676  1
  Cu  Cu97  1  0.32973924  0.32559060  0.50068335  1
  Cu  Cu98  1  0.50564287  0.83382188  0.74572798  1
  Cu  Cu99  1  0.00523728  -0.00406055  0.49672972  1
  Cu  Cu100  1  0.49588518  0.16644125  0.25407958  1
  Cu  Cu101  1  -0.00534269  0.00108325  0.00571598  1
  Cu  Cu102  1  0.32749963  0.65857423  0.50452785  1
  Cu  Cu103  1  0.00953792  0.33608441  0.00441328  1
  Cu  Cu104  1  0.49638607  0.84624703  0.25791423  1
  Cu  Cu105  1  0.16874077  0.49555706  0.25216064  1
  Cu  Cu106  1  0.66730327  -0.01058131  0.00041032  1
  Cu  Cu107  1  0.66662770  0.00188591  0.50456895  1
  Cu  Cu108  1  0.83677891  0.83472302  0.74924820  1
  Cu  Cu109  1  0.66380106  0.33122032  0.50188927  1
  Cu  Cu110  1  0.00303096  0.66431948  0.00013364  1
  Cu  Cu111  1  0.16981650  0.50200300  0.74915734  1
  Cu  Cu112  1  0.32661321  0.00690270  -0.00171344  1
  Cu  Cu113  1  0.17336173  0.17126733  0.25417879  1
  Cu  Cu114  1  0.83128454  0.83638284  0.24985677  1
  Se  Se115  1  0.08698055  0.08292264  0.05064885  1
  Se  Se116  1  0.08662788  0.08320035  0.54709440  1
  Se  Se117  1  0.08669298  0.42168897  0.05948534  1
  Se  Se118  1  0.07292819  0.40958638  0.54851769  1
  Se  Se119  1  0.08086929  0.74723558  0.06157073  1
  Se  Se120  1  0.08466895  0.74735300  0.55385103  1
  Se  Se121  1  0.40963674  0.08080629  0.06017400  1
  Se  Se122  1  0.41898126  0.08594587  0.55001420  1
  Se  Se123  1  0.41853028  0.41865765  0.05109553  1
  Se  Se124  1  0.40455280  0.40753685  0.56619435  1
  Se  Se125  1  0.40980785  0.74445712  0.05388624  1
  Se  Se126  1  0.40888346  0.73853687  0.56310940  1
  Se  Se127  1  0.74789520  0.07733154  0.05156974  1
  Se  Se128  1  0.74978594  0.08520195  0.56283076  1
  Se  Se129  1  0.74924729  0.40630475  0.05969429  1
  Se  Se130  1  0.74447477  0.41436844  0.55778520  1
  Se  Se131  1  0.74768323  0.74534682  0.05039010  1
  Se  Se132  1  0.76327100  0.76397805  0.55566033  1
  Se  Se133  1  0.24991830  0.25094423  0.05619153  1
  Se  Se134  1  0.24628775  0.24524306  0.55620109  1
  Se  Se135  1  0.24667045  0.58249817  0.04747209  1
  Se  Se136  1  0.24197304  0.57537491  0.55513579  1
  Se  Se137  1  0.25245057  0.92199691  0.06006278  1
  Se  Se138  1  0.25691477  0.90348779  0.54912578  1
  Se  Se139  1  0.58871596  0.25442546  0.05982134  1
  Se  Se140  1  0.58014845  0.24700160  0.55205896  1
  Se  Se141  1  0.58009880  0.58033694  0.04506239  1
  Se  Se142  1  0.59654917  0.59540691  0.55799067  1
  Se  Se143  1  0.57966105  0.91679937  0.06021197  1
  Se  Se144  1  0.58964347  0.92495264  0.56871429  1
  Se  Se145  1  0.92277668  0.25090124  0.05241304  1
  Se  Se146  1  0.92240483  0.26040669  0.55653280  1
  Se  Se147  1  0.92779386  0.58368291  0.06471672  1
  Se  Se148  1  0.91659971  0.58841572  0.56269179  1
  Se  Se149  1  0.91367669  0.90953249  0.05169905  1
  Se  Se150  1  0.91462567  0.91653439  0.54580214  1
  Se  Se151  1  0.08417718  0.24898178  0.45252445  1
  Se  Se152  1  0.08762768  0.25013749  0.94788697  1
  Se  Se153  1  0.08126412  0.57560323  0.44893727  1
  Se  Se154  1  0.08883323  0.58543096  0.94634224  1
  Se  Se155  1  0.08943002  0.90889104  0.44768500  1
  Se  Se156  1  0.07224259  0.92742015  0.93720206  1
  Se  Se157  1  0.41901377  0.24813423  0.44918252  1
  Se  Se158  1  0.40590808  0.25690178  0.93864577  1
  Se  Se159  1  0.41170033  0.58478895  0.44222850  1
  Se  Se160  1  0.42146273  0.57593680  0.94276815  1
  Se  Se161  1  0.41401593  0.92577162  0.44120298  1
  Se  Se162  1  0.39857453  0.91971023  0.93832363  1
  Se  Se163  1  0.74829517  0.26320258  0.43693418  1
  Se  Se164  1  0.75048141  0.24011384  0.94735302  1
  Se  Se165  1  0.74114234  0.60055122  0.44259713  1
  Se  Se166  1  0.75091385  0.58301689  0.93468146  1
  Se  Se167  1  0.75174500  0.92308459  0.44948626  1
  Se  Se168  1  0.75261058  0.90850274  0.94706080  1
  Se  Se169  1  0.24410144  0.09017572  0.45082278  1
  Se  Se170  1  0.24321713  0.08869523  0.94504627  1
  Se  Se171  1  0.24970120  0.41604464  0.45116136  1
  Se  Se172  1  0.24455302  0.41967159  0.94623206  1
  Se  Se173  1  0.24838875  0.74413146  0.44951888  1
  Se  Se174  1  0.25835922  0.74560510  0.93699177  1
  Se  Se175  1  0.58928286  0.08777737  0.44920464  1
  Se  Se176  1  0.58251858  0.06720288  0.94078978  1
  Se  Se177  1  0.58330999  0.41488353  0.44325311  1
  Se  Se178  1  0.58440406  0.41563515  0.94742867  1
  Se  Se179  1  0.58966936  0.74937051  0.45115498  1
  Se  Se180  1  0.59164747  0.73928019  0.93025836  1
  Se  Se181  1  0.92868038  0.07715034  0.43347806  1
  Se  Se182  1  0.91221420  0.08563959  0.95109231  1
  Se  Se183  1  0.92543306  0.40981239  0.43802779  1
  Se  Se184  1  0.92829701  0.40894850  0.93796650  1
  Se  Se185  1  0.92014496  0.74918095  0.44703181  1
  Se  Se186  1  0.91741118  0.74779727  0.94994976  1
  Se  Se187  1  0.25337317  0.25484247  0.31074688  1
  Se  Se188  1  0.25022861  0.25201893  0.79926381  1
  Se  Se189  1  0.24424706  0.57892980  0.31452684  1
  Se  Se190  1  0.25236576  0.58339745  0.80533333  1
  Se  Se191  1  0.24757455  0.91705821  0.30391718  1
  Se  Se192  1  0.24307705  0.92595925  0.79167298  1
  Se  Se193  1  0.57794049  0.24467684  0.31539941  1
  Se  Se194  1  0.58092379  0.24962582  0.80698101  1
  Se  Se195  1  0.57361769  0.57836750  0.30587679  1
  Se  Se196  1  0.58250284  0.57837819  0.80085890  1
  Se  Se197  1  0.58744272  0.92517686  0.30652941  1
  Se  Se198  1  0.58675711  0.91985112  0.79906156  1
  Se  Se199  1  0.90084809  0.22462097  0.30140657  1
  Se  Se200  1  0.91330625  0.24435131  0.80795735  1
  Se  Se201  1  0.91227121  0.57912047  0.29919149  1
  Se  Se202  1  0.92289851  0.58980247  0.79919871  1
  Se  Se203  1  0.91219051  0.91069254  0.31429591  1
  Se  Se204  1  0.91481775  0.91653375  0.81111755  1
  Se  Se205  1  0.09266088  0.08803524  0.31285288  1
  Se  Se206  1  0.08431313  0.09477408  0.80573047  1
  Se  Se207  1  0.08650078  0.41304392  0.30847850  1
  Se  Se208  1  0.08715481  0.42175104  0.80987679  1
  Se  Se209  1  0.07898959  0.73956831  0.30140852  1
  Se  Se210  1  0.09791498  0.76829572  0.80266362  1
  Se  Se211  1  0.41238972  0.08427237  0.30842235  1
  Se  Se212  1  0.41195797  0.08107193  0.80169238  1
  Se  Se213  1  0.41344041  0.41555688  0.29764785  1
  Se  Se214  1  0.41073278  0.41164397  0.80326561  1
  Se  Se215  1  0.41975082  0.75944806  0.31447074  1
  Se  Se216  1  0.41857850  0.75435396  0.80003265  1
  Se  Se217  1  0.75279342  0.08655496  0.29449829  1
  Se  Se218  1  0.74516421  0.07754152  0.80664332  1
  Se  Se219  1  0.75426329  0.42807907  0.30547567  1
  Se  Se220  1  0.75455194  0.41492017  0.80344959  1
  Se  Se221  1  0.75134903  0.75831957  0.31397751  1
  Se  Se222  1  0.75332871  0.74972905  0.80221240  1
  Se  Se223  1  0.25094965  0.08314454  0.19992257  1
  Se  Se224  1  0.25080389  0.08146801  0.68961794  1
  Se  Se225  1  0.25403703  0.41655768  0.19626259  1
  Se  Se226  1  0.24692800  0.41156460  0.69713460  1
  Se  Se227  1  0.23983141  0.75683859  0.19158864  1
  Se  Se228  1  0.26741148  0.73139410  0.69442382  1
  Se  Se229  1  0.58107411  0.08436103  0.20139928  1
  Se  Se230  1  0.58299447  0.08480745  0.69896900  1
  Se  Se231  1  0.58086536  0.42188292  0.18772562  1
  Se  Se232  1  0.58499040  0.41219471  0.69672609  1
  Se  Se233  1  0.57216210  0.76251377  0.19503667  1
  Se  Se234  1  0.58969651  0.74631026  0.69868231  1
  Se  Se235  1  0.91718233  0.08461754  0.18269778  1
  Se  Se236  1  0.90676239  0.09237065  0.69177223  1
  Se  Se237  1  0.91650640  0.41038788  0.20834894  1
  Se  Se238  1  0.90831182  0.43013115  0.68513473  1
  Se  Se239  1  0.91464297  0.75172973  0.19844289  1
  Se  Se240  1  0.92287868  0.75298337  0.69686866  1
  Se  Se241  1  0.08635014  0.25010473  0.19843582  1
  Se  Se242  1  0.08660506  0.24448281  0.68620373  1
  Se  Se243  1  0.08667006  0.58209660  0.20007758  1
  Se  Se244  1  0.08568498  0.58642764  0.69766371  1
  Se  Se245  1  0.09160253  0.90950411  0.19506826  1
  Se  Se246  1  0.08964887  0.91637945  0.67483723  1
  Se  Se247  1  0.41523769  0.25291453  0.20149123  1
  Se  Se248  1  0.41419166  0.24890839  0.69670093  1
  Se  Se249  1  0.41925142  0.58355136  0.18432870  1
  Se  Se250  1  0.41763166  0.58091046  0.69885305  1
  Se  Se251  1  0.40879624  0.92191678  0.20220952  1
  Se  Se252  1  0.41947735  0.91919885  0.69708774  1
  Se  Se253  1  0.75429320  0.24284860  0.18539947  1
  Se  Se254  1  0.74314923  0.25405489  0.70154696  1
  Se  Se255  1  0.76017067  0.57397667  0.19015781  1
  Se  Se256  1  0.74891743  0.58679171  0.69897536  1
  Se  Se257  1  0.74658216  0.91701480  0.19611633  1
  Se  Se258  1  0.75292712  0.92053544  0.69890694  1
