# generated using pymatgen
data_In86Cu29Se144
_symmetry_space_group_name_H-M   'P 1'
_cell_length_a   17.58516241
_cell_length_b   17.57838307
_cell_length_c   23.43787827
_cell_angle_alpha   89.99478148
_cell_angle_beta   89.98676213
_cell_angle_gamma   90.00048986
_symmetry_Int_Tables_number   1
_chemical_formula_structural   In86Cu29Se144
_chemical_formula_sum   'In86 Cu29 Se144'
_cell_volume   7245.08673982
_cell_formula_units_Z   1
loop_
 _symmetry_equiv_pos_site_id
 _symmetry_equiv_pos_as_xyz
  1  'x, y, z'
loop_
 _atom_site_type_symbol
 _atom_site_label
 _atom_site_symmetry_multiplicity
 _atom_site_fract_x
 _atom_site_fract_y
 _atom_site_fract_z
 _atom_site_occupancy
  In  In0  1  0.01111711  0.16972173  0.11741729  1
  In  In1  1  -0.00068163  0.16607141  0.63484362  1
  In  In2  1  -0.01400857  0.51759627  0.13425381  1
  In  In3  1  0.01041906  0.49163933  0.63348805  1
  In  In4  1  -0.00724726  0.83278500  0.11729457  1
  In  In5  1  -0.00259247  0.83300035  0.62869399  1
  In  In6  1  0.33299732  0.16776884  0.11065472  1
  In  In7  1  0.33030287  0.15202903  0.64491826  1
  In  In8  1  0.34230909  0.50490368  0.12354186  1
  In  In9  1  0.33784725  0.50125771  0.63001326  1
  In  In10  1  0.33455398  0.82060290  0.12511998  1
  In  In11  1  0.32798807  0.83222584  0.63137475  1
  In  In12  1  0.66939644  0.19394917  0.11747307  1
  In  In13  1  0.66876488  0.15100683  0.62860745  1
  In  In14  1  0.66695626  0.49737815  0.11778592  1
  In  In15  1  0.65566762  0.51197130  0.61788388  1
  In  In16  1  0.66566579  0.83079999  0.12064360  1
  In  In17  1  0.67439172  0.83718022  0.61405171  1
  In  In18  1  0.15766468  -0.00357545  0.38602699  1
  In  In19  1  0.18194765  0.01527833  0.85192274  1
  In  In20  1  0.16364699  0.34233629  0.37491777  1
  In  In21  1  0.15860059  0.31771572  0.86422608  1
  In  In22  1  0.16843896  0.66946494  0.37085749  1
  In  In23  1  0.16526199  0.67656529  0.85850547  1
  In  In24  1  0.49361850  -0.01336677  0.38269373  1
  In  In25  1  0.49792063  -0.00373419  0.87104251  1
  In  In26  1  0.51365184  0.33535666  0.37373478  1
  In  In27  1  0.49204321  0.34525106  0.88537336  1
  In  In28  1  0.49318939  0.67033555  0.38436920  1
  In  In29  1  0.50081054  0.66884770  0.88205521  1
  In  In30  1  0.83986590  -0.00386540  0.38660428  1
  In  In31  1  0.81726603  -0.00648539  0.86630546  1
  In  In32  1  0.82994438  0.33374354  0.37006335  1
  In  In33  1  0.83877266  0.33345032  0.88149176  1
  In  In34  1  0.84645267  0.66146739  0.37423990  1
  In  In35  1  0.84337053  0.66418227  0.88536858  1
  In  In36  1  -0.00728396  0.16186481  0.37734369  1
  In  In37  1  0.00886431  0.17223579  0.86142746  1
  In  In38  1  -0.01140723  0.50045154  0.36165200  1
  In  In39  1  -0.00213087  0.50322425  0.87358611  1
  In  In40  1  0.00541511  0.82591184  0.38634796  1
  In  In41  1  -0.00859604  0.83206136  0.86412156  1
  In  In42  1  0.33376404  0.16162675  0.37851311  1
  In  In43  1  0.33104981  0.16738283  0.86994430  1
  In  In44  1  0.32516494  0.51499671  0.37714147  1
  In  In45  1  0.34205768  0.50931978  0.86885557  1
  In  In46  1  0.34525201  0.82003713  0.39379853  1
  In  In47  1  0.33911693  0.84160202  0.86053267  1
  In  In48  1  0.66781223  0.18677283  0.37153106  1
  In  In49  1  0.66903912  0.15506899  0.87669542  1
  In  In50  1  0.67374786  0.48570001  0.37284571  1
  In  In51  1  0.66400477  0.49833727  0.89367283  1
  In  In52  1  0.66791491  0.82455788  0.39106512  1
  In  In53  1  0.65984680  0.83750077  0.87878826  1
  In  In54  1  0.15777354  0.00485778  0.11406119  1
  In  In55  1  0.18831123  -0.03121793  0.66272047  1
  In  In56  1  0.16276695  0.32555478  0.11743007  1
  In  In57  1  0.17320718  0.31983880  0.64394641  1
  In  In58  1  0.16852314  0.67375041  0.13032277  1
  In  In59  1  0.15274419  0.68496034  0.64552662  1
  In  In60  1  0.49560413  -0.00128989  0.11446599  1
  In  In61  1  0.50025372  -0.00854778  0.63164698  1
  In  In62  1  0.52158487  0.35355944  0.09809190  1
  In  In63  1  0.48935555  0.33116565  0.62796493  1
  In  In64  1  0.49694093  0.66066194  0.12119745  1
  In  In65  1  0.49430485  0.65885702  0.61525482  1
  In  In66  1  0.84522646  -0.00450221  0.11504532  1
  In  In67  1  0.82990802  -0.00228986  0.62637388  1
  In  In68  1  0.82203471  0.35254378  0.14108536  1
  In  In69  1  0.85264100  0.33061256  0.62499524  1
  In  In70  1  0.84141028  0.66999534  0.11672062  1
  In  In71  1  0.82804557  0.67715550  0.61876312  1
  In  In72  1  0.50679903  0.15959185  0.51010126  1
  In  In73  1  0.83264377  0.16773995  -0.00297128  1
  In  In74  1  0.66521113  0.00650646  0.25037226  1
  In  In75  1  0.83090156  0.50457512  0.49251687  1
  In  In76  1  0.16668695  0.50225451  0.50137992  1
  In  In77  1  0.66772880  0.66212281  0.25336632  1
  In  In78  1  0.16619320  0.15379000  0.51985367  1
  In  In79  1  0.66524263  0.67035233  0.74643597  1
  In  In80  1  0.16577507  0.83717235  -0.01189311  1
  In  In81  1  0.66955770  0.33261430  0.76366549  1
  In  In82  1  0.33705782  0.33815638  0.23961854  1
  In  In83  1  0.33177203  -0.00283522  0.25917898  1
  In  In84  1  0.00214466  0.00074271  0.24387007  1
  In  In85  1  0.16424806  0.50092668  -0.01256153  1
  Cu  Cu86  1  0.00105081  0.66849155  0.50412477  1
  Cu  Cu87  1  0.17203951  0.16873427  0.24371947  1
  Cu  Cu88  1  0.49863412  0.49993530  0.24345362  1
  Cu  Cu89  1  0.84301378  0.50828298  0.75332186  1
  Cu  Cu90  1  0.32530189  0.32695428  -0.00487140  1
  Cu  Cu91  1  0.00253485  0.00309419  -0.01258004  1
  Cu  Cu92  1  0.16627131  0.82607253  0.25628775  1
  Cu  Cu93  1  0.67177838  0.00275878  0.50205191  1
  Cu  Cu94  1  0.33185663  -0.00339893  -0.01476324  1
  Cu  Cu95  1  -0.00172177  -0.00751802  0.51090423  1
  Cu  Cu96  1  0.83107920  0.16433108  0.75165135  1
  Cu  Cu97  1  0.32522325  0.67086073  0.50520450  1
  Cu  Cu98  1  0.50213774  0.49868984  0.75173526  1
  Cu  Cu99  1  0.50418380  0.17520114  0.24354404  1
  Cu  Cu100  1  0.67288129  0.67280147  0.00277568  1
  Cu  Cu101  1  0.34020283  0.66558524  -0.00314979  1
  Cu  Cu102  1  0.83929935  0.83203139  0.24655957  1
  Cu  Cu103  1  0.34622027  0.33301981  0.50961534  1
  Cu  Cu104  1  0.49643199  0.16143946  0.75214273  1
  Cu  Cu105  1  0.49990874  0.83277813  0.75163634  1
  Cu  Cu106  1  0.00362606  0.32234418  0.50274824  1
  Cu  Cu107  1  0.83575201  0.17509689  0.25279301  1
  Cu  Cu108  1  0.67449200  0.33445139  0.49656905  1
  Cu  Cu109  1  -0.00231680  0.33752176  -0.00412830  1
  Cu  Cu110  1  0.66279142  -0.00511499  -0.00323402  1
  Cu  Cu111  1  0.15804533  0.50313847  0.24975944  1
  Cu  Cu112  1  0.82975306  0.83238739  0.74509483  1
  Cu  Cu113  1  0.17102929  0.49781120  0.75369339  1
  Cu  Cu114  1  0.49231692  0.82823034  0.25970991  1
  Se  Se115  1  0.08313966  0.08715267  0.04218978  1
  Se  Se116  1  0.07889126  0.06232476  0.57672950  1
  Se  Se117  1  0.07779942  0.41927891  0.05574709  1
  Se  Se118  1  0.08756848  0.40105229  0.56082405  1
  Se  Se119  1  0.08357179  0.74613503  0.05314862  1
  Se  Se120  1  0.08328051  0.74895721  0.56024134  1
  Se  Se121  1  0.41152819  0.07761309  0.04570877  1
  Se  Se122  1  0.40748745  0.07735572  0.56478282  1
  Se  Se123  1  0.40375957  0.41479042  0.04956574  1
  Se  Se124  1  0.42428487  0.42464863  0.55737231  1
  Se  Se125  1  0.41988966  0.75061338  0.05233504  1
  Se  Se126  1  0.41024327  0.75337006  0.55733455  1
  Se  Se127  1  0.74071786  0.07733202  0.05967485  1
  Se  Se128  1  0.75511706  0.08687000  0.55364578  1
  Se  Se129  1  0.74872113  0.40606203  0.05576570  1
  Se  Se130  1  0.75076285  0.41337000  0.56192285  1
  Se  Se131  1  0.75691021  0.75833803  0.05345922  1
  Se  Se132  1  0.73390397  0.73470892  0.54835009  1
  Se  Se133  1  0.23992962  0.24380061  0.04576384  1
  Se  Se134  1  0.26430363  0.25199622  0.56632978  1
  Se  Se135  1  0.25209483  0.59036428  0.05474602  1
  Se  Se136  1  0.24583996  0.59142754  0.56731342  1
  Se  Se137  1  0.25812020  0.92065120  0.05589098  1
  Se  Se138  1  0.24199660  0.92005571  0.56870635  1
  Se  Se139  1  0.56309573  0.22952644  0.04862612  1
  Se  Se140  1  0.59621424  0.25877892  0.56371069  1
  Se  Se141  1  0.58657923  0.58753394  0.05307456  1
  Se  Se142  1  0.58428466  0.58957123  0.54400709  1
  Se  Se143  1  0.58114478  0.91149927  0.05255367  1
  Se  Se144  1  0.58308912  0.92448967  0.55433778  1
  Se  Se145  1  0.91786055  0.25832779  0.05917038  1
  Se  Se146  1  0.92051511  0.23933628  0.55477697  1
  Se  Se147  1  0.92000692  0.58198323  0.04995451  1
  Se  Se148  1  0.92612462  0.57967113  0.56149640  1
  Se  Se149  1  0.92316850  0.91781422  0.04228106  1
  Se  Se150  1  0.90951171  0.90852493  0.55871889  1
  Se  Se151  1  0.09021600  0.24530258  0.44485952  1
  Se  Se152  1  0.07615858  0.25011954  0.94193282  1
  Se  Se153  1  0.07119869  0.58359343  0.43909605  1
  Se  Se154  1  0.08088027  0.60295996  0.93531515  1
  Se  Se155  1  0.08284352  0.91186606  0.45579117  1
  Se  Se156  1  0.08459784  0.92886675  0.92520578  1
  Se  Se157  1  0.41926554  0.25275540  0.44408154  1
  Se  Se158  1  0.41238207  0.24628760  0.94309701  1
  Se  Se159  1  0.40767548  0.58478600  0.45111208  1
  Se  Se160  1  0.42238955  0.57635448  0.94783564  1
  Se  Se161  1  0.40156579  0.92907793  0.45378887  1
  Se  Se162  1  0.41723140  0.90874042  0.94025756  1
  Se  Se163  1  0.75754350  0.25008375  0.44537522  1
  Se  Se164  1  0.73611346  0.25816641  0.94320164  1
  Se  Se165  1  0.73786988  0.59455741  0.43629094  1
  Se  Se166  1  0.75414322  0.58545068  0.95189324  1
  Se  Se167  1  0.75361174  0.91420283  0.45143762  1
  Se  Se168  1  0.75152797  0.91484962  0.94625094  1
  Se  Se169  1  0.25717474  0.07527339  0.44877440  1
  Se  Se170  1  0.24575370  0.08202230  0.93817925  1
  Se  Se171  1  0.26235616  0.40615861  0.44652102  1
  Se  Se172  1  0.25389446  0.40923717  0.93031961  1
  Se  Se173  1  0.23825139  0.74777263  0.44877393  1
  Se  Se174  1  0.26060281  0.74404065  0.93461334  1
  Se  Se175  1  0.59344321  0.08038545  0.43628113  1
  Se  Se176  1  0.58026099  0.07765716  0.94324062  1
  Se  Se177  1  0.58686895  0.41705726  0.44751294  1
  Se  Se178  1  0.58194729  0.41222653  0.95693528  1
  Se  Se179  1  0.55687046  0.77152197  0.44849558  1
  Se  Se180  1  0.58462153  0.75115351  0.94933611  1
  Se  Se181  1  0.92410304  0.07979718  0.45288520  1
  Se  Se182  1  0.91598191  0.08120596  0.93009904  1
  Se  Se183  1  0.92857784  0.40884938  0.44285034  1
  Se  Se184  1  0.91568945  0.42469139  0.94643757  1
  Se  Se185  1  0.91266995  0.74670673  0.45017492  1
  Se  Se186  1  0.92009792  0.76249141  0.94463572  1
  Se  Se187  1  0.25032641  0.24752059  0.30677713  1
  Se  Se188  1  0.25429550  0.25054958  0.79816694  1
  Se  Se189  1  0.24642438  0.58371639  0.30062765  1
  Se  Se190  1  0.25401057  0.58655890  0.80101442  1
  Se  Se191  1  0.24125719  0.90812997  0.31762266  1
  Se  Se192  1  0.24896670  0.91178766  0.79146491  1
  Se  Se193  1  0.58663215  0.25896711  0.29645599  1
  Se  Se194  1  0.57197191  0.24274948  0.81496684  1
  Se  Se195  1  0.57263676  0.57560124  0.31214447  1
  Se  Se196  1  0.58592227  0.57487657  0.81162809  1
  Se  Se197  1  0.58157882  0.90907625  0.31066241  1
  Se  Se198  1  0.58617170  0.91562311  0.80269172  1
  Se  Se199  1  0.92367773  0.25109916  0.30726826  1
  Se  Se200  1  0.90772806  0.25269351  0.80548482  1
  Se  Se201  1  0.90888681  0.58456152  0.29481718  1
  Se  Se202  1  0.92145832  0.59519731  0.80594623  1
  Se  Se203  1  0.91624379  0.91321881  0.30866175  1
  Se  Se204  1  0.90861673  0.91983279  0.79863326  1
  Se  Se205  1  0.09439973  0.08857789  0.30670715  1
  Se  Se206  1  0.07632377  0.08063218  0.79239018  1
  Se  Se207  1  0.08131384  0.41413455  0.30260240  1
  Se  Se208  1  0.08221097  0.41957906  0.80691821  1
  Se  Se209  1  0.07477489  0.74887749  0.30694602  1
  Se  Se210  1  0.08802475  0.76861629  0.79363224  1
  Se  Se211  1  0.43233051  0.09297245  0.30760039  1
  Se  Se212  1  0.41148008  0.07675817  0.80296096  1
  Se  Se213  1  0.41896691  0.42358710  0.30989981  1
  Se  Se214  1  0.41903710  0.41450213  0.80397475  1
  Se  Se215  1  0.40856587  0.74529260  0.31049172  1
  Se  Se216  1  0.42385778  0.74301788  0.80539361  1
  Se  Se217  1  0.76156123  0.08818748  0.31272669  1
  Se  Se218  1  0.74031445  0.08189516  0.79719254  1
  Se  Se219  1  0.76089748  0.42352443  0.29972639  1
  Se  Se220  1  0.75856148  0.43345770  0.81442659  1
  Se  Se221  1  0.75501463  0.76061349  0.30954786  1
  Se  Se222  1  0.75438234  0.75304778  0.81107736  1
  Se  Se223  1  0.24866105  0.08310393  0.18756546  1
  Se  Se224  1  0.21673656  0.10285916  0.70377970  1
  Se  Se225  1  0.23784735  0.42704656  0.18571357  1
  Se  Se226  1  0.25599418  0.41742619  0.69891319  1
  Se  Se227  1  0.25459716  0.74978493  0.20112219  1
  Se  Se228  1  0.27094843  0.72990511  0.69987759  1
  Se  Se229  1  0.57911074  0.08954711  0.18370490  1
  Se  Se230  1  0.58106137  0.08027310  0.69863434  1
  Se  Se231  1  0.57938198  0.41787534  0.18767959  1
  Se  Se232  1  0.58546574  0.41907829  0.69351688  1
  Se  Se233  1  0.57668853  0.75620247  0.19552323  1
  Se  Se234  1  0.57569672  0.75652895  0.68518532  1
  Se  Se235  1  0.90863103  0.09435262  0.18802101  1
  Se  Se236  1  0.91121759  0.07948380  0.69731413  1
  Se  Se237  1  0.94274452  0.39933354  0.19058633  1
  Se  Se238  1  0.91755680  0.41683424  0.70032848  1
  Se  Se239  1  0.92031175  0.75109657  0.19123932  1
  Se  Se240  1  0.91051285  0.74452974  0.69395472  1
  Se  Se241  1  0.08502986  0.24912076  0.19336102  1
  Se  Se242  1  0.05849439  0.27082453  0.69925240  1
  Se  Se243  1  0.08205261  0.59308497  0.19701468  1
  Se  Se244  1  0.08177901  0.58036633  0.70353110  1
  Se  Se245  1  0.09575658  0.90692131  0.18864200  1
  Se  Se246  1  0.07907529  0.89408366  0.71060429  1
  Se  Se247  1  0.42291470  0.24747941  0.17984950  1
  Se  Se248  1  0.41587479  0.24851933  0.70024780  1
  Se  Se249  1  0.41466438  0.58861536  0.19694682  1
  Se  Se250  1  0.42453291  0.58490354  0.69638715  1
  Se  Se251  1  0.42201866  0.91202204  0.19483609  1
  Se  Se252  1  0.41299618  0.91641873  0.70123410  1
  Se  Se253  1  0.74614005  0.25199854  0.20082178  1
  Se  Se254  1  0.75334895  0.24984869  0.69181075  1
  Se  Se255  1  0.75441059  0.58256675  0.18616167  1
  Se  Se256  1  0.75631896  0.57460338  0.68948774  1
  Se  Se257  1  0.75889353  0.91631544  0.19059506  1
  Se  Se258  1  0.74284336  0.91418731  0.69352373  1
