# generated using pymatgen
data_In86Cu29Se144
_symmetry_space_group_name_H-M   'P 1'
_cell_length_a   17.58522637
_cell_length_b   17.58682273
_cell_length_c   23.45441967
_cell_angle_alpha   89.99203163
_cell_angle_beta   90.00109667
_cell_angle_gamma   90.00354036
_symmetry_Int_Tables_number   1
_chemical_formula_structural   In86Cu29Se144
_chemical_formula_sum   'In86 Cu29 Se144'
_cell_volume   7253.70744725
_cell_formula_units_Z   1
loop_
 _symmetry_equiv_pos_site_id
 _symmetry_equiv_pos_as_xyz
  1  'x, y, z'
loop_
 _atom_site_type_symbol
 _atom_site_label
 _atom_site_symmetry_multiplicity
 _atom_site_fract_x
 _atom_site_fract_y
 _atom_site_fract_z
 _atom_site_occupancy
  In  In0  1  -0.01264078  0.18125742  0.13123531  1
  In  In1  1  -0.00647537  0.16994581  0.63277814  1
  In  In2  1  -0.01635381  0.48301318  0.10945085  1
  In  In3  1  0.00028083  0.49942543  0.63994777  1
  In  In4  1  -0.00125614  0.83486046  0.11811519  1
  In  In5  1  -0.01579940  0.84640970  0.64219333  1
  In  In6  1  0.34542934  0.17129393  0.12791114  1
  In  In7  1  0.34597354  0.15862716  0.62854776  1
  In  In8  1  0.32220622  0.49246620  0.11810373  1
  In  In9  1  0.33799115  0.49441088  0.62508134  1
  In  In10  1  0.32612216  0.84110889  0.12040021  1
  In  In11  1  0.34957137  0.84578035  0.62409643  1
  In  In12  1  0.68768820  0.17960982  0.11937163  1
  In  In13  1  0.67560776  0.17516170  0.61808587  1
  In  In14  1  0.67224823  0.50064218  0.12486239  1
  In  In15  1  0.65526504  0.49800194  0.62487275  1
  In  In16  1  0.67176113  0.81686253  0.13032764  1
  In  In17  1  0.66923997  0.83425533  0.61917034  1
  In  In18  1  0.16220788  0.00770109  0.37395851  1
  In  In19  1  0.15198832  -0.01295154  0.86406715  1
  In  In20  1  0.16624741  0.32517880  0.36596959  1
  In  In21  1  0.17485916  0.34075879  0.87184042  1
  In  In22  1  0.15954326  0.67007671  0.37286760  1
  In  In23  1  0.16127208  0.67812876  0.88385010  1
  In  In24  1  0.49756961  0.00373504  0.39375224  1
  In  In25  1  0.50156418  0.00848113  0.86409785  1
  In  In26  1  0.50358015  0.33780099  0.37576473  1
  In  In27  1  0.50685771  0.33896224  0.86403444  1
  In  In28  1  0.50799249  0.65242213  0.38964369  1
  In  In29  1  0.49258611  0.65642414  0.87209793  1
  In  In30  1  0.83694636  -0.00816675  0.37877251  1
  In  In31  1  0.84535079  -0.01086837  0.88390725  1
  In  In32  1  0.82245388  0.32354819  0.36297138  1
  In  In33  1  0.83285480  0.32783348  0.87834397  1
  In  In34  1  0.82968276  0.68486646  0.36962517  1
  In  In35  1  0.83286187  0.65894242  0.87951223  1
  In  In36  1  -0.00715609  0.15386716  0.36930251  1
  In  In37  1  -0.01102645  0.15644518  0.86941284  1
  In  In38  1  0.00422201  0.49580113  0.36975875  1
  In  In39  1  0.00002330  0.49985535  0.87796590  1
  In  In40  1  -0.02026077  0.83762346  0.37456339  1
  In  In41  1  -0.00507730  0.83331590  0.87222080  1
  In  In42  1  0.33625205  0.17578104  0.37901967  1
  In  In43  1  0.33405839  0.16824259  0.86104959  1
  In  In44  1  0.35012018  0.49915360  0.37765690  1
  In  In45  1  0.34566365  0.49359672  0.88294626  1
  In  In46  1  0.33508302  0.84112552  0.38389430  1
  In  In47  1  0.32489076  0.82791344  0.86798260  1
  In  In48  1  0.66102178  0.17546006  0.38245301  1
  In  In49  1  0.67041071  0.18180892  0.87441404  1
  In  In50  1  0.66081517  0.48797197  0.36181949  1
  In  In51  1  0.68304161  0.47253717  0.89740531  1
  In  In52  1  0.67101781  0.82786983  0.38032997  1
  In  In53  1  0.67683366  0.84122311  0.87329605  1
  In  In54  1  0.15934875  -0.01502166  0.11773733  1
  In  In55  1  0.16541782  -0.00094050  0.63375147  1
  In  In56  1  0.15679690  0.34101863  0.12656242  1
  In  In57  1  0.16689156  0.33579072  0.63593867  1
  In  In58  1  0.15947626  0.66376004  0.11385327  1
  In  In59  1  0.15931431  0.65852664  0.63067421  1
  In  In60  1  0.49781931  0.00268801  0.12763223  1
  In  In61  1  0.48463328  -0.00812699  0.61076156  1
  In  In62  1  0.49774300  0.34321163  0.13069863  1
  In  In63  1  0.50323181  0.33364858  0.62424732  1
  In  In64  1  0.52108025  0.66020616  0.13324814  1
  In  In65  1  0.50263552  0.67316332  0.61200056  1
  In  In66  1  0.84334006  0.00753600  0.11843199  1
  In  In67  1  0.83392957  0.00206415  0.62287706  1
  In  In68  1  0.83459374  0.34503256  0.12648540  1
  In  In69  1  0.84092286  0.32571412  0.63388114  1
  In  In70  1  0.82389327  0.66008655  0.11830783  1
  In  In71  1  0.83574877  0.67559308  0.62874866  1
  In  In72  1  0.50136145  0.82577999  -0.00172950  1
  In  In73  1  0.66908706  0.00427163  0.24841322  1
  In  In74  1  0.66710768  0.66286352  0.74839954  1
  In  In75  1  0.32981294  0.00521261  0.25985957  1
  In  In76  1  0.16357119  0.16649273  -0.00618392  1
  In  In77  1  0.83020580  0.49846289  0.49137894  1
  In  In78  1  0.33367790  0.66316653  0.25784268  1
  In  In79  1  0.17014246  0.82856595  0.50666206  1
  In  In80  1  0.33127241  0.66793369  0.74575728  1
  In  In81  1  0.66461893  0.00273977  0.74271078  1
  In  In82  1  0.17426823  0.16335407  0.50308919  1
  In  In83  1  0.17114451  0.49661158  0.50910968  1
  In  In84  1  0.50500060  0.16965275  0.00209001  1
  In  In85  1  -0.01210800  0.65427738  0.23628059  1
  Cu  Cu86  1  -0.00532337  0.66844381  0.50265784  1
  Cu  Cu87  1  0.66729964  0.66082249  0.00343961  1
  Cu  Cu88  1  0.16688819  0.16300746  0.24766309  1
  Cu  Cu89  1  -0.00638089  -0.00388969  0.50116644  1
  Cu  Cu90  1  0.50485520  0.49352806  0.75301920  1
  Cu  Cu91  1  0.67111690  0.00408545  0.50253036  1
  Cu  Cu92  1  0.67169031  -0.00291008  0.00262360  1
  Cu  Cu93  1  0.33516429  0.33310603  -0.00129912  1
  Cu  Cu94  1  0.83215380  0.49358818  0.76114815  1
  Cu  Cu95  1  0.33596393  0.66483209  0.00012289  1
  Cu  Cu96  1  0.83615824  0.17098390  0.24823579  1
  Cu  Cu97  1  0.82953267  0.16401609  0.75084826  1
  Cu  Cu98  1  0.49634997  0.16886102  0.74204669  1
  Cu  Cu99  1  -0.00331961  0.33472670  0.00005701  1
  Cu  Cu100  1  0.15475628  0.82751255  0.24268495  1
  Cu  Cu101  1  0.50947294  0.18063259  0.25270056  1
  Cu  Cu102  1  -0.00590490  0.32215792  0.50301576  1
  Cu  Cu103  1  0.16380481  0.83637102  0.75375959  1
  Cu  Cu104  1  -0.00117817  0.00028864  -0.00506227  1
  Cu  Cu105  1  0.32490503  -0.00667319  -0.00896637  1
  Cu  Cu106  1  0.00010895  0.67120755  -0.00337344  1
  Cu  Cu107  1  0.34264683  0.33574669  0.50059912  1
  Cu  Cu108  1  0.66807502  0.33727741  0.49509650  1
  Cu  Cu109  1  0.16371407  0.17442776  0.75054684  1
  Cu  Cu110  1  0.50258951  0.49912505  0.25194676  1
  Cu  Cu111  1  0.50376842  0.83461922  0.25810210  1
  Cu  Cu112  1  0.16805164  0.48623128  0.24573922  1
  Cu  Cu113  1  0.16637546  0.50467513  0.75800122  1
  Cu  Cu114  1  0.66899377  0.66825247  0.50040484  1
  Se  Se115  1  0.07382046  0.08287890  0.05855824  1
  Se  Se116  1  0.07572976  0.07641482  0.55941620  1
  Se  Se117  1  0.08806416  0.41707298  0.04713321  1
  Se  Se118  1  0.07141143  0.40709445  0.56146598  1
  Se  Se119  1  0.08444799  0.75557337  0.04895155  1
  Se  Se120  1  0.07213070  0.74670082  0.56508979  1
  Se  Se121  1  0.40543750  0.07200097  0.05243565  1
  Se  Se122  1  0.41835730  0.09309259  0.54764386  1
  Se  Se123  1  0.41643608  0.41501112  0.05473622  1
  Se  Se124  1  0.42342106  0.42099790  0.55392134  1
  Se  Se125  1  0.41469942  0.74097502  0.06644342  1
  Se  Se126  1  0.40856975  0.75206837  0.55332276  1
  Se  Se127  1  0.75357598  0.08546146  0.05109943  1
  Se  Se128  1  0.75702873  0.08694084  0.55279363  1
  Se  Se129  1  0.75264840  0.42084264  0.05387918  1
  Se  Se130  1  0.74896673  0.41166162  0.56023798  1
  Se  Se131  1  0.74854299  0.75285955  0.04959144  1
  Se  Se132  1  0.75414287  0.74773978  0.55454488  1
  Se  Se133  1  0.25550187  0.25075823  0.05805806  1
  Se  Se134  1  0.25623477  0.26195613  0.56157207  1
  Se  Se135  1  0.24810886  0.58235418  0.04995497  1
  Se  Se136  1  0.25914772  0.59514793  0.56112085  1
  Se  Se137  1  0.24384038  0.91081151  0.04535886  1
  Se  Se138  1  0.25419071  0.93008395  0.55828030  1
  Se  Se139  1  0.59008989  0.26306540  0.05943864  1
  Se  Se140  1  0.58614652  0.25509041  0.55230794  1
  Se  Se141  1  0.58115100  0.57917820  0.05421611  1
  Se  Se142  1  0.58591599  0.58195072  0.55080714  1
  Se  Se143  1  0.58686963  0.91954478  0.06182433  1
  Se  Se144  1  0.58673235  0.91760403  0.55230842  1
  Se  Se145  1  0.91243862  0.25487414  0.05516987  1
  Se  Se146  1  0.91096158  0.24282846  0.55759957  1
  Se  Se147  1  0.91733219  0.58796535  0.05069740  1
  Se  Se148  1  0.92110892  0.57868761  0.56005024  1
  Se  Se149  1  0.91530028  0.91647484  0.04888271  1
  Se  Se150  1  0.91537096  0.91087763  0.55711652  1
  Se  Se151  1  0.08041753  0.24868391  0.44194582  1
  Se  Se152  1  0.07411460  0.25674838  0.93527878  1
  Se  Se153  1  0.07656368  0.58668312  0.44640498  1
  Se  Se154  1  0.08384075  0.58401984  0.94677254  1
  Se  Se155  1  0.07915706  0.91800887  0.44282957  1
  Se  Se156  1  0.08116496  0.91428211  0.94358022  1
  Se  Se157  1  0.42382816  0.25205898  0.44638554  1
  Se  Se158  1  0.41124844  0.25053083  0.93803507  1
  Se  Se159  1  0.40940052  0.58408733  0.45307287  1
  Se  Se160  1  0.42292813  0.58219711  0.95134973  1
  Se  Se161  1  0.41758054  0.91318028  0.45495691  1
  Se  Se162  1  0.41724707  0.92068040  0.93598806  1
  Se  Se163  1  0.75582544  0.25349655  0.44653994  1
  Se  Se164  1  0.74657687  0.25227716  0.94969439  1
  Se  Se165  1  0.74259112  0.59110357  0.43382936  1
  Se  Se166  1  0.75438937  0.57830429  0.95236208  1
  Se  Se167  1  0.74947514  0.91659365  0.44779891  1
  Se  Se168  1  0.75336548  0.91167126  0.95055792  1
  Se  Se169  1  0.26252441  0.07134641  0.44218111  1
  Se  Se170  1  0.25159571  0.07800148  0.93119787  1
  Se  Se171  1  0.25217505  0.40667284  0.44085127  1
  Se  Se172  1  0.25050973  0.41789016  0.94773377  1
  Se  Se173  1  0.25447485  0.73683200  0.44229132  1
  Se  Se174  1  0.25730339  0.75349874  0.94820527  1
  Se  Se175  1  0.58601139  0.09020476  0.45344531  1
  Se  Se176  1  0.59068758  0.07434942  0.94103411  1
  Se  Se177  1  0.58585914  0.42370902  0.44428443  1
  Se  Se178  1  0.56275693  0.41958125  0.94501674  1
  Se  Se179  1  0.58258245  0.75288237  0.44938776  1
  Se  Se180  1  0.59294126  0.73974822  0.93654327  1
  Se  Se181  1  0.91518704  0.08253321  0.44654310  1
  Se  Se182  1  0.91273760  0.08894857  0.94967710  1
  Se  Se183  1  0.92443534  0.40489694  0.43855068  1
  Se  Se184  1  0.91400953  0.41746791  0.94502874  1
  Se  Se185  1  0.91250982  0.75011189  0.44816166  1
  Se  Se186  1  0.91378895  0.75097846  0.94293600  1
  Se  Se187  1  0.25373595  0.24161427  0.30170272  1
  Se  Se188  1  0.25113958  0.25776135  0.79927038  1
  Se  Se189  1  0.23789966  0.56884952  0.31152217  1
  Se  Se190  1  0.25036695  0.58394567  0.81633027  1
  Se  Se191  1  0.23660133  0.90255625  0.30764254  1
  Se  Se192  1  0.25412584  0.92002680  0.80020350  1
  Se  Se193  1  0.59359249  0.26016923  0.30676661  1
  Se  Se194  1  0.58206891  0.24490194  0.79943964  1
  Se  Se195  1  0.57929036  0.58855987  0.30572646  1
  Se  Se196  1  0.58756859  0.57029736  0.81364776  1
  Se  Se197  1  0.57641382  0.92427678  0.31439484  1
  Se  Se198  1  0.57835387  0.90663854  0.80397331  1
  Se  Se199  1  0.92382956  0.25000877  0.30276459  1
  Se  Se200  1  0.91285201  0.24876920  0.80421744  1
  Se  Se201  1  0.90599941  0.57750307  0.31052332  1
  Se  Se202  1  0.91543221  0.58143177  0.80786217  1
  Se  Se203  1  0.91935968  0.92669336  0.30157615  1
  Se  Se204  1  0.91876989  0.92331499  0.80436340  1
  Se  Se205  1  0.08291887  0.07920627  0.29933436  1
  Se  Se206  1  0.08232238  0.08641693  0.80146024  1
  Se  Se207  1  0.08099611  0.40973651  0.30127116  1
  Se  Se208  1  0.08233570  0.41763455  0.80677428  1
  Se  Se209  1  0.07411411  0.74883357  0.30327792  1
  Se  Se210  1  0.08425269  0.74948143  0.80640479  1
  Se  Se211  1  0.43197716  0.09236287  0.31025321  1
  Se  Se212  1  0.41536528  0.08209170  0.79427420  1
  Se  Se213  1  0.41753103  0.41512913  0.30345556  1
  Se  Se214  1  0.41027082  0.41651115  0.80156407  1
  Se  Se215  1  0.42227827  0.75465151  0.31654353  1
  Se  Se216  1  0.42754207  0.75600890  0.80332261  1
  Se  Se217  1  0.75466710  0.09374781  0.31153103  1
  Se  Se218  1  0.75201524  0.08260758  0.81277645  1
  Se  Se219  1  0.76189432  0.42537123  0.29939398  1
  Se  Se220  1  0.74518174  0.41013951  0.80923298  1
  Se  Se221  1  0.75113400  0.76641881  0.30065646  1
  Se  Se222  1  0.75893361  0.75343989  0.80576036  1
  Se  Se223  1  0.24504560  0.08272759  0.18490247  1
  Se  Se224  1  0.24633625  0.09225164  0.69443949  1
  Se  Se225  1  0.25616548  0.40727374  0.19413483  1
  Se  Se226  1  0.24878738  0.42760506  0.69771416  1
  Se  Se227  1  0.24492846  0.75031042  0.19056757  1
  Se  Se228  1  0.24226007  0.76196192  0.68766360  1
  Se  Se229  1  0.58054212  0.09916812  0.18728643  1
  Se  Se230  1  0.57710717  0.09025268  0.68060719  1
  Se  Se231  1  0.58787441  0.41950019  0.19710333  1
  Se  Se232  1  0.58742732  0.41144610  0.69786635  1
  Se  Se233  1  0.58569085  0.75101921  0.20561981  1
  Se  Se234  1  0.57833754  0.75462255  0.68939369  1
  Se  Se235  1  0.91683148  0.08355530  0.19637838  1
  Se  Se236  1  0.91269881  0.08009964  0.69738306  1
  Se  Se237  1  0.92564989  0.41813674  0.19566901  1
  Se  Se238  1  0.91641355  0.41320454  0.70348274  1
  Se  Se239  1  0.90542882  0.75669437  0.18568560  1
  Se  Se240  1  0.92848858  0.73470653  0.69993503  1
  Se  Se241  1  0.08576824  0.25016732  0.19579639  1
  Se  Se242  1  0.07655997  0.25543476  0.69912402  1
  Se  Se243  1  0.09207577  0.57064622  0.18638449  1
  Se  Se244  1  0.08067867  0.58700348  0.70644262  1
  Se  Se245  1  0.07608975  0.91677582  0.19284776  1
  Se  Se246  1  0.07987200  0.92331377  0.70357960  1
  Se  Se247  1  0.41779702  0.25489554  0.19950665  1
  Se  Se248  1  0.41307043  0.25820797  0.69356696  1
  Se  Se249  1  0.41790145  0.57675578  0.19122578  1
  Se  Se250  1  0.43110495  0.57954139  0.69170500  1
  Se  Se251  1  0.41951105  0.90967647  0.19728307  1
  Se  Se252  1  0.42079421  0.92682653  0.69723776  1
  Se  Se253  1  0.75367672  0.25749457  0.19769935  1
  Se  Se254  1  0.74679771  0.24915636  0.69855320  1
  Se  Se255  1  0.73495984  0.59984296  0.19272814  1
  Se  Se256  1  0.75944343  0.56949310  0.69073021  1
  Se  Se257  1  0.75592589  0.91725266  0.18658944  1
  Se  Se258  1  0.75829571  0.90631373  0.69337817  1
