# generated using pymatgen
data_In86Cu29Se144
_symmetry_space_group_name_H-M   'P 1'
_cell_length_a   17.58633881
_cell_length_b   17.58761182
_cell_length_c   23.44134404
_cell_angle_alpha   89.98312231
_cell_angle_beta   89.98258800
_cell_angle_gamma   90.03167895
_symmetry_Int_Tables_number   1
_chemical_formula_structural   In86Cu29Se144
_chemical_formula_sum   'In86 Cu29 Se144'
_cell_volume   7250.44580708
_cell_formula_units_Z   1
loop_
 _symmetry_equiv_pos_site_id
 _symmetry_equiv_pos_as_xyz
  1  'x, y, z'
loop_
 _atom_site_type_symbol
 _atom_site_label
 _atom_site_symmetry_multiplicity
 _atom_site_fract_x
 _atom_site_fract_y
 _atom_site_fract_z
 _atom_site_occupancy
  In  In0  1  -0.00813342  0.18416699  0.12897144  1
  In  In1  1  -0.01715767  0.16762972  0.62610215  1
  In  In2  1  0.00358696  0.49783470  0.13438959  1
  In  In3  1  0.00277969  0.50323191  0.61262494  1
  In  In4  1  -0.01676610  0.83847667  0.12970093  1
  In  In5  1  0.00516941  0.83582804  0.61945163  1
  In  In6  1  0.33996845  0.16445711  0.13147431  1
  In  In7  1  0.33397011  0.14961473  0.62137672  1
  In  In8  1  0.33602373  0.49929191  0.13348981  1
  In  In9  1  0.32795552  0.51227035  0.62395396  1
  In  In10  1  0.33925638  0.82989923  0.13328715  1
  In  In11  1  0.32978513  0.83481496  0.61725111  1
  In  In12  1  0.66742003  0.17027849  0.12861891  1
  In  In13  1  0.67042257  0.17470981  0.61163435  1
  In  In14  1  0.67487347  0.49456288  0.13837861  1
  In  In15  1  0.66536744  0.48312042  0.61889228  1
  In  In16  1  0.67489176  0.82949517  0.13848916  1
  In  In17  1  0.66461942  0.83277421  0.61062866  1
  In  In18  1  0.16927951  -0.01677734  0.37816490  1
  In  In19  1  0.16284643  -0.00602998  0.86539231  1
  In  In20  1  0.17570495  0.34316337  0.36901132  1
  In  In21  1  0.16450560  0.33823942  0.87753187  1
  In  In22  1  0.17005542  0.66865973  0.37652643  1
  In  In23  1  0.17776649  0.65559093  0.87259568  1
  In  In24  1  0.50380056  0.00174145  0.37343688  1
  In  In25  1  0.50101229  0.01014425  0.87349985  1
  In  In26  1  0.50139918  0.33076199  0.37376488  1
  In  In27  1  0.49983343  0.31271968  0.87564178  1
  In  In28  1  0.50130886  0.67406635  0.37398930  1
  In  In29  1  0.49593135  0.67711696  0.87224293  1
  In  In30  1  0.82085121  0.01439819  0.37946544  1
  In  In31  1  0.83817177  -0.00200078  0.88072082  1
  In  In32  1  0.83171398  0.32748496  0.36887829  1
  In  In33  1  0.81980564  0.33570420  0.87438395  1
  In  In34  1  0.83396971  0.66690552  0.37545287  1
  In  In35  1  0.84612265  0.66615624  0.87908729  1
  In  In36  1  -0.02042731  0.17092237  0.37006422  1
  In  In37  1  0.00407484  0.15572486  0.87699818  1
  In  In38  1  -0.00072894  0.49935397  0.37260275  1
  In  In39  1  0.00449438  0.50277097  0.87362381  1
  In  In40  1  0.01341657  0.82473706  0.38390925  1
  In  In41  1  -0.01185124  0.83139195  0.87682848  1
  In  In42  1  0.34711047  0.17754725  0.36843839  1
  In  In43  1  0.35062710  0.16415871  0.87689563  1
  In  In44  1  0.33064943  0.50051353  0.37515591  1
  In  In45  1  0.32495162  0.50583290  0.87305784  1
  In  In46  1  0.33109165  0.83172510  0.37504991  1
  In  In47  1  0.32816958  0.82846426  0.86509685  1
  In  In48  1  0.67719037  0.16456489  0.36921286  1
  In  In49  1  0.65589786  0.17199651  0.88213913  1
  In  In50  1  0.66839635  0.50254775  0.37249524  1
  In  In51  1  0.68147559  0.49296775  0.86919486  1
  In  In52  1  0.66726358  0.83643350  0.37594064  1
  In  In53  1  0.66372559  0.84614380  0.88021812  1
  In  In54  1  0.17615387  0.00735242  0.13037987  1
  In  In55  1  0.17120047  -0.01039953  0.63167220  1
  In  In56  1  0.16397431  0.33654806  0.13430748  1
  In  In57  1  0.15931210  0.34154146  0.61819747  1
  In  In58  1  0.17261121  0.65928987  0.13461664  1
  In  In59  1  0.17549129  0.66708035  0.61344662  1
  In  In60  1  0.49556391  0.01124718  0.13218645  1
  In  In61  1  0.49126833  -0.01080158  0.61303195  1
  In  In62  1  0.50882859  0.32595344  0.13170657  1
  In  In63  1  0.51687607  0.33097641  0.61930272  1
  In  In64  1  0.49958542  0.66985221  0.13631494  1
  In  In65  1  0.47898137  0.66820728  0.61573137  1
  In  In66  1  0.82448422  -0.00087483  0.12743683  1
  In  In67  1  0.83489178  0.00365772  0.62071587  1
  In  In68  1  0.84475557  0.31681538  0.14521644  1
  In  In69  1  0.81833402  0.32370983  0.60597494  1
  In  In70  1  0.82862848  0.67408841  0.13940917  1
  In  In71  1  0.83857072  0.66779673  0.61119662  1
  In  In72  1  0.16967755  0.49420865  0.00542953  1
  In  In73  1  0.16513010  0.16783042  0.00400274  1
  In  In74  1  -0.00075316  0.33301902  0.75188688  1
  In  In75  1  0.66414787  0.66409922  0.74710098  1
  In  In76  1  0.66135739  0.00232578  0.74849278  1
  In  In77  1  0.16359816  0.16448539  0.50072712  1
  In  In78  1  0.16354602  0.83056552  -0.00679368  1
  In  In79  1  0.83556461  0.49588922  0.00083333  1
  In  In80  1  0.00293958  0.00064051  0.25484638  1
  In  In81  1  0.50006998  0.50373154  0.49378742  1
  In  In82  1  0.00883321  0.67003759  0.74370974  1
  In  In83  1  0.50128640  0.84045437  0.01120376  1
  In  In84  1  0.33527522  0.32893335  0.75214901  1
  In  In85  1  0.50190840  0.49578027  0.00381925  1
  Cu  Cu86  1  0.33601046  -0.00219719  0.49571141  1
  Cu  Cu87  1  0.82969164  0.83663198  0.75478617  1
  Cu  Cu88  1  0.50307478  0.16209322  0.74923484  1
  Cu  Cu89  1  0.50484666  0.16438202  0.25268693  1
  Cu  Cu90  1  -0.00245763  0.33487530  0.49309647  1
  Cu  Cu91  1  0.33703132  0.33542898  0.49389726  1
  Cu  Cu92  1  0.48569261  0.83041365  0.73926499  1
  Cu  Cu93  1  0.33499979  0.00091953  0.00072026  1
  Cu  Cu94  1  0.50161330  0.83770497  0.25553961  1
  Cu  Cu95  1  0.16713351  0.83570133  0.74170872  1
  Cu  Cu96  1  0.16458653  0.50358102  0.25573236  1
  Cu  Cu97  1  0.49834585  0.49573284  0.74106868  1
  Cu  Cu98  1  0.16541993  0.15897416  0.74992802  1
  Cu  Cu99  1  0.83436737  0.48972909  0.74005737  1
  Cu  Cu100  1  0.66410874  0.32544422  0.00485857  1
  Cu  Cu101  1  0.66751938  0.00306927  0.49419811  1
  Cu  Cu102  1  0.82709657  0.16461812  0.74374236  1
  Cu  Cu103  1  0.17305193  0.16713501  0.25228239  1
  Cu  Cu104  1  0.17072215  0.82740353  0.25618248  1
  Cu  Cu105  1  0.83713406  0.83371402  0.25986496  1
  Cu  Cu106  1  0.67452739  0.00694623  0.00272769  1
  Cu  Cu107  1  -0.00371412  0.67493180  0.00698177  1
  Cu  Cu108  1  0.66833518  0.66765203  0.49273025  1
  Cu  Cu109  1  -0.01453945  0.00738065  0.00472743  1
  Cu  Cu110  1  -0.00540174  -0.00255947  0.49890512  1
  Cu  Cu111  1  0.49671648  0.50252768  0.25657070  1
  Cu  Cu112  1  0.67230449  0.67212273  0.01276454  1
  Cu  Cu113  1  -0.00034676  0.66161479  0.49302130  1
  Cu  Cu114  1  0.83203044  0.50420276  0.25649667  1
  Se  Se115  1  0.07375700  0.07715436  0.06508568  1
  Se  Se116  1  0.07453770  0.07663054  0.56301042  1
  Se  Se117  1  0.07174537  0.40704393  0.05849173  1
  Se  Se118  1  0.08381888  0.41788800  0.54378416  1
  Se  Se119  1  0.08141937  0.74895687  0.06614297  1
  Se  Se120  1  0.07811702  0.74387104  0.55288508  1
  Se  Se121  1  0.41497580  0.08341749  0.05590331  1
  Se  Se122  1  0.41894266  0.08475060  0.54595863  1
  Se  Se123  1  0.41236042  0.40807313  0.06337813  1
  Se  Se124  1  0.41344192  0.41347077  0.56070770  1
  Se  Se125  1  0.41145553  0.73990878  0.05848506  1
  Se  Se126  1  0.41956690  0.76294711  0.54715296  1
  Se  Se127  1  0.75371017  0.09092329  0.05814846  1
  Se  Se128  1  0.75237686  0.08247496  0.55078512  1
  Se  Se129  1  0.74386048  0.41028632  0.06069881  1
  Se  Se130  1  0.75679226  0.42856283  0.54502961  1
  Se  Se131  1  0.75595621  0.75496611  0.06301751  1
  Se  Se132  1  0.75277607  0.75158614  0.54647130  1
  Se  Se133  1  0.25356567  0.25596776  0.06433769  1
  Se  Se134  1  0.25854324  0.25615266  0.55851416  1
  Se  Se135  1  0.26043583  0.58893536  0.05821360  1
  Se  Se136  1  0.24687109  0.57405955  0.54645388  1
  Se  Se137  1  0.25475224  0.91812860  0.05772527  1
  Se  Se138  1  0.24651530  0.92321097  0.55096856  1
  Se  Se139  1  0.57798484  0.24355901  0.05532250  1
  Se  Se140  1  0.57892898  0.24667671  0.54422471  1
  Se  Se141  1  0.59110283  0.58721488  0.06577623  1
  Se  Se142  1  0.58981840  0.59201438  0.55993930  1
  Se  Se143  1  0.59638394  0.92731757  0.06660023  1
  Se  Se144  1  0.58252619  0.91714926  0.54484768  1
  Se  Se145  1  0.90791356  0.25563548  0.05755810  1
  Se  Se146  1  0.91909141  0.24769559  0.54741857  1
  Se  Se147  1  0.91929226  0.58851182  0.06458028  1
  Se  Se148  1  0.91379806  0.57775144  0.54454702  1
  Se  Se149  1  0.90831426  0.91753087  0.05637030  1
  Se  Se150  1  0.91302251  0.91356892  0.55441019  1
  Se  Se151  1  0.08067423  0.25289997  0.43479063  1
  Se  Se152  1  0.07399786  0.25840349  0.94388725  1
  Se  Se153  1  0.08537077  0.57981980  0.44140171  1
  Se  Se154  1  0.07720960  0.59436192  0.94718240  1
  Se  Se155  1  0.08592216  0.91573165  0.45390438  1
  Se  Se156  1  0.06962062  0.92947125  0.94437255  1
  Se  Se157  1  0.42181114  0.24979787  0.44718920  1
  Se  Se158  1  0.41542347  0.24923378  0.95045803  1
  Se  Se159  1  0.40634298  0.59706813  0.44372122  1
  Se  Se160  1  0.41531607  0.58849451  0.94208565  1
  Se  Se161  1  0.41879499  0.91678701  0.44049547  1
  Se  Se162  1  0.41113973  0.91791900  0.93907979  1
  Se  Se163  1  0.76463328  0.23698113  0.44093990  1
  Se  Se164  1  0.74955388  0.24901008  0.94655964  1
  Se  Se165  1  0.75090798  0.58136496  0.44384705  1
  Se  Se166  1  0.74210659  0.59211460  0.94426630  1
  Se  Se167  1  0.75292885  0.91651128  0.44583819  1
  Se  Se168  1  0.75126306  0.91768585  0.94922674  1
  Se  Se169  1  0.25666223  0.08307736  0.43701556  1
  Se  Se170  1  0.24927184  0.07459982  0.93971486  1
  Se  Se171  1  0.24996114  0.41857649  0.44686388  1
  Se  Se172  1  0.26398702  0.40549481  0.94521693  1
  Se  Se173  1  0.23290992  0.76864826  0.44300548  1
  Se  Se174  1  0.26180680  0.73972802  0.94392997  1
  Se  Se175  1  0.58732374  0.08724863  0.43963629  1
  Se  Se176  1  0.58165370  0.07953202  0.94928115  1
  Se  Se177  1  0.59304205  0.40934235  0.44416617  1
  Se  Se178  1  0.59403529  0.41068288  0.93956023  1
  Se  Se179  1  0.58277443  0.75325467  0.44548299  1
  Se  Se180  1  0.58988675  0.74530004  0.94791950  1
  Se  Se181  1  0.91641566  0.08571836  0.44724662  1
  Se  Se182  1  0.90994802  0.09268241  0.94793674  1
  Se  Se183  1  0.91339350  0.41476520  0.43819602  1
  Se  Se184  1  0.92572299  0.40911678  0.93781048  1
  Se  Se185  1  0.91540232  0.75018113  0.44626088  1
  Se  Se186  1  0.91150606  0.75433656  0.95260896  1
  Se  Se187  1  0.25565489  0.25467836  0.30281614  1
  Se  Se188  1  0.24163857  0.23868265  0.81289994  1
  Se  Se189  1  0.25174535  0.58591982  0.30552548  1
  Se  Se190  1  0.25333748  0.58269605  0.79773930  1
  Se  Se191  1  0.25303411  0.91816079  0.30178403  1
  Se  Se192  1  0.25122518  0.91717474  0.79848721  1
  Se  Se193  1  0.58585833  0.24975918  0.30573754  1
  Se  Se194  1  0.58649895  0.24671764  0.80089833  1
  Se  Se195  1  0.58169365  0.58619006  0.30753525  1
  Se  Se196  1  0.57581695  0.57283808  0.80963120  1
  Se  Se197  1  0.58908899  0.92042045  0.30411752  1
  Se  Se198  1  0.56817912  0.90499975  0.80364472  1
  Se  Se199  1  0.91514749  0.25255847  0.29432139  1
  Se  Se200  1  0.90797530  0.24105039  0.80886822  1
  Se  Se201  1  0.91895168  0.58796815  0.30497518  1
  Se  Se202  1  0.91000665  0.57445020  0.80076951  1
  Se  Se203  1  0.91794937  0.91385773  0.31977858  1
  Se  Se204  1  0.91530608  0.91821590  0.80590067  1
  Se  Se205  1  0.09342370  0.09036155  0.31639894  1
  Se  Se206  1  0.07684271  0.07887437  0.80070428  1
  Se  Se207  1  0.08103426  0.41449805  0.30257095  1
  Se  Se208  1  0.09561681  0.42907217  0.80247761  1
  Se  Se209  1  0.08186142  0.74682420  0.30510102  1
  Se  Se210  1  0.09339377  0.75892814  0.81172772  1
  Se  Se211  1  0.41743611  0.08118211  0.30295493  1
  Se  Se212  1  0.41565876  0.08022720  0.79980207  1
  Se  Se213  1  0.41548473  0.41630934  0.30915728  1
  Se  Se214  1  0.42648289  0.41993253  0.81196781  1
  Se  Se215  1  0.41563504  0.75197834  0.30393381  1
  Se  Se216  1  0.41141427  0.74412241  0.79764305  1
  Se  Se217  1  0.75324867  0.08000165  0.29680059  1
  Se  Se218  1  0.75119278  0.08815857  0.81065019  1
  Se  Se219  1  0.74716076  0.41681585  0.30351001  1
  Se  Se220  1  0.74921209  0.40953620  0.79388089  1
  Se  Se221  1  0.74837594  0.74961606  0.30741686  1
  Se  Se222  1  0.75214512  0.75329885  0.81365052  1
  Se  Se223  1  0.25728496  0.08193351  0.20217236  1
  Se  Se224  1  0.25189486  0.08001093  0.69665475  1
  Se  Se225  1  0.24791968  0.42031533  0.20012658  1
  Se  Se226  1  0.24602106  0.41707047  0.69150687  1
  Se  Se227  1  0.25447413  0.74706770  0.19932836  1
  Se  Se228  1  0.24712984  0.75133874  0.68765635  1
  Se  Se229  1  0.58931496  0.08198470  0.19882296  1
  Se  Se230  1  0.57730052  0.08612050  0.68161102  1
  Se  Se231  1  0.57818261  0.42020775  0.20018597  1
  Se  Se232  1  0.58663638  0.41167281  0.69638058  1
  Se  Se233  1  0.58440870  0.75070280  0.20314751  1
  Se  Se234  1  0.57697992  0.75461561  0.68586044  1
  Se  Se235  1  0.91348344  0.08722636  0.19386469  1
  Se  Se236  1  0.91323241  0.07839349  0.69763151  1
  Se  Se237  1  0.91592425  0.42130751  0.20233332  1
  Se  Se238  1  0.91604024  0.41304527  0.68045889  1
  Se  Se239  1  0.92093887  0.75160998  0.20530804  1
  Se  Se240  1  0.90629490  0.75482271  0.69206872  1
  Se  Se241  1  0.08518898  0.24727298  0.20043351  1
  Se  Se242  1  0.09051139  0.24220916  0.68962438  1
  Se  Se243  1  0.08064936  0.58664592  0.20124390  1
  Se  Se244  1  0.09218016  0.57515834  0.68667303  1
  Se  Se245  1  0.09298728  0.90852719  0.19224642  1
  Se  Se246  1  0.07445579  0.91685284  0.69689983  1
  Se  Se247  1  0.41963857  0.24925146  0.20045246  1
  Se  Se248  1  0.42251214  0.24230193  0.68746780  1
  Se  Se249  1  0.41446101  0.58576202  0.20145900  1
  Se  Se250  1  0.41666353  0.58445332  0.69468934  1
  Se  Se251  1  0.41883564  0.91829516  0.19758813  1
  Se  Se252  1  0.40857639  0.92093950  0.68932659  1
  Se  Se253  1  0.72511410  0.27200907  0.19689993  1
  Se  Se254  1  0.75000789  0.24894585  0.68757191  1
  Se  Se255  1  0.74608158  0.58853779  0.20489284  1
  Se  Se256  1  0.75717349  0.57963287  0.68548294  1
  Se  Se257  1  0.75571023  0.91744048  0.20465753  1
  Se  Se258  1  0.74823756  0.90779126  0.69049772  1
