# generated using pymatgen
data_In86Cu29Se144
_symmetry_space_group_name_H-M   'P 1'
_cell_length_a   17.72332728
_cell_length_b   17.72269470
_cell_length_c   23.59976543
_cell_angle_alpha   89.94080605
_cell_angle_beta   89.95253930
_cell_angle_gamma   90.02351015
_symmetry_Int_Tables_number   1
_chemical_formula_structural   In86Cu29Se144
_chemical_formula_sum   'In86 Cu29 Se144'
_cell_volume   7412.79999228
_cell_formula_units_Z   1
loop_
 _symmetry_equiv_pos_site_id
 _symmetry_equiv_pos_as_xyz
  1  'x, y, z'
loop_
 _atom_site_type_symbol
 _atom_site_label
 _atom_site_symmetry_multiplicity
 _atom_site_fract_x
 _atom_site_fract_y
 _atom_site_fract_z
 _atom_site_occupancy
  In  In0  1  -0.00426886  0.15226981  0.11217601  1
  In  In1  1  -0.01329712  0.15396194  0.62479938  1
  In  In2  1  0.00457570  0.50618878  0.12348921  1
  In  In3  1  0.00030700  0.51325871  0.62481279  1
  In  In4  1  -0.01517038  0.82648689  0.09903089  1
  In  In5  1  -0.00584911  0.82784630  0.63240461  1
  In  In6  1  0.32511468  0.14817002  0.12372956  1
  In  In7  1  0.33286866  0.16082002  0.61559112  1
  In  In8  1  0.34557303  0.50420029  0.13350063  1
  In  In9  1  0.33968524  0.49734094  0.61621711  1
  In  In10  1  0.33787644  0.83242357  0.12827893  1
  In  In11  1  0.33899023  0.83980030  0.61993396  1
  In  In12  1  0.67085400  0.17330630  0.11668966  1
  In  In13  1  0.67745295  0.16691984  0.62570959  1
  In  In14  1  0.67104719  0.49843880  0.13621652  1
  In  In15  1  0.66205509  0.49415107  0.61313281  1
  In  In16  1  0.65910636  0.82968224  0.11932817  1
  In  In17  1  0.67246937  0.85212334  0.62295724  1
  In  In18  1  0.16811385  -0.00758446  0.37991768  1
  In  In19  1  0.16502451  -0.00531333  0.87944668  1
  In  In20  1  0.15388482  0.32769217  0.37843969  1
  In  In21  1  0.15856932  0.32210757  0.87406365  1
  In  In22  1  0.17548087  0.68104827  0.36421932  1
  In  In23  1  0.12983700  0.75057430  0.92969798  1
  In  In24  1  0.49079757  0.01223110  0.38175425  1
  In  In25  1  0.51025566  0.00090253  0.88091397  1
  In  In26  1  0.50985823  0.31815783  0.38215266  1
  In  In27  1  0.50821129  0.31487482  0.87252911  1
  In  In28  1  0.49817401  0.66692226  0.37730385  1
  In  In29  1  0.50766691  0.66965238  0.87682963  1
  In  In30  1  0.82971615  0.00025781  0.37748749  1
  In  In31  1  0.82103422  0.00307467  0.88723356  1
  In  In32  1  0.82685872  0.33398921  0.37826510  1
  In  In33  1  0.82051322  0.33376431  0.87109346  1
  In  In34  1  0.82434131  0.66334411  0.36755174  1
  In  In35  1  0.85820331  0.68295660  0.86983681  1
  In  In36  1  -0.00586571  0.16609681  0.38116030  1
  In  In37  1  0.00439163  0.14133596  0.88864741  1
  In  In38  1  -0.01418572  0.50387977  0.37780414  1
  In  In39  1  -0.00589124  0.51262187  0.87155182  1
  In  In40  1  0.00989129  0.83897358  0.37398029  1
  In  In41  1  -0.01591148  0.84738464  0.87578418  1
  In  In42  1  0.33571506  0.15637059  0.37711318  1
  In  In43  1  0.33842599  0.15414567  0.88138994  1
  In  In44  1  0.33277225  0.51450721  0.37383167  1
  In  In45  1  0.33133198  0.50605708  0.86911956  1
  In  In46  1  0.33051501  0.83523213  0.37189623  1
  In  In47  1  0.33819400  0.83858052  0.88544908  1
  In  In48  1  0.65996738  0.16579933  0.37676717  1
  In  In49  1  0.66552746  0.17021683  0.87330461  1
  In  In50  1  0.66831260  0.49695384  0.37737075  1
  In  In51  1  0.68363790  0.50111109  0.86436092  1
  In  In52  1  0.66767421  0.82235842  0.37388973  1
  In  In53  1  0.65416509  0.84787665  0.89017359  1
  In  In54  1  0.17177480  -0.00316846  0.12141513  1
  In  In55  1  0.15226357  -0.01365417  0.62264648  1
  In  In56  1  0.16854595  0.32133326  0.12383561  1
  In  In57  1  0.17573096  0.33060918  0.62488065  1
  In  In58  1  0.16075480  0.68060204  0.13492018  1
  In  In59  1  0.14870088  0.67579688  0.62992491  1
  In  In60  1  0.50321904  -0.01219961  0.11941916  1
  In  In61  1  0.52793284  0.02011992  0.60146746  1
  In  In62  1  0.51381767  0.33228164  0.13165061  1
  In  In63  1  0.50802167  0.33544009  0.61434624  1
  In  In64  1  0.50025035  0.67279598  0.13772011  1
  In  In65  1  0.50808736  0.67189583  0.61384351  1
  In  In66  1  0.83096476  0.00281988  0.11014435  1
  In  In67  1  0.82139559  0.00583982  0.64804632  1
  In  In68  1  0.83050107  0.31812226  0.12489759  1
  In  In69  1  0.82720536  0.32738503  0.62018860  1
  In  In70  1  0.83161685  0.66814593  0.12687444  1
  In  In71  1  0.84350402  0.66715304  0.62004190  1
  In  In72  1  0.33483246  -0.00329176  0.74451369  1
  In  In73  1  0.33150509  0.66773220  0.75050735  1
  In  In74  1  0.16364909  0.50147540  0.49890633  1
  In  In75  1  0.33324323  0.33267662  0.25521479  1
  In  In76  1  0.83289544  0.83817538  0.50183837  1
  In  In77  1  -0.00791153  0.32980621  0.74828812  1
  In  In78  1  0.33903573  0.33488002  0.74286536  1
  In  In79  1  0.50965096  0.48904490  0.01091602  1
  In  In80  1  -0.00146319  0.00017462  0.23659170  1
  In  In81  1  0.17149640  0.50312561  0.00166981  1
  In  In82  1  0.68011153  0.67292549  0.74747248  1
  In  In83  1  -0.00704679  0.33549108  0.25597713  1
  In  In84  1  0.83481667  0.50114484  -0.00695170  1
  In  In85  1  0.66274583  -0.00169410  0.24688031  1
  Cu  Cu86  1  0.15146034  0.82670161  0.75884277  1
  Cu  Cu87  1  0.83433230  0.50390580  0.25330834  1
  Cu  Cu88  1  0.67042508  0.32683802  0.49837714  1
  Cu  Cu89  1  0.33484062  0.33032189  0.49887342  1
  Cu  Cu90  1  0.50662895  0.49554575  0.74054435  1
  Cu  Cu91  1  0.16033549  0.16003802  0.24509254  1
  Cu  Cu92  1  0.16248293  0.51300341  0.75159923  1
  Cu  Cu93  1  0.32638933  0.67096229  0.49373956  1
  Cu  Cu94  1  0.32861105  0.32555166  -0.00004299  1
  Cu  Cu95  1  0.34809106  0.66303947  0.00840875  1
  Cu  Cu96  1  0.49919665  0.83160764  0.25204355  1
  Cu  Cu97  1  0.33830757  -0.00536642  0.00413053  1
  Cu  Cu98  1  0.66881567  0.67241304  0.00141663  1
  Cu  Cu99  1  0.16548889  0.50953989  0.24854057  1
  Cu  Cu100  1  0.16448617  0.16268404  0.75381741  1
  Cu  Cu101  1  0.00248951  0.67359593  0.50037146  1
  Cu  Cu102  1  0.66673610  0.66051809  0.49328200  1
  Cu  Cu103  1  0.16560985  0.83684536  0.24869859  1
  Cu  Cu104  1  0.49867826  0.16569287  0.25443620  1
  Cu  Cu105  1  0.83948522  0.83223972  0.24178718  1
  Cu  Cu106  1  0.83576246  0.16424655  0.75626619  1
  Cu  Cu107  1  0.00139974  0.32131707  -0.00308378  1
  Cu  Cu108  1  0.66825775  0.33065468  -0.00275011  1
  Cu  Cu109  1  0.50662241  0.84374193  0.75095864  1
  Cu  Cu110  1  0.51281310  0.16350283  0.74452913  1
  Cu  Cu111  1  0.32823872  -0.00119270  0.49706784  1
  Cu  Cu112  1  -0.00220210  0.32455756  0.50066460  1
  Cu  Cu113  1  0.50379576  0.50398441  0.25703509  1
  Cu  Cu114  1  -0.00214015  0.00374501  0.50382729  1
  Se  Se115  1  0.10536966  0.09510396  0.05690916  1
  Se  Se116  1  0.08231966  0.08402147  0.55850206  1
  Se  Se117  1  0.07750036  0.40560497  0.05638233  1
  Se  Se118  1  0.07596170  0.40866419  0.56013939  1
  Se  Se119  1  0.08753589  0.74021544  0.05069013  1
  Se  Se120  1  0.07861624  0.75799797  0.55631407  1
  Se  Se121  1  0.41887827  0.07872663  0.05742224  1
  Se  Se122  1  0.41518859  0.08157899  0.54746245  1
  Se  Se123  1  0.40620258  0.40334026  0.06267352  1
  Se  Se124  1  0.41842862  0.41521520  0.54863778  1
  Se  Se125  1  0.42521927  0.74850446  0.06184873  1
  Se  Se126  1  0.40995800  0.74643564  0.55385039  1
  Se  Se127  1  0.73446514  0.07644590  0.04959932  1
  Se  Se128  1  0.75417787  0.06973847  0.56562083  1
  Se  Se129  1  0.74513753  0.41533818  0.05688210  1
  Se  Se130  1  0.75216380  0.41319191  0.54960701  1
  Se  Se131  1  0.75257185  0.75053641  0.05679555  1
  Se  Se132  1  0.74170419  0.74222279  0.55678925  1
  Se  Se133  1  0.25177854  0.24278836  0.05674966  1
  Se  Se134  1  0.25015570  0.25069645  0.55285480  1
  Se  Se135  1  0.26019456  0.59012202  0.06630101  1
  Se  Se136  1  0.24893180  0.59459572  0.56098876  1
  Se  Se137  1  0.25576011  0.90997288  0.05637961  1
  Se  Se138  1  0.24901321  0.91873955  0.55643010  1
  Se  Se139  1  0.58018156  0.25609838  0.05273874  1
  Se  Se140  1  0.59036727  0.24430164  0.55482413  1
  Se  Se141  1  0.59417784  0.58915955  0.06368239  1
  Se  Se142  1  0.58024466  0.58057008  0.54752167  1
  Se  Se143  1  0.60214173  0.92899995  0.04995065  1
  Se  Se144  1  0.57072906  0.89682695  0.55395027  1
  Se  Se145  1  0.91480313  0.24738090  0.05279948  1
  Se  Se146  1  0.91541124  0.24455887  0.55646770  1
  Se  Se147  1  0.92325689  0.58904106  0.05384008  1
  Se  Se148  1  0.92128964  0.58487751  0.54877970  1
  Se  Se149  1  0.93742909  0.94592314  0.04715052  1
  Se  Se150  1  0.91841136  0.92493852  0.56490516  1
  Se  Se151  1  0.08242138  0.24285536  0.44916208  1
  Se  Se152  1  0.08693189  0.23996744  0.94580492  1
  Se  Se153  1  0.08055272  0.59425104  0.43724877  1
  Se  Se154  1  0.08768260  0.58669391  0.93683962  1
  Se  Se155  1  0.07849332  0.91935259  0.44943317  1
  Se  Se156  1  0.09556433  0.89793591  0.94537125  1
  Se  Se157  1  0.41319341  0.24478419  0.44402001  1
  Se  Se158  1  0.41296899  0.25226340  0.94154251  1
  Se  Se159  1  0.41274979  0.58578283  0.44777061  1
  Se  Se160  1  0.42144062  0.57678287  0.94556271  1
  Se  Se161  1  0.41044573  0.91795191  0.44206256  1
  Se  Se162  1  0.42556080  0.91787929  0.94842253  1
  Se  Se163  1  0.75076891  0.24324026  0.44373870  1
  Se  Se164  1  0.75184312  0.24956762  0.94427446  1
  Se  Se165  1  0.75539911  0.58169608  0.44298823  1
  Se  Se166  1  0.74485211  0.59524412  0.93781598  1
  Se  Se167  1  0.73717910  0.92160963  0.44241336  1
  Se  Se168  1  0.72330412  0.94045112  0.95934246  1
  Se  Se169  1  0.24503818  0.08343174  0.44495253  1
  Se  Se170  1  0.25395717  0.07229852  0.94610072  1
  Se  Se171  1  0.25433329  0.41054146  0.43860712  1
  Se  Se172  1  0.25615502  0.40829227  0.93762922  1
  Se  Se173  1  0.24465042  0.75563234  0.44287434  1
  Se  Se174  1  0.27553766  0.72225624  0.93253538  1
  Se  Se175  1  0.58551198  0.08066806  0.44616628  1
  Se  Se176  1  0.55695418  0.11650794  0.93608001  1
  Se  Se177  1  0.58711099  0.41054035  0.44510736  1
  Se  Se178  1  0.59334479  0.41424167  0.93583247  1
  Se  Se179  1  0.58424060  0.74788376  0.44520388  1
  Se  Se180  1  0.57748431  0.74936543  0.95113548  1
  Se  Se181  1  0.91343944  0.07856292  0.44603938  1
  Se  Se182  1  0.92070250  0.06427925  0.95770637  1
  Se  Se183  1  0.92045521  0.40893492  0.44443988  1
  Se  Se184  1  0.92674648  0.40627380  0.93737208  1
  Se  Se185  1  0.91969923  0.74899464  0.43781949  1
  Se  Se186  1  0.91172386  0.76279459  0.94979778  1
  Se  Se187  1  0.23598768  0.24170320  0.30762975  1
  Se  Se188  1  0.25160876  0.24320426  0.80602716  1
  Se  Se189  1  0.25209189  0.58735944  0.30096403  1
  Se  Se190  1  0.23770485  0.59089226  0.81343457  1
  Se  Se191  1  0.24549128  0.91917564  0.30442557  1
  Se  Se192  1  0.24797070  0.90485947  0.80747664  1
  Se  Se193  1  0.58423242  0.24813957  0.30327780  1
  Se  Se194  1  0.59042656  0.25206351  0.79611710  1
  Se  Se195  1  0.58598953  0.58476895  0.31172233  1
  Se  Se196  1  0.57931400  0.58007400  0.80295297  1
  Se  Se197  1  0.57650532  0.91342192  0.31233542  1
  Se  Se198  1  0.58745887  0.92228370  0.80784993  1
  Se  Se199  1  0.90571577  0.23942684  0.30810813  1
  Se  Se200  1  0.91869659  0.23853910  0.81811224  1
  Se  Se201  1  0.91903843  0.58741041  0.30299354  1
  Se  Se202  1  0.89003199  0.56745664  0.80824082  1
  Se  Se203  1  0.91107240  0.91406912  0.30513937  1
  Se  Se204  1  0.91093069  0.93865827  0.81335957  1
  Se  Se205  1  0.08047062  0.08377631  0.30812637  1
  Se  Se206  1  0.08761183  0.07909909  0.80971391  1
  Se  Se207  1  0.08918018  0.42824918  0.30939244  1
  Se  Se208  1  0.08854957  0.42039753  0.80642527  1
  Se  Se209  1  0.07975648  0.75487107  0.30074640  1
  Se  Se210  1  0.07846184  0.75152456  0.82362722  1
  Se  Se211  1  0.41372620  0.08126680  0.30251556  1
  Se  Se212  1  0.42366319  0.08927924  0.80195047  1
  Se  Se213  1  0.42324274  0.42027989  0.31503213  1
  Se  Se214  1  0.42746818  0.42264644  0.80670174  1
  Se  Se215  1  0.41714579  0.75022693  0.30789938  1
  Se  Se216  1  0.42684572  0.75979705  0.80695224  1
  Se  Se217  1  0.75284527  0.08613611  0.30641421  1
  Se  Se218  1  0.74896228  0.08396727  0.80931674  1
  Se  Se219  1  0.75391113  0.41910048  0.30663666  1
  Se  Se220  1  0.75015526  0.41109534  0.79617166  1
  Se  Se221  1  0.75449755  0.75667720  0.30003779  1
  Se  Se222  1  0.74419737  0.75882926  0.82370164  1
  Se  Se223  1  0.24623335  0.07517215  0.19869509  1
  Se  Se224  1  0.24158676  0.08696224  0.68886879  1
  Se  Se225  1  0.24117036  0.42150881  0.19179087  1
  Se  Se226  1  0.24316018  0.43373895  0.69234736  1
  Se  Se227  1  0.25408824  0.75300518  0.19943302  1
  Se  Se228  1  0.24138599  0.76209202  0.69353526  1
  Se  Se229  1  0.57529696  0.09027324  0.18814826  1
  Se  Se230  1  0.59074534  0.07853216  0.69007188  1
  Se  Se231  1  0.58291464  0.41994832  0.20209145  1
  Se  Se232  1  0.58630150  0.41294409  0.68739562  1
  Se  Se233  1  0.58983438  0.75525293  0.19960458  1
  Se  Se234  1  0.57969305  0.75649182  0.69098603  1
  Se  Se235  1  0.90121812  0.09135924  0.18758452  1
  Se  Se236  1  0.92180025  0.08061304  0.70653738  1
  Se  Se237  1  0.90999969  0.42402471  0.18872910  1
  Se  Se238  1  0.91207041  0.42157866  0.68579876  1
  Se  Se239  1  0.92314112  0.75619364  0.18487102  1
  Se  Se240  1  0.89804411  0.75602155  0.69666237  1
  Se  Se241  1  0.07803919  0.24309242  0.19163092  1
  Se  Se242  1  0.08946778  0.24361616  0.69103319  1
  Se  Se243  1  0.07925000  0.58679591  0.19528819  1
  Se  Se244  1  0.07420915  0.59120963  0.70053435  1
  Se  Se245  1  0.08277220  0.90287484  0.18192482  1
  Se  Se246  1  0.07827729  0.91177999  0.69995359  1
  Se  Se247  1  0.41747163  0.24408555  0.19142516  1
  Se  Se248  1  0.42517227  0.23929363  0.68636134  1
  Se  Se249  1  0.41974403  0.58566412  0.20432953  1
  Se  Se250  1  0.42385059  0.57960633  0.68783507  1
  Se  Se251  1  0.42286673  0.91611885  0.19480122  1
  Se  Se252  1  0.43206899  0.91866806  0.68497207  1
  Se  Se253  1  0.73572330  0.25753377  0.19219801  1
  Se  Se254  1  0.75927675  0.24614396  0.69720390  1
  Se  Se255  1  0.75280151  0.58702231  0.19818207  1
  Se  Se256  1  0.75183194  0.57777198  0.68169683  1
  Se  Se257  1  0.75789051  0.91404518  0.18589906  1
  Se  Se258  1  0.77697579  0.88052407  0.69533160  1
