# generated using pymatgen
data_In86Cu29Se144
_symmetry_space_group_name_H-M   'P 1'
_cell_length_a   17.58511271
_cell_length_b   17.58516588
_cell_length_c   23.44752358
_cell_angle_alpha   89.97695757
_cell_angle_beta   89.97592172
_cell_angle_gamma   89.97999834
_symmetry_Int_Tables_number   1
_chemical_formula_structural   In86Cu29Se144
_chemical_formula_sum   'In86 Cu29 Se144'
_cell_volume   7250.84309188
_cell_formula_units_Z   1
loop_
 _symmetry_equiv_pos_site_id
 _symmetry_equiv_pos_as_xyz
  1  'x, y, z'
loop_
 _atom_site_type_symbol
 _atom_site_label
 _atom_site_symmetry_multiplicity
 _atom_site_fract_x
 _atom_site_fract_y
 _atom_site_fract_z
 _atom_site_occupancy
  In  In0  1  0.00736083  0.17521625  0.12489280  1
  In  In1  1  0.00118028  0.16906653  0.62320936  1
  In  In2  1  -0.01665224  0.48062874  0.10623238  1
  In  In3  1  -0.00431549  0.49741553  0.62931193  1
  In  In4  1  -0.00791369  0.83946401  0.11647481  1
  In  In5  1  -0.01618684  0.84132491  0.63137209  1
  In  In6  1  0.33398954  0.15148705  0.12535712  1
  In  In7  1  0.34652076  0.18519517  0.61879952  1
  In  In8  1  0.33711288  0.51505738  0.12380116  1
  In  In9  1  0.31463549  0.49714063  0.62069144  1
  In  In10  1  0.34329606  0.82444133  0.12840662  1
  In  In11  1  0.34029511  0.83689362  0.62777675  1
  In  In12  1  0.66178313  0.18192307  0.12731531  1
  In  In13  1  0.65784673  0.16021390  0.62148960  1
  In  In14  1  0.68191700  0.49017400  0.14377655  1
  In  In15  1  0.68580652  0.50601445  0.61979328  1
  In  In16  1  0.66088272  0.82586386  0.12070442  1
  In  In17  1  0.68583467  0.82120231  0.63370272  1
  In  In18  1  0.17896038  -0.00018742  0.37539781  1
  In  In19  1  0.16755596  0.00898136  0.87067913  1
  In  In20  1  0.15587358  0.34344097  0.38431764  1
  In  In21  1  0.16554188  0.33335294  0.87346845  1
  In  In22  1  0.16060308  0.65464295  0.37560080  1
  In  In23  1  0.15063015  0.67001033  0.87301315  1
  In  In24  1  0.50070200  0.01097640  0.37335224  1
  In  In25  1  0.50399784  -0.01128035  0.88932456  1
  In  In26  1  0.50435500  0.32217547  0.37392475  1
  In  In27  1  0.48471409  0.33396764  0.87269184  1
  In  In28  1  0.51053989  0.66736107  0.36157678  1
  In  In29  1  0.51703020  0.66818823  0.87443903  1
  In  In30  1  0.83567844  -0.00225941  0.38589747  1
  In  In31  1  0.82105215  -0.00772104  0.86375126  1
  In  In32  1  0.83211377  0.33710803  0.37536021  1
  In  In33  1  0.84909244  0.33807455  0.87407767  1
  In  In34  1  0.83071263  0.66065333  0.38635246  1
  In  In35  1  0.83246389  0.66504475  0.87701411  1
  In  In36  1  -0.01070233  0.17928243  0.38644274  1
  In  In37  1  0.00659675  0.17040231  0.86215535  1
  In  In38  1  0.00861177  0.50045029  0.38320171  1
  In  In39  1  -0.00344299  0.49839466  0.87897981  1
  In  In40  1  -0.01319776  0.81636907  0.38480729  1
  In  In41  1  -0.01426989  0.82024397  0.86271252  1
  In  In42  1  0.34093566  0.16423174  0.38084942  1
  In  In43  1  0.33030852  0.16848908  0.87900330  1
  In  In44  1  0.32195185  0.49849017  0.37273059  1
  In  In45  1  0.33141505  0.48366558  0.87432969  1
  In  In46  1  0.33975416  0.83720316  0.36525786  1
  In  In47  1  0.34672891  0.84400655  0.88047901  1
  In  In48  1  0.66394792  0.17228779  0.38363957  1
  In  In49  1  0.66473759  0.15677130  0.87060001  1
  In  In50  1  0.68603953  0.51427829  0.35002869  1
  In  In51  1  0.66590807  0.51675391  0.87339065  1
  In  In52  1  0.68142788  0.82297156  0.37957104  1
  In  In53  1  0.66998382  0.83098817  0.87969028  1
  In  In54  1  0.17039553  0.01127083  0.12539123  1
  In  In55  1  0.15154181  0.00416003  0.62813958  1
  In  In56  1  0.14708545  0.33965326  0.12722593  1
  In  In57  1  0.16461457  0.33385099  0.62557012  1
  In  In58  1  0.18112844  0.65940623  0.12622673  1
  In  In59  1  0.15283458  0.64650649  0.61567828  1
  In  In60  1  0.48602338  -0.01177244  0.11007377  1
  In  In61  1  0.50960566  0.02365830  0.62720158  1
  In  In62  1  0.51576243  0.33713342  0.12458650  1
  In  In63  1  0.49925111  0.31604422  0.62803478  1
  In  In64  1  0.50098320  0.66410169  0.13479226  1
  In  In65  1  0.50837924  0.67751145  0.62677885  1
  In  In66  1  0.84135167  -0.00741136  0.11993159  1
  In  In67  1  0.83001400  0.00286844  0.62567800  1
  In  In68  1  0.82945279  0.34170313  0.13417048  1
  In  In69  1  0.84867236  0.34775862  0.61969518  1
  In  In70  1  0.82341909  0.65475279  0.12205448  1
  In  In71  1  0.83405323  0.66493620  0.62381914  1
  In  In72  1  0.83068736  0.16726896  -0.00331167  1
  In  In73  1  0.33284864  0.00290205  0.75500668  1
  In  In74  1  0.50349138  0.50441814  0.00323426  1
  In  In75  1  0.16720015  0.83108601  -0.00063057  1
  In  In76  1  0.00339089  0.00427092  0.24802175  1
  In  In77  1  0.66881025  0.33334560  0.74385253  1
  In  In78  1  0.50876783  0.83809475  0.49423055  1
  In  In79  1  0.33005527  0.66443164  0.74403986  1
  In  In80  1  0.15712494  0.83430915  0.50397335  1
  In  In81  1  0.00077663  0.65938478  0.25292191  1
  In  In82  1  0.33624115  0.33391313  0.25402207  1
  In  In83  1  0.16772198  0.16890759  -0.00582988  1
  In  In84  1  0.50666877  0.49724710  0.49472530  1
  In  In85  1  0.66428470  0.00027385  0.25220533  1
  Cu  Cu86  1  0.67055957  0.66881296  0.00224999  1
  Cu  Cu87  1  0.49612858  0.15852457  0.25137937  1
  Cu  Cu88  1  0.33868813  0.66630967  0.00391822  1
  Cu  Cu89  1  0.32862458  0.01227073  0.50328946  1
  Cu  Cu90  1  0.66889451  -0.00031889  -0.00525471  1
  Cu  Cu91  1  -0.00176765  0.66254568  -0.00530028  1
  Cu  Cu92  1  0.00310676  0.33507914  0.50341179  1
  Cu  Cu93  1  -0.00177260  0.00453019  0.50573886  1
  Cu  Cu94  1  0.66862420  0.33836125  0.00304063  1
  Cu  Cu95  1  0.32977004  0.33628420  0.49759502  1
  Cu  Cu96  1  0.16694983  0.16956312  0.74735958  1
  Cu  Cu97  1  0.67289542  0.33029565  0.50123191  1
  Cu  Cu98  1  0.83295314  0.82560468  0.25434388  1
  Cu  Cu99  1  0.66493394  0.00129111  0.50378724  1
  Cu  Cu100  1  0.50198214  0.83222225  0.24410770  1
  Cu  Cu101  1  0.15948080  0.82788000  0.74473360  1
  Cu  Cu102  1  0.16612759  0.50207389  0.25211908  1
  Cu  Cu103  1  0.16194077  0.49385951  0.74952977  1
  Cu  Cu104  1  0.16628884  0.17100279  0.25039362  1
  Cu  Cu105  1  0.32979539  0.66754723  0.49371636  1
  Cu  Cu106  1  0.50076334  0.49821019  0.74982911  1
  Cu  Cu107  1  0.17492589  0.83113966  0.24863765  1
  Cu  Cu108  1  0.83732313  0.50516628  0.74837212  1
  Cu  Cu109  1  0.83489950  0.17660980  0.25602637  1
  Cu  Cu110  1  -0.00693163  -0.00532878  -0.01032552  1
  Cu  Cu111  1  0.32801796  0.32936529  -0.00094952  1
  Cu  Cu112  1  0.82851113  0.83301036  0.75064021  1
  Cu  Cu113  1  0.83841230  0.16821716  0.74436197  1
  Cu  Cu114  1  0.51284553  0.83784693  0.75526735  1
  Se  Se115  1  0.07105720  0.07403896  0.05230110  1
  Se  Se116  1  0.08674050  0.08772842  0.55207213  1
  Se  Se117  1  0.09093650  0.42017418  0.04688965  1
  Se  Se118  1  0.08370447  0.42018730  0.55811678  1
  Se  Se119  1  0.07768911  0.73863871  0.06006096  1
  Se  Se120  1  0.06623045  0.74624206  0.56138753  1
  Se  Se121  1  0.42265193  0.09425878  0.05032864  1
  Se  Se122  1  0.41981986  0.08846427  0.55431659  1
  Se  Se123  1  0.41015943  0.40968401  0.05923666  1
  Se  Se124  1  0.41447456  0.41285762  0.55959759  1
  Se  Se125  1  0.42477105  0.74325399  0.05809974  1
  Se  Se126  1  0.41028348  0.74585632  0.55324755  1
  Se  Se127  1  0.74209871  0.07890199  0.06215766  1
  Se  Se128  1  0.74955442  0.08619629  0.55430987  1
  Se  Se129  1  0.74817315  0.41855238  0.06025067  1
  Se  Se130  1  0.75602274  0.41752079  0.54938686  1
  Se  Se131  1  0.75554407  0.75240523  0.05513021  1
  Se  Se132  1  0.75540345  0.75219498  0.55389773  1
  Se  Se133  1  0.25024021  0.25439516  0.06542943  1
  Se  Se134  1  0.24874201  0.25317423  0.55396345  1
  Se  Se135  1  0.25075098  0.58027199  0.04798259  1
  Se  Se136  1  0.24772525  0.58269439  0.54543675  1
  Se  Se137  1  0.25372862  0.91828949  0.06275063  1
  Se  Se138  1  0.25546157  0.92459136  0.56139680  1
  Se  Se139  1  0.58295427  0.25153655  0.04924928  1
  Se  Se140  1  0.58328168  0.25033669  0.55160730  1
  Se  Se141  1  0.59608856  0.58512442  0.06539147  1
  Se  Se142  1  0.58971334  0.59162477  0.55743664  1
  Se  Se143  1  0.58851915  0.91606432  0.05188254  1
  Se  Se144  1  0.58889681  0.91962498  0.56655318  1
  Se  Se145  1  0.91613845  0.25528408  0.05977384  1
  Se  Se146  1  0.91761525  0.25032648  0.55343058  1
  Se  Se147  1  0.91166154  0.58453347  0.04973429  1
  Se  Se148  1  0.89767688  0.56036643  0.56162383  1
  Se  Se149  1  0.90993661  0.91215707  0.04263605  1
  Se  Se150  1  0.91248803  0.92004459  0.55465678  1
  Se  Se151  1  0.08705981  0.24850036  0.45185708  1
  Se  Se152  1  0.06895249  0.25610965  0.94309252  1
  Se  Se153  1  0.07149134  0.60016136  0.45032808  1
  Se  Se154  1  0.08649116  0.58141407  0.94571448  1
  Se  Se155  1  0.07160400  0.92464979  0.43832286  1
  Se  Se156  1  0.07897234  0.91644345  0.93274211  1
  Se  Se157  1  0.41796365  0.25333196  0.44828856  1
  Se  Se158  1  0.41515639  0.24987696  0.94753644  1
  Se  Se159  1  0.41489249  0.59080832  0.43575335  1
  Se  Se160  1  0.41294130  0.58767175  0.93570738  1
  Se  Se161  1  0.40690643  0.92764076  0.44401311  1
  Se  Se162  1  0.41629006  0.91437992  0.95898324  1
  Se  Se163  1  0.75797999  0.24715338  0.44728087  1
  Se  Se164  1  0.74242981  0.25950802  0.93607972  1
  Se  Se165  1  0.73959068  0.57053443  0.44195477  1
  Se  Se166  1  0.75032740  0.58212571  0.94868247  1
  Se  Se167  1  0.74554048  0.91688547  0.44924173  1
  Se  Se168  1  0.75563411  0.91734965  0.94539069  1
  Se  Se169  1  0.24532652  0.09015929  0.44704519  1
  Se  Se170  1  0.25943181  0.06753739  0.94778211  1
  Se  Se171  1  0.24674758  0.42397619  0.44933810  1
  Se  Se172  1  0.24583625  0.41361553  0.94692623  1
  Se  Se173  1  0.25241134  0.75471147  0.43775496  1
  Se  Se174  1  0.25896912  0.74169312  0.93759178  1
  Se  Se175  1  0.58125062  0.08224688  0.44797779  1
  Se  Se176  1  0.58554195  0.08766864  0.94773679  1
  Se  Se177  1  0.59580553  0.40799034  0.43645381  1
  Se  Se178  1  0.58747226  0.41331846  0.93733793  1
  Se  Se179  1  0.59166517  0.73482333  0.44391795  1
  Se  Se180  1  0.58374710  0.75041420  0.95030729  1
  Se  Se181  1  0.91338987  0.08660737  0.45168319  1
  Se  Se182  1  0.91925342  0.08162901  0.93129510  1
  Se  Se183  1  0.92076404  0.41373754  0.44498590  1
  Se  Se184  1  0.91009348  0.42219149  0.94957220  1
  Se  Se185  1  0.89750047  0.75467495  0.45636115  1
  Se  Se186  1  0.91664737  0.75097616  0.94505297  1
  Se  Se187  1  0.24332717  0.24891927  0.31508985  1
  Se  Se188  1  0.24865430  0.24619513  0.80787108  1
  Se  Se189  1  0.24918306  0.58765942  0.30222198  1
  Se  Se190  1  0.24356004  0.57723706  0.80873886  1
  Se  Se191  1  0.25270136  0.92062169  0.30020585  1
  Se  Se192  1  0.24247330  0.90150687  0.80770752  1
  Se  Se193  1  0.58341522  0.23765235  0.30391404  1
  Se  Se194  1  0.57834931  0.25006682  0.80784928  1
  Se  Se195  1  0.57727239  0.57575602  0.29289179  1
  Se  Se196  1  0.58372520  0.58611261  0.79721876  1
  Se  Se197  1  0.57886113  0.90564460  0.31334487  1
  Se  Se198  1  0.58853041  0.92069644  0.81335767  1
  Se  Se199  1  0.92243722  0.25579184  0.30690929  1
  Se  Se200  1  0.91719141  0.25336033  0.79915025  1
  Se  Se201  1  0.91110786  0.57362555  0.31330481  1
  Se  Se202  1  0.91819383  0.58454584  0.80826997  1
  Se  Se203  1  0.91470506  0.91068199  0.30912855  1
  Se  Se204  1  0.91687031  0.91938948  0.79874744  1
  Se  Se205  1  0.08643559  0.09157634  0.31363394  1
  Se  Se206  1  0.08531496  0.07981166  0.79652327  1
  Se  Se207  1  0.08378338  0.42050409  0.30712999  1
  Se  Se208  1  0.07898768  0.41546514  0.80766090  1
  Se  Se209  1  0.08817276  0.76034972  0.30995212  1
  Se  Se210  1  0.07636012  0.74298735  0.79575464  1
  Se  Se211  1  0.40894906  0.07979900  0.30362595  1
  Se  Se212  1  0.42494724  0.08324403  0.81746977  1
  Se  Se213  1  0.42544560  0.42379710  0.31223506  1
  Se  Se214  1  0.41321661  0.41608742  0.79753884  1
  Se  Se215  1  0.41839491  0.74956079  0.29958465  1
  Se  Se216  1  0.42171159  0.75460065  0.80601876  1
  Se  Se217  1  0.75911387  0.08653593  0.31145751  1
  Se  Se218  1  0.75127608  0.08863274  0.79742348  1
  Se  Se219  1  0.73772542  0.39448524  0.30120304  1
  Se  Se220  1  0.75315331  0.42435676  0.80801080  1
  Se  Se221  1  0.75493422  0.74005917  0.30751857  1
  Se  Se222  1  0.74902092  0.74870529  0.80805358  1
  Se  Se223  1  0.24879696  0.08369751  0.20127708  1
  Se  Se224  1  0.24954378  0.08953011  0.68787817  1
  Se  Se225  1  0.24643797  0.42137632  0.19069140  1
  Se  Se226  1  0.24975517  0.41432398  0.69735192  1
  Se  Se227  1  0.25519630  0.74548077  0.19614831  1
  Se  Se228  1  0.23846417  0.75209237  0.68186135  1
  Se  Se229  1  0.57588195  0.08285917  0.18659711  1
  Se  Se230  1  0.58782512  0.09128524  0.70367853  1
  Se  Se231  1  0.57551190  0.42140686  0.20028781  1
  Se  Se232  1  0.58031013  0.42568986  0.68285352  1
  Se  Se233  1  0.59129767  0.74833402  0.19855595  1
  Se  Se234  1  0.58898316  0.74977768  0.70060529  1
  Se  Se235  1  0.90671812  0.09386864  0.19076762  1
  Se  Se236  1  0.92059116  0.08254238  0.69204508  1
  Se  Se237  1  0.92614700  0.41822365  0.19465675  1
  Se  Se238  1  0.91933615  0.41334329  0.70325864  1
  Se  Se239  1  0.91613386  0.75440504  0.19015544  1
  Se  Se240  1  0.91161853  0.74792537  0.69795804  1
  Se  Se241  1  0.07864389  0.25315356  0.20169529  1
  Se  Se242  1  0.08156978  0.25152907  0.69500188  1
  Se  Se243  1  0.08571807  0.57443940  0.18619371  1
  Se  Se244  1  0.08119216  0.58155153  0.69814016  1
  Se  Se245  1  0.09119317  0.90736317  0.18825318  1
  Se  Se246  1  0.07782503  0.91761846  0.69719295  1
  Se  Se247  1  0.42231395  0.24464890  0.18999716  1
  Se  Se248  1  0.41576631  0.24868128  0.70252553  1
  Se  Se249  1  0.41502924  0.58143654  0.20019685  1
  Se  Se250  1  0.42158010  0.57529224  0.68381994  1
  Se  Se251  1  0.41894542  0.91893503  0.19421437  1
  Se  Se252  1  0.43035704  0.91541088  0.69485576  1
  Se  Se253  1  0.74789235  0.25166406  0.19921803  1
  Se  Se254  1  0.75971847  0.24839413  0.68206953  1
  Se  Se255  1  0.75694371  0.58688227  0.20472679  1
  Se  Se256  1  0.74938708  0.58677023  0.69857426  1
  Se  Se257  1  0.75836593  0.91101080  0.19334657  1
  Se  Se258  1  0.74847353  0.92242612  0.69884249  1
