# generated using pymatgen
data_In86Cu29Se144
_symmetry_space_group_name_H-M   'P 1'
_cell_length_a   17.59736802
_cell_length_b   17.59898303
_cell_length_c   23.45135166
_cell_angle_alpha   90.00057986
_cell_angle_beta   89.99601923
_cell_angle_gamma   89.98783841
_symmetry_Int_Tables_number   1
_chemical_formula_structural   In86Cu29Se144
_chemical_formula_sum   'In86 Cu29 Se144'
_cell_volume   7262.78449117
_cell_formula_units_Z   1
loop_
 _symmetry_equiv_pos_site_id
 _symmetry_equiv_pos_as_xyz
  1  'x, y, z'
loop_
 _atom_site_type_symbol
 _atom_site_label
 _atom_site_symmetry_multiplicity
 _atom_site_fract_x
 _atom_site_fract_y
 _atom_site_fract_z
 _atom_site_occupancy
  In  In0  1  0.00145690  0.16957587  0.10986567  1
  In  In1  1  -0.00401554  0.15570663  0.62607108  1
  In  In2  1  0.01925073  0.49556543  0.12398661  1
  In  In3  1  0.01034957  0.49349039  0.62433333  1
  In  In4  1  0.00667584  0.84577373  0.10715646  1
  In  In5  1  0.01904908  0.83525814  0.62642307  1
  In  In6  1  0.33891008  0.17110985  0.11706644  1
  In  In7  1  0.33063184  0.16660750  0.62610964  1
  In  In8  1  0.32943382  0.48702633  0.12631334  1
  In  In9  1  0.33313523  0.49973455  0.63001284  1
  In  In10  1  0.31604239  0.80918752  0.09330425  1
  In  In11  1  0.31842580  0.84167546  0.63807438  1
  In  In12  1  0.65926448  0.15620062  0.11414824  1
  In  In13  1  0.66459821  0.16193757  0.63106041  1
  In  In14  1  0.65944361  0.51843075  0.12294346  1
  In  In15  1  0.65773856  0.50171721  0.63252738  1
  In  In16  1  0.65865397  0.82356655  0.10693640  1
  In  In17  1  0.66168340  0.83619205  0.63644433  1
  In  In18  1  0.16826533  0.00154254  0.39054955  1
  In  In19  1  0.17252555  -0.00303838  0.87297161  1
  In  In20  1  0.17728715  0.33182487  0.37977557  1
  In  In21  1  0.17886580  0.32002689  0.87751910  1
  In  In22  1  0.18430233  0.65249223  0.38771705  1
  In  In23  1  0.18473951  0.66797574  0.89456594  1
  In  In24  1  0.50796084  0.00041840  0.37779733  1
  In  In25  1  0.50031996  0.00668421  0.86150641  1
  In  In26  1  0.48982222  0.34185264  0.37691168  1
  In  In27  1  0.49699539  0.33067184  0.87058453  1
  In  In28  1  0.48968327  0.67490969  0.37394618  1
  In  In29  1  0.49338083  0.66521708  0.87903259  1
  In  In30  1  0.84040014  0.00596844  0.38143091  1
  In  In31  1  0.83345901  0.00278127  0.87160692  1
  In  In32  1  0.82634322  0.32062808  0.38079850  1
  In  In33  1  0.81557452  0.32789607  0.86855273  1
  In  In34  1  0.83405231  0.65452950  0.37550924  1
  In  In35  1  0.83328447  0.68044446  0.87649800  1
  In  In36  1  0.00325581  0.16601942  0.38528593  1
  In  In37  1  0.01619537  0.14269797  0.88852453  1
  In  In38  1  0.00898917  0.50560743  0.37599245  1
  In  In39  1  0.00979892  0.50920909  0.87871583  1
  In  In40  1  0.00054500  0.84730742  0.36945745  1
  In  In41  1  -0.00236109  0.85085490  0.89091729  1
  In  In42  1  0.32007566  0.17795033  0.38726783  1
  In  In43  1  0.34112715  0.16291808  0.86133678  1
  In  In44  1  0.32952237  0.49228532  0.36360953  1
  In  In45  1  0.33205883  0.50253579  0.88285817  1
  In  In46  1  0.33670627  0.82009139  0.37313594  1
  In  In47  1  0.33120454  0.83496398  0.87852104  1
  In  In48  1  0.65970331  0.18013471  0.39990338  1
  In  In49  1  0.66057141  0.17165416  0.86874478  1
  In  In50  1  0.66615913  0.50056879  0.38113207  1
  In  In51  1  0.64810649  0.48405164  0.86636226  1
  In  In52  1  0.65419718  0.83515585  0.37657551  1
  In  In53  1  0.66533830  0.83361590  0.86897992  1
  In  In54  1  0.16786477  0.00881391  0.10939050  1
  In  In55  1  0.16741178  -0.00599519  0.62892381  1
  In  In56  1  0.18539028  0.34389471  0.11009608  1
  In  In57  1  0.17909107  0.34005411  0.62190158  1
  In  In58  1  0.17838353  0.66405065  0.12412318  1
  In  In59  1  0.17432597  0.67196552  0.62147800  1
  In  In60  1  0.49489003  -0.00498803  0.11129653  1
  In  In61  1  0.47129932  0.04250708  0.66976271  1
  In  In62  1  0.48687865  0.32000834  0.11979070  1
  In  In63  1  0.52208705  0.29798916  0.65759855  1
  In  In64  1  0.44212394  0.62792925  0.06422574  1
  In  In65  1  0.49721792  0.66208305  0.63578098  1
  In  In66  1  0.83595987  0.00014608  0.10310002  1
  In  In67  1  0.81867931  0.01679054  0.64204901  1
  In  In68  1  0.83645129  0.32693851  0.12082524  1
  In  In69  1  0.83130958  0.32008021  0.62244401  1
  In  In70  1  0.82014638  0.66971389  0.11635178  1
  In  In71  1  0.82107388  0.66567719  0.62713776  1
  In  In72  1  0.66603467  0.00080118  0.25092262  1
  In  In73  1  0.33482841  -0.00261570  0.24925583  1
  In  In74  1  0.01380722  0.32856832  0.25589494  1
  In  In75  1  0.83598437  0.83975633  0.50786673  1
  In  In76  1  0.01716831  0.68303785  0.22928423  1
  In  In77  1  0.49874263  0.49333349  0.50871147  1
  In  In78  1  0.00674198  0.67817283  0.76029074  1
  In  In79  1  0.83038727  0.49613305  0.00129631  1
  In  In80  1  0.49610216  0.83940795  0.50490314  1
  In  In81  1  0.83593629  0.49697813  0.50400559  1
  In  In82  1  0.00135099  0.00658896  0.23792299  1
  In  In83  1  0.65587223  0.67360701  0.25151506  1
  In  In84  1  0.66114163  0.33875992  0.25798505  1
  In  In85  1  -0.00541623  0.33023793  0.74774642  1
  Cu  Cu86  1  0.82541329  0.50690432  0.74964693  1
  Cu  Cu87  1  0.66281623  0.00307005  0.51265319  1
  Cu  Cu88  1  0.49125742  0.50355771  0.23841087  1
  Cu  Cu89  1  0.48890521  0.82256874  0.23467068  1
  Cu  Cu90  1  0.00355145  0.67247821  0.49896571  1
  Cu  Cu91  1  0.34187216  0.33240426  0.50483202  1
  Cu  Cu92  1  0.65716747  0.33106412  -0.00585362  1
  Cu  Cu93  1  0.82158816  0.83577941  0.23910273  1
  Cu  Cu94  1  0.48846667  0.50607139  0.75585299  1
  Cu  Cu95  1  0.01013737  0.66592650  -0.00000673  1
  Cu  Cu96  1  -0.00034440  0.00158559  0.50599139  1
  Cu  Cu97  1  0.83562863  0.16819300  0.75401645  1
  Cu  Cu98  1  0.16776651  0.16230198  0.75199427  1
  Cu  Cu99  1  0.66796968  0.00418116  -0.01405409  1
  Cu  Cu100  1  0.34224755  0.01150390  -0.01144061  1
  Cu  Cu101  1  0.33154989  0.32462378  -0.00661375  1
  Cu  Cu102  1  0.33343539  0.66594605  0.50349686  1
  Cu  Cu103  1  0.17042214  0.50444716  0.75678042  1
  Cu  Cu104  1  0.82201665  0.16422556  0.24925822  1
  Cu  Cu105  1  0.17539138  0.82776875  0.24520418  1
  Cu  Cu106  1  0.48862755  0.16969420  0.24969456  1
  Cu  Cu107  1  -0.00535485  0.33011494  -0.00508805  1
  Cu  Cu108  1  0.49718695  0.82605262  0.75672012  1
  Cu  Cu109  1  0.84952973  0.50190688  0.25040842  1
  Cu  Cu110  1  0.17035152  0.83434708  0.75702705  1
  Cu  Cu111  1  0.66690487  0.66386662  -0.01178098  1
  Cu  Cu112  1  0.01362731  0.33354993  0.50318214  1
  Cu  Cu113  1  0.16973647  0.16951400  0.25292120  1
  Cu  Cu114  1  0.83932588  0.83117723  0.75568369  1
  Se  Se115  1  0.06170461  0.06574571  0.04794804  1
  Se  Se116  1  0.08698339  0.08129962  0.55870101  1
  Se  Se117  1  0.08104483  0.41134851  0.04785028  1
  Se  Se118  1  0.09366840  0.42248805  0.55200881  1
  Se  Se119  1  0.09168705  0.74660482  0.05632369  1
  Se  Se120  1  0.08867730  0.75226940  0.55229230  1
  Se  Se121  1  0.42294283  0.09136230  0.04774788  1
  Se  Se122  1  0.42475432  0.07991248  0.56967903  1
  Se  Se123  1  0.41097895  0.40750542  0.05165934  1
  Se  Se124  1  0.41977155  0.40205206  0.57198118  1
  Se  Se125  1  0.44942687  0.77505144  0.05762743  1
  Se  Se126  1  0.41061521  0.74581137  0.56534285  1
  Se  Se127  1  0.74831136  0.08775856  0.04352314  1
  Se  Se128  1  0.75360563  0.08579101  0.55800934  1
  Se  Se129  1  0.73483059  0.40849575  0.06172621  1
  Se  Se130  1  0.74138536  0.41313216  0.56241729  1
  Se  Se131  1  0.75141973  0.74818932  0.03975698  1
  Se  Se132  1  0.73811532  0.75023006  0.55761218  1
  Se  Se133  1  0.24615350  0.23990058  0.04670482  1
  Se  Se134  1  0.25197547  0.25024181  0.55320119  1
  Se  Se135  1  0.26110786  0.58201236  0.05638703  1
  Se  Se136  1  0.25241944  0.57946670  0.55671172  1
  Se  Se137  1  0.26056647  0.93134730  0.04659952  1
  Se  Se138  1  0.24124456  0.90515056  0.55890408  1
  Se  Se139  1  0.57817484  0.24687264  0.05209218  1
  Se  Se140  1  0.58184573  0.24847951  0.56546102  1
  Se  Se141  1  0.58545046  0.57941942  0.04162434  1
  Se  Se142  1  0.58674412  0.59386219  0.55836994  1
  Se  Se143  1  0.58800422  0.92290315  0.04492526  1
  Se  Se144  1  0.58051828  0.92496103  0.56990266  1
  Se  Se145  1  0.90837819  0.24857092  0.04600694  1
  Se  Se146  1  0.92942209  0.25384044  0.55761408  1
  Se  Se147  1  0.92572553  0.58618942  0.06068814  1
  Se  Se148  1  0.92545175  0.59407359  0.56191633  1
  Se  Se149  1  0.90293274  0.89974528  0.04296166  1
  Se  Se150  1  0.91996756  0.92690001  0.57110921  1
  Se  Se151  1  0.09219198  0.24911595  0.44690309  1
  Se  Se152  1  0.08437171  0.24987862  0.94531240  1
  Se  Se153  1  0.08475778  0.58172829  0.45068163  1
  Se  Se154  1  0.09278923  0.57821485  0.95246816  1
  Se  Se155  1  0.07560234  0.91528465  0.44855080  1
  Se  Se156  1  0.09784215  0.92074345  0.95051070  1
  Se  Se157  1  0.42226826  0.25085560  0.44706246  1
  Se  Se158  1  0.41563672  0.24436529  0.93809883  1
  Se  Se159  1  0.41252952  0.58425569  0.44315355  1
  Se  Se160  1  0.41136938  0.58891693  0.95310478  1
  Se  Se161  1  0.40760208  0.92280365  0.43844390  1
  Se  Se162  1  0.42276946  0.92564154  0.93580750  1
  Se  Se163  1  0.75997944  0.24938488  0.46042149  1
  Se  Se164  1  0.74395016  0.24989801  0.94422729  1
  Se  Se165  1  0.74090576  0.59434609  0.45010533  1
  Se  Se166  1  0.74720412  0.57823176  0.93200741  1
  Se  Se167  1  0.73860725  0.92512833  0.44457124  1
  Se  Se168  1  0.74942010  0.91484361  0.93820484  1
  Se  Se169  1  0.25442765  0.08178515  0.45347089  1
  Se  Se170  1  0.25528369  0.09061187  0.93530391  1
  Se  Se171  1  0.26359834  0.41637775  0.44546989  1
  Se  Se172  1  0.24719773  0.41377336  0.94687305  1
  Se  Se173  1  0.25311659  0.75359603  0.45022512  1
  Se  Se174  1  0.26098557  0.75940649  0.95973306  1
  Se  Se175  1  0.57890495  0.08057370  0.45358615  1
  Se  Se176  1  0.57967134  0.08608738  0.93696102  1
  Se  Se177  1  0.59398146  0.40531698  0.44638005  1
  Se  Se178  1  0.57248185  0.41651486  0.94601356  1
  Se  Se179  1  0.58562612  0.74115912  0.44614554  1
  Se  Se180  1  0.58408273  0.75081984  0.93959986  1
  Se  Se181  1  0.91669245  0.08592552  0.45320733  1
  Se  Se182  1  0.90645122  0.08567107  0.94600010  1
  Se  Se183  1  0.92757466  0.40830083  0.44082639  1
  Se  Se184  1  0.91773129  0.41170128  0.93440526  1
  Se  Se185  1  0.91902034  0.74746180  0.43862717  1
  Se  Se186  1  0.92370135  0.74500893  0.94759308  1
  Se  Se187  1  0.25362250  0.25138897  0.30513022  1
  Se  Se188  1  0.25263669  0.25089941  0.79749297  1
  Se  Se189  1  0.26292133  0.59832413  0.30579557  1
  Se  Se190  1  0.24779043  0.58720065  0.81439124  1
  Se  Se191  1  0.24074806  0.91269879  0.31115877  1
  Se  Se192  1  0.25913804  0.91952369  0.80313868  1
  Se  Se193  1  0.57648084  0.23879536  0.31284491  1
  Se  Se194  1  0.58997489  0.26434817  0.79996488  1
  Se  Se195  1  0.57031790  0.57241849  0.30898645  1
  Se  Se196  1  0.57757900  0.58658588  0.80683089  1
  Se  Se197  1  0.56575773  0.90298656  0.29821054  1
  Se  Se198  1  0.58470358  0.91552424  0.79863421  1
  Se  Se199  1  0.91060509  0.23872504  0.30705147  1
  Se  Se200  1  0.91918452  0.24131115  0.81679998  1
  Se  Se201  1  0.92853179  0.59102372  0.30092242  1
  Se  Se202  1  0.91099711  0.57889972  0.80944300  1
  Se  Se203  1  0.90259696  0.91795670  0.29859708  1
  Se  Se204  1  0.92181892  0.91431901  0.80847326  1
  Se  Se205  1  0.08914308  0.08629730  0.30955488  1
  Se  Se206  1  0.08454673  0.07846793  0.80389231  1
  Se  Se207  1  0.09931400  0.42791647  0.30846907  1
  Se  Se208  1  0.08686477  0.41829201  0.80959743  1
  Se  Se209  1  0.09079515  0.75701120  0.30936808  1
  Se  Se210  1  0.09557386  0.75948147  0.82485261  1
  Se  Se211  1  0.41761734  0.08749715  0.31363974  1
  Se  Se212  1  0.43448421  0.09816291  0.78759016  1
  Se  Se213  1  0.42030641  0.41498864  0.29691063  1
  Se  Se214  1  0.40886424  0.42118821  0.81027011  1
  Se  Se215  1  0.41124946  0.74338872  0.29634105  1
  Se  Se216  1  0.41025742  0.74635581  0.80951681  1
  Se  Se217  1  0.74772508  0.09218246  0.31733707  1
  Se  Se218  1  0.74817869  0.08530718  0.80403632  1
  Se  Se219  1  0.76568746  0.42735776  0.31105644  1
  Se  Se220  1  0.74572547  0.41687452  0.79864185  1
  Se  Se221  1  0.75567431  0.75955248  0.31067678  1
  Se  Se222  1  0.75047184  0.74690856  0.80105866  1
  Se  Se223  1  0.24331493  0.08805766  0.18953082  1
  Se  Se224  1  0.24911932  0.07979469  0.69579226  1
  Se  Se225  1  0.24802164  0.40551406  0.19631878  1
  Se  Se226  1  0.24671020  0.41975612  0.69977225  1
  Se  Se227  1  0.26054787  0.75354467  0.18812764  1
  Se  Se228  1  0.24537546  0.74363555  0.70257560  1
  Se  Se229  1  0.56897121  0.08671901  0.19177919  1
  Se  Se230  1  0.60779105  0.06627592  0.70408870  1
  Se  Se231  1  0.57863088  0.42124568  0.18629738  1
  Se  Se232  1  0.57335149  0.42476098  0.70188265  1
  Se  Se233  1  0.57280608  0.74468927  0.17812474  1
  Se  Se234  1  0.58235325  0.74559795  0.70144528  1
  Se  Se235  1  0.90195943  0.09238550  0.18366852  1
  Se  Se236  1  0.92208190  0.08274620  0.70507785  1
  Se  Se237  1  0.91959565  0.41649740  0.19067490  1
  Se  Se238  1  0.90565148  0.42728903  0.68903896  1
  Se  Se239  1  0.90738607  0.76218685  0.18049227  1
  Se  Se240  1  0.91522390  0.75379430  0.68971130  1
  Se  Se241  1  0.08928583  0.24001344  0.18629228  1
  Se  Se242  1  0.09136168  0.24599595  0.68960188  1
  Se  Se243  1  0.10377083  0.57069411  0.19716968  1
  Se  Se244  1  0.08674823  0.58147009  0.69697889  1
  Se  Se245  1  0.09635871  0.91137512  0.18710568  1
  Se  Se246  1  0.08450475  0.91544730  0.70377480  1
  Se  Se247  1  0.40602418  0.25095245  0.19690700  1
  Se  Se248  1  0.39543549  0.25792395  0.70109443  1
  Se  Se249  1  0.42585352  0.58496702  0.17278369  1
  Se  Se250  1  0.40534883  0.58814963  0.70173724  1
  Se  Se251  1  0.41164532  0.91002941  0.18027656  1
  Se  Se252  1  0.41575653  0.91029478  0.70266562  1
  Se  Se253  1  0.74410679  0.24738797  0.19074154  1
  Se  Se254  1  0.75294095  0.24857201  0.69775721  1
  Se  Se255  1  0.75872355  0.58079292  0.19766700  1
  Se  Se256  1  0.74083389  0.58876606  0.69843822  1
  Se  Se257  1  0.74529704  0.91669920  0.17947196  1
  Se  Se258  1  0.75391645  0.91198126  0.70209138  1
