# generated using pymatgen
data_In86Cu29Se144
_symmetry_space_group_name_H-M   'P 1'
_cell_length_a   17.58989651
_cell_length_b   17.58557306
_cell_length_c   23.44943536
_cell_angle_alpha   90.00295297
_cell_angle_beta   90.00387017
_cell_angle_gamma   89.99478428
_symmetry_Int_Tables_number   1
_chemical_formula_structural   In86Cu29Se144
_chemical_formula_sum   'In86 Cu29 Se144'
_cell_volume   7253.57650217
_cell_formula_units_Z   1
loop_
 _symmetry_equiv_pos_site_id
 _symmetry_equiv_pos_as_xyz
  1  'x, y, z'
loop_
 _atom_site_type_symbol
 _atom_site_label
 _atom_site_symmetry_multiplicity
 _atom_site_fract_x
 _atom_site_fract_y
 _atom_site_fract_z
 _atom_site_occupancy
  In  In0  1  0.00705344  0.15676924  0.13263728  1
  In  In1  1  0.00468683  0.17005329  0.61725806  1
  In  In2  1  -0.01195377  0.51376569  0.13271283  1
  In  In3  1  0.01249687  0.49798360  0.62121317  1
  In  In4  1  -0.00008573  0.83239343  0.12427728  1
  In  In5  1  -0.01461495  0.81887795  0.61444081  1
  In  In6  1  0.32870739  0.17784543  0.12041508  1
  In  In7  1  0.33628127  0.18053744  0.63043309  1
  In  In8  1  0.34168689  0.49378481  0.11962733  1
  In  In9  1  0.33310348  0.50038288  0.62768379  1
  In  In10  1  0.33928715  0.83672119  0.11985039  1
  In  In11  1  0.32367991  0.82145743  0.62044880  1
  In  In12  1  0.68257708  0.17482205  0.12393922  1
  In  In13  1  0.64726827  0.17623254  0.64554392  1
  In  In14  1  0.66958754  0.49108835  0.11016890  1
  In  In15  1  0.66065382  0.51171075  0.63019072  1
  In  In16  1  0.66429700  0.82318687  0.11437935  1
  In  In17  1  0.66845341  0.82667220  0.62472334  1
  In  In18  1  0.16073701  0.00904567  0.38065871  1
  In  In19  1  0.16324248  0.00070754  0.88080594  1
  In  In20  1  0.14109820  0.35201187  0.39680410  1
  In  In21  1  0.16578143  0.32212197  0.87607530  1
  In  In22  1  0.15500542  0.67636377  0.38283585  1
  In  In23  1  0.17699810  0.67018478  0.86693855  1
  In  In24  1  0.49413879  -0.00613521  0.37824873  1
  In  In25  1  0.49927382  -0.01755775  0.87277136  1
  In  In26  1  0.51360493  0.34398548  0.37700479  1
  In  In27  1  0.52258153  0.35579015  0.85616847  1
  In  In28  1  0.49887601  0.67104657  0.38829012  1
  In  In29  1  0.50066432  0.66537117  0.87300544  1
  In  In30  1  0.83699305  -0.01444584  0.37447915  1
  In  In31  1  0.81900182  -0.00350237  0.87446726  1
  In  In32  1  0.82938597  0.33660853  0.37089095  1
  In  In33  1  0.81679084  0.35167190  0.88132898  1
  In  In34  1  0.84347978  0.66385654  0.37668391  1
  In  In35  1  0.83543653  0.66252323  0.86929483  1
  In  In36  1  0.00850587  0.17712974  0.36716755  1
  In  In37  1  0.00875011  0.17585298  0.87805570  1
  In  In38  1  -0.00298022  0.50890949  0.37121695  1
  In  In39  1  -0.01685629  0.50522187  0.87406511  1
  In  In40  1  0.00043946  0.83323502  0.37220157  1
  In  In41  1  0.00832242  0.82441841  0.87991183  1
  In  In42  1  0.32693981  0.15861860  0.37725750  1
  In  In43  1  0.32748476  0.16715812  0.87355422  1
  In  In44  1  0.33449665  0.49602643  0.38390057  1
  In  In45  1  0.34647483  0.51282413  0.86474246  1
  In  In46  1  0.33704375  0.82593567  0.38424454  1
  In  In47  1  0.34167629  0.82621679  0.87996991  1
  In  In48  1  0.65941004  0.18020293  0.37649188  1
  In  In49  1  0.66594010  0.17156483  0.86099232  1
  In  In50  1  0.66715186  0.49475933  0.38635228  1
  In  In51  1  0.66544294  0.49945782  0.87007605  1
  In  In52  1  0.66510835  0.83283832  0.38943507  1
  In  In53  1  0.66649331  0.82575412  0.87318033  1
  In  In54  1  0.16175970  -0.00937703  0.12117207  1
  In  In55  1  0.16489994  -0.00588622  0.61690025  1
  In  In56  1  0.16738422  0.32128081  0.12320091  1
  In  In57  1  0.17378729  0.34759660  0.61127968  1
  In  In58  1  0.15093303  0.66978672  0.12698868  1
  In  In59  1  0.16576558  0.66493637  0.62626470  1
  In  In60  1  0.50962143  -0.00699897  0.12466598  1
  In  In61  1  0.51727955  -0.00127519  0.62928502  1
  In  In62  1  0.50854732  0.35192502  0.11649530  1
  In  In63  1  0.49222267  0.33797349  0.63002971  1
  In  In64  1  0.50907392  0.66626321  0.11717243  1
  In  In65  1  0.50145627  0.66048709  0.62345016  1
  In  In66  1  0.84663605  0.00281417  0.12469463  1
  In  In67  1  0.82511161  -0.01384082  0.62349238  1
  In  In68  1  0.82793644  0.34565810  0.13001237  1
  In  In69  1  0.82955378  0.33054595  0.62723832  1
  In  In70  1  0.83812365  0.67228146  0.11545512  1
  In  In71  1  0.81808997  0.67716254  0.64522231  1
  In  In72  1  0.67090654  0.66580657  0.25036768  1
  In  In73  1  -0.00455509  -0.00433749  0.74080123  1
  In  In74  1  0.16733895  0.50127142  0.00280736  1
  In  In75  1  -0.00397996  0.33632386  0.75319654  1
  In  In76  1  0.49514097  0.16494985  -0.00345503  1
  In  In77  1  0.49476266  0.16529558  0.50750284  1
  In  In78  1  0.33054883  0.66758055  0.26126295  1
  In  In79  1  0.83175468  0.16681390  0.50169688  1
  In  In80  1  0.83725297  0.16569730  -0.00647200  1
  In  In81  1  0.33825497  -0.00637056  0.75308446  1
  In  In82  1  0.82867903  0.51043239  0.50721872  1
  In  In83  1  0.32856115  0.33058309  0.24929464  1
  In  In84  1  0.67636730  0.00165048  0.25456502  1
  In  In85  1  0.33259212  -0.00005301  0.24987140  1
  Cu  Cu86  1  0.33800068  0.33767396  -0.00540281  1
  Cu  Cu87  1  0.49848846  0.50420946  0.74735890  1
  Cu  Cu88  1  0.32476822  -0.00167218  -0.00395543  1
  Cu  Cu89  1  0.16282413  0.83470615  0.25105872  1
  Cu  Cu90  1  0.51008793  0.17862546  0.24992967  1
  Cu  Cu91  1  0.00282655  -0.00165238  0.49747592  1
  Cu  Cu92  1  0.33334631  0.33157025  0.50491055  1
  Cu  Cu93  1  0.33236976  -0.00836462  0.50085256  1
  Cu  Cu94  1  0.83254392  0.49974066  0.25103193  1
  Cu  Cu95  1  0.83930165  0.83030903  0.24639662  1
  Cu  Cu96  1  0.00296567  -0.00539763  0.00533169  1
  Cu  Cu97  1  0.50268313  0.82264820  0.74980372  1
  Cu  Cu98  1  0.16920118  0.49705996  0.74339816  1
  Cu  Cu99  1  0.17012304  0.17011124  0.74767530  1
  Cu  Cu100  1  0.66301371  -0.01018588  -0.00493911  1
  Cu  Cu101  1  0.50837849  0.50325963  0.24514716  1
  Cu  Cu102  1  0.67060903  -0.00193607  0.50583890  1
  Cu  Cu103  1  0.00190442  0.66850425  0.49879852  1
  Cu  Cu104  1  -0.00253779  0.66884852  -0.00094571  1
  Cu  Cu105  1  -0.00111274  0.33092394  0.00216857  1
  Cu  Cu106  1  0.15631349  0.49648541  0.25407827  1
  Cu  Cu107  1  0.16491895  0.82266219  0.74931915  1
  Cu  Cu108  1  0.33086341  0.65868834  0.50599509  1
  Cu  Cu109  1  0.83850246  0.17371177  0.24843780  1
  Cu  Cu110  1  0.82983568  0.16868061  0.75120388  1
  Cu  Cu111  1  0.82922649  0.83079827  0.74920303  1
  Cu  Cu112  1  0.33483943  0.67121663  -0.00584242  1
  Cu  Cu113  1  0.16072297  0.16962518  0.25368789  1
  Cu  Cu114  1  0.66747535  0.66216139  -0.00940917  1
  Se  Se115  1  0.08454454  0.08324350  0.05561629  1
  Se  Se116  1  0.08392897  0.08218593  0.55169865  1
  Se  Se117  1  0.07567587  0.41415195  0.06389331  1
  Se  Se118  1  0.07541367  0.41166281  0.54605620  1
  Se  Se119  1  0.08254061  0.75173881  0.05177775  1
  Se  Se120  1  0.08766019  0.74998394  0.55350018  1
  Se  Se121  1  0.40700814  0.07294044  0.06119246  1
  Se  Se122  1  0.40795139  0.07073045  0.56621548  1
  Se  Se123  1  0.42195540  0.42315084  0.04419223  1
  Se  Se124  1  0.41542247  0.41703523  0.55661730  1
  Se  Se125  1  0.41886231  0.74855762  0.05394202  1
  Se  Se126  1  0.41558935  0.74494876  0.55543301  1
  Se  Se127  1  0.74422252  0.07223670  0.05390561  1
  Se  Se128  1  0.73823620  0.08735412  0.56703707  1
  Se  Se129  1  0.76022094  0.41129412  0.04732475  1
  Se  Se130  1  0.74129416  0.41328081  0.56140009  1
  Se  Se131  1  0.74987428  0.74664045  0.04596531  1
  Se  Se132  1  0.76611241  0.75440019  0.56102011  1
  Se  Se133  1  0.25233628  0.25530974  0.04655474  1
  Se  Se134  1  0.25104401  0.24440461  0.55460498  1
  Se  Se135  1  0.25755654  0.59537176  0.06192212  1
  Se  Se136  1  0.24451914  0.57691755  0.55774147  1
  Se  Se137  1  0.24850295  0.91211880  0.05352357  1
  Se  Se138  1  0.24608309  0.90820392  0.55101307  1
  Se  Se139  1  0.58978768  0.25188223  0.05593421  1
  Se  Se140  1  0.58821506  0.25572772  0.56048636  1
  Se  Se141  1  0.58525253  0.58060706  0.04842904  1
  Se  Se142  1  0.58395792  0.58161744  0.55242791  1
  Se  Se143  1  0.57876098  0.91043724  0.05041996  1
  Se  Se144  1  0.58511708  0.91348504  0.55554932  1
  Se  Se145  1  0.92131869  0.24807471  0.06314090  1
  Se  Se146  1  0.92431206  0.26396277  0.55288128  1
  Se  Se147  1  0.91682901  0.58000897  0.04989382  1
  Se  Se148  1  0.92273445  0.59615165  0.56538231  1
  Se  Se149  1  0.91423950  0.91308121  0.05382501  1
  Se  Se150  1  0.91637366  0.92055107  0.55223269  1
  Se  Se151  1  0.09229867  0.23215085  0.44713271  1
  Se  Se152  1  0.08731589  0.24904069  0.95332515  1
  Se  Se153  1  0.08089183  0.57988640  0.44642304  1
  Se  Se154  1  0.08015270  0.58856529  0.93919901  1
  Se  Se155  1  0.08439753  0.91352005  0.44307610  1
  Se  Se156  1  0.08532172  0.91352602  0.94780574  1
  Se  Se157  1  0.41236841  0.25581717  0.43878437  1
  Se  Se158  1  0.41773377  0.25948217  0.93297651  1
  Se  Se159  1  0.41637667  0.58035306  0.45024969  1
  Se  Se160  1  0.41757647  0.58389263  0.94507093  1
  Se  Se161  1  0.42072442  0.91167978  0.45047919  1
  Se  Se162  1  0.41546726  0.91656395  0.94899813  1
  Se  Se163  1  0.74046175  0.26326495  0.44719893  1
  Se  Se164  1  0.73637008  0.25141273  0.94276304  1
  Se  Se165  1  0.74114882  0.60109580  0.44435136  1
  Se  Se166  1  0.75279048  0.57980859  0.93918235  1
  Se  Se167  1  0.75475347  0.91833428  0.45063793  1
  Se  Se168  1  0.75035797  0.90776718  0.94511384  1
  Se  Se169  1  0.25186870  0.08059975  0.45085171  1
  Se  Se170  1  0.24685349  0.08763217  0.94527124  1
  Se  Se171  1  0.25013648  0.41703683  0.45275932  1
  Se  Se172  1  0.25500397  0.41853679  0.93580481  1
  Se  Se173  1  0.25112840  0.74459286  0.44976371  1
  Se  Se174  1  0.24570731  0.75106112  0.94456083  1
  Se  Se175  1  0.59029574  0.07771353  0.44370251  1
  Se  Se176  1  0.58959728  0.07734412  0.93631418  1
  Se  Se177  1  0.57225674  0.42829216  0.45379553  1
  Se  Se178  1  0.58357832  0.41872939  0.94201886  1
  Se  Se179  1  0.58009507  0.75380381  0.45477148  1
  Se  Se180  1  0.58039429  0.74896863  0.94399014  1
  Se  Se181  1  0.92116212  0.07999954  0.43834934  1
  Se  Se182  1  0.92870415  0.07078243  0.93656896  1
  Se  Se183  1  0.91330409  0.42038377  0.44133354  1
  Se  Se184  1  0.91935546  0.41344297  0.94675897  1
  Se  Se185  1  0.91894253  0.75224992  0.44459944  1
  Se  Se186  1  0.91332410  0.74775166  0.94231352  1
  Se  Se187  1  0.24033250  0.24884763  0.31467886  1
  Se  Se188  1  0.25118403  0.25266369  0.80189578  1
  Se  Se189  1  0.23923005  0.57287830  0.31476268  1
  Se  Se190  1  0.25132771  0.58240773  0.79768307  1
  Se  Se191  1  0.24695480  0.90906817  0.31257640  1
  Se  Se192  1  0.24023965  0.90806025  0.80998172  1
  Se  Se193  1  0.58933613  0.26396986  0.30238771  1
  Se  Se194  1  0.57672601  0.24619759  0.79539839  1
  Se  Se195  1  0.57797991  0.58185731  0.31240096  1
  Se  Se196  1  0.58255699  0.58575860  0.80222986  1
  Se  Se197  1  0.58350295  0.91168008  0.31049954  1
  Se  Se198  1  0.58438610  0.90900008  0.80203881  1
  Se  Se199  1  0.91793779  0.25806630  0.30420707  1
  Se  Se200  1  0.90592849  0.24590597  0.81521786  1
  Se  Se201  1  0.91545350  0.58836309  0.29924159  1
  Se  Se202  1  0.91776883  0.58388958  0.79730057  1
  Se  Se203  1  0.91991606  0.91653906  0.29969087  1
  Se  Se204  1  0.91226682  0.91115790  0.80940211  1
  Se  Se205  1  0.08140857  0.07844091  0.30288615  1
  Se  Se206  1  0.08596056  0.08810469  0.80323572  1
  Se  Se207  1  0.07665408  0.41225537  0.30848694  1
  Se  Se208  1  0.09086800  0.42498903  0.81237458  1
  Se  Se209  1  0.08169962  0.74710364  0.30273357  1
  Se  Se210  1  0.07880724  0.74389840  0.80355064  1
  Se  Se211  1  0.42915933  0.09517238  0.30592440  1
  Se  Se212  1  0.42502719  0.08618808  0.81098576  1
  Se  Se213  1  0.42172800  0.42517417  0.30417216  1
  Se  Se214  1  0.41286589  0.41661652  0.79698365  1
  Se  Se215  1  0.42940701  0.75843844  0.30897266  1
  Se  Se216  1  0.41310360  0.74684370  0.80401359  1
  Se  Se217  1  0.76059178  0.09720166  0.31518453  1
  Se  Se218  1  0.74922070  0.07902469  0.80028216  1
  Se  Se219  1  0.74499379  0.42528098  0.30751678  1
  Se  Se220  1  0.74538251  0.41425278  0.79979790  1
  Se  Se221  1  0.75592384  0.76014897  0.31066244  1
  Se  Se222  1  0.74775403  0.74530489  0.80226018  1
  Se  Se223  1  0.24430521  0.09377282  0.19147533  1
  Se  Se224  1  0.24458888  0.08104256  0.69110288  1
  Se  Se225  1  0.24074481  0.42700742  0.19002400  1
  Se  Se226  1  0.25041358  0.40933378  0.69355033  1
  Se  Se227  1  0.24725881  0.75614136  0.19257591  1
  Se  Se228  1  0.25252011  0.74305357  0.69760611  1
  Se  Se229  1  0.58463746  0.09230928  0.19104045  1
  Se  Se230  1  0.58509327  0.07297990  0.70764280  1
  Se  Se231  1  0.59113712  0.42189594  0.19116870  1
  Se  Se232  1  0.58090584  0.41941542  0.69507684  1
  Se  Se233  1  0.57802774  0.75650541  0.19342871  1
  Se  Se234  1  0.58581358  0.74286857  0.69341502  1
  Se  Se235  1  0.91702237  0.08123399  0.20124874  1
  Se  Se236  1  0.90728546  0.09374551  0.68572602  1
  Se  Se237  1  0.91911164  0.41700678  0.19934577  1
  Se  Se238  1  0.91240161  0.42508729  0.68966015  1
  Se  Se239  1  0.91817275  0.74486354  0.19168603  1
  Se  Se240  1  0.92302065  0.75268997  0.70129658  1
  Se  Se241  1  0.08175350  0.25381979  0.19723150  1
  Se  Se242  1  0.08792569  0.25077273  0.68976802  1
  Se  Se243  1  0.08086632  0.58645658  0.20083259  1
  Se  Se244  1  0.08271623  0.58154530  0.69587193  1
  Se  Se245  1  0.08116332  0.91686079  0.19530740  1
  Se  Se246  1  0.08751266  0.90245938  0.68743737  1
  Se  Se247  1  0.42779403  0.25071989  0.18663448  1
  Se  Se248  1  0.43224535  0.23813887  0.69911081  1
  Se  Se249  1  0.42037970  0.58244537  0.19192744  1
  Se  Se250  1  0.41315602  0.58694144  0.69545462  1
  Se  Se251  1  0.42774328  0.90904946  0.19654128  1
  Se  Se252  1  0.42220578  0.90407617  0.68872755  1
  Se  Se253  1  0.75093125  0.25585962  0.19932829  1
  Se  Se254  1  0.74826994  0.25616848  0.70081013  1
  Se  Se255  1  0.75551182  0.57812286  0.18577453  1
  Se  Se256  1  0.75263918  0.57369569  0.70367691  1
  Se  Se257  1  0.75447789  0.90782163  0.18699696  1
  Se  Se258  1  0.74460132  0.91476248  0.69795177  1
