# generated using pymatgen
data_In86Cu29Se144
_symmetry_space_group_name_H-M   'P 1'
_cell_length_a   17.58210451
_cell_length_b   17.57855484
_cell_length_c   23.43776545
_cell_angle_alpha   90.02495840
_cell_angle_beta   90.02042893
_cell_angle_gamma   90.01836292
_symmetry_Int_Tables_number   1
_chemical_formula_structural   In86Cu29Se144
_chemical_formula_sum   'In86 Cu29 Se144'
_cell_volume   7243.86149906
_cell_formula_units_Z   1
loop_
 _symmetry_equiv_pos_site_id
 _symmetry_equiv_pos_as_xyz
  1  'x, y, z'
loop_
 _atom_site_type_symbol
 _atom_site_label
 _atom_site_symmetry_multiplicity
 _atom_site_fract_x
 _atom_site_fract_y
 _atom_site_fract_z
 _atom_site_occupancy
  In  In0  1  -0.01747820  0.15531590  0.11393480  1
  In  In1  1  0.00174571  0.15195037  0.62330003  1
  In  In2  1  -0.01280577  0.51639975  0.14026330  1
  In  In3  1  -0.00550096  0.52025705  0.62245707  1
  In  In4  1  -0.00825451  0.84129381  0.13490447  1
  In  In5  1  0.00188766  0.83315751  0.62025174  1
  In  In6  1  0.34306120  0.16837583  0.11279892  1
  In  In7  1  0.32789203  0.16686538  0.62083143  1
  In  In8  1  0.32520039  0.49296824  0.13460898  1
  In  In9  1  0.33906860  0.48830410  0.61816261  1
  In  In10  1  0.34161148  0.83314927  0.11758443  1
  In  In11  1  0.34338748  0.84721938  0.62236587  1
  In  In12  1  0.66732741  0.15973910  0.12525217  1
  In  In13  1  0.65888051  0.15908390  0.62570763  1
  In  In14  1  0.66503605  0.51159233  0.14970251  1
  In  In15  1  0.68314422  0.51985113  0.60649907  1
  In  In16  1  0.67884986  0.83203541  0.13058913  1
  In  In17  1  0.66995603  0.83198689  0.62706011  1
  In  In18  1  0.16198144  0.00487548  0.38114122  1
  In  In19  1  0.16297890  0.00247252  0.86811302  1
  In  In20  1  0.16502424  0.32114161  0.37392180  1
  In  In21  1  0.16056917  0.31522698  0.87226400  1
  In  In22  1  0.16683772  0.68100933  0.37964132  1
  In  In23  1  0.14713567  0.68271299  0.87766015  1
  In  In24  1  0.50491234  -0.00742804  0.38039254  1
  In  In25  1  0.50498866  -0.00866165  0.88363266  1
  In  In26  1  0.52820661  0.36300140  0.34266310  1
  In  In27  1  0.48400636  0.32537498  0.87530638  1
  In  In28  1  0.51238781  0.65827722  0.38238483  1
  In  In29  1  0.53020431  0.67954664  0.86816241  1
  In  In30  1  0.81606306  -0.02576041  0.35401083  1
  In  In31  1  0.83239425  -0.00859571  0.87112650  1
  In  In32  1  0.82607966  0.34570776  0.37309166  1
  In  In33  1  0.82014354  0.33407239  0.88112818  1
  In  In34  1  0.82659590  0.67648187  0.36308162  1
  In  In35  1  0.83292833  0.68277030  0.87076111  1
  In  In36  1  0.01008380  0.15969275  0.37980971  1
  In  In37  1  0.01153827  0.15389437  0.88544620  1
  In  In38  1  -0.03017290  0.51241738  0.37228339  1
  In  In39  1  -0.01347090  0.52205934  0.87970195  1
  In  In40  1  -0.00198162  0.83599285  0.36962888  1
  In  In41  1  -0.02480349  0.82312809  0.85744848  1
  In  In42  1  0.32273334  0.17238947  0.37391876  1
  In  In43  1  0.35515086  0.12427263  0.91195275  1
  In  In44  1  0.35977631  0.50324020  0.36770141  1
  In  In45  1  0.33955568  0.49678405  0.87328120  1
  In  In46  1  0.33814034  0.83023271  0.38602587  1
  In  In47  1  0.32948836  0.85421147  0.87675008  1
  In  In48  1  0.66312463  0.16258592  0.36808196  1
  In  In49  1  0.68306975  0.14868154  0.89443981  1
  In  In50  1  0.66961776  0.50903986  0.36267205  1
  In  In51  1  0.66201462  0.50392522  0.87187308  1
  In  In52  1  0.66754686  0.83205035  0.37259686  1
  In  In53  1  0.66540491  0.82836631  0.87798567  1
  In  In54  1  0.15281769  -0.00172223  0.12013025  1
  In  In55  1  0.16618165  0.00362099  0.62155110  1
  In  In56  1  0.17267782  0.33165228  0.12654162  1
  In  In57  1  0.18229845  0.32919234  0.61542331  1
  In  In58  1  0.16513848  0.66464676  0.12749711  1
  In  In59  1  0.14108827  0.67274132  0.62488048  1
  In  In60  1  0.50858513  0.00676971  0.11216831  1
  In  In61  1  0.51972908  -0.01750667  0.64074781  1
  In  In62  1  0.51195307  0.32679753  0.13760922  1
  In  In63  1  0.49130555  0.33442192  0.61763350  1
  In  In64  1  0.51347255  0.67808733  0.12081624  1
  In  In65  1  0.51481865  0.68131205  0.61237283  1
  In  In66  1  0.82804039  -0.00572227  0.13068473  1
  In  In67  1  0.86049930  -0.03693339  0.65902827  1
  In  In68  1  0.82824413  0.32356430  0.12521083  1
  In  In69  1  0.81860971  0.33969889  0.61791532  1
  In  In70  1  0.82535873  0.68632287  0.14976393  1
  In  In71  1  0.83266276  0.67426924  0.62198260  1
  In  In72  1  0.50631675  0.50005741  0.01271828  1
  In  In73  1  0.33134833  0.67001715  0.74457117  1
  In  In74  1  0.16205828  0.83631676  -0.00137732  1
  In  In75  1  0.65813546  0.32900376  0.74811527  1
  In  In76  1  0.83597415  0.15713635  0.50278893  1
  In  In77  1  0.82966576  0.50506067  0.01247736  1
  In  In78  1  0.49044761  0.16833195  0.49619137  1
  In  In79  1  0.16692968  0.49229267  -0.00041243  1
  In  In80  1  0.00010211  0.33257261  0.75203741  1
  In  In81  1  0.00183595  0.32607475  0.25833393  1
  In  In82  1  0.33041106  0.32808107  0.74701494  1
  In  In83  1  0.33553466  0.00090574  0.24646769  1
  In  In84  1  0.16614113  0.49998282  0.49963452  1
  In  In85  1  0.34003664  0.66744859  0.24713140  1
  Cu  Cu86  1  0.83244563  0.16286579  0.24554941  1
  Cu  Cu87  1  0.83414734  0.51239130  0.74476364  1
  Cu  Cu88  1  0.67502309  -0.00795505  0.00411307  1
  Cu  Cu89  1  0.51175721  0.83350343  0.25098205  1
  Cu  Cu90  1  0.33079605  0.66962441  0.50195906  1
  Cu  Cu91  1  -0.01012953  -0.01032532  -0.00165731  1
  Cu  Cu92  1  0.34055833  0.33665033  0.49093125  1
  Cu  Cu93  1  0.66765556  0.67056220  0.49222386  1
  Cu  Cu94  1  0.50063649  0.83416877  0.75164152  1
  Cu  Cu95  1  0.33423353  0.00281971  0.50222931  1
  Cu  Cu96  1  -0.00461737  -0.00759784  0.49923233  1
  Cu  Cu97  1  -0.01298966  0.67180097  0.49563169  1
  Cu  Cu98  1  0.34517232  0.66208847  -0.00289585  1
  Cu  Cu99  1  0.16671052  0.50042342  0.25739348  1
  Cu  Cu100  1  0.15884836  0.50953566  0.75414056  1
  Cu  Cu101  1  0.49957060  0.15607308  0.76259455  1
  Cu  Cu102  1  0.66247140  0.34302959  0.48762445  1
  Cu  Cu103  1  0.51258233  0.50824950  0.73884042  1
  Cu  Cu104  1  0.65883008  0.32932065  0.00663069  1
  Cu  Cu105  1  0.16451380  0.83864327  0.25448427  1
  Cu  Cu106  1  0.16534113  0.16490690  0.24750171  1
  Cu  Cu107  1  0.33352673  0.31961580  0.00464735  1
  Cu  Cu108  1  0.17135716  0.16120272  0.74923653  1
  Cu  Cu109  1  -0.00252914  0.33421102  0.49240438  1
  Cu  Cu110  1  -0.00007856  0.33654201  0.00682352  1
  Cu  Cu111  1  0.49688406  0.16145309  0.24120575  1
  Cu  Cu112  1  0.67697029  -0.01092839  0.50540572  1
  Cu  Cu113  1  0.83462189  0.16252907  0.75897384  1
  Cu  Cu114  1  0.15955653  0.83982179  0.74721145  1
  Se  Se115  1  0.07364157  0.07760818  0.04793550  1
  Se  Se116  1  0.08067750  0.08088661  0.54765948  1
  Se  Se117  1  0.07165685  0.41940299  0.06908382  1
  Se  Se118  1  0.07486944  0.41068261  0.56117491  1
  Se  Se119  1  0.07767010  0.74938326  0.06344312  1
  Se  Se120  1  0.07844357  0.75097802  0.54500485  1
  Se  Se121  1  0.40885603  0.07133101  0.04710345  1
  Se  Se122  1  0.42120700  0.07368862  0.56480414  1
  Se  Se123  1  0.40850466  0.40781261  0.06429828  1
  Se  Se124  1  0.42343088  0.42056185  0.54320888  1
  Se  Se125  1  0.42329730  0.74935599  0.05064543  1
  Se  Se126  1  0.41448681  0.75507986  0.55338613  1
  Se  Se127  1  0.75484915  0.08052438  0.05702409  1
  Se  Se128  1  0.75079985  0.07156413  0.56725291  1
  Se  Se129  1  0.73238070  0.41511870  0.06738662  1
  Se  Se130  1  0.75163521  0.42076392  0.54126797  1
  Se  Se131  1  0.76331444  0.74821436  0.06327066  1
  Se  Se132  1  0.74600082  0.75149149  0.55207039  1
  Se  Se133  1  0.24053907  0.24392518  0.05400742  1
  Se  Se134  1  0.26040516  0.24996491  0.54350425  1
  Se  Se135  1  0.26056245  0.58727172  0.05712588  1
  Se  Se136  1  0.25085453  0.59088910  0.56420955  1
  Se  Se137  1  0.25541199  0.92541423  0.05662094  1
  Se  Se138  1  0.25013682  0.91859854  0.55427145  1
  Se  Se139  1  0.57808481  0.24484340  0.05979457  1
  Se  Se140  1  0.59214325  0.25858162  0.55246538  1
  Se  Se141  1  0.60755365  0.58846680  0.06046964  1
  Se  Se142  1  0.58050259  0.58492321  0.54359259  1
  Se  Se143  1  0.59231301  0.90882419  0.05806415  1
  Se  Se144  1  0.58262632  0.91293228  0.55611724  1
  Se  Se145  1  0.90913450  0.25160539  0.04985319  1
  Se  Se146  1  0.92292931  0.25724310  0.56116880  1
  Se  Se147  1  0.91952957  0.59900178  0.06471713  1
  Se  Se148  1  0.90779660  0.58474673  0.54884531  1
  Se  Se149  1  0.91129128  0.91204877  0.05908556  1
  Se  Se150  1  0.90974248  0.91973484  0.55908614  1
  Se  Se151  1  0.08516982  0.24835063  0.44986816  1
  Se  Se152  1  0.08105589  0.25326692  0.95186894  1
  Se  Se153  1  0.07237788  0.58736088  0.43952659  1
  Se  Se154  1  0.07555234  0.59410950  0.95382857  1
  Se  Se155  1  0.08205669  0.91312955  0.44403275  1
  Se  Se156  1  0.06980325  0.91451926  0.93341402  1
  Se  Se157  1  0.42123607  0.26183308  0.42791380  1
  Se  Se158  1  0.42543810  0.24288432  0.95477624  1
  Se  Se159  1  0.41373750  0.58800343  0.44790699  1
  Se  Se160  1  0.42557069  0.58290644  0.93810494  1
  Se  Se161  1  0.41937528  0.91903081  0.45079832  1
  Se  Se162  1  0.41106156  0.91952344  0.95179630  1
  Se  Se163  1  0.74472408  0.24895592  0.44123569  1
  Se  Se164  1  0.75097149  0.25190479  0.95616278  1
  Se  Se165  1  0.74943945  0.59014015  0.43487332  1
  Se  Se166  1  0.74870330  0.58453325  0.93917622  1
  Se  Se167  1  0.75485144  0.91208650  0.44330938  1
  Se  Se168  1  0.75323890  0.91223743  0.94425172  1
  Se  Se169  1  0.25328629  0.08492868  0.44600635  1
  Se  Se170  1  0.22166692  0.08996808  0.94555870  1
  Se  Se171  1  0.25509758  0.41791746  0.43379792  1
  Se  Se172  1  0.26072982  0.40311628  0.93980249  1
  Se  Se173  1  0.24666881  0.75545299  0.45337391  1
  Se  Se174  1  0.25769794  0.74168622  0.94109112  1
  Se  Se175  1  0.59623468  0.07616024  0.44959460  1
  Se  Se176  1  0.58514480  0.07683077  0.95566057  1
  Se  Se177  1  0.58236793  0.42612834  0.43345641  1
  Se  Se178  1  0.58497675  0.40800741  0.94034435  1
  Se  Se179  1  0.58118762  0.75800194  0.44536483  1
  Se  Se180  1  0.58373003  0.75164114  0.95272929  1
  Se  Se181  1  0.91547075  0.06876896  0.43566269  1
  Se  Se182  1  0.91155272  0.07774840  0.94303366  1
  Se  Se183  1  0.91154473  0.41903790  0.44595095  1
  Se  Se184  1  0.92052482  0.41570262  0.94454616  1
  Se  Se185  1  0.91086798  0.75333932  0.43605490  1
  Se  Se186  1  0.92157738  0.75012500  0.94323491  1
  Se  Se187  1  0.24751484  0.25062302  0.29826361  1
  Se  Se188  1  0.25527833  0.23377192  0.81210616  1
  Se  Se189  1  0.24874650  0.58340555  0.31350582  1
  Se  Se190  1  0.24398427  0.58426120  0.81425361  1
  Se  Se191  1  0.25140167  0.91238945  0.31252248  1
  Se  Se192  1  0.24590864  0.91911517  0.79974613  1
  Se  Se193  1  0.58321812  0.24116993  0.29612363  1
  Se  Se194  1  0.58126831  0.24082756  0.81816969  1
  Se  Se195  1  0.57665930  0.59005167  0.29970444  1
  Se  Se196  1  0.59426612  0.58710376  0.79579664  1
  Se  Se197  1  0.58621082  0.92360166  0.30525297  1
  Se  Se198  1  0.58304863  0.91481334  0.80848011  1
  Se  Se199  1  0.90671070  0.23656658  0.31562011  1
  Se  Se200  1  0.91170143  0.24775125  0.81767605  1
  Se  Se201  1  0.89783879  0.58014453  0.29305017  1
  Se  Se202  1  0.91512147  0.59349617  0.80142259  1
  Se  Se203  1  0.93622427  0.93352792  0.30011115  1
  Se  Se204  1  0.91366148  0.92452688  0.79248471  1
  Se  Se205  1  0.08678116  0.08262445  0.30435004  1
  Se  Se206  1  0.07766927  0.08649648  0.80001565  1
  Se  Se207  1  0.08246030  0.42745730  0.31903153  1
  Se  Se208  1  0.08539209  0.42599077  0.81703697  1
  Se  Se209  1  0.08494102  0.74774133  0.30344513  1
  Se  Se210  1  0.07839066  0.75045806  0.79592324  1
  Se  Se211  1  0.42294080  0.08815561  0.31192607  1
  Se  Se212  1  0.41545789  0.07692468  0.81733142  1
  Se  Se213  1  0.40196324  0.40404186  0.29507077  1
  Se  Se214  1  0.43020566  0.42602034  0.79712544  1
  Se  Se215  1  0.42470931  0.75794329  0.31035984  1
  Se  Se216  1  0.41759808  0.75403191  0.81205172  1
  Se  Se217  1  0.74574009  0.08198821  0.29936963  1
  Se  Se218  1  0.74555555  0.08310906  0.80849635  1
  Se  Se219  1  0.73575253  0.40371794  0.30067551  1
  Se  Se220  1  0.75704589  0.42394717  0.80161851  1
  Se  Se221  1  0.75686661  0.77197817  0.29560596  1
  Se  Se222  1  0.73888473  0.74713866  0.80281809  1
  Se  Se223  1  0.24518842  0.08745671  0.18500318  1
  Se  Se224  1  0.25443448  0.08265010  0.69220811  1
  Se  Se225  1  0.24292411  0.41248601  0.20346555  1
  Se  Se226  1  0.23825715  0.42839577  0.69356623  1
  Se  Se227  1  0.24668944  0.76345778  0.19181638  1
  Se  Se228  1  0.23942211  0.75848835  0.68504813  1
  Se  Se229  1  0.58189267  0.07527536  0.19328952  1
  Se  Se230  1  0.58725301  0.08440273  0.70429325  1
  Se  Se231  1  0.57450560  0.42332461  0.20558946  1
  Se  Se232  1  0.58480552  0.42095988  0.67867827  1
  Se  Se233  1  0.59153838  0.74612112  0.19889135  1
  Se  Se234  1  0.58089728  0.75048968  0.69595826  1
  Se  Se235  1  0.91832880  0.08032344  0.19548874  1
  Se  Se236  1  0.92014135  0.08845406  0.70071398  1
  Se  Se237  1  0.91103976  0.41005078  0.19637197  1
  Se  Se238  1  0.90902322  0.42168858  0.68822422  1
  Se  Se239  1  0.94090563  0.73927111  0.20455609  1
  Se  Se240  1  0.92245636  0.74839358  0.68899848  1
  Se  Se241  1  0.07992200  0.24037325  0.18665221  1
  Se  Se242  1  0.09582217  0.24873712  0.68855610  1
  Se  Se243  1  0.08970623  0.58539427  0.20139340  1
  Se  Se244  1  0.07354098  0.58823588  0.70073522  1
  Se  Se245  1  0.08489899  0.92257302  0.19920043  1
  Se  Se246  1  0.08076343  0.92245827  0.68943043  1
  Se  Se247  1  0.41003134  0.24536343  0.19257887  1
  Se  Se248  1  0.42978642  0.23706455  0.69358269  1
  Se  Se249  1  0.42748078  0.58003994  0.18523977  1
  Se  Se250  1  0.42276771  0.58197968  0.68181027  1
  Se  Se251  1  0.42861232  0.91009746  0.19031416  1
  Se  Se252  1  0.41361819  0.91949404  0.70360556  1
  Se  Se253  1  0.74646473  0.24589885  0.19603555  1
  Se  Se254  1  0.75905678  0.24103173  0.69304678  1
  Se  Se255  1  0.77532836  0.56867567  0.20714925  1
  Se  Se256  1  0.74660585  0.58893336  0.69044962  1
  Se  Se257  1  0.76120201  0.90591217  0.20540574  1
  Se  Se258  1  0.72671707  0.93520857  0.69515413  1
