# generated using pymatgen
data_In86Cu29Se144
_symmetry_space_group_name_H-M   'P 1'
_cell_length_a   17.57326284
_cell_length_b   17.57694604
_cell_length_c   23.44085917
_cell_angle_alpha   89.98956173
_cell_angle_beta   89.99723726
_cell_angle_gamma   90.01332151
_symmetry_Int_Tables_number   1
_chemical_formula_structural   In86Cu29Se144
_chemical_formula_sum   'In86 Cu29 Se144'
_cell_volume   7240.51288162
_cell_formula_units_Z   1
loop_
 _symmetry_equiv_pos_site_id
 _symmetry_equiv_pos_as_xyz
  1  'x, y, z'
loop_
 _atom_site_type_symbol
 _atom_site_label
 _atom_site_symmetry_multiplicity
 _atom_site_fract_x
 _atom_site_fract_y
 _atom_site_fract_z
 _atom_site_occupancy
  In  In0  1  -0.00640371  0.17706592  0.12179155  1
  In  In1  1  -0.00724767  0.17464981  0.63600188  1
  In  In2  1  -0.01507770  0.49498849  0.12061752  1
  In  In3  1  -0.00414290  0.50189208  0.62075831  1
  In  In4  1  0.01103604  0.82185967  0.11334128  1
  In  In5  1  -0.00533346  0.83308115  0.63511380  1
  In  In6  1  0.34294172  0.16289019  0.12794018  1
  In  In7  1  0.33795823  0.16446586  0.63020271  1
  In  In8  1  0.32873620  0.50159340  0.13736250  1
  In  In9  1  0.34058689  0.50943423  0.61725658  1
  In  In10  1  0.33096293  0.81894720  0.11564580  1
  In  In11  1  0.33326872  0.83497010  0.63185820  1
  In  In12  1  0.67204367  0.17664638  0.11744087  1
  In  In13  1  0.66254337  0.16380650  0.62100090  1
  In  In14  1  0.67513850  0.48731309  0.13890517  1
  In  In15  1  0.67656854  0.49936140  0.60402228  1
  In  In16  1  0.65791382  0.84043805  0.12039645  1
  In  In17  1  0.68414070  0.83477412  0.62859264  1
  In  In18  1  0.17694032  0.00033886  0.37550850  1
  In  In19  1  0.15057378  -0.01587724  0.87141729  1
  In  In20  1  0.17519569  0.34690881  0.36748706  1
  In  In21  1  0.15468172  0.34229878  0.87460592  1
  In  In22  1  0.16060080  0.65374980  0.37345771  1
  In  In23  1  0.17494567  0.67580207  0.86653298  1
  In  In24  1  0.51845244  0.00403100  0.37709455  1
  In  In25  1  0.50147664  0.00217765  0.86976909  1
  In  In26  1  0.50276512  0.34109915  0.37783994  1
  In  In27  1  0.49997399  0.31837433  0.88015959  1
  In  In28  1  0.48896693  0.65455340  0.36496026  1
  In  In29  1  0.50066031  0.68124599  0.87245027  1
  In  In30  1  0.82745536  0.00431900  0.38436504  1
  In  In31  1  0.84842683  0.01079782  0.87103804  1
  In  In32  1  0.83232812  0.33372177  0.37337656  1
  In  In33  1  0.84600392  0.32164685  0.88749465  1
  In  In34  1  0.83028196  0.67432301  0.38071943  1
  In  In35  1  0.83777634  0.65122341  0.87700859  1
  In  In36  1  -0.01975593  0.17308703  0.37920738  1
  In  In37  1  -0.01116691  0.15982765  0.87442149  1
  In  In38  1  0.00879166  0.49725573  0.38440732  1
  In  In39  1  -0.01154438  0.49114626  0.86217733  1
  In  In40  1  -0.00612428  0.81639224  0.37812257  1
  In  In41  1  0.01096821  0.83874441  0.87345471  1
  In  In42  1  0.33390662  0.18382029  0.37365000  1
  In  In43  1  0.35387104  0.15881017  0.88108771  1
  In  In44  1  0.33375889  0.50017139  0.37663805  1
  In  In45  1  0.31893219  0.50184694  0.87172299  1
  In  In46  1  0.34372314  0.83307072  0.36823326  1
  In  In47  1  0.33221214  0.83582953  0.87220756  1
  In  In48  1  0.65175330  0.19292196  0.39881691  1
  In  In49  1  0.68034464  0.15099001  0.89010594  1
  In  In50  1  0.66415448  0.49734526  0.37495555  1
  In  In51  1  0.68570849  0.50703647  0.87424735  1
  In  In52  1  0.68105305  0.83743781  0.37216360  1
  In  In53  1  0.65224334  0.83858992  0.87940105  1
  In  In54  1  0.17478043  -0.01045656  0.11729976  1
  In  In55  1  0.16903226  -0.00308531  0.63860942  1
  In  In56  1  0.15736815  0.33872109  0.13345341  1
  In  In57  1  0.15151494  0.33944445  0.62699256  1
  In  In58  1  0.17185107  0.67754256  0.12547929  1
  In  In59  1  0.16789755  0.66278481  0.62791179  1
  In  In60  1  0.51564506  0.00257565  0.10774014  1
  In  In61  1  0.49426070  0.01045448  0.63445898  1
  In  In62  1  0.50386852  0.32740293  0.13779649  1
  In  In63  1  0.50854425  0.33722914  0.60947552  1
  In  In64  1  0.49537807  0.67032067  0.12941933  1
  In  In65  1  0.50292207  0.65625624  0.62246602  1
  In  In66  1  0.82572908  0.01450746  0.11409236  1
  In  In67  1  0.83568997  0.00019909  0.63336569  1
  In  In68  1  0.83319594  0.33045741  0.12672736  1
  In  In69  1  0.84016209  0.34670963  0.60737924  1
  In  In70  1  0.83997134  0.64710631  0.12268964  1
  In  In71  1  0.83890198  0.67200847  0.61284748  1
  In  In72  1  0.50379481  0.83486641  0.49749392  1
  In  In73  1  0.66669637  0.67100103  0.74855747  1
  In  In74  1  0.33624997  -0.00557677  0.24186854  1
  In  In75  1  0.16106832  0.15992367  -0.00620657  1
  In  In76  1  0.32966373  0.33028539  0.75381282  1
  In  In77  1  0.00229672  -0.00236750  0.24138927  1
  In  In78  1  0.83794380  0.83665533  -0.00654075  1
  In  In79  1  0.50474100  0.49681239  0.00529207  1
  In  In80  1  0.16117657  0.83143493  0.50668247  1
  In  In81  1  0.66745007  0.33490448  0.73735663  1
  In  In82  1  0.16014738  0.17482675  0.51349203  1
  In  In83  1  0.00400909  0.65913438  0.24781652  1
  In  In84  1  0.15420923  0.50715946  0.00570632  1
  In  In85  1  0.66981722  0.00336633  0.24376566  1
  Cu  Cu86  1  0.15414304  0.16937273  0.25197937  1
  Cu  Cu87  1  -0.00562469  -0.00808842  0.50748239  1
  Cu  Cu88  1  0.67259132  0.66367254  0.00106215  1
  Cu  Cu89  1  0.83286789  0.16899110  0.75322694  1
  Cu  Cu90  1  0.16505655  0.83164554  0.75092862  1
  Cu  Cu91  1  0.49802253  0.17225892  0.25530678  1
  Cu  Cu92  1  0.32671728  0.66385068  0.49646488  1
  Cu  Cu93  1  0.49412361  0.83981879  0.75302855  1
  Cu  Cu94  1  0.34251071  0.67166087  -0.00386151  1
  Cu  Cu95  1  0.83068257  0.49761710  0.25198246  1
  Cu  Cu96  1  0.50814636  0.16610777  0.75168529  1
  Cu  Cu97  1  0.33959632  -0.01086669  -0.00331412  1
  Cu  Cu98  1  0.49293438  0.50364241  0.74576104  1
  Cu  Cu99  1  0.16742575  0.49633042  0.25472286  1
  Cu  Cu100  1  0.33394998  0.34110769  0.49413632  1
  Cu  Cu101  1  0.34050803  0.01489024  0.50627082  1
  Cu  Cu102  1  0.49938073  0.82432325  0.24105922  1
  Cu  Cu103  1  0.16706925  0.16357781  0.75596951  1
  Cu  Cu104  1  0.83788826  0.83013194  0.25331875  1
  Cu  Cu105  1  0.83700438  0.49562146  0.74150941  1
  Cu  Cu106  1  0.66449286  0.66581020  0.49492669  1
  Cu  Cu107  1  0.50039936  0.49858261  0.25534227  1
  Cu  Cu108  1  0.67225722  0.00010045  0.50654198  1
  Cu  Cu109  1  0.82289018  0.17587301  0.25471351  1
  Cu  Cu110  1  0.16106702  0.50468184  0.74814281  1
  Cu  Cu111  1  0.32787787  0.32934419  0.00785610  1
  Cu  Cu112  1  0.00071084  0.33666242  0.49887237  1
  Cu  Cu113  1  0.66843362  0.33970607  0.00788761  1
  Cu  Cu114  1  0.83512165  0.83286849  0.75349353  1
  Se  Se115  1  0.07584209  0.07551256  0.06171308  1
  Se  Se116  1  0.07645588  0.07256338  0.56651650  1
  Se  Se117  1  0.06967566  0.40176389  0.05424467  1
  Se  Se118  1  0.08413421  0.42124508  0.55115880  1
  Se  Se119  1  0.09115010  0.73870765  0.04675651  1
  Se  Se120  1  0.06995494  0.74130842  0.56169047  1
  Se  Se121  1  0.41151308  0.07933097  0.05321579  1
  Se  Se122  1  0.42592782  0.09475026  0.55758329  1
  Se  Se123  1  0.40865991  0.41226154  0.06505371  1
  Se  Se124  1  0.41880747  0.42289972  0.54916140  1
  Se  Se125  1  0.42954945  0.75037034  0.04977733  1
  Se  Se126  1  0.40818205  0.74697583  0.55543151  1
  Se  Se127  1  0.71765399  0.06602867  0.05284715  1
  Se  Se128  1  0.75642637  0.08126848  0.56041483  1
  Se  Se129  1  0.75362837  0.42213581  0.05916566  1
  Se  Se130  1  0.72509252  0.38646565  0.54421695  1
  Se  Se131  1  0.75287310  0.74628797  0.06045861  1
  Se  Se132  1  0.74419362  0.75086529  0.55016401  1
  Se  Se133  1  0.24501649  0.24869180  0.06410426  1
  Se  Se134  1  0.26060420  0.26553560  0.56439061  1
  Se  Se135  1  0.26451112  0.58726280  0.05584781  1
  Se  Se136  1  0.24477013  0.58358887  0.55280609  1
  Se  Se137  1  0.25274067  0.90745330  0.04765451  1
  Se  Se138  1  0.25803266  0.92856175  0.55855218  1
  Se  Se139  1  0.57741423  0.25901929  0.05660574  1
  Se  Se140  1  0.58959516  0.24812263  0.54855849  1
  Se  Se141  1  0.59436105  0.58477134  0.06538075  1
  Se  Se142  1  0.58003783  0.58309815  0.54709853  1
  Se  Se143  1  0.59171222  0.91504865  0.04096036  1
  Se  Se144  1  0.58664711  0.92131130  0.56489756  1
  Se  Se145  1  0.89479915  0.23476609  0.05454954  1
  Se  Se146  1  0.92578212  0.24704770  0.55363238  1
  Se  Se147  1  0.94309267  0.60206422  0.05307968  1
  Se  Se148  1  0.88774040  0.55689139  0.55653819  1
  Se  Se149  1  0.92395768  0.92446652  0.06004749  1
  Se  Se150  1  0.91276931  0.91123489  0.56303048  1
  Se  Se151  1  0.08302237  0.25653647  0.43868809  1
  Se  Se152  1  0.07128305  0.25781928  0.94286329  1
  Se  Se153  1  0.07199376  0.59929507  0.44863211  1
  Se  Se154  1  0.08341414  0.58110916  0.92584408  1
  Se  Se155  1  0.07785665  0.92399184  0.44068991  1
  Se  Se156  1  0.08175481  0.91478987  0.95214786  1
  Se  Se157  1  0.41773431  0.25376922  0.44622223  1
  Se  Se158  1  0.41520490  0.25079749  0.95509391  1
  Se  Se159  1  0.41702802  0.58449037  0.44570392  1
  Se  Se160  1  0.41528330  0.58221517  0.93814969  1
  Se  Se161  1  0.41045436  0.93094979  0.44108122  1
  Se  Se162  1  0.42388941  0.91239091  0.93890145  1
  Se  Se163  1  0.78237788  0.22458346  0.43948914  1
  Se  Se164  1  0.74711730  0.25379940  0.95187945  1
  Se  Se165  1  0.74883918  0.58226782  0.44300584  1
  Se  Se166  1  0.75796828  0.57837484  0.95384069  1
  Se  Se167  1  0.74970635  0.91409887  0.45104284  1
  Se  Se168  1  0.74823432  0.92640588  0.93545827  1
  Se  Se169  1  0.25302148  0.08929376  0.44749187  1
  Se  Se170  1  0.25656931  0.07095421  0.93800383  1
  Se  Se171  1  0.24450573  0.42291912  0.44648635  1
  Se  Se172  1  0.25188120  0.41091672  0.94784141  1
  Se  Se173  1  0.25441406  0.75246746  0.43857961  1
  Se  Se174  1  0.25402869  0.74868181  0.94271264  1
  Se  Se175  1  0.58512563  0.08210527  0.45458231  1
  Se  Se176  1  0.55619790  0.10696543  0.93702346  1
  Se  Se177  1  0.59575189  0.40865509  0.44819833  1
  Se  Se178  1  0.59418053  0.41313132  0.93761768  1
  Se  Se179  1  0.58608004  0.74589781  0.43232148  1
  Se  Se180  1  0.58613077  0.74384926  0.94916923  1
  Se  Se181  1  0.91940532  0.07915099  0.45116430  1
  Se  Se182  1  0.91012390  0.09082298  0.95163940  1
  Se  Se183  1  0.91425143  0.41625612  0.44478551  1
  Se  Se184  1  0.90580137  0.43352516  0.94244158  1
  Se  Se185  1  0.91169375  0.75223733  0.45268293  1
  Se  Se186  1  0.92596289  0.74205169  0.93802726  1
  Se  Se187  1  0.24489894  0.24931490  0.30153845  1
  Se  Se188  1  0.24563538  0.24146515  0.81968994  1
  Se  Se189  1  0.25087191  0.58208892  0.30495806  1
  Se  Se190  1  0.25170499  0.58501020  0.79716139  1
  Se  Se191  1  0.24250443  0.90772825  0.30276360  1
  Se  Se192  1  0.24752616  0.91794492  0.80353213  1
  Se  Se193  1  0.58381834  0.25007793  0.31071826  1
  Se  Se194  1  0.59058174  0.24657193  0.80868185  1
  Se  Se195  1  0.58820931  0.58418060  0.30277794  1
  Se  Se196  1  0.57841927  0.57578343  0.80934682  1
  Se  Se197  1  0.57732657  0.90732060  0.30205806  1
  Se  Se198  1  0.58583774  0.91858465  0.80087981  1
  Se  Se199  1  0.91786337  0.25449408  0.30038391  1
  Se  Se200  1  0.91688732  0.25371816  0.80508950  1
  Se  Se201  1  0.91212791  0.57814427  0.31188492  1
  Se  Se202  1  0.91304655  0.58512560  0.79555595  1
  Se  Se203  1  0.91320800  0.91568734  0.31118131  1
  Se  Se204  1  0.92058375  0.91578854  0.80562856  1
  Se  Se205  1  0.08269373  0.08585051  0.31394354  1
  Se  Se206  1  0.07990739  0.08328220  0.80784544  1
  Se  Se207  1  0.07564254  0.41826769  0.30444101  1
  Se  Se208  1  0.08075413  0.41357127  0.79598721  1
  Se  Se209  1  0.09068943  0.75608073  0.30543807  1
  Se  Se210  1  0.07883958  0.74769991  0.80092451  1
  Se  Se211  1  0.42109626  0.08336067  0.31110193  1
  Se  Se212  1  0.41668963  0.08448935  0.79838615  1
  Se  Se213  1  0.41440761  0.41539459  0.30732617  1
  Se  Se214  1  0.42494310  0.42081836  0.81231506  1
  Se  Se215  1  0.41436784  0.74690547  0.29701641  1
  Se  Se216  1  0.41282940  0.74971701  0.80095078  1
  Se  Se217  1  0.74654709  0.09058558  0.31365159  1
  Se  Se218  1  0.75052198  0.08512740  0.80642746  1
  Se  Se219  1  0.74706952  0.41423710  0.30474426  1
  Se  Se220  1  0.75843138  0.41623851  0.80367587  1
  Se  Se221  1  0.75148422  0.74715943  0.30237588  1
  Se  Se222  1  0.75398122  0.75467878  0.81586324  1
  Se  Se223  1  0.23593267  0.08917302  0.19214422  1
  Se  Se224  1  0.25326025  0.08759145  0.69984382  1
  Se  Se225  1  0.24979744  0.41037441  0.20124973  1
  Se  Se226  1  0.24830579  0.42411308  0.69047871  1
  Se  Se227  1  0.26106770  0.74602405  0.19507281  1
  Se  Se228  1  0.24798178  0.75000224  0.69527023  1
  Se  Se229  1  0.57333409  0.09299166  0.18990012  1
  Se  Se230  1  0.59195719  0.08313482  0.69837692  1
  Se  Se231  1  0.58414769  0.41217691  0.20519130  1
  Se  Se232  1  0.57710779  0.43270542  0.68413204  1
  Se  Se233  1  0.59275618  0.74817660  0.19178373  1
  Se  Se234  1  0.57352116  0.76128947  0.68853495  1
  Se  Se235  1  0.90145166  0.09089106  0.19510522  1
  Se  Se236  1  0.91966785  0.08240141  0.70308288  1
  Se  Se237  1  0.91429618  0.41576480  0.19704235  1
  Se  Se238  1  0.91815337  0.40950875  0.68901944  1
  Se  Se239  1  0.91584108  0.75429275  0.18860121  1
  Se  Se240  1  0.90693887  0.74332319  0.69619492  1
  Se  Se241  1  0.07229604  0.25121131  0.19705142  1
  Se  Se242  1  0.08867663  0.24923950  0.70047710  1
  Se  Se243  1  0.09290104  0.57045801  0.18500874  1
  Se  Se244  1  0.07621980  0.58406723  0.69283696  1
  Se  Se245  1  0.09399988  0.90237865  0.18952928  1
  Se  Se246  1  0.07878497  0.91709847  0.70189877  1
  Se  Se247  1  0.40911923  0.25027317  0.20222543  1
  Se  Se248  1  0.43232990  0.25466039  0.69265941  1
  Se  Se249  1  0.41992000  0.58274633  0.19916680  1
  Se  Se250  1  0.41212859  0.58991094  0.69477117  1
  Se  Se251  1  0.43008533  0.91326740  0.17978433  1
  Se  Se252  1  0.41074001  0.92311545  0.69877271  1
  Se  Se253  1  0.74142500  0.25438879  0.19592026  1
  Se  Se254  1  0.76336626  0.24612787  0.68388872  1
  Se  Se255  1  0.75262427  0.58653235  0.19916279  1
  Se  Se256  1  0.74858885  0.57606517  0.68693557  1
  Se  Se257  1  0.76378677  0.91106178  0.18803210  1
  Se  Se258  1  0.75042232  0.91858766  0.70405844  1
