# generated using pymatgen
data_In86Cu29Se144
_symmetry_space_group_name_H-M   'P 1'
_cell_length_a   17.57631558
_cell_length_b   17.57701662
_cell_length_c   23.42997552
_cell_angle_alpha   89.99605665
_cell_angle_beta   90.01703250
_cell_angle_gamma   89.99851210
_symmetry_Int_Tables_number   1
_chemical_formula_structural   In86Cu29Se144
_chemical_formula_sum   'In86 Cu29 Se144'
_cell_volume   7238.43734546
_cell_formula_units_Z   1
loop_
 _symmetry_equiv_pos_site_id
 _symmetry_equiv_pos_as_xyz
  1  'x, y, z'
loop_
 _atom_site_type_symbol
 _atom_site_label
 _atom_site_symmetry_multiplicity
 _atom_site_fract_x
 _atom_site_fract_y
 _atom_site_fract_z
 _atom_site_occupancy
  In  In0  1  0.00574490  0.17292471  0.11910231  1
  In  In1  1  -0.00126366  0.16976616  0.62872270  1
  In  In2  1  -0.01205632  0.50057449  0.12706385  1
  In  In3  1  0.00278891  0.49118881  0.61847633  1
  In  In4  1  0.02152224  0.82988593  0.11572948  1
  In  In5  1  0.01665089  0.82238270  0.64822709  1
  In  In6  1  0.33138909  0.15843072  0.11193106  1
  In  In7  1  0.31359230  0.17246629  0.62390747  1
  In  In8  1  0.34914835  0.49587694  0.12867482  1
  In  In9  1  0.33628703  0.49982390  0.61288083  1
  In  In10  1  0.32113498  0.83410216  0.12090622  1
  In  In11  1  0.33342715  0.82565402  0.63971055  1
  In  In12  1  0.66901019  0.17243455  0.12723780  1
  In  In13  1  0.68551841  0.16574728  0.62074680  1
  In  In14  1  0.65623046  0.50127265  0.14267246  1
  In  In15  1  0.65267018  0.49193181  0.61327904  1
  In  In16  1  0.66395689  0.83362036  0.13485454  1
  In  In17  1  0.65825082  0.83042739  0.61565371  1
  In  In18  1  0.17291769  0.01512347  0.37722629  1
  In  In19  1  0.17011425  0.00406582  0.87416097  1
  In  In20  1  0.15267871  0.34899504  0.39419073  1
  In  In21  1  0.15295430  0.33110019  0.87141243  1
  In  In22  1  0.16404870  0.65343645  0.37618489  1
  In  In23  1  0.16821678  0.66594718  0.86504954  1
  In  In24  1  0.49522279  -0.01243685  0.37367633  1
  In  In25  1  0.50292427  0.00993127  0.87407515  1
  In  In26  1  0.51361066  0.34175590  0.36934220  1
  In  In27  1  0.50619991  0.32928622  0.87999587  1
  In  In28  1  0.50476087  0.66695750  0.37799077  1
  In  In29  1  0.48612834  0.67139911  0.87639487  1
  In  In30  1  0.83321469  0.01457188  0.37862152  1
  In  In31  1  0.85202499  0.00758699  0.87219134  1
  In  In32  1  0.82663796  0.33871574  0.38179166  1
  In  In33  1  0.82740471  0.32955070  0.86845989  1
  In  In34  1  0.80035093  0.65258671  0.37602840  1
  In  In35  1  0.83968017  0.65696850  0.87176260  1
  In  In36  1  -0.03226168  0.21095770  0.41941356  1
  In  In37  1  0.00103296  0.17111861  0.87750108  1
  In  In38  1  0.00119511  0.48694081  0.38758647  1
  In  In39  1  0.00784108  0.50010887  0.85950271  1
  In  In40  1  0.00564787  0.82902538  0.38243946  1
  In  In41  1  0.01729369  0.84115307  0.85755532  1
  In  In42  1  0.32405098  0.16809876  0.37835119  1
  In  In43  1  0.34041212  0.15606419  0.88332796  1
  In  In44  1  0.32523445  0.50621387  0.38063721  1
  In  In45  1  0.33608120  0.51082466  0.87328399  1
  In  In46  1  0.35097654  0.83180518  0.37878871  1
  In  In47  1  0.31414854  0.82196569  0.85944557  1
  In  In48  1  0.67254187  0.17942307  0.36435373  1
  In  In49  1  0.65936226  0.18197335  0.88236006  1
  In  In50  1  0.66942677  0.50425600  0.38318237  1
  In  In51  1  0.67175568  0.48712632  0.87643770  1
  In  In52  1  0.64804806  0.81513812  0.36058470  1
  In  In53  1  0.66203759  0.83565566  0.87908576  1
  In  In54  1  0.17729629  -0.00169685  0.10806428  1
  In  In55  1  0.15738712  0.00707854  0.64388646  1
  In  In56  1  0.16363102  0.32020141  0.12558290  1
  In  In57  1  0.15119117  0.31437890  0.60160077  1
  In  In58  1  0.16845771  0.67976461  0.12205135  1
  In  In59  1  0.17505656  0.65935867  0.63262506  1
  In  In60  1  0.50010428  0.01315895  0.12113521  1
  In  In61  1  0.49939294  -0.01155815  0.62597478  1
  In  In62  1  0.50948733  0.34137887  0.12278736  1
  In  In63  1  0.49486923  0.35285152  0.62308533  1
  In  In64  1  0.50484101  0.65172995  0.13725526  1
  In  In65  1  0.48472655  0.65187451  0.61152248  1
  In  In66  1  0.81983646  0.00102457  0.12520306  1
  In  In67  1  0.84185100  0.01142095  0.62262204  1
  In  In68  1  0.84035970  0.33041453  0.13442985  1
  In  In69  1  0.83744592  0.32547168  0.62214047  1
  In  In70  1  0.83240798  0.65725311  0.12833552  1
  In  In71  1  0.84200794  0.66776821  0.62157887  1
  In  In72  1  0.83421038  0.49720916  0.00596601  1
  In  In73  1  -0.00034293  0.00637268  0.25181326  1
  In  In74  1  -0.00314457  0.66264441  0.24705997  1
  In  In75  1  0.50080673  0.17184933  0.49190166  1
  In  In76  1  0.66942292  0.00461399  0.74692676  1
  In  In77  1  0.33814419  0.33505017  0.25381715  1
  In  In78  1  0.33443143  -0.00233108  0.24025800  1
  In  In79  1  0.66555457  0.66146078  0.74289189  1
  In  In80  1  0.83543168  0.83785900  0.50350344  1
  In  In81  1  0.17042228  0.83476488  0.51737638  1
  In  In82  1  0.32898804  0.33793895  0.74203556  1
  In  In83  1  0.48903495  0.84025535  0.00079843  1
  In  In84  1  0.17132397  0.49724739  -0.00973695  1
  In  In85  1  0.84056296  0.83908402  -0.00811697  1
  Cu  Cu86  1  0.83432550  0.83805303  0.24969991  1
  Cu  Cu87  1  0.83354971  0.17409693  0.25755558  1
  Cu  Cu88  1  0.00308696  0.00433487  -0.00686589  1
  Cu  Cu89  1  -0.00757392  0.65836321  0.50008742  1
  Cu  Cu90  1  0.16430332  0.16797712  0.75188572  1
  Cu  Cu91  1  0.83138039  0.83343004  0.74846657  1
  Cu  Cu92  1  0.50025328  0.16524597  0.24528367  1
  Cu  Cu93  1  0.83980272  0.16989801  0.74944144  1
  Cu  Cu94  1  0.49948769  0.50518601  0.74225691  1
  Cu  Cu95  1  0.83305621  0.49435484  0.25722366  1
  Cu  Cu96  1  0.83677092  0.48895326  0.74304132  1
  Cu  Cu97  1  0.50340612  0.17345079  0.75449569  1
  Cu  Cu98  1  0.48828137  0.82822099  0.74795431  1
  Cu  Cu99  1  0.33224968  0.67356654  0.50242660  1
  Cu  Cu100  1  0.33704770  0.66104994  -0.00289360  1
  Cu  Cu101  1  0.33821778  0.32741472  0.00353697  1
  Cu  Cu102  1  0.66421645  0.66448299  0.01320347  1
  Cu  Cu103  1  0.33392151  0.00368538  0.50250816  1
  Cu  Cu104  1  0.15348724  0.17116936  0.25115084  1
  Cu  Cu105  1  0.66857979  0.32974244  0.49651293  1
  Cu  Cu106  1  0.66705567  0.01653690  0.00129586  1
  Cu  Cu107  1  0.50357815  0.82530810  0.25315024  1
  Cu  Cu108  1  0.16460193  0.49560448  0.74243434  1
  Cu  Cu109  1  -0.00367914  0.33454280  -0.00090247  1
  Cu  Cu110  1  0.16637884  0.49511624  0.25932037  1
  Cu  Cu111  1  0.01019046  0.00299645  0.51199719  1
  Cu  Cu112  1  0.66649738  -0.00530683  0.49562317  1
  Cu  Cu113  1  0.66384100  0.33218201  0.00362905  1
  Cu  Cu114  1  0.17554878  0.83387474  0.24606229  1
  Se  Se115  1  0.08412750  0.08518384  0.05185575  1
  Se  Se116  1  0.09176042  0.08680029  0.56463120  1
  Se  Se117  1  0.07778809  0.41605083  0.05819353  1
  Se  Se118  1  0.07343876  0.40939712  0.54215984  1
  Se  Se119  1  0.08872827  0.74393718  0.04434317  1
  Se  Se120  1  0.07160622  0.73918565  0.56157199  1
  Se  Se121  1  0.40247388  0.06112381  0.04901105  1
  Se  Se122  1  0.41682473  0.08598372  0.56111652  1
  Se  Se123  1  0.41956761  0.41558390  0.05271028  1
  Se  Se124  1  0.43142595  0.43128505  0.54522935  1
  Se  Se125  1  0.41481995  0.73861587  0.06191475  1
  Se  Se126  1  0.40980741  0.75968941  0.55843151  1
  Se  Se127  1  0.75445784  0.09329486  0.05499188  1
  Se  Se128  1  0.75222181  0.07545856  0.54843518  1
  Se  Se129  1  0.74209493  0.41252440  0.06692468  1
  Se  Se130  1  0.74933275  0.40919806  0.55588468  1
  Se  Se131  1  0.75050748  0.75146619  0.05996013  1
  Se  Se132  1  0.74255782  0.73941287  0.55317941  1
  Se  Se133  1  0.24605152  0.24921336  0.05139482  1
  Se  Se134  1  0.27745562  0.27563489  0.55245506  1
  Se  Se135  1  0.25645759  0.58156550  0.05898063  1
  Se  Se136  1  0.24635490  0.58836564  0.55196476  1
  Se  Se137  1  0.24836610  0.90484673  0.04305190  1
  Se  Se138  1  0.25770407  0.93101631  0.57112453  1
  Se  Se139  1  0.58036681  0.24667320  0.05578712  1
  Se  Se140  1  0.58783625  0.25343146  0.56088991  1
  Se  Se141  1  0.58448516  0.57627906  0.06236414  1
  Se  Se142  1  0.58942927  0.59373922  0.55014430  1
  Se  Se143  1  0.59449867  0.92192564  0.05600264  1
  Se  Se144  1  0.57914840  0.91785624  0.54893943  1
  Se  Se145  1  0.91353829  0.25470324  0.05589462  1
  Se  Se146  1  0.91127646  0.23430988  0.55303823  1
  Se  Se147  1  0.92843355  0.59860174  0.05307997  1
  Se  Se148  1  0.91110734  0.57479609  0.55354563  1
  Se  Se149  1  0.92650580  0.92659211  0.06044198  1
  Se  Se150  1  0.93493833  0.91245653  0.56846821  1
  Se  Se151  1  0.10861853  0.22632037  0.44508476  1
  Se  Se152  1  0.08429704  0.25249802  0.94915290  1
  Se  Se153  1  0.08306054  0.58073000  0.44916188  1
  Se  Se154  1  0.07547819  0.58543588  0.93723912  1
  Se  Se155  1  0.08560566  0.92402737  0.44705859  1
  Se  Se156  1  0.08135706  0.91745862  0.93966013  1
  Se  Se157  1  0.41240958  0.26384812  0.43412056  1
  Se  Se158  1  0.42213078  0.24680282  0.94701392  1
  Se  Se159  1  0.41221028  0.59090662  0.44560610  1
  Se  Se160  1  0.42378049  0.57733907  0.94828374  1
  Se  Se161  1  0.41758102  0.91892298  0.45272784  1
  Se  Se162  1  0.40935270  0.91316605  0.92578519  1
  Se  Se163  1  0.74890928  0.24121865  0.44659403  1
  Se  Se164  1  0.75308843  0.25696687  0.94806125  1
  Se  Se165  1  0.76416838  0.56442425  0.45756565  1
  Se  Se166  1  0.74278691  0.59092457  0.94599799  1
  Se  Se167  1  0.74600684  0.91458616  0.43410156  1
  Se  Se168  1  0.74314667  0.93406846  0.93897991  1
  Se  Se169  1  0.24993158  0.08852907  0.45397134  1
  Se  Se170  1  0.23950333  0.09263424  0.94653851  1
  Se  Se171  1  0.25289835  0.42061937  0.45209730  1
  Se  Se172  1  0.26275204  0.40281237  0.93482403  1
  Se  Se173  1  0.24834908  0.75180690  0.44175245  1
  Se  Se174  1  0.25317112  0.73784160  0.93940547  1
  Se  Se175  1  0.58993768  0.07799145  0.43376474  1
  Se  Se176  1  0.57849218  0.09138726  0.94666186  1
  Se  Se177  1  0.58386117  0.41622174  0.44866519  1
  Se  Se178  1  0.58450011  0.41826918  0.94869816  1
  Se  Se179  1  0.57798566  0.76082655  0.44598666  1
  Se  Se180  1  0.58761050  0.74289084  0.94821582  1
  Se  Se181  1  0.92281510  0.07501888  0.45314365  1
  Se  Se182  1  0.91530688  0.09124590  0.94912323  1
  Se  Se183  1  0.92830626  0.39307130  0.45280430  1
  Se  Se184  1  0.92263077  0.41744963  0.93684651  1
  Se  Se185  1  0.91480193  0.73868331  0.43872618  1
  Se  Se186  1  0.92556303  0.74931783  0.93186982  1
  Se  Se187  1  0.23925470  0.24947548  0.30843514  1
  Se  Se188  1  0.25028221  0.24707901  0.81002189  1
  Se  Se189  1  0.25021134  0.58497435  0.30320202  1
  Se  Se190  1  0.24865659  0.57525496  0.79903726  1
  Se  Se191  1  0.24840624  0.91380479  0.31173674  1
  Se  Se192  1  0.24233488  0.92018393  0.79945224  1
  Se  Se193  1  0.58084315  0.25246648  0.29683424  1
  Se  Se194  1  0.58771702  0.25796564  0.80335349  1
  Se  Se195  1  0.60254100  0.59745877  0.31344048  1
  Se  Se196  1  0.57775061  0.57893558  0.81107375  1
  Se  Se197  1  0.58174041  0.92082888  0.29927560  1
  Se  Se198  1  0.57662213  0.90761105  0.80329385  1
  Se  Se199  1  0.91512970  0.24864041  0.31867135  1
  Se  Se200  1  0.92154289  0.25377001  0.80458487  1
  Se  Se201  1  0.91345513  0.57861291  0.31609325  1
  Se  Se202  1  0.91316038  0.57844096  0.79703964  1
  Se  Se203  1  0.91598929  0.90919445  0.31315221  1
  Se  Se204  1  0.91499367  0.91820661  0.79953983  1
  Se  Se205  1  0.07854209  0.09633285  0.31673005  1
  Se  Se206  1  0.08090392  0.08761664  0.80759146  1
  Se  Se207  1  0.08057337  0.41385451  0.31019472  1
  Se  Se208  1  0.08272022  0.40835874  0.79328324  1
  Se  Se209  1  0.09022918  0.75681834  0.30504890  1
  Se  Se210  1  0.07227349  0.73173211  0.79759276  1
  Se  Se211  1  0.41725714  0.08989103  0.30657593  1
  Se  Se212  1  0.41962172  0.08777486  0.80333607  1
  Se  Se213  1  0.42258976  0.43242969  0.30932295  1
  Se  Se214  1  0.42295006  0.42178440  0.80555912  1
  Se  Se215  1  0.41662179  0.74584553  0.30542193  1
  Se  Se216  1  0.40907883  0.73899358  0.79827836  1
  Se  Se217  1  0.75060526  0.08236295  0.30251617  1
  Se  Se218  1  0.75382056  0.09366434  0.81106863  1
  Se  Se219  1  0.74506688  0.41625559  0.30996610  1
  Se  Se220  1  0.74788581  0.41559669  0.79932543  1
  Se  Se221  1  0.75412562  0.74882079  0.30018024  1
  Se  Se222  1  0.75034326  0.75583551  0.80913833  1
  Se  Se223  1  0.23567994  0.09157153  0.19044592  1
  Se  Se224  1  0.25526420  0.08834990  0.70261126  1
  Se  Se225  1  0.24167366  0.41943379  0.19064463  1
  Se  Se226  1  0.23875601  0.41792927  0.67704897  1
  Se  Se227  1  0.25599081  0.74641256  0.19634946  1
  Se  Se228  1  0.23117221  0.76001586  0.70046976  1
  Se  Se229  1  0.58570280  0.08291172  0.19369009  1
  Se  Se230  1  0.57836120  0.09404328  0.68732265  1
  Se  Se231  1  0.57591787  0.41082759  0.20492907  1
  Se  Se232  1  0.58541911  0.41829662  0.69621726  1
  Se  Se233  1  0.58852494  0.74229822  0.19984926  1
  Se  Se234  1  0.57112614  0.75157384  0.68720198  1
  Se  Se235  1  0.90755537  0.09316219  0.19101553  1
  Se  Se236  1  0.92088149  0.08139322  0.69938206  1
  Se  Se237  1  0.92096383  0.41767030  0.20263257  1
  Se  Se238  1  0.92200210  0.40823419  0.69032127  1
  Se  Se239  1  0.91601770  0.76322458  0.18589893  1
  Se  Se240  1  0.91216745  0.74330894  0.70025609  1
  Se  Se241  1  0.07198970  0.25538902  0.19776400  1
  Se  Se242  1  0.09065532  0.25290523  0.69186728  1
  Se  Se243  1  0.09362174  0.57483088  0.18997678  1
  Se  Se244  1  0.07797147  0.57819664  0.69071916  1
  Se  Se245  1  0.09494401  0.91840569  0.19063983  1
  Se  Se246  1  0.08521442  0.91788378  0.71215245  1
  Se  Se247  1  0.41474575  0.24092100  0.18565751  1
  Se  Se248  1  0.42458695  0.24608340  0.68665259  1
  Se  Se249  1  0.40709924  0.58544668  0.20256081  1
  Se  Se250  1  0.40904996  0.58155046  0.69078046  1
  Se  Se251  1  0.42827753  0.90440844  0.18620287  1
  Se  Se252  1  0.41268204  0.92370799  0.70065948  1
  Se  Se253  1  0.74897008  0.25360345  0.20006374  1
  Se  Se254  1  0.75197448  0.24894264  0.69652731  1
  Se  Se255  1  0.75472702  0.58148895  0.20129216  1
  Se  Se256  1  0.75512190  0.57150614  0.68462078  1
  Se  Se257  1  0.74756570  0.92056029  0.19983190  1
  Se  Se258  1  0.75357263  0.90951891  0.68484531  1
