# generated using pymatgen
data_In86Cu29Se144
_symmetry_space_group_name_H-M   'P 1'
_cell_length_a   17.58682084
_cell_length_b   17.58706908
_cell_length_c   23.44806957
_cell_angle_alpha   89.99856399
_cell_angle_beta   89.99783713
_cell_angle_gamma   89.98896524
_symmetry_Int_Tables_number   1
_chemical_formula_structural   In86Cu29Se144
_chemical_formula_sum   'In86 Cu29 Se144'
_cell_volume   7252.50261655
_cell_formula_units_Z   1
loop_
 _symmetry_equiv_pos_site_id
 _symmetry_equiv_pos_as_xyz
  1  'x, y, z'
loop_
 _atom_site_type_symbol
 _atom_site_label
 _atom_site_symmetry_multiplicity
 _atom_site_fract_x
 _atom_site_fract_y
 _atom_site_fract_z
 _atom_site_occupancy
  In  In0  1  -0.00255430  0.16692124  0.12594581  1
  In  In1  1  -0.01244376  0.16685065  0.62287515  1
  In  In2  1  -0.01020294  0.50824819  0.13145817  1
  In  In3  1  -0.01094738  0.48905819  0.61304324  1
  In  In4  1  0.00407420  0.82778312  0.12962842  1
  In  In5  1  0.01106502  0.84240085  0.62702075  1
  In  In6  1  0.33479134  0.18095083  0.12485151  1
  In  In7  1  0.33188166  0.17156698  0.63213548  1
  In  In8  1  0.33925745  0.48745089  0.12511515  1
  In  In9  1  0.33799826  0.49175663  0.61458795  1
  In  In10  1  0.33869482  0.84152437  0.11540330  1
  In  In11  1  0.34270773  0.83862151  0.62588868  1
  In  In12  1  0.67525251  0.16349943  0.13086282  1
  In  In13  1  0.67336746  0.15606568  0.62787495  1
  In  In14  1  0.65684122  0.48876007  0.12289225  1
  In  In15  1  0.64582944  0.47448348  0.60547239  1
  In  In16  1  0.66634513  0.84300783  0.12667481  1
  In  In17  1  0.65780269  0.85213050  0.62247966  1
  In  In18  1  0.16282604  0.00836564  0.37303339  1
  In  In19  1  0.17001291  0.00243467  0.87494483  1
  In  In20  1  0.17638164  0.34360898  0.36657912  1
  In  In21  1  0.16349460  0.32243714  0.87458328  1
  In  In22  1  0.15467897  0.66160923  0.36757165  1
  In  In23  1  0.17738427  0.67475110  0.87693163  1
  In  In24  1  0.51216724  -0.01398335  0.38211063  1
  In  In25  1  0.49032136  -0.00644457  0.86659075  1
  In  In26  1  0.50743598  0.33688635  0.37508942  1
  In  In27  1  0.50455760  0.34216585  0.86215866  1
  In  In28  1  0.49930840  0.66409749  0.37929202  1
  In  In29  1  0.50467628  0.66404156  0.88262978  1
  In  In30  1  0.83304616  0.00423321  0.37211760  1
  In  In31  1  0.84018227  0.01354385  0.87271096  1
  In  In32  1  0.83255746  0.32911934  0.37442389  1
  In  In33  1  0.82607636  0.33532245  0.88520650  1
  In  In34  1  0.83340451  0.65245483  0.37127516  1
  In  In35  1  0.82601003  0.65700869  0.87784102  1
  In  In36  1  -0.01103655  0.15707903  0.36575334  1
  In  In37  1  0.00880378  0.15957374  0.88760056  1
  In  In38  1  0.00313896  0.49657774  0.36947691  1
  In  In39  1  -0.00480015  0.48499036  0.87860000  1
  In  In40  1  0.00173832  0.83546052  0.36314738  1
  In  In41  1  0.00468394  0.85127213  0.87322716  1
  In  In42  1  0.32391818  0.16977503  0.37390150  1
  In  In43  1  0.32779821  0.16043500  0.86756843  1
  In  In44  1  0.34710287  0.47823994  0.39051077  1
  In  In45  1  0.34579920  0.50334386  0.87113520  1
  In  In46  1  0.35440642  0.83613672  0.37958569  1
  In  In47  1  0.32503961  0.84468364  0.88356876  1
  In  In48  1  0.67775092  0.17948864  0.37465034  1
  In  In49  1  0.67073426  0.17617155  0.87138961  1
  In  In50  1  0.67774211  0.47389997  0.39785651  1
  In  In51  1  0.66629184  0.49099655  0.87777503  1
  In  In52  1  0.65079217  0.84295100  0.37594717  1
  In  In53  1  0.65509595  0.83245845  0.87622432  1
  In  In54  1  0.15859371  -0.00574494  0.11808334  1
  In  In55  1  0.16974910  -0.00678681  0.63995849  1
  In  In56  1  0.17322364  0.32262787  0.12917333  1
  In  In57  1  0.16985823  0.34283787  0.61829138  1
  In  In58  1  0.15524735  0.67140487  0.12459843  1
  In  In59  1  0.17853450  0.66253598  0.62604088  1
  In  In60  1  0.51189950  -0.00071263  0.12593849  1
  In  In61  1  0.50531590  -0.00079984  0.62694947  1
  In  In62  1  0.49289446  0.34002136  0.13227155  1
  In  In63  1  0.49767085  0.34169916  0.63078597  1
  In  In64  1  0.50442636  0.66647201  0.11890531  1
  In  In65  1  0.49427004  0.66455034  0.61722797  1
  In  In66  1  0.82479769  0.01190161  0.12999014  1
  In  In67  1  0.82144584  0.01743485  0.63439571  1
  In  In68  1  0.83050438  0.33361126  0.12769544  1
  In  In69  1  0.81007777  0.30802634  0.59864902  1
  In  In70  1  0.84606381  0.66296505  0.12813534  1
  In  In71  1  0.83704961  0.65477871  0.62396038  1
  In  In72  1  0.33143298  0.66244270  0.25730935  1
  In  In73  1  0.17074560  0.82958909  0.50596621  1
  In  In74  1  0.49900870  0.16636104  -0.00331645  1
  In  In75  1  -0.00198954  0.32845748  0.74847260  1
  In  In76  1  0.33595684  0.00437224  0.25256557  1
  In  In77  1  0.16484680  0.50087513  0.00622581  1
  In  In78  1  -0.00150920  0.67153585  0.75495158  1
  In  In79  1  0.66505698  0.66311972  0.75406168  1
  In  In80  1  0.83085048  0.83102686  0.50124126  1
  In  In81  1  0.50213951  0.16816666  0.50112924  1
  In  In82  1  0.66681347  0.66514735  0.25604824  1
  In  In83  1  0.33873618  0.67325777  0.74221971  1
  In  In84  1  0.16642290  0.16947211  0.50205507  1
  In  In85  1  0.83495049  0.83072202  0.00441275  1
  Cu  Cu86  1  -0.00472451  0.00317930  0.49776350  1
  Cu  Cu87  1  0.17015104  0.50244175  0.73795502  1
  Cu  Cu88  1  0.50451847  0.16987146  0.25130873  1
  Cu  Cu89  1  0.66503618  0.66954976  0.49457507  1
  Cu  Cu90  1  0.33523906  0.33526405  -0.00022891  1
  Cu  Cu91  1  0.32594671  0.66414268  0.49961702  1
  Cu  Cu92  1  0.00318971  0.33300809  0.48930032  1
  Cu  Cu93  1  0.33776551  0.67007493  -0.00167900  1
  Cu  Cu94  1  0.16685944  0.16454074  0.75346381  1
  Cu  Cu95  1  0.82482190  0.48532353  0.74811390  1
  Cu  Cu96  1  0.66647771  0.65649250  -0.00023865  1
  Cu  Cu97  1  0.66504990  -0.00201300  0.00236285  1
  Cu  Cu98  1  0.49899087  0.83729042  0.75100532  1
  Cu  Cu99  1  -0.00736379  0.32994965  0.00522335  1
  Cu  Cu100  1  0.16022946  0.16715442  0.25002819  1
  Cu  Cu101  1  0.16876468  0.83581888  0.24715150  1
  Cu  Cu102  1  0.83364807  0.17062451  0.24979814  1
  Cu  Cu103  1  0.83382295  0.84456974  0.74892539  1
  Cu  Cu104  1  0.00225395  0.00552438  0.00006502  1
  Cu  Cu105  1  0.00168927  0.66909308  0.00432232  1
  Cu  Cu106  1  0.33088786  0.00302596  -0.00745248  1
  Cu  Cu107  1  0.50393744  0.16968107  0.74608843  1
  Cu  Cu108  1  0.66531592  0.33129415  0.00063742  1
  Cu  Cu109  1  0.83280666  0.83997649  0.24752236  1
  Cu  Cu110  1  0.83409350  0.16937891  0.75081654  1
  Cu  Cu111  1  0.83285496  0.49472148  0.25482987  1
  Cu  Cu112  1  0.00001050  0.65728192  0.49284332  1
  Cu  Cu113  1  0.50419043  0.49672550  0.25632495  1
  Cu  Cu114  1  0.16558131  0.49493120  0.24503897  1
  Se  Se115  1  0.08448326  0.08996908  0.05439494  1
  Se  Se116  1  0.08020023  0.07384122  0.56153730  1
  Se  Se117  1  0.07522528  0.41105879  0.06507693  1
  Se  Se118  1  0.08192932  0.41441625  0.54786234  1
  Se  Se119  1  0.08452181  0.75717076  0.05160175  1
  Se  Se120  1  0.07360510  0.73619219  0.55900290  1
  Se  Se121  1  0.40967155  0.07710139  0.06005898  1
  Se  Se122  1  0.40969012  0.08241592  0.56199063  1
  Se  Se123  1  0.42224152  0.41541009  0.05144581  1
  Se  Se124  1  0.43674823  0.42338232  0.54941784  1
  Se  Se125  1  0.42190045  0.75208725  0.05275878  1
  Se  Se126  1  0.40807867  0.74914542  0.55275472  1
  Se  Se127  1  0.74667447  0.08440013  0.05303588  1
  Se  Se128  1  0.75810587  0.08754776  0.55250943  1
  Se  Se129  1  0.74827938  0.41482910  0.05549916  1
  Se  Se130  1  0.76769040  0.43357908  0.55334823  1
  Se  Se131  1  0.74313184  0.73819466  0.06277717  1
  Se  Se132  1  0.74006565  0.74346463  0.56388465  1
  Se  Se133  1  0.25081119  0.25122390  0.05040177  1
  Se  Se134  1  0.26317525  0.25983329  0.55383620  1
  Se  Se135  1  0.25966824  0.59198500  0.06333361  1
  Se  Se136  1  0.24689333  0.57815026  0.55295902  1
  Se  Se137  1  0.24985420  0.92002715  0.05018512  1
  Se  Se138  1  0.25528332  0.92829585  0.55921468  1
  Se  Se139  1  0.58410182  0.25283352  0.06266685  1
  Se  Se140  1  0.58896976  0.25279037  0.56575541  1
  Se  Se141  1  0.58035133  0.57578901  0.05308021  1
  Se  Se142  1  0.58342192  0.58751954  0.55088965  1
  Se  Se143  1  0.58152500  0.91301366  0.05178367  1
  Se  Se144  1  0.56941882  0.91391821  0.54970695  1
  Se  Se145  1  0.90942984  0.24682213  0.05812983  1
  Se  Se146  1  0.92346163  0.24680872  0.54399740  1
  Se  Se147  1  0.91664570  0.58281172  0.05163139  1
  Se  Se148  1  0.91200451  0.58070605  0.54707871  1
  Se  Se149  1  0.92196872  0.92472850  0.06228519  1
  Se  Se150  1  0.91924347  0.92244355  0.56124751  1
  Se  Se151  1  0.08125730  0.24814532  0.43103740  1
  Se  Se152  1  0.08339334  0.25522611  0.95202224  1
  Se  Se153  1  0.08692982  0.57733452  0.44197610  1
  Se  Se154  1  0.07756233  0.58921934  0.93872090  1
  Se  Se155  1  0.07743492  0.91869325  0.44315904  1
  Se  Se156  1  0.08606886  0.92141733  0.94778475  1
  Se  Se157  1  0.40948933  0.25482244  0.44033543  1
  Se  Se158  1  0.41186365  0.25591527  0.93556010  1
  Se  Se159  1  0.41468122  0.58475714  0.44774167  1
  Se  Se160  1  0.41724493  0.58113590  0.94799179  1
  Se  Se161  1  0.41537897  0.92511453  0.45174604  1
  Se  Se162  1  0.42210028  0.91896931  0.94756093  1
  Se  Se163  1  0.74397931  0.26456249  0.44949350  1
  Se  Se164  1  0.74826848  0.24402636  0.95114766  1
  Se  Se165  1  0.75165218  0.58503121  0.44699379  1
  Se  Se166  1  0.75039554  0.57370245  0.94748865  1
  Se  Se167  1  0.74375950  0.92313468  0.44327537  1
  Se  Se168  1  0.74817893  0.91954310  0.94090495  1
  Se  Se169  1  0.25674791  0.07272342  0.44555577  1
  Se  Se170  1  0.24775236  0.09099825  0.94495872  1
  Se  Se171  1  0.24174705  0.41331481  0.44939354  1
  Se  Se172  1  0.25207782  0.41598406  0.94028348  1
  Se  Se173  1  0.25305389  0.74434107  0.43456027  1
  Se  Se174  1  0.24912685  0.75375152  0.95192720  1
  Se  Se175  1  0.59540099  0.08388709  0.44089404  1
  Se  Se176  1  0.58804907  0.07583376  0.93699608  1
  Se  Se177  1  0.56396391  0.42175843  0.45633216  1
  Se  Se178  1  0.57940257  0.40919496  0.94461542  1
  Se  Se179  1  0.57947715  0.75300456  0.44533700  1
  Se  Se180  1  0.58693077  0.74771151  0.95058662  1
  Se  Se181  1  0.91328109  0.08528202  0.44453729  1
  Se  Se182  1  0.91158947  0.08704713  0.95235248  1
  Se  Se183  1  0.91839572  0.41763321  0.43901338  1
  Se  Se184  1  0.91254835  0.41739009  0.95314676  1
  Se  Se185  1  0.92421049  0.74644688  0.43754990  1
  Se  Se186  1  0.92366533  0.74479703  0.93738136  1
  Se  Se187  1  0.24936897  0.24843734  0.29948462  1
  Se  Se188  1  0.24900719  0.25330131  0.80193639  1
  Se  Se189  1  0.24647992  0.56541735  0.31201682  1
  Se  Se190  1  0.24397892  0.58166454  0.80287540  1
  Se  Se191  1  0.24818323  0.90755319  0.31270491  1
  Se  Se192  1  0.25975556  0.92534884  0.80769779  1
  Se  Se193  1  0.58676970  0.25411621  0.30505346  1
  Se  Se194  1  0.58760558  0.25243141  0.79996808  1
  Se  Se195  1  0.58639345  0.57017162  0.31852836  1
  Se  Se196  1  0.57215258  0.57218696  0.80859064  1
  Se  Se197  1  0.58434688  0.92265014  0.29907209  1
  Se  Se198  1  0.58729814  0.91803543  0.80246324  1
  Se  Se199  1  0.91810041  0.25441479  0.30153241  1
  Se  Se200  1  0.91373571  0.24425986  0.81622167  1
  Se  Se201  1  0.92033422  0.58261803  0.29980355  1
  Se  Se202  1  0.90767326  0.56767909  0.80557502  1
  Se  Se203  1  0.91645792  0.92278634  0.30195467  1
  Se  Se204  1  0.91661595  0.92404235  0.80445461  1
  Se  Se205  1  0.07992635  0.07762106  0.29919050  1
  Se  Se206  1  0.08141518  0.08638468  0.80887620  1
  Se  Se207  1  0.08146080  0.41180894  0.29827936  1
  Se  Se208  1  0.09214518  0.42491838  0.80362104  1
  Se  Se209  1  0.08373993  0.74943135  0.29672945  1
  Se  Se210  1  0.09427582  0.76087213  0.80776903  1
  Se  Se211  1  0.42686963  0.08997903  0.31460891  1
  Se  Se212  1  0.41927015  0.08704975  0.80002662  1
  Se  Se213  1  0.41579344  0.41346301  0.30595521  1
  Se  Se214  1  0.40339932  0.41008264  0.80015900  1
  Se  Se215  1  0.43027951  0.75650572  0.30301432  1
  Se  Se216  1  0.42300097  0.75503776  0.81309219  1
  Se  Se217  1  0.74977059  0.08819386  0.30453003  1
  Se  Se218  1  0.74900552  0.08588259  0.80401818  1
  Se  Se219  1  0.74558382  0.41722712  0.30909222  1
  Se  Se220  1  0.74654793  0.40664756  0.80795016  1
  Se  Se221  1  0.75725229  0.76040833  0.31320211  1
  Se  Se222  1  0.76002243  0.75864279  0.80932129  1
  Se  Se223  1  0.24500214  0.08886876  0.18880768  1
  Se  Se224  1  0.25329985  0.08427241  0.70024303  1
  Se  Se225  1  0.25325451  0.41332104  0.19450026  1
  Se  Se226  1  0.25465960  0.41729281  0.68966159  1
  Se  Se227  1  0.25196745  0.75606656  0.18915358  1
  Se  Se228  1  0.23987072  0.76544736  0.69283144  1
  Se  Se229  1  0.58420623  0.08470959  0.19688161  1
  Se  Se230  1  0.58622845  0.08070520  0.69758017  1
  Se  Se231  1  0.58525063  0.41281099  0.20101780  1
  Se  Se232  1  0.59139832  0.41670033  0.69657258  1
  Se  Se233  1  0.57935806  0.75319108  0.19314105  1
  Se  Se234  1  0.57646496  0.75328650  0.69089015  1
  Se  Se235  1  0.91670594  0.08437478  0.19749105  1
  Se  Se236  1  0.92035267  0.08560720  0.70030028  1
  Se  Se237  1  0.91567568  0.41565338  0.19707135  1
  Se  Se238  1  0.90582391  0.40992071  0.68570688  1
  Se  Se239  1  0.91563022  0.75165623  0.19880456  1
  Se  Se240  1  0.90775089  0.75837421  0.68999829  1
  Se  Se241  1  0.07911908  0.25164476  0.19581950  1
  Se  Se242  1  0.09185908  0.24310761  0.68677090  1
  Se  Se243  1  0.08487807  0.58470946  0.19587421  1
  Se  Se244  1  0.07814022  0.57826641  0.68655511  1
  Se  Se245  1  0.08397550  0.91861696  0.19527622  1
  Se  Se246  1  0.07630492  0.92036951  0.70425854  1
  Se  Se247  1  0.41596165  0.25047626  0.20041207  1
  Se  Se248  1  0.41729137  0.25425725  0.69777030  1
  Se  Se249  1  0.42577770  0.57698975  0.19446874  1
  Se  Se250  1  0.42413593  0.57362298  0.69024080  1
  Se  Se251  1  0.42318629  0.91198698  0.19315021  1
  Se  Se252  1  0.41714798  0.92174680  0.69786407  1
  Se  Se253  1  0.74702004  0.25470279  0.19946009  1
  Se  Se254  1  0.75489049  0.24998392  0.69138413  1
  Se  Se255  1  0.75338944  0.57587122  0.19210446  1
  Se  Se256  1  0.74987570  0.57317450  0.69113147  1
  Se  Se257  1  0.74669642  0.92185242  0.19708334  1
  Se  Se258  1  0.74482319  0.92011274  0.69575545  1
