# generated using pymatgen
data_In86Cu29Se144
_symmetry_space_group_name_H-M   'P 1'
_cell_length_a   17.58239336
_cell_length_b   17.58521835
_cell_length_c   23.43655534
_cell_angle_alpha   89.96239217
_cell_angle_beta   90.01363518
_cell_angle_gamma   90.00672515
_symmetry_Int_Tables_number   1
_chemical_formula_structural   In86Cu29Se144
_chemical_formula_sum   'In86 Cu29 Se144'
_cell_volume   7246.35203320
_cell_formula_units_Z   1
loop_
 _symmetry_equiv_pos_site_id
 _symmetry_equiv_pos_as_xyz
  1  'x, y, z'
loop_
 _atom_site_type_symbol
 _atom_site_label
 _atom_site_symmetry_multiplicity
 _atom_site_fract_x
 _atom_site_fract_y
 _atom_site_fract_z
 _atom_site_occupancy
  In  In0  1  -0.00979851  0.18282653  0.13057048  1
  In  In1  1  0.00591779  0.17355405  0.61923006  1
  In  In2  1  -0.01135005  0.49016413  0.11306826  1
  In  In3  1  -0.02214551  0.51761154  0.63411795  1
  In  In4  1  -0.00180608  0.83203129  0.11748436  1
  In  In5  1  -0.01626086  0.80910822  0.60151540  1
  In  In6  1  0.33526315  0.16691011  0.12826754  1
  In  In7  1  0.32947342  0.16273199  0.62117706  1
  In  In8  1  0.34412079  0.50805607  0.11816688  1
  In  In9  1  0.33858937  0.48700113  0.62585876  1
  In  In10  1  0.32924872  0.82695216  0.11722051  1
  In  In11  1  0.34086484  0.84535631  0.62397928  1
  In  In12  1  0.68060732  0.16689674  0.12794692  1
  In  In13  1  0.68919230  0.19365796  0.60299552  1
  In  In14  1  0.66500057  0.49090465  0.12513132  1
  In  In15  1  0.67111625  0.50048073  0.62642076  1
  In  In16  1  0.66549917  0.83131100  0.11525575  1
  In  In17  1  0.66249816  0.82643766  0.62357709  1
  In  In18  1  0.16129554  -0.00200035  0.38509865  1
  In  In19  1  0.16577218  -0.01438961  0.87039812  1
  In  In20  1  0.14731660  0.33708740  0.37508123  1
  In  In21  1  0.16555726  0.34802591  0.87782543  1
  In  In22  1  0.16655777  0.67173875  0.37900321  1
  In  In23  1  0.15610627  0.67281127  0.87617439  1
  In  In24  1  0.49973281  0.00229843  0.38093308  1
  In  In25  1  0.48517055  0.00146785  0.86559589  1
  In  In26  1  0.51376900  0.33432599  0.38192040  1
  In  In27  1  0.51396625  0.33679510  0.87317351  1
  In  In28  1  0.50773305  0.66502902  0.38626458  1
  In  In29  1  0.51440258  0.65450643  0.87994783  1
  In  In30  1  0.83655725  0.00472714  0.39137377  1
  In  In31  1  0.83415220  -0.00148894  0.87995437  1
  In  In32  1  0.82224095  0.33712451  0.37831741  1
  In  In33  1  0.83162212  0.33666445  0.87508441  1
  In  In34  1  0.83730922  0.66081103  0.38615473  1
  In  In35  1  0.83492588  0.66517044  0.87142975  1
  In  In36  1  -0.02622449  0.18599032  0.39857159  1
  In  In37  1  -0.01738548  0.16593972  0.87373962  1
  In  In38  1  -0.00721614  0.48762451  0.37222049  1
  In  In39  1  -0.00399696  0.49954161  0.87453444  1
  In  In40  1  0.00053730  0.82809123  0.39066291  1
  In  In41  1  0.00770750  0.82882289  0.87687929  1
  In  In42  1  0.34130829  0.16211547  0.38096582  1
  In  In43  1  0.34484855  0.16048146  0.86673921  1
  In  In44  1  0.33833883  0.51152020  0.37791787  1
  In  In45  1  0.33284553  0.50696021  0.88399315  1
  In  In46  1  0.32990403  0.83790814  0.38164235  1
  In  In47  1  0.32600751  0.83717502  0.87359431  1
  In  In48  1  0.65041324  0.19389257  0.39942695  1
  In  In49  1  0.66708695  0.18310175  0.86945840  1
  In  In50  1  0.67065601  0.48471418  0.38351914  1
  In  In51  1  0.66941180  0.50058474  0.87444051  1
  In  In52  1  0.66877651  0.82999369  0.38437738  1
  In  In53  1  0.67920093  0.81950757  0.87749879  1
  In  In54  1  0.17201449  -0.00779383  0.12397840  1
  In  In55  1  0.16623064  0.00448131  0.61616931  1
  In  In56  1  0.14658955  0.33435888  0.12927305  1
  In  In57  1  0.16112564  0.31868766  0.62147011  1
  In  In58  1  0.16842684  0.66806045  0.11672975  1
  In  In59  1  0.14991423  0.66611815  0.62411453  1
  In  In60  1  0.51158218  -0.00432553  0.12443985  1
  In  In61  1  0.49784532  -0.00048168  0.62314434  1
  In  In62  1  0.50902929  0.34883960  0.13445842  1
  In  In63  1  0.52917076  0.35531048  0.59861034  1
  In  In64  1  0.50077363  0.66490142  0.11998135  1
  In  In65  1  0.50923871  0.67837162  0.62461240  1
  In  In66  1  0.83023086  0.00036618  0.11712212  1
  In  In67  1  0.84668689  -0.00162870  0.61446576  1
  In  In68  1  0.83530684  0.33712337  0.12484124  1
  In  In69  1  0.82733433  0.34413337  0.62562030  1
  In  In70  1  0.82979481  0.66383991  0.11633862  1
  In  In71  1  0.83256912  0.65880942  0.62403531  1
  In  In72  1  -0.00090427  0.00161171  0.25663186  1
  In  In73  1  0.33453064  0.66596302  0.75678430  1
  In  In74  1  -0.00207464  0.66114064  0.25806594  1
  In  In75  1  0.67162955  0.01073389  0.25737470  1
  In  In76  1  0.00573664  -0.00369220  0.73734604  1
  In  In77  1  0.16313378  0.50312682  0.49830433  1
  In  In78  1  0.33519910  0.66644168  0.23997816  1
  In  In79  1  0.33807128  0.33577248  0.25260796  1
  In  In80  1  0.66398942  0.00187675  0.73846393  1
  In  In81  1  0.50374078  0.16671140  -0.00157078  1
  In  In82  1  0.66866233  0.65557353  0.24957480  1
  In  In83  1  0.33528731  0.32388300  0.74693744  1
  In  In84  1  0.33433961  0.00225910  0.26405758  1
  In  In85  1  0.16326313  0.16378258  0.00760636  1
  Cu  Cu86  1  0.50629063  0.49621352  0.74896477  1
  Cu  Cu87  1  0.16704002  0.83317098  0.74757808  1
  Cu  Cu88  1  0.66311592  -0.00462002  -0.00347352  1
  Cu  Cu89  1  0.33776745  0.66897859  0.50373854  1
  Cu  Cu90  1  0.66669238  -0.00436571  0.50603348  1
  Cu  Cu91  1  0.33427442  0.32983610  0.50123668  1
  Cu  Cu92  1  0.50671531  0.83243397  0.74721299  1
  Cu  Cu93  1  0.66499290  0.66629633  0.50487726  1
  Cu  Cu94  1  -0.00671199  0.34147125  0.50414084  1
  Cu  Cu95  1  0.67184546  0.66626517  -0.00266933  1
  Cu  Cu96  1  0.32940314  -0.00786122  -0.00441084  1
  Cu  Cu97  1  0.83345329  0.83429142  0.25047564  1
  Cu  Cu98  1  0.82940623  0.49767312  0.75297926  1
  Cu  Cu99  1  -0.00091356  0.66587601  -0.00494399  1
  Cu  Cu100  1  0.33673557  0.34197752  0.00298785  1
  Cu  Cu101  1  0.50037402  0.16996539  0.73766982  1
  Cu  Cu102  1  0.49435984  0.83355863  0.25107318  1
  Cu  Cu103  1  0.84092387  0.82636259  0.74645205  1
  Cu  Cu104  1  0.15119480  0.49544401  0.74948249  1
  Cu  Cu105  1  0.16265160  0.49896859  0.24448467  1
  Cu  Cu106  1  0.82678621  0.17785764  0.74807368  1
  Cu  Cu107  1  0.15988093  0.16687512  0.25842714  1
  Cu  Cu108  1  0.33481062  -0.00219336  0.49985976  1
  Cu  Cu109  1  -0.00496613  0.33395358  0.00040779  1
  Cu  Cu110  1  0.83425641  0.17702159  0.25958024  1
  Cu  Cu111  1  0.33813252  0.67031906  -0.00352301  1
  Cu  Cu112  1  0.67238958  0.33688851  -0.00222789  1
  Cu  Cu113  1  0.16375386  0.16344069  0.74241796  1
  Cu  Cu114  1  -0.00384740  -0.00201215  -0.00345617  1
  Se  Se115  1  0.06877363  0.07540046  0.06612395  1
  Se  Se116  1  0.07813770  0.08502269  0.55121133  1
  Se  Se117  1  0.08618363  0.41505254  0.04910452  1
  Se  Se118  1  0.07646316  0.41936199  0.56489087  1
  Se  Se119  1  0.08222436  0.74956029  0.05022781  1
  Se  Se120  1  0.09351738  0.74716174  0.54418507  1
  Se  Se121  1  0.40849332  0.07357456  0.05680775  1
  Se  Se122  1  0.41617714  0.08224276  0.55359137  1
  Se  Se123  1  0.42686494  0.41595807  0.05690844  1
  Se  Se124  1  0.41540592  0.42173858  0.54671447  1
  Se  Se125  1  0.42108046  0.75157993  0.05239626  1
  Se  Se126  1  0.41847096  0.75415272  0.55811684  1
  Se  Se127  1  0.74308987  0.08135012  0.05081578  1
  Se  Se128  1  0.75548684  0.08027374  0.55196400  1
  Se  Se129  1  0.75376975  0.41930782  0.05380252  1
  Se  Se130  1  0.73319582  0.40681727  0.55374812  1
  Se  Se131  1  0.75412107  0.75391259  0.04926335  1
  Se  Se132  1  0.75089935  0.74847482  0.55704316  1
  Se  Se133  1  0.25659845  0.26032475  0.06223813  1
  Se  Se134  1  0.24819593  0.24707165  0.55104724  1
  Se  Se135  1  0.25555049  0.58584502  0.05170456  1
  Se  Se136  1  0.25697608  0.58669910  0.56341234  1
  Se  Se137  1  0.24505261  0.91155715  0.05009416  1
  Se  Se138  1  0.25122880  0.91524515  0.55329936  1
  Se  Se139  1  0.59100024  0.25636471  0.05959097  1
  Se  Se140  1  0.56820113  0.23188775  0.54780976  1
  Se  Se141  1  0.59218037  0.58541178  0.05743927  1
  Se  Se142  1  0.58200268  0.58415668  0.55961912  1
  Se  Se143  1  0.57781733  0.91318450  0.04875690  1
  Se  Se144  1  0.58117956  0.91323443  0.55736336  1
  Se  Se145  1  0.91166583  0.24836104  0.05225013  1
  Se  Se146  1  0.91286874  0.25673273  0.55925621  1
  Se  Se147  1  0.91424724  0.58350870  0.04810198  1
  Se  Se148  1  0.91239317  0.58080183  0.55001660  1
  Se  Se149  1  0.91265912  0.91476974  0.05167208  1
  Se  Se150  1  0.92723032  0.92079403  0.54449278  1
  Se  Se151  1  0.08183422  0.25813724  0.45368907  1
  Se  Se152  1  0.07761356  0.25084043  0.94168691  1
  Se  Se153  1  0.06956738  0.58844645  0.43822432  1
  Se  Se154  1  0.08320559  0.58066423  0.94334366  1
  Se  Se155  1  0.09566666  0.90329987  0.45201224  1
  Se  Se156  1  0.08458396  0.91745478  0.94653891  1
  Se  Se157  1  0.41952375  0.25272916  0.44465388  1
  Se  Se158  1  0.40923995  0.25795011  0.94009619  1
  Se  Se159  1  0.41943690  0.58335578  0.45210331  1
  Se  Se160  1  0.42371999  0.58209956  0.94971860  1
  Se  Se161  1  0.42020632  0.91462485  0.44729865  1
  Se  Se162  1  0.41686360  0.91670150  0.94021864  1
  Se  Se163  1  0.77420642  0.23257279  0.44880276  1
  Se  Se164  1  0.75096715  0.24870042  0.94501146  1
  Se  Se165  1  0.74313449  0.58275518  0.44760490  1
  Se  Se166  1  0.75353329  0.58296970  0.94258302  1
  Se  Se167  1  0.75070551  0.91409124  0.45107686  1
  Se  Se168  1  0.75038201  0.91369276  0.94506193  1
  Se  Se169  1  0.25284738  0.08262167  0.44587896  1
  Se  Se170  1  0.25391528  0.08160016  0.93903432  1
  Se  Se171  1  0.25455281  0.41049135  0.43831398  1
  Se  Se172  1  0.24982523  0.42069744  0.94983759  1
  Se  Se173  1  0.25286045  0.74711197  0.44792608  1
  Se  Se174  1  0.25051871  0.74793654  0.94133293  1
  Se  Se175  1  0.58595195  0.07822799  0.44991956  1
  Se  Se176  1  0.58806657  0.07730203  0.93272855  1
  Se  Se177  1  0.58555388  0.41469343  0.45787386  1
  Se  Se178  1  0.58498175  0.41934674  0.94653068  1
  Se  Se179  1  0.58158160  0.75465609  0.45393519  1
  Se  Se180  1  0.58546446  0.74997348  0.94645597  1
  Se  Se181  1  0.94083815  0.06503327  0.45543907  1
  Se  Se182  1  0.91216641  0.08509039  0.94909262  1
  Se  Se183  1  0.90967469  0.42005646  0.44745879  1
  Se  Se184  1  0.91356776  0.41802841  0.94550881  1
  Se  Se185  1  0.90570234  0.75416935  0.45218276  1
  Se  Se186  1  0.91650845  0.75042847  0.94115347  1
  Se  Se187  1  0.24541685  0.24744072  0.31373443  1
  Se  Se188  1  0.23928607  0.24154441  0.81050233  1
  Se  Se189  1  0.24090490  0.57910930  0.30452591  1
  Se  Se190  1  0.23859455  0.57175264  0.80812403  1
  Se  Se191  1  0.23662711  0.90845078  0.30862160  1
  Se  Se192  1  0.25260780  0.91776450  0.79697637  1
  Se  Se193  1  0.59077501  0.25246622  0.31002399  1
  Se  Se194  1  0.57839363  0.25114491  0.79727832  1
  Se  Se195  1  0.57849468  0.57560576  0.31445267  1
  Se  Se196  1  0.58771457  0.58204439  0.80165001  1
  Se  Se197  1  0.57985759  0.90982389  0.30912633  1
  Se  Se198  1  0.58589017  0.91408389  0.80930769  1
  Se  Se199  1  0.91928904  0.25866039  0.31233742  1
  Se  Se200  1  0.91430168  0.25448092  0.80299980  1
  Se  Se201  1  0.89911733  0.57102733  0.30657031  1
  Se  Se202  1  0.91719642  0.58187393  0.80251646  1
  Se  Se203  1  0.90885474  0.91007180  0.31519563  1
  Se  Se204  1  0.91456613  0.91413948  0.80500114  1
  Se  Se205  1  0.07909062  0.09361060  0.32080777  1
  Se  Se206  1  0.08498483  0.08692228  0.80881877  1
  Se  Se207  1  0.07906109  0.41785189  0.29828701  1
  Se  Se208  1  0.07472789  0.40950440  0.80493983  1
  Se  Se209  1  0.08617180  0.75989840  0.30895851  1
  Se  Se210  1  0.08164534  0.75115504  0.80006124  1
  Se  Se211  1  0.43508496  0.09674925  0.30544357  1
  Se  Se212  1  0.41693007  0.08509588  0.78917524  1
  Se  Se213  1  0.42466152  0.42544717  0.31283089  1
  Se  Se214  1  0.41724926  0.42325829  0.80871766  1
  Se  Se215  1  0.41900062  0.75104924  0.31119470  1
  Se  Se216  1  0.42925899  0.75464071  0.81270089  1
  Se  Se217  1  0.75905461  0.09449727  0.32086404  1
  Se  Se218  1  0.75418764  0.08662223  0.80581867  1
  Se  Se219  1  0.73734750  0.40828874  0.30405393  1
  Se  Se220  1  0.74495149  0.41267957  0.80430903  1
  Se  Se221  1  0.75477798  0.75204081  0.30963216  1
  Se  Se222  1  0.75297378  0.74728096  0.79915895  1
  Se  Se223  1  0.23995800  0.09020483  0.19734049  1
  Se  Se224  1  0.24753211  0.08059748  0.69167642  1
  Se  Se225  1  0.24886192  0.42263750  0.18652173  1
  Se  Se226  1  0.23826905  0.41794710  0.69309795  1
  Se  Se227  1  0.23758980  0.76017716  0.19275549  1
  Se  Se228  1  0.24897060  0.75008219  0.68909557  1
  Se  Se229  1  0.57784211  0.09269622  0.19290123  1
  Se  Se230  1  0.58852635  0.09985144  0.67717575  1
  Se  Se231  1  0.59910498  0.41310211  0.20552750  1
  Se  Se232  1  0.58357784  0.41239244  0.69207266  1
  Se  Se233  1  0.57955996  0.75636459  0.19309026  1
  Se  Se234  1  0.59198514  0.74624934  0.70147124  1
  Se  Se235  1  0.90322784  0.08800580  0.19616579  1
  Se  Se236  1  0.90822106  0.09367748  0.69129196  1
  Se  Se237  1  0.93188225  0.40657756  0.19157520  1
  Se  Se238  1  0.91439911  0.41602052  0.69896773  1
  Se  Se239  1  0.91092765  0.75230986  0.19156682  1
  Se  Se240  1  0.92149223  0.74543137  0.68942458  1
  Se  Se241  1  0.07823716  0.24979886  0.20393233  1
  Se  Se242  1  0.07808050  0.25093877  0.69797927  1
  Se  Se243  1  0.08327792  0.58132190  0.18601730  1
  Se  Se244  1  0.07636292  0.58790459  0.69943592  1
  Se  Se245  1  0.08398020  0.91073439  0.19258490  1
  Se  Se246  1  0.08729285  0.90105301  0.67867405  1
  Se  Se247  1  0.42798021  0.24362463  0.19333361  1
  Se  Se248  1  0.42649493  0.25524904  0.67680310  1
  Se  Se249  1  0.43469905  0.57173722  0.19626930  1
  Se  Se250  1  0.42180852  0.57699564  0.69257971  1
  Se  Se251  1  0.41588136  0.91410202  0.19129656  1
  Se  Se252  1  0.42241827  0.91846145  0.69884875  1
  Se  Se253  1  0.75482325  0.25303058  0.19710351  1
  Se  Se254  1  0.74244904  0.25768638  0.69413305  1
  Se  Se255  1  0.76435034  0.57308014  0.19083866  1
  Se  Se256  1  0.74927745  0.58369637  0.69794487  1
  Se  Se257  1  0.75093659  0.91258280  0.19193787  1
  Se  Se258  1  0.76391954  0.91171543  0.68752848  1
