# generated using pymatgen
data_In86Cu29Se144
_symmetry_space_group_name_H-M   'P 1'
_cell_length_a   17.58030424
_cell_length_b   17.58093256
_cell_length_c   23.44310547
_cell_angle_alpha   89.97085532
_cell_angle_beta   90.03749264
_cell_angle_gamma   89.98985970
_symmetry_Int_Tables_number   1
_chemical_formula_structural   In86Cu29Se144
_chemical_formula_sum   'In86 Cu29 Se144'
_cell_volume   7245.74891005
_cell_formula_units_Z   1
loop_
 _symmetry_equiv_pos_site_id
 _symmetry_equiv_pos_as_xyz
  1  'x, y, z'
loop_
 _atom_site_type_symbol
 _atom_site_label
 _atom_site_symmetry_multiplicity
 _atom_site_fract_x
 _atom_site_fract_y
 _atom_site_fract_z
 _atom_site_occupancy
  In  In0  1  0.00150682  0.17125934  0.12713222  1
  In  In1  1  0.01414471  0.17898571  0.62557921  1
  In  In2  1  0.00316186  0.49297444  0.13523907  1
  In  In3  1  -0.00441986  0.49436465  0.61430833  1
  In  In4  1  -0.00661388  0.84077971  0.13025375  1
  In  In5  1  -0.00502074  0.82584125  0.61337395  1
  In  In6  1  0.33684115  0.18901630  0.12115382  1
  In  In7  1  0.32204940  0.16300453  0.63004412  1
  In  In8  1  0.32702445  0.49572643  0.12017618  1
  In  In9  1  0.34768645  0.51085457  0.61067403  1
  In  In10  1  0.34162879  0.82204387  0.12200058  1
  In  In11  1  0.33596500  0.83348243  0.62738866  1
  In  In12  1  0.67727376  0.16836959  0.12271726  1
  In  In13  1  0.67912307  0.17913809  0.62492851  1
  In  In14  1  0.66638935  0.51241220  0.14512281  1
  In  In15  1  0.66486671  0.50147966  0.62066743  1
  In  In16  1  0.65914992  0.82552167  0.11900614  1
  In  In17  1  0.65985444  0.82160976  0.61757515  1
  In  In18  1  0.15196207  0.00301948  0.37373402  1
  In  In19  1  0.17954893  -0.00023673  0.87821899  1
  In  In20  1  0.17750319  0.34904159  0.36003579  1
  In  In21  1  0.15587851  0.34353736  0.88521083  1
  In  In22  1  0.16101752  0.67037292  0.37882355  1
  In  In23  1  0.16780465  0.65362691  0.87741645  1
  In  In24  1  0.49182651  -0.00962706  0.37654107  1
  In  In25  1  0.48712107  -0.00457312  0.87145958  1
  In  In26  1  0.50755507  0.35529003  0.36355521  1
  In  In27  1  0.51511366  0.33504574  0.87638033  1
  In  In28  1  0.51159008  0.64951945  0.38193377  1
  In  In29  1  0.49021278  0.67185627  0.87976582  1
  In  In30  1  0.83867676  -0.01471399  0.37660644  1
  In  In31  1  0.83855455  -0.00451200  0.88301637  1
  In  In32  1  0.84362157  0.35670457  0.35290674  1
  In  In33  1  0.82483893  0.33328891  0.87566647  1
  In  In34  1  0.83569819  0.66247490  0.36597193  1
  In  In35  1  0.84785463  0.66888766  0.88192058  1
  In  In36  1  0.02056817  0.17399313  0.35363351  1
  In  In37  1  -0.01290655  0.17895504  0.88789970  1
  In  In38  1  -0.00636660  0.50423106  0.36808866  1
  In  In39  1  0.01205808  0.50384931  0.87677698  1
  In  In40  1  -0.00119099  0.83000970  0.37003694  1
  In  In41  1  -0.00841341  0.81989189  0.88151379  1
  In  In42  1  0.31970926  0.18625671  0.37559222  1
  In  In43  1  0.33313132  0.15605826  0.87763033  1
  In  In44  1  0.34098052  0.48147528  0.38974519  1
  In  In45  1  0.32929498  0.50881936  0.87881941  1
  In  In46  1  0.33930036  0.82221503  0.38613286  1
  In  In47  1  0.34495516  0.83669678  0.86281963  1
  In  In48  1  0.66906682  0.18317119  0.37307864  1
  In  In49  1  0.67050073  0.18312135  0.87749341  1
  In  In50  1  0.66594597  0.50523285  0.36871894  1
  In  In51  1  0.66765648  0.48200252  0.87754143  1
  In  In52  1  0.67705434  0.81686111  0.38235004  1
  In  In53  1  0.66592962  0.82889926  0.88012607  1
  In  In54  1  0.15089959  0.00453668  0.12842734  1
  In  In55  1  0.17959531  0.00188464  0.62735780  1
  In  In56  1  0.16167599  0.33504894  0.12541581  1
  In  In57  1  0.15790380  0.33285036  0.62075419  1
  In  In58  1  0.16666821  0.65474313  0.12524996  1
  In  In59  1  0.17441072  0.67375751  0.61777857  1
  In  In60  1  0.50987791  -0.00908807  0.12036310  1
  In  In61  1  0.49835787  -0.01530335  0.63037193  1
  In  In62  1  0.49370964  0.35342957  0.14300892  1
  In  In63  1  0.50318334  0.35241570  0.62013231  1
  In  In64  1  0.50516657  0.66502526  0.12274263  1
  In  In65  1  0.49516952  0.66307395  0.62306925  1
  In  In66  1  0.83931661  0.01050668  0.11670407  1
  In  In67  1  0.84239568  -0.00504854  0.62385738  1
  In  In68  1  0.84371566  0.33350339  0.13872232  1
  In  In69  1  0.82582292  0.35409305  0.63759060  1
  In  In70  1  0.82791527  0.66952903  0.13395177  1
  In  In71  1  0.82999246  0.66122293  0.61516906  1
  In  In72  1  0.33518091  0.65734911  0.24997385  1
  In  In73  1  0.16825169  0.83222842  0.00010201  1
  In  In74  1  0.32409606  0.00048701  0.25041136  1
  In  In75  1  0.50151062  0.16660020  -0.00435535  1
  In  In76  1  0.83229234  0.50039927  0.01036915  1
  In  In77  1  0.16692443  0.16613337  0.50012432  1
  In  In78  1  0.49812800  0.16487948  0.49202556  1
  In  In79  1  0.66933881  0.00216338  0.24633161  1
  In  In80  1  0.66300993  0.65948924  0.74276109  1
  In  In81  1  0.00203058  0.65900773  0.75466387  1
  In  In82  1  0.33429763  0.33406003  0.74542824  1
  In  In83  1  0.83915375  0.16455583  0.49624172  1
  In  In84  1  0.66377465  0.00320319  0.75860769  1
  In  In85  1  0.00601672  0.00637194  0.74777770  1
  Cu  Cu86  1  0.17390008  0.83305859  0.74671132  1
  Cu  Cu87  1  0.66701806  0.66443401  0.49571437  1
  Cu  Cu88  1  0.32602391  0.66677206  0.50190082  1
  Cu  Cu89  1  0.83895362  0.16074663  0.24507036  1
  Cu  Cu90  1  0.67019824  0.34550101  0.49563706  1
  Cu  Cu91  1  0.32948127  0.34346954  0.00288460  1
  Cu  Cu92  1  0.33397782  -0.00972388  0.50327435  1
  Cu  Cu93  1  0.83856339  0.18225027  0.75381798  1
  Cu  Cu94  1  0.50847017  0.82506897  0.24986505  1
  Cu  Cu95  1  -0.00372106  0.66339201  0.49157489  1
  Cu  Cu96  1  0.66431344  -0.01019201  0.49866879  1
  Cu  Cu97  1  -0.00213467  0.00422891  0.00556635  1
  Cu  Cu98  1  0.50401286  0.16736722  0.75351999  1
  Cu  Cu99  1  -0.00354854  -0.00935944  0.49423594  1
  Cu  Cu100  1  0.17068221  0.49966637  0.74968282  1
  Cu  Cu101  1  0.66802885  -0.00875423  -0.00184650  1
  Cu  Cu102  1  0.16669518  0.50012723  0.24992343  1
  Cu  Cu103  1  0.66696315  0.66185117  0.00675977  1
  Cu  Cu104  1  0.50174668  0.50080370  0.74583805  1
  Cu  Cu105  1  -0.00597007  0.33921794  0.49447043  1
  Cu  Cu106  1  0.16443788  0.17225035  0.75489730  1
  Cu  Cu107  1  0.83531700  0.83411127  0.25052349  1
  Cu  Cu108  1  -0.00106729  0.33576513  0.00969664  1
  Cu  Cu109  1  0.33169189  -0.00103948  -0.00302384  1
  Cu  Cu110  1  0.16026434  0.83011050  0.25522452  1
  Cu  Cu111  1  0.34162615  0.66427505  -0.00032756  1
  Cu  Cu112  1  0.66678239  0.33251742  0.00533875  1
  Cu  Cu113  1  0.82889508  0.83183860  0.74825367  1
  Cu  Cu114  1  0.48832691  0.17156171  0.24954577  1
  Se  Se115  1  0.08283665  0.08898348  0.05416045  1
  Se  Se116  1  0.07382806  0.07128345  0.55829341  1
  Se  Se117  1  0.08254883  0.42447660  0.05653411  1
  Se  Se118  1  0.08481634  0.41567098  0.54706674  1
  Se  Se119  1  0.08031196  0.74884564  0.06344801  1
  Se  Se120  1  0.07991832  0.74405443  0.54861920  1
  Se  Se121  1  0.41212476  0.07770445  0.05991601  1
  Se  Se122  1  0.41085982  0.07903861  0.55976002  1
  Se  Se123  1  0.42172434  0.41556310  0.05730457  1
  Se  Se124  1  0.41767317  0.41410320  0.54612927  1
  Se  Se125  1  0.42536039  0.74889098  0.05098967  1
  Se  Se126  1  0.41246038  0.74822145  0.55590049  1
  Se  Se127  1  0.74484524  0.08203700  0.04923372  1
  Se  Se128  1  0.74314479  0.07456818  0.55673599  1
  Se  Se129  1  0.74306767  0.41106234  0.07003380  1
  Se  Se130  1  0.75478491  0.42101798  0.55444196  1
  Se  Se131  1  0.75252288  0.74595169  0.05655854  1
  Se  Se132  1  0.75022210  0.74957910  0.54966738  1
  Se  Se133  1  0.24577095  0.25661846  0.05158170  1
  Se  Se134  1  0.26114427  0.25717187  0.55612608  1
  Se  Se135  1  0.25210403  0.58634496  0.05150020  1
  Se  Se136  1  0.24285451  0.57773379  0.55021020  1
  Se  Se137  1  0.25585237  0.92281086  0.06405094  1
  Se  Se138  1  0.24635473  0.91221181  0.55655310  1
  Se  Se139  1  0.57939016  0.25521660  0.06432441  1
  Se  Se140  1  0.59268076  0.25576528  0.55166700  1
  Se  Se141  1  0.59097885  0.57452339  0.06134380  1
  Se  Se142  1  0.58304897  0.58610215  0.55404918  1
  Se  Se143  1  0.58005506  0.90886042  0.04658283  1
  Se  Se144  1  0.57900119  0.91390537  0.55476569  1
  Se  Se145  1  0.91181769  0.25353603  0.06008218  1
  Se  Se146  1  0.92104939  0.25754759  0.55953665  1
  Se  Se147  1  0.92335118  0.58921829  0.06736625  1
  Se  Se148  1  0.91440763  0.58082310  0.54775329  1
  Se  Se149  1  0.91576139  0.91504836  0.05338294  1
  Se  Se150  1  0.90993639  0.91221937  0.54869128  1
  Se  Se151  1  0.07579381  0.25301269  0.43960768  1
  Se  Se152  1  0.08161925  0.25286161  0.95305428  1
  Se  Se153  1  0.07923267  0.57798188  0.44078476  1
  Se  Se154  1  0.06923887  0.59978357  0.94695330  1
  Se  Se155  1  0.08357644  0.91028002  0.44237044  1
  Se  Se156  1  0.07456457  0.92437497  0.94046275  1
  Se  Se157  1  0.41623232  0.26317808  0.43711872  1
  Se  Se158  1  0.40813552  0.26169561  0.93986096  1
  Se  Se159  1  0.41105295  0.58541935  0.44801272  1
  Se  Se160  1  0.42328163  0.57618968  0.94879176  1
  Se  Se161  1  0.42202316  0.90987504  0.45197856  1
  Se  Se162  1  0.41276378  0.91352574  0.94476747  1
  Se  Se163  1  0.75576039  0.26486212  0.44008211  1
  Se  Se164  1  0.75331507  0.25192932  0.95292187  1
  Se  Se165  1  0.74987346  0.58550390  0.43844616  1
  Se  Se166  1  0.74468413  0.58576587  0.94105363  1
  Se  Se167  1  0.75290363  0.91151228  0.44690378  1
  Se  Se168  1  0.75370023  0.90892842  0.94610481  1
  Se  Se169  1  0.25864878  0.07291286  0.44029977  1
  Se  Se170  1  0.24685010  0.08775337  0.95215725  1
  Se  Se171  1  0.23933124  0.40845758  0.44783365  1
  Se  Se172  1  0.24661025  0.42584552  0.94737476  1
  Se  Se173  1  0.24249777  0.75150086  0.44989088  1
  Se  Se174  1  0.26029053  0.74628920  0.93854813  1
  Se  Se175  1  0.59544341  0.07451558  0.43508131  1
  Se  Se176  1  0.59150882  0.07417566  0.93478919  1
  Se  Se177  1  0.58307002  0.42523721  0.44305057  1
  Se  Se178  1  0.58233923  0.41627329  0.95386764  1
  Se  Se179  1  0.57814818  0.74981252  0.44752971  1
  Se  Se180  1  0.58594643  0.74258172  0.94692005  1
  Se  Se181  1  0.93132090  0.08233738  0.43287480  1
  Se  Se182  1  0.91121446  0.08516107  0.95168555  1
  Se  Se183  1  0.91089726  0.42002262  0.43900480  1
  Se  Se184  1  0.92102716  0.41462674  0.94472881  1
  Se  Se185  1  0.91339826  0.74727005  0.43741773  1
  Se  Se186  1  0.91183404  0.75266159  0.95700838  1
  Se  Se187  1  0.22423805  0.23294212  0.30214372  1
  Se  Se188  1  0.24744944  0.25160926  0.81414509  1
  Se  Se189  1  0.24657560  0.57544911  0.31480528  1
  Se  Se190  1  0.25201189  0.58439639  0.80236609  1
  Se  Se191  1  0.24772839  0.90310689  0.31452435  1
  Se  Se192  1  0.25003108  0.91937656  0.80292639  1
  Se  Se193  1  0.57528421  0.24768420  0.30491760  1
  Se  Se194  1  0.58807257  0.25291192  0.80199064  1
  Se  Se195  1  0.58028427  0.58568573  0.29970642  1
  Se  Se196  1  0.57946091  0.57555629  0.81233063  1
  Se  Se197  1  0.58422435  0.91012041  0.30947472  1
  Se  Se198  1  0.57434526  0.90351058  0.80703926  1
  Se  Se199  1  0.91679006  0.24964314  0.29877302  1
  Se  Se200  1  0.92261211  0.26018817  0.80950204  1
  Se  Se201  1  0.89468093  0.56257232  0.29395416  1
  Se  Se202  1  0.90644597  0.56993584  0.80934778  1
  Se  Se203  1  0.92039239  0.91908868  0.30009390  1
  Se  Se204  1  0.91497246  0.91013069  0.80504043  1
  Se  Se205  1  0.09016170  0.07539856  0.29155773  1
  Se  Se206  1  0.08601207  0.09217634  0.81694491  1
  Se  Se207  1  0.07619681  0.41850904  0.29952266  1
  Se  Se208  1  0.08732020  0.41957496  0.80475584  1
  Se  Se209  1  0.07845391  0.74056483  0.30265514  1
  Se  Se210  1  0.09143104  0.75854592  0.80944614  1
  Se  Se211  1  0.41622614  0.08970045  0.31230045  1
  Se  Se212  1  0.41583348  0.08635800  0.80202564  1
  Se  Se213  1  0.40074995  0.41636735  0.30274091  1
  Se  Se214  1  0.42333983  0.42048356  0.80923141  1
  Se  Se215  1  0.42367157  0.75054370  0.30953287  1
  Se  Se216  1  0.41301555  0.73733983  0.80071022  1
  Se  Se217  1  0.75837724  0.08815545  0.31145719  1
  Se  Se218  1  0.76346383  0.09279405  0.81138188  1
  Se  Se219  1  0.71999294  0.39686427  0.30138949  1
  Se  Se220  1  0.75048704  0.41634962  0.80323502  1
  Se  Se221  1  0.74914979  0.75045247  0.30072512  1
  Se  Se222  1  0.75522915  0.74753210  0.80809960  1
  Se  Se223  1  0.24955140  0.09313400  0.18412679  1
  Se  Se224  1  0.24618437  0.08491904  0.70435713  1
  Se  Se225  1  0.24836718  0.41801174  0.19385380  1
  Se  Se226  1  0.24842602  0.42429352  0.68397507  1
  Se  Se227  1  0.24459086  0.75612586  0.19323219  1
  Se  Se228  1  0.25239405  0.74555813  0.69447412  1
  Se  Se229  1  0.57149921  0.09269471  0.19067531  1
  Se  Se230  1  0.58310258  0.09179553  0.68794174  1
  Se  Se231  1  0.60343260  0.40480363  0.20580563  1
  Se  Se232  1  0.58800777  0.41888096  0.69492923  1
  Se  Se233  1  0.58901479  0.74337405  0.19474445  1
  Se  Se234  1  0.57125814  0.75811179  0.69472822  1
  Se  Se235  1  0.92150259  0.07776131  0.19289396  1
  Se  Se236  1  0.91061247  0.09898254  0.69034467  1
  Se  Se237  1  0.90473886  0.43409743  0.20609496  1
  Se  Se238  1  0.93790000  0.41019918  0.69364684  1
  Se  Se239  1  0.91985560  0.75035664  0.19886255  1
  Se  Se240  1  0.91109769  0.74988865  0.69112568  1
  Se  Se241  1  0.06819190  0.26713077  0.19430846  1
  Se  Se242  1  0.08613593  0.25787937  0.70100909  1
  Se  Se243  1  0.08356346  0.58649969  0.20013496  1
  Se  Se244  1  0.09059646  0.57959620  0.68716299  1
  Se  Se245  1  0.08283927  0.91607844  0.19998209  1
  Se  Se246  1  0.08510679  0.90601716  0.68764700  1
  Se  Se247  1  0.40746953  0.26053278  0.20117763  1
  Se  Se248  1  0.42845340  0.24510679  0.68593592  1
  Se  Se249  1  0.42486668  0.57117133  0.18956265  1
  Se  Se250  1  0.41470341  0.58072947  0.69426883  1
  Se  Se251  1  0.42500967  0.90894159  0.19472092  1
  Se  Se252  1  0.40302918  0.92614874  0.69885571  1
  Se  Se253  1  0.75107616  0.24509083  0.19785942  1
  Se  Se254  1  0.74860396  0.25855078  0.70073572  1
  Se  Se255  1  0.76805009  0.57772439  0.20918756  1
  Se  Se256  1  0.76348973  0.57334437  0.69201499  1
  Se  Se257  1  0.75580358  0.91180393  0.18563338  1
  Se  Se258  1  0.74938055  0.91352132  0.69046540  1
