# generated using pymatgen
data_In86Cu29Se144
_symmetry_space_group_name_H-M   'P 1'
_cell_length_a   17.62983241
_cell_length_b   17.62561286
_cell_length_c   23.46786149
_cell_angle_alpha   90.00670857
_cell_angle_beta   89.95963455
_cell_angle_gamma   90.01903407
_symmetry_Int_Tables_number   1
_chemical_formula_structural   In86Cu29Se144
_chemical_formula_sum   'In86 Cu29 Se144'
_cell_volume   7292.32124748
_cell_formula_units_Z   1
loop_
 _symmetry_equiv_pos_site_id
 _symmetry_equiv_pos_as_xyz
  1  'x, y, z'
loop_
 _atom_site_type_symbol
 _atom_site_label
 _atom_site_symmetry_multiplicity
 _atom_site_fract_x
 _atom_site_fract_y
 _atom_site_fract_z
 _atom_site_occupancy
  In  In0  1  -0.01458180  0.15967044  0.11136192  1
  In  In1  1  0.00110329  0.17350195  0.62712393  1
  In  In2  1  0.00688697  0.50292411  0.11758889  1
  In  In3  1  -0.01373736  0.49599637  0.62693885  1
  In  In4  1  -0.00278874  0.83748525  0.12480964  1
  In  In5  1  -0.00563344  0.84269238  0.62390056  1
  In  In6  1  0.34483512  0.16579416  0.11166881  1
  In  In7  1  0.32758075  0.17155652  0.63920730  1
  In  In8  1  0.32697789  0.49444709  0.11949059  1
  In  In9  1  0.33710243  0.48307943  0.62632473  1
  In  In10  1  0.34570893  0.84656356  0.10659048  1
  In  In11  1  0.34703617  0.82830814  0.63118139  1
  In  In12  1  0.66844575  0.16379584  0.11510882  1
  In  In13  1  0.66739409  0.15225212  0.62394547  1
  In  In14  1  0.67701303  0.51244255  0.12321853  1
  In  In15  1  0.67309161  0.50514649  0.61749868  1
  In  In16  1  0.66860893  0.83211947  0.12920260  1
  In  In17  1  0.66601341  0.83068636  0.61783469  1
  In  In18  1  0.16104209  0.01242805  0.37078436  1
  In  In19  1  0.17956046  -0.00305472  0.88944559  1
  In  In20  1  0.17295939  0.32494241  0.37002560  1
  In  In21  1  0.16366760  0.33192782  0.88173585  1
  In  In22  1  0.16429826  0.67853994  0.36730680  1
  In  In23  1  0.15670361  0.67176741  0.88373250  1
  In  In24  1  0.50171920  -0.01539238  0.37531564  1
  In  In25  1  0.46577482  0.03229103  0.92658579  1
  In  In26  1  0.50058500  0.34153135  0.37144586  1
  In  In27  1  0.48926660  0.34437053  0.87826752  1
  In  In28  1  0.51363067  0.66326697  0.37424140  1
  In  In29  1  0.49680457  0.66688618  0.88218763  1
  In  In30  1  0.83018252  -0.00041858  0.36840309  1
  In  In31  1  0.82570456  -0.00331810  0.88850685  1
  In  In32  1  0.82918413  0.33684477  0.38177844  1
  In  In33  1  0.83558842  0.33250180  0.88012783  1
  In  In34  1  0.83329109  0.66572880  0.36988321  1
  In  In35  1  0.83186912  0.66583261  0.88427786  1
  In  In36  1  -0.00487236  0.15492669  0.36591261  1
  In  In37  1  -0.00641308  0.18587227  0.89042695  1
  In  In38  1  -0.01470129  0.49856894  0.36931536  1
  In  In39  1  -0.00154761  0.48964822  0.88861993  1
  In  In40  1  -0.01872407  0.81441734  0.35468165  1
  In  In41  1  -0.00174781  0.83137016  0.88202764  1
  In  In42  1  0.32770271  0.16962883  0.37071566  1
  In  In43  1  0.32332873  0.17207644  0.88124377  1
  In  In44  1  0.34718752  0.49890037  0.37318431  1
  In  In45  1  0.33806889  0.49210728  0.87589255  1
  In  In46  1  0.34101842  0.84429011  0.37657891  1
  In  In47  1  0.31493382  0.85583927  0.89742777  1
  In  In48  1  0.68171955  0.17320920  0.37012412  1
  In  In49  1  0.65601229  0.15509994  0.89253240  1
  In  In50  1  0.66663930  0.50449589  0.37395857  1
  In  In51  1  0.67114768  0.49437698  0.88446899  1
  In  In52  1  0.66889910  0.83356542  0.36985678  1
  In  In53  1  0.65967845  0.84283537  0.89040082  1
  In  In54  1  0.16175842  -0.01303997  0.10861544  1
  In  In55  1  0.16500778  0.01221361  0.63423205  1
  In  In56  1  0.17149308  0.34217300  0.11370805  1
  In  In57  1  0.16803340  0.32760097  0.63695351  1
  In  In58  1  0.16107392  0.66459497  0.11906838  1
  In  In59  1  0.17172775  0.66752172  0.62569992  1
  In  In60  1  0.52398969  0.00829204  0.10460399  1
  In  In61  1  0.50294110  -0.00981406  0.63033864  1
  In  In62  1  0.49270766  0.32556779  0.11845097  1
  In  In63  1  0.48592791  0.33591811  0.62887182  1
  In  In64  1  0.51526869  0.67567790  0.12184496  1
  In  In65  1  0.51122357  0.67143643  0.61813475  1
  In  In66  1  0.83031441  0.00286771  0.12246700  1
  In  In67  1  0.83594048  -0.00285235  0.61508346  1
  In  In68  1  0.84390376  0.33882701  0.11031673  1
  In  In69  1  0.84182797  0.33979252  0.62017364  1
  In  In70  1  0.83036854  0.66551937  0.13447146  1
  In  In71  1  0.83016403  0.66350549  0.61525246  1
  In  In72  1  0.66291912  -0.00214533  0.75754842  1
  In  In73  1  0.00122300  0.33520527  0.23375654  1
  In  In74  1  0.16808932  0.49789123  0.50016105  1
  In  In75  1  0.16475078  0.83787609  0.49845450  1
  In  In76  1  0.33189568  0.66516220  0.74835459  1
  In  In77  1  0.00159996  0.66287295  0.76147428  1
  In  In78  1  0.50238042  0.16931102  0.50007622  1
  In  In79  1  0.16605034  0.16830823  0.50767836  1
  In  In80  1  0.66974352  0.66539635  0.74457060  1
  In  In81  1  0.67012267  0.32825869  0.75677385  1
  In  In82  1  0.00586258  0.00525217  0.76203436  1
  In  In83  1  0.66851675  0.33611727  0.25043825  1
  In  In84  1  0.33320442  0.00102980  0.24281234  1
  In  In85  1  0.32819597  0.66614916  0.24301337  1
  Cu  Cu86  1  -0.00583832  0.66489697  0.49303467  1
  Cu  Cu87  1  0.16989409  0.16725159  0.24228820  1
  Cu  Cu88  1  -0.00470896  0.32925812  0.50039461  1
  Cu  Cu89  1  -0.00321635  -0.00042836  -0.00069746  1
  Cu  Cu90  1  0.50313490  0.49773161  0.75158462  1
  Cu  Cu91  1  0.83773822  0.16983252  0.75551278  1
  Cu  Cu92  1  0.32899109  0.65467038  0.00020164  1
  Cu  Cu93  1  0.67152393  0.66117517  0.00785769  1
  Cu  Cu94  1  0.16402469  0.83664312  0.23809606  1
  Cu  Cu95  1  0.50083867  0.15894998  0.23624136  1
  Cu  Cu96  1  0.83019079  0.82785052  0.74999329  1
  Cu  Cu97  1  -0.01018978  -0.00704671  0.49005888  1
  Cu  Cu98  1  0.33364376  0.33647894  -0.00207878  1
  Cu  Cu99  1  0.65810023  0.33106539  0.00080087  1
  Cu  Cu100  1  -0.00668717  0.67188134  0.00569829  1
  Cu  Cu101  1  0.83415474  0.16716034  0.24425037  1
  Cu  Cu102  1  0.48604737  0.16352112  0.76581408  1
  Cu  Cu103  1  0.33984002  -0.00360173  0.50670035  1
  Cu  Cu104  1  0.66929094  0.33391453  0.49739925  1
  Cu  Cu105  1  0.49926802  0.49711664  0.25004265  1
  Cu  Cu106  1  0.16430435  0.49741408  0.23982934  1
  Cu  Cu107  1  0.83361213  0.83858380  0.24665518  1
  Cu  Cu108  1  0.16966951  0.16803757  0.76052320  1
  Cu  Cu109  1  0.66990182  0.67079023  0.49254690  1
  Cu  Cu110  1  0.34818014  0.66736632  0.49907490  1
  Cu  Cu111  1  0.16141762  0.49499977  0.75707656  1
  Cu  Cu112  1  0.50449280  0.83353259  0.24644299  1
  Cu  Cu113  1  0.48971034  0.84209552  0.75796366  1
  Cu  Cu114  1  0.67083045  -0.00213305  0.49572628  1
  Se  Se115  1  0.08245139  0.08334959  0.04896449  1
  Se  Se116  1  0.06975239  0.06933528  0.55559151  1
  Se  Se117  1  0.07102812  0.40600929  0.04927008  1
  Se  Se118  1  0.08104199  0.40468698  0.56035714  1
  Se  Se119  1  0.08132629  0.75494596  0.05506969  1
  Se  Se120  1  0.07498420  0.74136427  0.55698755  1
  Se  Se121  1  0.41851762  0.07316456  0.04459758  1
  Se  Se122  1  0.41235675  0.08393452  0.56576770  1
  Se  Se123  1  0.41736345  0.41814715  0.05251691  1
  Se  Se124  1  0.42531158  0.42152406  0.55311122  1
  Se  Se125  1  0.41263017  0.73515438  0.05528654  1
  Se  Se126  1  0.42291756  0.75529808  0.55451333  1
  Se  Se127  1  0.77050248  0.10118246  0.05267316  1
  Se  Se128  1  0.75119927  0.08219284  0.55052696  1
  Se  Se129  1  0.74035048  0.41350812  0.05511409  1
  Se  Se130  1  0.75298896  0.41614251  0.55261136  1
  Se  Se131  1  0.75185241  0.74699064  0.06135775  1
  Se  Se132  1  0.75163097  0.75245120  0.55021536  1
  Se  Se133  1  0.25419490  0.25088757  0.05143410  1
  Se  Se134  1  0.26040531  0.25959624  0.56046736  1
  Se  Se135  1  0.24124542  0.57625757  0.05325823  1
  Se  Se136  1  0.26332119  0.59046458  0.55773679  1
  Se  Se137  1  0.25379884  0.91731961  0.04047579  1
  Se  Se138  1  0.25182661  0.92305303  0.56532634  1
  Se  Se139  1  0.57653198  0.24303717  0.05089495  1
  Se  Se140  1  0.59190002  0.25740122  0.56296726  1
  Se  Se141  1  0.58069603  0.57797809  0.05440259  1
  Se  Se142  1  0.58938663  0.58660157  0.54993097  1
  Se  Se143  1  0.56257718  0.88149309  0.06037546  1
  Se  Se144  1  0.58564565  0.92232954  0.55475446  1
  Se  Se145  1  0.92704472  0.25982701  0.04300788  1
  Se  Se146  1  0.91570425  0.24351006  0.55457093  1
  Se  Se147  1  0.91297203  0.58791922  0.06023081  1
  Se  Se148  1  0.91878189  0.58030182  0.55181641  1
  Se  Se149  1  0.91430901  0.91759987  0.05475558  1
  Se  Se150  1  0.91248489  0.90812868  0.54726335  1
  Se  Se151  1  0.07606639  0.25074281  0.43946182  1
  Se  Se152  1  0.07731767  0.26648643  0.95870314  1
  Se  Se153  1  0.08272749  0.58970437  0.43735005  1
  Se  Se154  1  0.07477868  0.58777179  0.94997474  1
  Se  Se155  1  0.07602018  0.91798911  0.43134523  1
  Se  Se156  1  0.08122190  0.91589989  0.94736503  1
  Se  Se157  1  0.41011689  0.25550461  0.44007056  1
  Se  Se158  1  0.41730156  0.25235310  0.94549624  1
  Se  Se159  1  0.42438201  0.58401733  0.44137398  1
  Se  Se160  1  0.41612800  0.57692777  0.94560943  1
  Se  Se161  1  0.42151649  0.91454837  0.45241644  1
  Se  Se162  1  0.44031926  0.89000198  0.94610932  1
  Se  Se163  1  0.75287041  0.24687095  0.44893324  1
  Se  Se164  1  0.74194994  0.25256887  0.94394972  1
  Se  Se165  1  0.75242535  0.58422567  0.44197274  1
  Se  Se166  1  0.75237095  0.57929925  0.95139010  1
  Se  Se167  1  0.75174131  0.91624028  0.43972067  1
  Se  Se168  1  0.76147895  0.90142098  0.95528312  1
  Se  Se169  1  0.25856898  0.07501315  0.44609297  1
  Se  Se170  1  0.24344311  0.09519411  0.95461858  1
  Se  Se171  1  0.25726860  0.40945971  0.43962817  1
  Se  Se172  1  0.24930916  0.42060754  0.94585042  1
  Se  Se173  1  0.26069284  0.74412206  0.44191161  1
  Se  Se174  1  0.24805267  0.74461150  0.95096363  1
  Se  Se175  1  0.58996105  0.08048263  0.43706448  1
  Se  Se176  1  0.60435774  0.05332914  0.95997985  1
  Se  Se177  1  0.58784390  0.41428859  0.44087042  1
  Se  Se178  1  0.57783058  0.41841007  0.94776493  1
  Se  Se179  1  0.58433310  0.75539626  0.44239107  1
  Se  Se180  1  0.58958624  0.73879948  0.94875557  1
  Se  Se181  1  0.91249312  0.08411224  0.43953418  1
  Se  Se182  1  0.91481912  0.08462643  0.94646405  1
  Se  Se183  1  0.91831646  0.41756756  0.44701884  1
  Se  Se184  1  0.89450733  0.42825878  0.95101864  1
  Se  Se185  1  0.91520176  0.75155669  0.44043410  1
  Se  Se186  1  0.91174461  0.75372967  0.94978311  1
  Se  Se187  1  0.25271052  0.24866698  0.29643586  1
  Se  Se188  1  0.25047070  0.25826051  0.80865680  1
  Se  Se189  1  0.24230212  0.57368457  0.30720411  1
  Se  Se190  1  0.23943195  0.58173273  0.81230774  1
  Se  Se191  1  0.24172019  0.91075045  0.30579829  1
  Se  Se192  1  0.25036905  0.91995923  0.81210727  1
  Se  Se193  1  0.57439903  0.23949078  0.30401483  1
  Se  Se194  1  0.57771785  0.24104054  0.81714794  1
  Se  Se195  1  0.58464540  0.58036966  0.30021355  1
  Se  Se196  1  0.58191329  0.57871187  0.80956643  1
  Se  Se197  1  0.58562363  0.91861260  0.30061566  1
  Se  Se198  1  0.57232275  0.91628374  0.81847912  1
  Se  Se199  1  0.91118547  0.25251981  0.30377191  1
  Se  Se200  1  0.91787523  0.25293382  0.80871717  1
  Se  Se201  1  0.92932076  0.59670171  0.30245313  1
  Se  Se202  1  0.90868079  0.57450147  0.81413986  1
  Se  Se203  1  0.91929395  0.92394013  0.29810661  1
  Se  Se204  1  0.90639098  0.91127743  0.81000100  1
  Se  Se205  1  0.08460038  0.08560795  0.29473094  1
  Se  Se206  1  0.08807490  0.09595647  0.82419366  1
  Se  Se207  1  0.08842611  0.41806173  0.30608587  1
  Se  Se208  1  0.07899999  0.41628372  0.81291295  1
  Se  Se209  1  0.08576762  0.74944790  0.29216600  1
  Se  Se210  1  0.09182087  0.76396286  0.80702848  1
  Se  Se211  1  0.42509341  0.08674198  0.30780543  1
  Se  Se212  1  0.41764782  0.07910205  0.82696006  1
  Se  Se213  1  0.41384691  0.41213640  0.29843109  1
  Se  Se214  1  0.41446771  0.41616323  0.79904537  1
  Se  Se215  1  0.41841674  0.75591828  0.30555026  1
  Se  Se216  1  0.41500760  0.75268603  0.81284943  1
  Se  Se217  1  0.74943856  0.08553327  0.29820222  1
  Se  Se218  1  0.75536050  0.09060365  0.81341317  1
  Se  Se219  1  0.76233854  0.42507289  0.30604190  1
  Se  Se220  1  0.75742967  0.42611595  0.80743705  1
  Se  Se221  1  0.75296636  0.75272400  0.30167556  1
  Se  Se222  1  0.74886941  0.75493632  0.81250149  1
  Se  Se223  1  0.24587582  0.08601253  0.17962797  1
  Se  Se224  1  0.25025432  0.08291128  0.70642434  1
  Se  Se225  1  0.24966491  0.41264650  0.19247663  1
  Se  Se226  1  0.24867188  0.41885483  0.70010382  1
  Se  Se227  1  0.25211441  0.76423577  0.18052534  1
  Se  Se228  1  0.23949801  0.76232286  0.69468767  1
  Se  Se229  1  0.58973887  0.08062534  0.18740090  1
  Se  Se230  1  0.56988807  0.09326537  0.70029314  1
  Se  Se231  1  0.57702937  0.41785310  0.18678966  1
  Se  Se232  1  0.58647411  0.42123846  0.69069064  1
  Se  Se233  1  0.58959027  0.74542994  0.20121164  1
  Se  Se234  1  0.57397818  0.76533752  0.69665292  1
  Se  Se235  1  0.91810960  0.08426009  0.19200546  1
  Se  Se236  1  0.91035005  0.08310841  0.69419947  1
  Se  Se237  1  0.90623571  0.43000194  0.18805366  1
  Se  Se238  1  0.92613954  0.40230901  0.69669028  1
  Se  Se239  1  0.91854882  0.75440168  0.19597511  1
  Se  Se240  1  0.91245526  0.74973863  0.69173467  1
  Se  Se241  1  0.08909068  0.24089480  0.17858707  1
  Se  Se242  1  0.08360751  0.24300688  0.70187159  1
  Se  Se243  1  0.08252072  0.58448910  0.19218881  1
  Se  Se244  1  0.08974572  0.57622807  0.69131630  1
  Se  Se245  1  0.08301172  0.92534691  0.19031382  1
  Se  Se246  1  0.08652664  0.91140640  0.69574958  1
  Se  Se247  1  0.41412993  0.24331782  0.19082726  1
  Se  Se248  1  0.41770896  0.25063569  0.70367276  1
  Se  Se249  1  0.42243546  0.57813590  0.18703909  1
  Se  Se250  1  0.42937900  0.58116153  0.68865752  1
  Se  Se251  1  0.42894574  0.91644741  0.18599417  1
  Se  Se252  1  0.41055049  0.92412674  0.70110694  1
  Se  Se253  1  0.75859405  0.25278014  0.18533064  1
  Se  Se254  1  0.75399071  0.23894480  0.69054929  1
  Se  Se255  1  0.74429832  0.58527950  0.20253700  1
  Se  Se256  1  0.76493870  0.57325571  0.69303998  1
  Se  Se257  1  0.74942128  0.92138504  0.19429621  1
  Se  Se258  1  0.75383806  0.91235532  0.69085569  1
