# generated using pymatgen
data_In86Cu29Se144
_symmetry_space_group_name_H-M   'P 1'
_cell_length_a   17.75544227
_cell_length_b   17.76542293
_cell_length_c   23.60960603
_cell_angle_alpha   90.04998437
_cell_angle_beta   90.04166875
_cell_angle_gamma   90.04464712
_symmetry_Int_Tables_number   1
_chemical_formula_structural   In86Cu29Se144
_chemical_formula_sum   'In86 Cu29 Se144'
_cell_volume   7447.24040392
_cell_formula_units_Z   1
loop_
 _symmetry_equiv_pos_site_id
 _symmetry_equiv_pos_as_xyz
  1  'x, y, z'
loop_
 _atom_site_type_symbol
 _atom_site_label
 _atom_site_symmetry_multiplicity
 _atom_site_fract_x
 _atom_site_fract_y
 _atom_site_fract_z
 _atom_site_occupancy
  In  In0  1  0.00080297  0.16626978  0.12005383  1
  In  In1  1  0.01132132  0.17045910  0.62505145  1
  In  In2  1  0.00743087  0.47723653  0.11255743  1
  In  In3  1  -0.01260750  0.49814737  0.62807497  1
  In  In4  1  0.00767006  0.84199240  0.12138197  1
  In  In5  1  0.01429189  0.84062847  0.63060848  1
  In  In6  1  0.32877332  0.17099665  0.11431329  1
  In  In7  1  0.33961163  0.17196638  0.63432523  1
  In  In8  1  0.33618094  0.49980871  0.12089648  1
  In  In9  1  0.34423794  0.49237493  0.62973395  1
  In  In10  1  0.33372832  0.84072863  0.13445297  1
  In  In11  1  0.37344692  0.77566265  0.67017305  1
  In  In12  1  0.68536713  0.18822136  0.10120224  1
  In  In13  1  0.65896536  0.17037580  0.63577283  1
  In  In14  1  0.66063480  0.50683672  0.12862388  1
  In  In15  1  0.67201174  0.50322426  0.62060455  1
  In  In16  1  0.66607583  0.81695212  0.12387729  1
  In  In17  1  0.64070394  0.83886815  0.65222160  1
  In  In18  1  0.17157014  0.00520713  0.35991416  1
  In  In19  1  0.15398773  0.00956104  0.89016773  1
  In  In20  1  0.16718471  0.32930184  0.36190835  1
  In  In21  1  0.17330522  0.33725045  0.88419775  1
  In  In22  1  0.17798333  0.65249081  0.36728682  1
  In  In23  1  0.17471596  0.66018910  0.87912902  1
  In  In24  1  0.48604687  0.00348412  0.37521160  1
  In  In25  1  0.51441936  -0.00338779  0.86589963  1
  In  In26  1  0.50717595  0.34203478  0.36549729  1
  In  In27  1  0.47248049  0.37328645  0.94440012  1
  In  In28  1  0.50067931  0.66254339  0.37776785  1
  In  In29  1  0.48482404  0.66737789  0.85498847  1
  In  In30  1  0.83296230  -0.00919008  0.36847492  1
  In  In31  1  0.81127833  0.01793645  0.88926283  1
  In  In32  1  0.84035746  0.34159618  0.36616083  1
  In  In33  1  0.82783309  0.31941020  0.87856043  1
  In  In34  1  0.81746836  0.66361309  0.37022760  1
  In  In35  1  0.83044232  0.66998102  0.87603029  1
  In  In36  1  0.00386709  0.17110177  0.35879616  1
  In  In37  1  0.00297641  0.18209217  0.89900460  1
  In  In38  1  0.00221714  0.48710075  0.36980555  1
  In  In39  1  0.01428793  0.49015453  0.88170711  1
  In  In40  1  -0.00634805  0.83741222  0.36592530  1
  In  In41  1  -0.00568679  0.83735690  0.88317277  1
  In  In42  1  0.33410795  0.16664055  0.36210640  1
  In  In43  1  0.32782345  0.19462087  0.90540845  1
  In  In44  1  0.34479426  0.50705955  0.36615245  1
  In  In45  1  0.32873269  0.50577631  0.88443977  1
  In  In46  1  0.34066138  0.83857333  0.37059714  1
  In  In47  1  0.33189968  0.82427273  0.87076320  1
  In  In48  1  0.65248290  0.16861112  0.37002344  1
  In  In49  1  0.66426124  0.16831487  0.88343450  1
  In  In50  1  0.66602423  0.49986526  0.37462307  1
  In  In51  1  0.58090373  0.48299035  0.86060755  1
  In  In52  1  0.66608133  0.81878686  0.37589834  1
  In  In53  1  0.66737042  0.83869510  0.86328661  1
  In  In54  1  0.17063566  -0.00196029  0.12338029  1
  In  In55  1  0.16979373  -0.00688678  0.63158033  1
  In  In56  1  0.16823884  0.33148299  0.11353446  1
  In  In57  1  0.16713755  0.33852393  0.63643128  1
  In  In58  1  0.17742533  0.67547436  0.11979253  1
  In  In59  1  0.17869786  0.66211241  0.63144569  1
  In  In60  1  0.49094463  0.00403634  0.13059372  1
  In  In61  1  0.50333030  0.00336670  0.62999189  1
  In  In62  1  0.50089482  0.33529472  0.12039550  1
  In  In63  1  0.49407712  0.33341813  0.62577760  1
  In  In64  1  0.50442365  0.66256421  0.13179119  1
  In  In65  1  0.50639359  0.65946565  0.61525651  1
  In  In66  1  0.84394247  0.01033895  0.11850358  1
  In  In67  1  0.82831000  -0.01674365  0.62334293  1
  In  In68  1  0.84632604  0.32819248  0.13036057  1
  In  In69  1  0.82658684  0.34345744  0.62944777  1
  In  In70  1  0.82026572  0.65930630  0.12114068  1
  In  In71  1  0.82839918  0.65692799  0.62237729  1
  In  In72  1  0.00677391  0.66530327  0.24145416  1
  In  In73  1  0.49788215  0.16918375  0.49978500  1
  In  In74  1  0.83035259  0.16522138  0.49960529  1
  In  In75  1  0.82839455  0.82245265  0.50158593  1
  In  In76  1  0.66308091  0.00395594  0.24511602  1
  In  In77  1  0.82801780  0.49858874  -0.00697896  1
  In  In78  1  0.16848461  0.83208821  0.50168172  1
  In  In79  1  0.16857867  0.17139307  0.49629794  1
  In  In80  1  -0.00568813  0.66254149  0.74813916  1
  In  In81  1  -0.02447204  0.03870765  0.77469531  1
  In  In82  1  0.16599409  0.49566285  0.49294334  1
  In  In83  1  0.50586931  0.82951455  -0.00717746  1
  In  In84  1  0.66746702  0.32979406  0.75617755  1
  In  In85  1  0.32638889  0.01269441  0.76174927  1
  Cu  Cu86  1  0.16882871  0.16835024  0.23602282  1
  Cu  Cu87  1  0.17461339  0.49649447  0.76046139  1
  Cu  Cu88  1  0.33640384  0.33611434  0.50007910  1
  Cu  Cu89  1  0.83224530  0.16924604  0.23892588  1
  Cu  Cu90  1  0.66678234  -0.01222705  -0.00203803  1
  Cu  Cu91  1  0.17111443  0.48943688  0.23966199  1
  Cu  Cu92  1  -0.00453946  0.66431791  0.50220085  1
  Cu  Cu93  1  0.00122739  0.00100910  0.49172053  1
  Cu  Cu94  1  0.83199637  0.50065656  0.24472797  1
  Cu  Cu95  1  0.33701165  0.67669271  -0.00110372  1
  Cu  Cu96  1  0.66378443  0.66398544  0.49912632  1
  Cu  Cu97  1  0.17405552  0.83291760  0.24343955  1
  Cu  Cu98  1  0.49768613  0.49670614  0.24811189  1
  Cu  Cu99  1  0.33495034  -0.01080516  0.00525637  1
  Cu  Cu100  1  0.33057645  -0.00895583  0.49897791  1
  Cu  Cu101  1  0.14882062  0.84476921  0.75602688  1
  Cu  Cu102  1  0.83669275  0.83829754  0.24549778  1
  Cu  Cu103  1  -0.00811992  0.33967783  0.49663319  1
  Cu  Cu104  1  0.83534423  0.48737757  0.75337351  1
  Cu  Cu105  1  -0.00494305  0.67233539  0.00137118  1
  Cu  Cu106  1  0.49677846  0.17565547  0.75755504  1
  Cu  Cu107  1  0.50004532  0.17257607  0.24020637  1
  Cu  Cu108  1  0.83251585  0.83723326  0.75072560  1
  Cu  Cu109  1  0.66371988  0.66284978  -0.00309850  1
  Cu  Cu110  1  -0.00138404  -0.01186333  0.00518020  1
  Cu  Cu111  1  0.50383902  0.82731428  0.25327510  1
  Cu  Cu112  1  0.65991307  -0.01069190  0.50998252  1
  Cu  Cu113  1  0.67244983  0.33929317  0.49609069  1
  Cu  Cu114  1  0.33963300  0.66885361  0.50218835  1
  Se  Se115  1  0.08064738  0.07365960  0.05673065  1
  Se  Se116  1  0.08304426  0.07324744  0.55406859  1
  Se  Se117  1  0.11127998  0.43299072  0.04308285  1
  Se  Se118  1  0.07764067  0.41133485  0.55825171  1
  Se  Se119  1  0.08153632  0.74870457  0.05657607  1
  Se  Se120  1  0.07800423  0.73812522  0.56141161  1
  Se  Se121  1  0.41452398  0.07628383  0.05575961  1
  Se  Se122  1  0.40496130  0.07979311  0.55773863  1
  Se  Se123  1  0.42207148  0.42067441  0.04992935  1
  Se  Se124  1  0.41960825  0.41656212  0.55369929  1
  Se  Se125  1  0.41808028  0.75085653  0.06152121  1
  Se  Se126  1  0.41153708  0.75189302  0.56314280  1
  Se  Se127  1  0.74816308  0.07421641  0.04991558  1
  Se  Se128  1  0.73901999  0.07706022  0.56192249  1
  Se  Se129  1  0.75412006  0.41902664  0.06897220  1
  Se  Se130  1  0.75451730  0.41732256  0.55298508  1
  Se  Se131  1  0.74746969  0.74488504  0.04960748  1
  Se  Se132  1  0.73516522  0.74590330  0.56435078  1
  Se  Se133  1  0.23438724  0.23623241  0.04351200  1
  Se  Se134  1  0.25729373  0.25771673  0.56002904  1
  Se  Se135  1  0.25978119  0.59134351  0.05417544  1
  Se  Se136  1  0.25449912  0.58386009  0.55461192  1
  Se  Se137  1  0.25253619  0.90794714  0.05830244  1
  Se  Se138  1  0.25603700  0.91606494  0.56347125  1
  Se  Se139  1  0.56577679  0.23789489  0.05088865  1
  Se  Se140  1  0.59400427  0.25791107  0.55649375  1
  Se  Se141  1  0.58200266  0.58735289  0.05654666  1
  Se  Se142  1  0.58491123  0.57332597  0.54828428  1
  Se  Se143  1  0.58557635  0.91745489  0.06287837  1
  Se  Se144  1  0.57990599  0.91054644  0.56607724  1
  Se  Se145  1  0.91056915  0.24382827  0.05581595  1
  Se  Se146  1  0.92084821  0.25507183  0.55791533  1
  Se  Se147  1  0.92219191  0.58381230  0.05917949  1
  Se  Se148  1  0.91560469  0.58028525  0.55447209  1
  Se  Se149  1  0.91014929  0.90907595  0.05577080  1
  Se  Se150  1  0.92866067  0.91686283  0.55270597  1
  Se  Se151  1  0.07313415  0.25920528  0.43833354  1
  Se  Se152  1  0.11188670  0.24249016  0.95765769  1
  Se  Se153  1  0.07504641  0.59112703  0.43725491  1
  Se  Se154  1  0.07592754  0.59429257  0.94335886  1
  Se  Se155  1  0.08283336  0.92099633  0.43439643  1
  Se  Se156  1  0.08461173  0.90934841  0.95135885  1
  Se  Se157  1  0.41019495  0.25462365  0.43657076  1
  Se  Se158  1  0.44960002  0.23019484  0.96009381  1
  Se  Se159  1  0.41376308  0.58173510  0.44533203  1
  Se  Se160  1  0.41815586  0.60052849  0.93932980  1
  Se  Se161  1  0.41816363  0.91447979  0.44633553  1
  Se  Se162  1  0.41313140  0.91876718  0.93662236  1
  Se  Se163  1  0.74371692  0.25267893  0.43626274  1
  Se  Se164  1  0.74622725  0.24882631  0.95222885  1
  Se  Se165  1  0.74843618  0.58389825  0.44486203  1
  Se  Se166  1  0.73780348  0.58332904  0.93366055  1
  Se  Se167  1  0.74326128  0.92154856  0.44410219  1
  Se  Se168  1  0.74669630  0.90606243  0.94236662  1
  Se  Se169  1  0.25772381  0.07651012  0.43880880  1
  Se  Se170  1  0.26210240  0.07432392  0.94662148  1
  Se  Se171  1  0.25648143  0.40718242  0.43437952  1
  Se  Se172  1  0.23056325  0.44140804  0.95185876  1
  Se  Se173  1  0.25451655  0.74023509  0.44000886  1
  Se  Se174  1  0.25046215  0.75316599  0.94429481  1
  Se  Se175  1  0.58945718  0.07238643  0.44491507  1
  Se  Se176  1  0.58516706  0.06971871  0.94440201  1
  Se  Se177  1  0.58393955  0.41366661  0.44211148  1
  Se  Se178  1  0.61195235  0.41772466  0.95329685  1
  Se  Se179  1  0.58158272  0.74867615  0.44713076  1
  Se  Se180  1  0.58809525  0.73949873  0.93079505  1
  Se  Se181  1  0.92168510  0.08027168  0.43434998  1
  Se  Se182  1  0.92542836  0.07178922  0.94540486  1
  Se  Se183  1  0.91274243  0.42181421  0.44211161  1
  Se  Se184  1  0.92337016  0.40563356  0.94390012  1
  Se  Se185  1  0.92284754  0.74274754  0.43707837  1
  Se  Se186  1  0.91128846  0.74959685  0.94621244  1
  Se  Se187  1  0.24986163  0.24711218  0.29620327  1
  Se  Se188  1  0.27273692  0.26659291  0.82176340  1
  Se  Se189  1  0.25162312  0.57358917  0.29509082  1
  Se  Se190  1  0.25632501  0.58571573  0.80650173  1
  Se  Se191  1  0.25480954  0.91504647  0.30127687  1
  Se  Se192  1  0.23390231  0.91734359  0.81591798  1
  Se  Se193  1  0.58237081  0.25129884  0.29816496  1
  Se  Se194  1  0.57456882  0.25310434  0.81876151  1
  Se  Se195  1  0.57820459  0.57823917  0.30730706  1
  Se  Se196  1  0.58785241  0.59816751  0.79613530  1
  Se  Se197  1  0.58084731  0.91403821  0.31223543  1
  Se  Se198  1  0.57216722  0.90300083  0.79489496  1
  Se  Se199  1  0.91270271  0.25095403  0.29825958  1
  Se  Se200  1  0.91888926  0.23653090  0.81888104  1
  Se  Se201  1  0.91419740  0.58098750  0.30583154  1
  Se  Se202  1  0.91521734  0.57067570  0.81268420  1
  Se  Se203  1  0.91942671  0.92232141  0.29617942  1
  Se  Se204  1  0.90761745  0.91646538  0.81260908  1
  Se  Se205  1  0.08763411  0.08730121  0.29511026  1
  Se  Se206  1  0.09261617  0.10430383  0.81826779  1
  Se  Se207  1  0.08511358  0.41564161  0.29752124  1
  Se  Se208  1  0.09048624  0.41220743  0.80893218  1
  Se  Se209  1  0.09483102  0.75456461  0.30711414  1
  Se  Se210  1  0.07908397  0.75248035  0.81096245  1
  Se  Se211  1  0.42365708  0.08705513  0.29834131  1
  Se  Se212  1  0.42014771  0.09616374  0.81973234  1
  Se  Se213  1  0.41341248  0.41218082  0.29951286  1
  Se  Se214  1  0.44259579  0.42491840  0.83957495  1
  Se  Se215  1  0.42020831  0.74745454  0.30859976  1
  Se  Se216  1  0.41304286  0.76449070  0.79154027  1
  Se  Se217  1  0.75631708  0.09314353  0.30663665  1
  Se  Se218  1  0.74229385  0.08765943  0.81080176  1
  Se  Se219  1  0.75059877  0.42172163  0.30350262  1
  Se  Se220  1  0.75219193  0.42011088  0.81728639  1
  Se  Se221  1  0.75432863  0.75783340  0.30103003  1
  Se  Se222  1  0.75497074  0.74953117  0.80246052  1
  Se  Se223  1  0.25481921  0.08486763  0.18748391  1
  Se  Se224  1  0.23731723  0.09740156  0.69432306  1
  Se  Se225  1  0.25315336  0.41067376  0.18389746  1
  Se  Se226  1  0.25603643  0.41980210  0.69889838  1
  Se  Se227  1  0.25667686  0.74550024  0.19685146  1
  Se  Se228  1  0.22758486  0.77330389  0.69094073  1
  Se  Se229  1  0.58691609  0.09794233  0.18175023  1
  Se  Se230  1  0.57406969  0.09054092  0.70099433  1
  Se  Se231  1  0.57984667  0.41690925  0.19204012  1
  Se  Se232  1  0.58316396  0.41924107  0.68911625  1
  Se  Se233  1  0.58678377  0.74720841  0.19960763  1
  Se  Se234  1  0.59634661  0.71375712  0.69372425  1
  Se  Se235  1  0.91928050  0.08528165  0.19349481  1
  Se  Se236  1  0.90853513  0.08614221  0.68012832  1
  Se  Se237  1  0.92168209  0.42407527  0.19302640  1
  Se  Se238  1  0.92030878  0.40921610  0.69932480  1
  Se  Se239  1  0.91038005  0.75210221  0.18632025  1
  Se  Se240  1  0.91100121  0.76029751  0.68736964  1
  Se  Se241  1  0.08594127  0.25222103  0.18503511  1
  Se  Se242  1  0.08661764  0.24851534  0.69536330  1
  Se  Se243  1  0.09167475  0.57346116  0.18205899  1
  Se  Se244  1  0.09246085  0.57029904  0.69466055  1
  Se  Se245  1  0.08853552  0.91558081  0.19457594  1
  Se  Se246  1  0.07001832  0.93600596  0.70548507  1
  Se  Se247  1  0.41479854  0.24930298  0.18466630  1
  Se  Se248  1  0.41758641  0.25781147  0.70079416  1
  Se  Se249  1  0.41628853  0.57947856  0.19370256  1
  Se  Se250  1  0.39186117  0.61089314  0.68171129  1
  Se  Se251  1  0.42455020  0.91440647  0.20181907  1
  Se  Se252  1  0.39946230  0.92915172  0.68741203  1
  Se  Se253  1  0.74616223  0.25098647  0.18978572  1
  Se  Se254  1  0.76137130  0.24150440  0.69539881  1
  Se  Se255  1  0.74695928  0.58630970  0.19815227  1
  Se  Se256  1  0.75956591  0.57122171  0.69476490  1
  Se  Se257  1  0.75233079  0.91376695  0.18588822  1
  Se  Se258  1  0.74679701  0.91931172  0.69964251  1
