# generated using pymatgen
data_In86Cu29Se144
_symmetry_space_group_name_H-M   'P 1'
_cell_length_a   17.59175726
_cell_length_b   17.59438092
_cell_length_c   23.45518705
_cell_angle_alpha   89.98158297
_cell_angle_beta   89.99535150
_cell_angle_gamma   90.00636773
_symmetry_Int_Tables_number   1
_chemical_formula_structural   In86Cu29Se144
_chemical_formula_sum   'In86 Cu29 Se144'
_cell_volume   7259.75706753
_cell_formula_units_Z   1
loop_
 _symmetry_equiv_pos_site_id
 _symmetry_equiv_pos_as_xyz
  1  'x, y, z'
loop_
 _atom_site_type_symbol
 _atom_site_label
 _atom_site_symmetry_multiplicity
 _atom_site_fract_x
 _atom_site_fract_y
 _atom_site_fract_z
 _atom_site_occupancy
  In  In0  1  -0.00576861  0.16127253  0.10820089  1
  In  In1  1  -0.00545694  0.16586840  0.63905777  1
  In  In2  1  0.00695843  0.50241138  0.11833460  1
  In  In3  1  -0.02115926  0.51871847  0.65367441  1
  In  In4  1  0.00393763  0.82975966  0.12043480  1
  In  In5  1  -0.00904279  0.84028111  0.63355342  1
  In  In6  1  0.33183338  0.16396078  0.11995776  1
  In  In7  1  0.33073866  0.17142465  0.63674711  1
  In  In8  1  0.31870532  0.48186367  0.12289976  1
  In  In9  1  0.32893471  0.49964560  0.63159725  1
  In  In10  1  0.33024214  0.84625165  0.12818383  1
  In  In11  1  0.33830917  0.83844256  0.62061908  1
  In  In12  1  0.65828350  0.16505683  0.11368721  1
  In  In13  1  0.67598061  0.17096569  0.62936563  1
  In  In14  1  0.67135857  0.51036864  0.12229520  1
  In  In15  1  0.66497594  0.49023932  0.62984032  1
  In  In16  1  0.67707061  0.82532540  0.13205365  1
  In  In17  1  0.66604635  0.83832445  0.61343319  1
  In  In18  1  0.16924205  0.00040817  0.36159082  1
  In  In19  1  0.16659693  0.00106009  0.87773523  1
  In  In20  1  0.16637670  0.32271554  0.36756886  1
  In  In21  1  0.16400721  0.32798046  0.88207057  1
  In  In22  1  0.16350574  0.67519468  0.36632337  1
  In  In23  1  0.14208731  0.68359407  0.89943657  1
  In  In24  1  0.49971387  -0.00766857  0.37142241  1
  In  In25  1  0.50050232  0.01782635  0.87629422  1
  In  In26  1  0.49450058  0.34770571  0.36981065  1
  In  In27  1  0.49753692  0.33827058  0.87960406  1
  In  In28  1  0.52127002  0.66827188  0.36828029  1
  In  In29  1  0.48599503  0.66216372  0.87875233  1
  In  In30  1  0.81765455  -0.01969188  0.35616947  1
  In  In31  1  0.83581914  -0.00781085  0.88105211  1
  In  In32  1  0.84827945  0.33965953  0.37762618  1
  In  In33  1  0.82793100  0.32681666  0.86829950  1
  In  In34  1  0.83692916  0.67116642  0.37506672  1
  In  In35  1  0.86945783  0.65462990  0.88321419  1
  In  In36  1  0.00746291  0.16879183  0.37031472  1
  In  In37  1  0.00248229  0.16328390  0.88165996  1
  In  In38  1  -0.01612800  0.49875884  0.37745529  1
  In  In39  1  0.00702663  0.50737591  0.86974368  1
  In  In40  1  -0.01077619  0.82305183  0.36458955  1
  In  In41  1  -0.00386182  0.83725254  0.87689689  1
  In  In42  1  0.33296372  0.16094958  0.36376990  1
  In  In43  1  0.33126347  0.16894066  0.87624031  1
  In  In44  1  0.33925970  0.49676171  0.36556028  1
  In  In45  1  0.33595297  0.49452501  0.88303822  1
  In  In46  1  0.33892485  0.85330749  0.36986081  1
  In  In47  1  0.31690921  0.82992933  0.87499492  1
  In  In48  1  0.67605318  0.16089143  0.36919899  1
  In  In49  1  0.65339825  0.18758710  0.89801672  1
  In  In50  1  0.66940379  0.51256102  0.37219540  1
  In  In51  1  0.67879527  0.46261311  0.88229941  1
  In  In52  1  0.67425409  0.83575491  0.37535003  1
  In  In53  1  0.67403037  0.84500206  0.87681204  1
  In  In54  1  0.16758609  -0.00111160  0.11900938  1
  In  In55  1  0.16196268  0.00248127  0.63420045  1
  In  In56  1  0.17297331  0.34315127  0.10885233  1
  In  In57  1  0.16252923  0.33699182  0.64266281  1
  In  In58  1  0.14450464  0.64789749  0.10762206  1
  In  In59  1  0.16468054  0.65549317  0.62853316  1
  In  In60  1  0.49200181  0.00867951  0.13211308  1
  In  In61  1  0.49305590  -0.00528254  0.62202988  1
  In  In62  1  0.49102841  0.31272652  0.10756058  1
  In  In63  1  0.50044142  0.33150275  0.63779047  1
  In  In64  1  0.51741131  0.66697996  0.12379573  1
  In  In65  1  0.49390553  0.67699875  0.62249848  1
  In  In66  1  0.83810014  -0.00137589  0.12513851  1
  In  In67  1  0.83513612  -0.00253596  0.62472931  1
  In  In68  1  0.84487423  0.33047414  0.11199604  1
  In  In69  1  0.82291138  0.34650889  0.64573222  1
  In  In70  1  0.82631521  0.67382741  0.12692830  1
  In  In71  1  0.83671457  0.67746792  0.62252200  1
  In  In72  1  0.32502485  0.66468453  0.24563577  1
  In  In73  1  0.66273786  0.33090748  0.24014532  1
  In  In74  1  0.83609166  0.49628941  -0.00157747  1
  In  In75  1  0.66878042  0.00786288  0.74790980  1
  In  In76  1  0.50055409  0.83426449  0.00705847  1
  In  In77  1  0.00854560  0.33886080  0.23551888  1
  In  In78  1  0.16529953  0.16679848  0.49624350  1
  In  In79  1  0.50824321  0.50631318  0.50185347  1
  In  In80  1  0.49994524  0.16084988  0.49638849  1
  In  In81  1  0.66734244  0.66585929  0.75603448  1
  In  In82  1  0.83694286  0.15818522  0.50321575  1
  In  In83  1  0.32673923  0.66514943  0.74988191  1
  In  In84  1  0.16606354  0.49827970  0.50442913  1
  In  In85  1  0.16252792  0.83661082  0.49986102  1
  Cu  Cu86  1  0.15798458  0.83636007  0.75706357  1
  Cu  Cu87  1  0.33989545  0.00181651  -0.00050827  1
  Cu  Cu88  1  0.49820250  0.16559300  0.24269723  1
  Cu  Cu89  1  0.83110776  0.16020952  0.75933074  1
  Cu  Cu90  1  0.67936532  0.67246616  0.49510121  1
  Cu  Cu91  1  0.83804978  0.83398142  0.24662771  1
  Cu  Cu92  1  0.49596018  0.84291558  0.74413740  1
  Cu  Cu93  1  0.33226079  0.33334374  0.50250909  1
  Cu  Cu94  1  0.66992103  0.66530557  -0.00573038  1
  Cu  Cu95  1  0.34359458  0.67668727  0.49448543  1
  Cu  Cu96  1  -0.00845571  0.34263604  0.51154310  1
  Cu  Cu97  1  -0.00382223  0.66310590  0.50259567  1
  Cu  Cu98  1  0.16585438  0.16502806  0.76127953  1
  Cu  Cu99  1  0.82725010  0.51020967  0.25102408  1
  Cu  Cu100  1  0.50636294  0.83439511  0.24868592  1
  Cu  Cu101  1  0.83982231  0.16210387  0.24123290  1
  Cu  Cu102  1  0.17427110  0.50007168  0.76260192  1
  Cu  Cu103  1  0.50653532  0.49367796  0.75848782  1
  Cu  Cu104  1  0.67292934  0.00063372  0.00409287  1
  Cu  Cu105  1  0.00144385  -0.00642528  -0.00007912  1
  Cu  Cu106  1  0.17226760  0.16348112  0.24196245  1
  Cu  Cu107  1  0.84024209  0.82628536  0.75528184  1
  Cu  Cu108  1  0.16129493  0.83352950  0.24299939  1
  Cu  Cu109  1  0.67634980  0.33280827  0.50637056  1
  Cu  Cu110  1  0.32950602  0.65890563  0.00395439  1
  Cu  Cu111  1  0.49262906  0.49197222  0.24205853  1
  Cu  Cu112  1  0.49545806  0.17528682  0.75946758  1
  Cu  Cu113  1  0.33404291  0.32961647  -0.00293906  1
  Cu  Cu114  1  -0.00226882  -0.00228385  0.49759017  1
  Se  Se115  1  0.08806594  0.07995587  0.04707080  1
  Se  Se116  1  0.07184409  0.08085542  0.55893544  1
  Se  Se117  1  0.05287484  0.39150662  0.05637385  1
  Se  Se118  1  0.07800801  0.41618630  0.56955592  1
  Se  Se119  1  0.08976514  0.75685461  0.04773281  1
  Se  Se120  1  0.07885106  0.74274161  0.56201689  1
  Se  Se121  1  0.42326903  0.08498704  0.05256428  1
  Se  Se122  1  0.40183793  0.08594296  0.55897785  1
  Se  Se123  1  0.41318978  0.41563732  0.05305985  1
  Se  Se124  1  0.41397372  0.41347917  0.55995485  1
  Se  Se125  1  0.40884602  0.74171776  0.06461166  1
  Se  Se126  1  0.42235376  0.76021539  0.54960992  1
  Se  Se127  1  0.75644774  0.08451882  0.05609858  1
  Se  Se128  1  0.73641599  0.07272851  0.55790377  1
  Se  Se129  1  0.73989085  0.40885354  0.05652810  1
  Se  Se130  1  0.75498177  0.41635698  0.56118459  1
  Se  Se131  1  0.74598612  0.74985676  0.05187063  1
  Se  Se132  1  0.75741752  0.75766661  0.55104530  1
  Se  Se133  1  0.24970872  0.24501259  0.04908342  1
  Se  Se134  1  0.24882134  0.25874564  0.56193604  1
  Se  Se135  1  0.24620142  0.57103049  0.05179420  1
  Se  Se136  1  0.26605410  0.59450300  0.55496184  1
  Se  Se137  1  0.25480421  0.91683860  0.04999653  1
  Se  Se138  1  0.24902484  0.92984559  0.55782988  1
  Se  Se139  1  0.59223729  0.25438540  0.04171013  1
  Se  Se140  1  0.58668606  0.25699279  0.55984574  1
  Se  Se141  1  0.58662875  0.58400402  0.04863044  1
  Se  Se142  1  0.59811291  0.59845168  0.56120482  1
  Se  Se143  1  0.59052983  0.92217003  0.06671810  1
  Se  Se144  1  0.57711784  0.92058614  0.55345365  1
  Se  Se145  1  0.92231605  0.25360220  0.04030587  1
  Se  Se146  1  0.91576103  0.25278046  0.56655955  1
  Se  Se147  1  0.91730935  0.59395672  0.05730172  1
  Se  Se148  1  0.92071691  0.58105296  0.56292417  1
  Se  Se149  1  0.91591800  0.91366788  0.05445440  1
  Se  Se150  1  0.91796864  0.91637794  0.55520694  1
  Se  Se151  1  0.06984223  0.26605753  0.44650940  1
  Se  Se152  1  0.09756977  0.23135935  0.94967322  1
  Se  Se153  1  0.08076680  0.59076372  0.44117142  1
  Se  Se154  1  0.07846916  0.57386845  0.95279663  1
  Se  Se155  1  0.07697900  0.92250397  0.43361655  1
  Se  Se156  1  0.08702603  0.91289994  0.94549502  1
  Se  Se157  1  0.41030564  0.25749853  0.43825980  1
  Se  Se158  1  0.41893936  0.24664794  0.94561864  1
  Se  Se159  1  0.41645386  0.58974586  0.43620092  1
  Se  Se160  1  0.41726631  0.57963984  0.95295144  1
  Se  Se161  1  0.41453978  0.92400903  0.44579741  1
  Se  Se162  1  0.41525123  0.91703049  0.93821929  1
  Se  Se163  1  0.74963624  0.25585475  0.44084537  1
  Se  Se164  1  0.76322654  0.25169559  0.95076862  1
  Se  Se165  1  0.75569523  0.58226917  0.44380941  1
  Se  Se166  1  0.74758939  0.58535290  0.93377370  1
  Se  Se167  1  0.75950622  0.91763534  0.44304113  1
  Se  Se168  1  0.75248143  0.91302373  0.95364285  1
  Se  Se169  1  0.25473777  0.07608397  0.43839770  1
  Se  Se170  1  0.25407250  0.08112330  0.94551014  1
  Se  Se171  1  0.25437743  0.41035637  0.43922025  1
  Se  Se172  1  0.24719178  0.41528671  0.94950250  1
  Se  Se173  1  0.25561071  0.74880398  0.43678732  1
  Se  Se174  1  0.25269008  0.75071465  0.95382980  1
  Se  Se175  1  0.59598908  0.07637425  0.43956064  1
  Se  Se176  1  0.58315601  0.07996185  0.95400952  1
  Se  Se177  1  0.59523993  0.40964957  0.44273452  1
  Se  Se178  1  0.56909090  0.43145611  0.94862799  1
  Se  Se179  1  0.58873823  0.75007711  0.44342289  1
  Se  Se180  1  0.58610518  0.74819793  0.93804637  1
  Se  Se181  1  0.92259831  0.07836934  0.43403729  1
  Se  Se182  1  0.91625384  0.07788752  0.94855916  1
  Se  Se183  1  0.91028558  0.42346671  0.45512030  1
  Se  Se184  1  0.92185051  0.41219524  0.93316410  1
  Se  Se185  1  0.92109378  0.75099015  0.44664958  1
  Se  Se186  1  0.90577130  0.76477264  0.94743940  1
  Se  Se187  1  0.25140154  0.24805840  0.29826569  1
  Se  Se188  1  0.25010928  0.25346486  0.80767227  1
  Se  Se189  1  0.23724508  0.57102807  0.30531054  1
  Se  Se190  1  0.24455117  0.58866931  0.82267766  1
  Se  Se191  1  0.24950458  0.91403939  0.29458395  1
  Se  Se192  1  0.24810993  0.91801341  0.80415210  1
  Se  Se193  1  0.57437678  0.24456782  0.30873378  1
  Se  Se194  1  0.58405020  0.25148459  0.81267343  1
  Se  Se195  1  0.57864922  0.57100072  0.29689588  1
  Se  Se196  1  0.58109406  0.57729430  0.81856349  1
  Se  Se197  1  0.58906092  0.91586749  0.30417833  1
  Se  Se198  1  0.57564319  0.91558336  0.80803689  1
  Se  Se199  1  0.91410597  0.24930205  0.30077921  1
  Se  Se200  1  0.91953632  0.24099252  0.80837365  1
  Se  Se201  1  0.91737036  0.58576705  0.30408548  1
  Se  Se202  1  0.91432198  0.57514911  0.79890332  1
  Se  Se203  1  0.92521456  0.92062762  0.29572729  1
  Se  Se204  1  0.91589123  0.91980392  0.80461679  1
  Se  Se205  1  0.08441736  0.08811325  0.29918168  1
  Se  Se206  1  0.07960315  0.07857198  0.80810964  1
  Se  Se207  1  0.08343047  0.42212289  0.31203926  1
  Se  Se208  1  0.08917202  0.41349452  0.80889241  1
  Se  Se209  1  0.07944636  0.74827499  0.29557990  1
  Se  Se210  1  0.08177392  0.74844150  0.81101393  1
  Se  Se211  1  0.42200184  0.07982816  0.30134390  1
  Se  Se212  1  0.41279718  0.08432139  0.80384801  1
  Se  Se213  1  0.40855149  0.40884313  0.29317793  1
  Se  Se214  1  0.41335780  0.41732090  0.80768196  1
  Se  Se215  1  0.42143491  0.75136101  0.30723492  1
  Se  Se216  1  0.42111552  0.75957277  0.80569128  1
  Se  Se217  1  0.75122929  0.08462634  0.29440047  1
  Se  Se218  1  0.74540056  0.08895510  0.82127000  1
  Se  Se219  1  0.75433168  0.41636156  0.30659432  1
  Se  Se220  1  0.75853703  0.41922709  0.79822969  1
  Se  Se221  1  0.75551517  0.75280655  0.30466674  1
  Se  Se222  1  0.75941371  0.75038494  0.81736050  1
  Se  Se223  1  0.25442645  0.07762086  0.19034580  1
  Se  Se224  1  0.24601907  0.08553446  0.70040566  1
  Se  Se225  1  0.23258246  0.41175279  0.19459007  1
  Se  Se226  1  0.25481029  0.41987276  0.70395919  1
  Se  Se227  1  0.23795768  0.75020553  0.18200382  1
  Se  Se228  1  0.23934787  0.76120900  0.69031863  1
  Se  Se229  1  0.58928232  0.08748207  0.19304769  1
  Se  Se230  1  0.57071683  0.09631889  0.69168085  1
  Se  Se231  1  0.57393815  0.41754907  0.17871010  1
  Se  Se232  1  0.58848586  0.41134693  0.70346481  1
  Se  Se233  1  0.58777925  0.74667698  0.19973318  1
  Se  Se234  1  0.58009472  0.75904080  0.69248156  1
  Se  Se235  1  0.92714061  0.08453023  0.18916704  1
  Se  Se236  1  0.90769899  0.07727715  0.69970266  1
  Se  Se237  1  0.90301327  0.42661478  0.18909234  1
  Se  Se238  1  0.94174699  0.39161279  0.69910717  1
  Se  Se239  1  0.91894717  0.75014232  0.19204457  1
  Se  Se240  1  0.92142100  0.74323247  0.69998465  1
  Se  Se241  1  0.08946635  0.23856430  0.18069583  1
  Se  Se242  1  0.08298741  0.24488685  0.70458438  1
  Se  Se243  1  0.08205769  0.57930386  0.19258939  1
  Se  Se244  1  0.09209128  0.58386625  0.70666956  1
  Se  Se245  1  0.08195809  0.91922582  0.18913195  1
  Se  Se246  1  0.07782637  0.91993817  0.70057669  1
  Se  Se247  1  0.41571670  0.24882458  0.18967495  1
  Se  Se248  1  0.41038243  0.25708486  0.70424682  1
  Se  Se249  1  0.41770174  0.57996161  0.18334446  1
  Se  Se250  1  0.43081723  0.57739325  0.69604931  1
  Se  Se251  1  0.41811646  0.91611633  0.19940462  1
  Se  Se252  1  0.40762187  0.92331969  0.69560497  1
  Se  Se253  1  0.75991327  0.24565954  0.18419314  1
  Se  Se254  1  0.74797664  0.24594252  0.70573907  1
  Se  Se255  1  0.74275091  0.59084430  0.19756531  1
  Se  Se256  1  0.75296965  0.58273202  0.68964284  1
  Se  Se257  1  0.75297458  0.91880483  0.19637106  1
  Se  Se258  1  0.75403547  0.90316130  0.69521864  1
