# generated using pymatgen
data_In86Cu29Se144
_symmetry_space_group_name_H-M   'P 1'
_cell_length_a   17.57826069
_cell_length_b   17.58357486
_cell_length_c   23.44659016
_cell_angle_alpha   90.00649207
_cell_angle_beta   90.03116713
_cell_angle_gamma   89.99890226
_symmetry_Int_Tables_number   1
_chemical_formula_structural   In86Cu29Se144
_chemical_formula_sum   'In86 Cu29 Se144'
_cell_volume   7247.07408065
_cell_formula_units_Z   1
loop_
 _symmetry_equiv_pos_site_id
 _symmetry_equiv_pos_as_xyz
  1  'x, y, z'
loop_
 _atom_site_type_symbol
 _atom_site_label
 _atom_site_symmetry_multiplicity
 _atom_site_fract_x
 _atom_site_fract_y
 _atom_site_fract_z
 _atom_site_occupancy
  In  In0  1  -0.01187886  0.17540431  0.12498264  1
  In  In1  1  0.00068096  0.17785846  0.62047178  1
  In  In2  1  0.01838956  0.48944757  0.13709581  1
  In  In3  1  0.00876304  0.49472911  0.63168114  1
  In  In4  1  -0.00060817  0.83651464  0.12651323  1
  In  In5  1  -0.00346724  0.81806453  0.62596813  1
  In  In6  1  0.33741318  0.15892299  0.11954648  1
  In  In7  1  0.33110862  0.18086820  0.63743849  1
  In  In8  1  0.32932280  0.49726915  0.11658423  1
  In  In9  1  0.32998728  0.50192016  0.62767787  1
  In  In10  1  0.32899986  0.82543445  0.11330886  1
  In  In11  1  0.32445513  0.82095524  0.62281397  1
  In  In12  1  0.67095125  0.16702668  0.12374645  1
  In  In13  1  0.67078439  0.15529464  0.62226893  1
  In  In14  1  0.65460437  0.49806235  0.12537346  1
  In  In15  1  0.66704072  0.51533812  0.62899362  1
  In  In16  1  0.67942680  0.84681477  0.11777598  1
  In  In17  1  0.65317296  0.83750298  0.62138021  1
  In  In18  1  0.14007718  -0.00578672  0.37789748  1
  In  In19  1  0.14935402  -0.00510283  0.88257653  1
  In  In20  1  0.16184915  0.34678012  0.37519593  1
  In  In21  1  0.18241848  0.33928623  0.86486475  1
  In  In22  1  0.16221797  0.66768600  0.38064445  1
  In  In23  1  0.16724740  0.66657812  0.87500833  1
  In  In24  1  0.50039224  -0.01159533  0.37334026  1
  In  In25  1  0.50285296  -0.00404922  0.88257584  1
  In  In26  1  0.51162527  0.33063390  0.37585959  1
  In  In27  1  0.49761495  0.33818635  0.87873964  1
  In  In28  1  0.49499283  0.66982802  0.38403739  1
  In  In29  1  0.49777079  0.66731872  0.87036295  1
  In  In30  1  0.84094575  0.01116826  0.36940649  1
  In  In31  1  0.84369550  0.00263579  0.89361860  1
  In  In32  1  0.82871957  0.33020990  0.36679526  1
  In  In33  1  0.84130071  0.31883775  0.88108543  1
  In  In34  1  0.83905969  0.65459732  0.37244120  1
  In  In35  1  0.84511519  0.67185163  0.86912094  1
  In  In36  1  -0.01729830  0.15509190  0.36508389  1
  In  In37  1  -0.00443625  0.16865633  0.87574049  1
  In  In38  1  0.01375868  0.50678793  0.35827984  1
  In  In39  1  0.01284890  0.50456585  0.87363603  1
  In  In40  1  0.00638217  0.84458199  0.37074507  1
  In  In41  1  0.00981851  0.82876428  0.89200043  1
  In  In42  1  0.33778895  0.16376458  0.37715744  1
  In  In43  1  0.33672423  0.18194226  0.86933819  1
  In  In44  1  0.32664645  0.50654303  0.38572225  1
  In  In45  1  0.33371654  0.50279358  0.87220338  1
  In  In46  1  0.33619868  0.82739044  0.38331573  1
  In  In47  1  0.34105457  0.82451614  0.87729878  1
  In  In48  1  0.67685383  0.17420891  0.36963542  1
  In  In49  1  0.67187489  0.16263958  0.88429069  1
  In  In50  1  0.66745333  0.48944821  0.37600367  1
  In  In51  1  0.65005861  0.50108620  0.87596375  1
  In  In52  1  0.65497314  0.83649131  0.37282390  1
  In  In53  1  0.67766951  0.82835198  0.88033434  1
  In  In54  1  0.16560028  -0.01388223  0.12198214  1
  In  In55  1  0.17157919  -0.00650875  0.62068415  1
  In  In56  1  0.14948210  0.34134719  0.12019865  1
  In  In57  1  0.15094666  0.34119843  0.63518220  1
  In  In58  1  0.15327010  0.65657965  0.11738022  1
  In  In59  1  0.16834953  0.66535830  0.62832132  1
  In  In60  1  0.51075546  0.01144806  0.11492720  1
  In  In61  1  0.51060672  -0.00372944  0.62151316  1
  In  In62  1  0.50973095  0.34274063  0.11856442  1
  In  In63  1  0.48011952  0.33351952  0.63187155  1
  In  In64  1  0.49575287  0.66159027  0.11465540  1
  In  In65  1  0.49771703  0.66597716  0.62751471  1
  In  In66  1  0.83670782  -0.00068270  0.12592269  1
  In  In67  1  0.81854217  0.00571109  0.61255649  1
  In  In68  1  0.84902050  0.31928993  0.12468803  1
  In  In69  1  0.84810159  0.33188273  0.62392467  1
  In  In70  1  0.84012981  0.68481541  0.12000522  1
  In  In71  1  0.83660260  0.66472719  0.63821308  1
  In  In72  1  0.17086778  0.16814957  -0.00166674  1
  In  In73  1  -0.00369446  0.00262112  0.75591034  1
  In  In74  1  0.83366835  0.83696096  0.49578377  1
  In  In75  1  0.16281903  0.16234591  0.50032697  1
  In  In76  1  0.66838249  0.33536929  0.75943093  1
  In  In77  1  0.83514496  0.49429055  0.49753857  1
  In  In78  1  0.33024724  0.00083629  0.75071576  1
  In  In79  1  0.67000677  0.66774031  0.24874530  1
  In  In80  1  0.33158753  -0.00569710  0.24841973  1
  In  In81  1  0.32845907  0.66673840  0.25618154  1
  In  In82  1  0.49916326  0.16599404  0.50512910  1
  In  In83  1  0.83629446  0.50170450  -0.00110493  1
  In  In84  1  0.66629277  0.00042686  0.74455621  1
  In  In85  1  0.32834531  0.33216268  0.24491034  1
  Cu  Cu86  1  0.32767556  0.34367476  0.50641669  1
  Cu  Cu87  1  0.66686496  -0.00155090  0.00534651  1
  Cu  Cu88  1  0.66201841  0.33621032  0.49768836  1
  Cu  Cu89  1  0.00646298  0.66184227  0.50104703  1
  Cu  Cu90  1  0.00024255  0.33139029  0.49885218  1
  Cu  Cu91  1  0.83490980  0.49820961  0.24707355  1
  Cu  Cu92  1  0.49719267  0.49475240  0.25143335  1
  Cu  Cu93  1  0.17002127  0.50438311  0.75062210  1
  Cu  Cu94  1  0.00099260  0.67129838  -0.00046385  1
  Cu  Cu95  1  0.33645601  0.33852900  -0.00675483  1
  Cu  Cu96  1  0.65856183  0.67228972  0.50537175  1
  Cu  Cu97  1  0.15589908  0.16876723  0.24904280  1
  Cu  Cu98  1  0.50023272  0.82687650  0.74814952  1
  Cu  Cu99  1  0.33546115  0.66398443  0.50738869  1
  Cu  Cu100  1  0.83502602  0.82952661  0.75477750  1
  Cu  Cu101  1  0.33501795  -0.00724960  0.50212408  1
  Cu  Cu102  1  0.83705486  0.83807136  0.24571539  1
  Cu  Cu103  1  0.33625647  -0.00309530  -0.00144996  1
  Cu  Cu104  1  0.83560937  0.16641613  0.75290903  1
  Cu  Cu105  1  0.16248861  0.82775804  0.75453176  1
  Cu  Cu106  1  0.66876349  0.32951069  0.00039794  1
  Cu  Cu107  1  0.51372182  0.16728985  0.24580242  1
  Cu  Cu108  1  0.16016840  0.82968754  0.25158136  1
  Cu  Cu109  1  0.83928540  0.49895629  0.75370771  1
  Cu  Cu110  1  0.50799256  0.84034862  0.24139517  1
  Cu  Cu111  1  0.65826211  0.66590418  -0.00269372  1
  Cu  Cu112  1  0.33308477  0.66652770  -0.00804673  1
  Cu  Cu113  1  0.49403052  0.50248152  0.75182350  1
  Cu  Cu114  1  0.82983974  0.16645180  0.24493693  1
  Se  Se115  1  0.08313505  0.08418608  0.06308340  1
  Se  Se116  1  0.07220294  0.07163363  0.55812586  1
  Se  Se117  1  0.08370743  0.43054950  0.04924518  1
  Se  Se118  1  0.08026927  0.41502109  0.55467113  1
  Se  Se119  1  0.08361493  0.75599267  0.05444474  1
  Se  Se120  1  0.08534533  0.74682487  0.55620128  1
  Se  Se121  1  0.41885351  0.08566453  0.04677555  1
  Se  Se122  1  0.40270490  0.07971461  0.56530066  1
  Se  Se123  1  0.41917399  0.41905656  0.05171166  1
  Se  Se124  1  0.41713694  0.42141633  0.55744977  1
  Se  Se125  1  0.41812997  0.74829786  0.04691475  1
  Se  Se126  1  0.42001530  0.75150100  0.55593387  1
  Se  Se127  1  0.75283639  0.08229889  0.05579683  1
  Se  Se128  1  0.74647673  0.09158545  0.54291959  1
  Se  Se129  1  0.74736027  0.41218255  0.06120897  1
  Se  Se130  1  0.74306427  0.41150044  0.56284613  1
  Se  Se131  1  0.74360847  0.74692089  0.05088450  1
  Se  Se132  1  0.75072529  0.74319056  0.56196079  1
  Se  Se133  1  0.25910887  0.26259761  0.06054389  1
  Se  Se134  1  0.24897552  0.25613626  0.56114731  1
  Se  Se135  1  0.25172363  0.58795455  0.05202265  1
  Se  Se136  1  0.24693081  0.58183805  0.55680397  1
  Se  Se137  1  0.24878499  0.91505150  0.04829394  1
  Se  Se138  1  0.24903683  0.90911770  0.55228841  1
  Se  Se139  1  0.58332313  0.24721607  0.05441371  1
  Se  Se140  1  0.58651730  0.26079854  0.56506744  1
  Se  Se141  1  0.58102546  0.57682711  0.04973788  1
  Se  Se142  1  0.58013464  0.58259404  0.55605222  1
  Se  Se143  1  0.57898407  0.91091500  0.05148883  1
  Se  Se144  1  0.59462957  0.92937388  0.54848883  1
  Se  Se145  1  0.92236433  0.25204917  0.04454752  1
  Se  Se146  1  0.91293322  0.24771749  0.54723767  1
  Se  Se147  1  0.92523601  0.58816388  0.06182767  1
  Se  Se148  1  0.91955974  0.58654792  0.56066195  1
  Se  Se149  1  0.89992019  0.89933899  0.05978569  1
  Se  Se150  1  0.92295265  0.91980567  0.56125079  1
  Se  Se151  1  0.07655201  0.24976804  0.43597406  1
  Se  Se152  1  0.08913142  0.25919440  0.93544787  1
  Se  Se153  1  0.08036134  0.57473490  0.44378083  1
  Se  Se154  1  0.08540413  0.58689631  0.94809596  1
  Se  Se155  1  0.08786351  0.90161270  0.45212553  1
  Se  Se156  1  0.06976631  0.92926310  0.95833993  1
  Se  Se157  1  0.40703202  0.26130021  0.44621855  1
  Se  Se158  1  0.41870144  0.24858310  0.94674755  1
  Se  Se159  1  0.41846794  0.58182607  0.45120719  1
  Se  Se160  1  0.41943216  0.58283431  0.94164422  1
  Se  Se161  1  0.42091354  0.91413662  0.44773507  1
  Se  Se162  1  0.41894347  0.91071359  0.94691089  1
  Se  Se163  1  0.74873915  0.25810121  0.44403039  1
  Se  Se164  1  0.75487554  0.24579047  0.95155719  1
  Se  Se165  1  0.73964532  0.59181636  0.44486914  1
  Se  Se166  1  0.74455359  0.58941349  0.93764486  1
  Se  Se167  1  0.74520010  0.92439038  0.43502462  1
  Se  Se168  1  0.75067096  0.91677887  0.95025393  1
  Se  Se169  1  0.25540644  0.07040676  0.43948277  1
  Se  Se170  1  0.25925456  0.07771800  0.93513223  1
  Se  Se171  1  0.24220144  0.41999038  0.44999683  1
  Se  Se172  1  0.25053243  0.42054393  0.94264607  1
  Se  Se173  1  0.25266460  0.74330512  0.44830352  1
  Se  Se174  1  0.24704834  0.75334999  0.94453184  1
  Se  Se175  1  0.58277006  0.08649053  0.43512101  1
  Se  Se176  1  0.58482568  0.08095845  0.94941130  1
  Se  Se177  1  0.57792948  0.42154136  0.44837013  1
  Se  Se178  1  0.58391140  0.41444398  0.94997422  1
  Se  Se179  1  0.58154067  0.75545211  0.44732953  1
  Se  Se180  1  0.58017897  0.75084224  0.94077077  1
  Se  Se181  1  0.92400692  0.07693629  0.44613210  1
  Se  Se182  1  0.92153996  0.09664169  0.95311221  1
  Se  Se183  1  0.92522235  0.41230535  0.43394091  1
  Se  Se184  1  0.92778255  0.41305069  0.94116391  1
  Se  Se185  1  0.92291154  0.73929651  0.44099320  1
  Se  Se186  1  0.90931790  0.74983007  0.94975556  1
  Se  Se187  1  0.24368074  0.23954762  0.31014206  1
  Se  Se188  1  0.25344574  0.24834018  0.79549513  1
  Se  Se189  1  0.23859048  0.57174514  0.30849484  1
  Se  Se190  1  0.25193975  0.58846572  0.80442985  1
  Se  Se191  1  0.24439367  0.90757988  0.31253941  1
  Se  Se192  1  0.24024092  0.91249144  0.81300743  1
  Se  Se193  1  0.58850119  0.25487966  0.30171468  1
  Se  Se194  1  0.58136109  0.24009802  0.81398365  1
  Se  Se195  1  0.57495407  0.58119594  0.30976225  1
  Se  Se196  1  0.58285738  0.58474537  0.80054821  1
  Se  Se197  1  0.58704883  0.92245264  0.29771168  1
  Se  Se198  1  0.58032682  0.90902898  0.80688045  1
  Se  Se199  1  0.91438039  0.25087692  0.29828252  1
  Se  Se200  1  0.91981381  0.25181939  0.80168414  1
  Se  Se201  1  0.91772569  0.58517326  0.29650650  1
  Se  Se202  1  0.92484048  0.58275801  0.80460890  1
  Se  Se203  1  0.91864319  0.92066601  0.30240234  1
  Se  Se204  1  0.91045476  0.91046204  0.81668771  1
  Se  Se205  1  0.07881198  0.07922555  0.30087644  1
  Se  Se206  1  0.09354599  0.09262041  0.80810399  1
  Se  Se207  1  0.07883013  0.40407315  0.29663706  1
  Se  Se208  1  0.08699155  0.41836963  0.80209877  1
  Se  Se209  1  0.08107739  0.74658105  0.30834986  1
  Se  Se210  1  0.07651589  0.75217680  0.81148330  1
  Se  Se211  1  0.42638895  0.09061688  0.30347298  1
  Se  Se212  1  0.42574503  0.08352011  0.81016608  1
  Se  Se213  1  0.41463256  0.41938452  0.31285293  1
  Se  Se214  1  0.41666661  0.41458482  0.80541757  1
  Se  Se215  1  0.42901125  0.76122874  0.30439295  1
  Se  Se216  1  0.41222312  0.74740641  0.79969461  1
  Se  Se217  1  0.74881642  0.08329507  0.30056010  1
  Se  Se218  1  0.75993022  0.08093529  0.81120991  1
  Se  Se219  1  0.74732246  0.41951291  0.30052383  1
  Se  Se220  1  0.76080614  0.42389721  0.81882072  1
  Se  Se221  1  0.75984726  0.75811214  0.31022496  1
  Se  Se222  1  0.74791258  0.74645617  0.80440201  1
  Se  Se223  1  0.24169589  0.09045747  0.19148114  1
  Se  Se224  1  0.23491460  0.08910195  0.69294105  1
  Se  Se225  1  0.23973414  0.42677614  0.19100011  1
  Se  Se226  1  0.24891637  0.41662262  0.69640585  1
  Se  Se227  1  0.24358043  0.75450177  0.19101680  1
  Se  Se228  1  0.24900607  0.74888118  0.70040314  1
  Se  Se229  1  0.59019715  0.07894528  0.19289045  1
  Se  Se230  1  0.57100091  0.09605178  0.69467965  1
  Se  Se231  1  0.58323457  0.41391915  0.19965555  1
  Se  Se232  1  0.58033454  0.42197480  0.69373289  1
  Se  Se233  1  0.58097838  0.75142636  0.18359416  1
  Se  Se234  1  0.58743794  0.74878704  0.69388491  1
  Se  Se235  1  0.91804526  0.08420241  0.19509596  1
  Se  Se236  1  0.90629072  0.08424867  0.68743922  1
  Se  Se237  1  0.91710515  0.41372759  0.19426173  1
  Se  Se238  1  0.91826466  0.41503863  0.69769528  1
  Se  Se239  1  0.92032838  0.75019696  0.19847799  1
  Se  Se240  1  0.92241519  0.74676337  0.70486514  1
  Se  Se241  1  0.08039170  0.25305678  0.19193938  1
  Se  Se242  1  0.07618894  0.24578738  0.69759895  1
  Se  Se243  1  0.08207220  0.59256553  0.19974409  1
  Se  Se244  1  0.08267753  0.58655041  0.69840875  1
  Se  Se245  1  0.08311894  0.91823725  0.19793699  1
  Se  Se246  1  0.08549046  0.91075290  0.69387783  1
  Se  Se247  1  0.42483742  0.24317597  0.18900631  1
  Se  Se248  1  0.41966371  0.24822100  0.70759617  1
  Se  Se249  1  0.41900967  0.57714572  0.19259208  1
  Se  Se250  1  0.41274164  0.58591816  0.69644155  1
  Se  Se251  1  0.41957463  0.91174014  0.18202931  1
  Se  Se252  1  0.42210372  0.91157366  0.68926985  1
  Se  Se253  1  0.75038812  0.25433025  0.19215414  1
  Se  Se254  1  0.75400283  0.24590070  0.69236292  1
  Se  Se255  1  0.75765633  0.58005327  0.18493513  1
  Se  Se256  1  0.75142741  0.58175659  0.70443582  1
  Se  Se257  1  0.74890362  0.92043682  0.19757237  1
  Se  Se258  1  0.76018577  0.90729421  0.68902267  1
