# generated using pymatgen
data_In86Cu29Se144
_symmetry_space_group_name_H-M   'P 1'
_cell_length_a   17.57237246
_cell_length_b   17.57577303
_cell_length_c   23.43388125
_cell_angle_alpha   89.99377106
_cell_angle_beta   89.98996893
_cell_angle_gamma   89.99328523
_symmetry_Int_Tables_number   1
_chemical_formula_structural   In86Cu29Se144
_chemical_formula_sum   'In86 Cu29 Se144'
_cell_volume   7237.50785224
_cell_formula_units_Z   1
loop_
 _symmetry_equiv_pos_site_id
 _symmetry_equiv_pos_as_xyz
  1  'x, y, z'
loop_
 _atom_site_type_symbol
 _atom_site_label
 _atom_site_symmetry_multiplicity
 _atom_site_fract_x
 _atom_site_fract_y
 _atom_site_fract_z
 _atom_site_occupancy
  In  In0  1  0.01775778  0.14964736  0.15198509  1
  In  In1  1  0.00825592  0.17625443  0.61739355  1
  In  In2  1  0.00626783  0.49721467  0.13703025  1
  In  In3  1  -0.00878001  0.49640531  0.61519962  1
  In  In4  1  0.01623653  0.82581297  0.13504674  1
  In  In5  1  0.01351331  0.82289858  0.61316982  1
  In  In6  1  0.30965316  0.14172058  0.10031540  1
  In  In7  1  0.32008713  0.15347006  0.62061870  1
  In  In8  1  0.34478680  0.49954946  0.12468369  1
  In  In9  1  0.33451086  0.51385526  0.62774171  1
  In  In10  1  0.32740773  0.83821699  0.12431418  1
  In  In11  1  0.33240817  0.83278710  0.62506903  1
  In  In12  1  0.65400766  0.16857415  0.12220711  1
  In  In13  1  0.65578419  0.15755172  0.61636980  1
  In  In14  1  0.66085758  0.50431329  0.11984603  1
  In  In15  1  0.67439864  0.49623689  0.62869248  1
  In  In16  1  0.65722356  0.84598547  0.12080298  1
  In  In17  1  0.64964730  0.84429799  0.63160078  1
  In  In18  1  0.16869041  0.00203217  0.37659232  1
  In  In19  1  0.18973694  -0.01521575  0.89812604  1
  In  In20  1  0.16065803  0.34146428  0.37883913  1
  In  In21  1  0.15581976  0.32253822  0.87344227  1
  In  In22  1  0.16803654  0.66728034  0.37476009  1
  In  In23  1  0.18142422  0.66670984  0.87308601  1
  In  In24  1  0.48968465  0.00592422  0.37900948  1
  In  In25  1  0.49216394  -0.00409454  0.87473116  1
  In  In26  1  0.48654747  0.32433573  0.37557277  1
  In  In27  1  0.50867398  0.33482943  0.88730070  1
  In  In28  1  0.50223264  0.68302195  0.37739553  1
  In  In29  1  0.49610818  0.67109291  0.87278377  1
  In  In30  1  0.85166068  0.00918341  0.36996451  1
  In  In31  1  0.82713556  0.01437341  0.87001897  1
  In  In32  1  0.85587757  0.31647023  0.38507898  1
  In  In33  1  0.84237564  0.32114208  0.87001009  1
  In  In34  1  0.83894886  0.65289679  0.38439525  1
  In  In35  1  0.83125294  0.67783657  0.87019468  1
  In  In36  1  0.00603471  0.16688479  0.37059257  1
  In  In37  1  0.00645981  0.17324335  0.87394461  1
  In  In38  1  0.00583298  0.50284099  0.37706697  1
  In  In39  1  0.00996122  0.48680382  0.87381036  1
  In  In40  1  0.01598124  0.84658203  0.37077449  1
  In  In41  1  0.00835254  0.84412918  0.87973204  1
  In  In42  1  0.33798423  0.15925248  0.37841432  1
  In  In43  1  0.34680365  0.14993432  0.88941253  1
  In  In44  1  0.31631233  0.50000688  0.37680703  1
  In  In45  1  0.33926695  0.51629124  0.86727747  1
  In  In46  1  0.33408900  0.83429932  0.37567204  1
  In  In47  1  0.33501686  0.83957776  0.87744074  1
  In  In48  1  0.66320502  0.17321188  0.38074326  1
  In  In49  1  0.66973527  0.15984249  0.87269761  1
  In  In50  1  0.67206411  0.51168475  0.38114844  1
  In  In51  1  0.64297001  0.50359186  0.87086791  1
  In  In52  1  0.66102166  0.82592055  0.38233576  1
  In  In53  1  0.65256999  0.81963286  0.86230159  1
  In  In54  1  0.17662701  -0.00057034  0.12961797  1
  In  In55  1  0.17088849  0.00043098  0.61947147  1
  In  In56  1  0.15565543  0.32130103  0.12775491  1
  In  In57  1  0.15618519  0.32353607  0.62129793  1
  In  In58  1  0.16532759  0.67286434  0.13386380  1
  In  In59  1  0.17469297  0.67773672  0.61204973  1
  In  In60  1  0.47085259  -0.01730361  0.10102666  1
  In  In61  1  0.49457630  -0.00295598  0.62487919  1
  In  In62  1  0.49340640  0.32269214  0.10709853  1
  In  In63  1  0.51087852  0.32992579  0.62770648  1
  In  In64  1  0.49032012  0.66090147  0.11840513  1
  In  In65  1  0.47932250  0.67411850  0.64102848  1
  In  In66  1  0.84498951  0.01172963  0.13048555  1
  In  In67  1  0.81441872  -0.00383494  0.62006500  1
  In  In68  1  0.84387876  0.32486763  0.13204033  1
  In  In69  1  0.84233370  0.34408313  0.61748508  1
  In  In70  1  0.83914335  0.67065584  0.12862384  1
  In  In71  1  0.83639793  0.65513412  0.62068351  1
  In  In72  1  0.00037098  0.66344799  0.73677021  1
  In  In73  1  0.83537992  0.84009269  0.49658555  1
  In  In74  1  0.67067385  0.33618354  0.24371974  1
  In  In75  1  0.67082825  0.33474257  0.75186760  1
  In  In76  1  0.83408323  0.16601944  0.00321693  1
  In  In77  1  0.50157730  0.49862807  0.50772228  1
  In  In78  1  0.82721044  0.83535146  -0.00020303  1
  In  In79  1  0.66934692  0.00071904  0.24932944  1
  In  In80  1  0.32404921  0.32732786  0.24445968  1
  In  In81  1  -0.00141128  0.00682736  0.74940109  1
  In  In82  1  0.66898377  0.66717403  0.25116238  1
  In  In83  1  0.17099489  0.49469475  0.00513511  1
  In  In84  1  0.33384409  0.33097714  0.75863267  1
  In  In85  1  0.82742526  0.49322039  -0.00445096  1
  Cu  Cu86  1  0.00754867  0.66518943  0.00844523  1
  Cu  Cu87  1  0.17424476  0.83850983  0.25376915  1
  Cu  Cu88  1  0.84399151  0.82844721  0.25182160  1
  Cu  Cu89  1  0.33701351  0.67597763  -0.00385047  1
  Cu  Cu90  1  0.66222337  0.00713814  0.49978604  1
  Cu  Cu91  1  0.83908474  0.49866800  0.74506085  1
  Cu  Cu92  1  0.83934264  0.49442177  0.26019562  1
  Cu  Cu93  1  0.00826660  -0.00060133  0.00878768  1
  Cu  Cu94  1  0.17127600  0.83136219  0.75056067  1
  Cu  Cu95  1  0.16561745  0.49384556  0.74902002  1
  Cu  Cu96  1  0.33135810  0.34150474  -0.00252311  1
  Cu  Cu97  1  0.32938694  0.32393661  0.50063343  1
  Cu  Cu98  1  0.16684842  0.15393965  0.74876689  1
  Cu  Cu99  1  0.16463896  0.50599172  0.25610153  1
  Cu  Cu100  1  0.33432131  -0.00679445  0.50041894  1
  Cu  Cu101  1  0.33585797  0.66967410  0.50009517  1
  Cu  Cu102  1  0.49148682  0.50238358  0.24428821  1
  Cu  Cu103  1  0.49147147  0.83671297  0.75212032  1
  Cu  Cu104  1  0.49379418  0.15836146  0.74843162  1
  Cu  Cu105  1  0.00634628  0.00701763  0.49384925  1
  Cu  Cu106  1  0.66925969  0.33474140  0.50373319  1
  Cu  Cu107  1  0.49510641  0.15972067  0.24411304  1
  Cu  Cu108  1  -0.00115386  0.33537171  0.49573082  1
  Cu  Cu109  1  0.83171737  0.16920790  0.74423706  1
  Cu  Cu110  1  0.65314013  0.66908850  -0.00592959  1
  Cu  Cu111  1  0.82370830  0.83800319  0.74576542  1
  Cu  Cu112  1  0.49153944  0.83704416  0.24792826  1
  Cu  Cu113  1  0.65705439  -0.00119281  -0.00768098  1
  Cu  Cu114  1  0.66373024  0.67184842  0.50708206  1
  Se  Se115  1  0.08321413  0.08409894  0.06593820  1
  Se  Se116  1  0.08857415  0.08619789  0.55307711  1
  Se  Se117  1  0.07072821  0.41022318  0.05786924  1
  Se  Se118  1  0.08314772  0.41445491  0.55283540  1
  Se  Se119  1  0.09092333  0.75118326  0.05695671  1
  Se  Se120  1  0.08118324  0.74023643  0.54049960  1
  Se  Se121  1  0.44070389  0.11260060  0.05653833  1
  Se  Se122  1  0.41451019  0.08091298  0.55443158  1
  Se  Se123  1  0.41827689  0.42399366  0.04799281  1
  Se  Se124  1  0.40738706  0.40549795  0.56334074  1
  Se  Se125  1  0.41613451  0.75652467  0.05551183  1
  Se  Se126  1  0.41895008  0.74883720  0.55720825  1
  Se  Se127  1  0.74146844  0.06809576  0.05746970  1
  Se  Se128  1  0.75202661  0.08874976  0.54791365  1
  Se  Se129  1  0.74851063  0.40490646  0.06470814  1
  Se  Se130  1  0.75133769  0.42330838  0.55181329  1
  Se  Se131  1  0.73752824  0.73957444  0.05948158  1
  Se  Se132  1  0.74604593  0.75596703  0.56386049  1
  Se  Se133  1  0.24880870  0.26212564  0.05416722  1
  Se  Se134  1  0.24313778  0.24311128  0.55389747  1
  Se  Se135  1  0.25863771  0.59322287  0.05832329  1
  Se  Se136  1  0.25470838  0.58131103  0.55062854  1
  Se  Se137  1  0.26304988  0.93351206  0.05406477  1
  Se  Se138  1  0.24842083  0.91033215  0.55309420  1
  Se  Se139  1  0.59722036  0.25644636  0.04717100  1
  Se  Se140  1  0.57997351  0.25150461  0.55053980  1
  Se  Se141  1  0.57761837  0.58173666  0.05028771  1
  Se  Se142  1  0.58450509  0.59215508  0.56896099  1
  Se  Se143  1  0.57650588  0.91074278  0.04356992  1
  Se  Se144  1  0.58141532  0.92041971  0.55218367  1
  Se  Se145  1  0.92940479  0.23811535  0.06817168  1
  Se  Se146  1  0.91592866  0.25115244  0.55084760  1
  Se  Se147  1  0.92061481  0.58256178  0.05891925  1
  Se  Se148  1  0.92811618  0.59663069  0.54921424  1
  Se  Se149  1  0.92173011  0.91666993  0.06300462  1
  Se  Se150  1  0.92711702  0.92894333  0.55921867  1
  Se  Se151  1  0.08313040  0.25015482  0.44483032  1
  Se  Se152  1  0.07951267  0.24976097  0.94909943  1
  Se  Se153  1  0.10456987  0.56889340  0.44233158  1
  Se  Se154  1  0.08094434  0.58727400  0.94143542  1
  Se  Se155  1  0.09072653  0.91698140  0.44986489  1
  Se  Se156  1  0.08724869  0.91023264  0.95723918  1
  Se  Se157  1  0.41782338  0.24338287  0.45057726  1
  Se  Se158  1  0.41604606  0.25465400  0.94851673  1
  Se  Se159  1  0.41624285  0.58547605  0.44062690  1
  Se  Se160  1  0.41669337  0.58656483  0.94485390  1
  Se  Se161  1  0.42077326  0.91181954  0.44728091  1
  Se  Se162  1  0.40109983  0.93269927  0.94835161  1
  Se  Se163  1  0.75063812  0.25237968  0.44741296  1
  Se  Se164  1  0.74591028  0.25651704  0.94090877  1
  Se  Se165  1  0.74820114  0.58675661  0.45700726  1
  Se  Se166  1  0.74418428  0.59379329  0.93874807  1
  Se  Se167  1  0.74423298  0.93131044  0.43564971  1
  Se  Se168  1  0.74160136  0.92065484  0.93302880  1
  Se  Se169  1  0.25312015  0.08082644  0.44830467  1
  Se  Se170  1  0.22896523  0.10895972  0.94772643  1
  Se  Se171  1  0.25001618  0.41395833  0.45078056  1
  Se  Se172  1  0.25492718  0.41646070  0.93138275  1
  Se  Se173  1  0.25223148  0.75032776  0.44444644  1
  Se  Se174  1  0.24734123  0.75437052  0.94538874  1
  Se  Se175  1  0.57787699  0.08795646  0.44449693  1
  Se  Se176  1  0.57899969  0.08574379  0.93917106  1
  Se  Se177  1  0.58604758  0.41001587  0.43931101  1
  Se  Se178  1  0.59725798  0.41637019  0.95058409  1
  Se  Se179  1  0.57829411  0.75419097  0.45613547  1
  Se  Se180  1  0.57466598  0.75840977  0.94398205  1
  Se  Se181  1  0.91929739  0.09071732  0.44588688  1
  Se  Se182  1  0.92632745  0.07180056  0.94364526  1
  Se  Se183  1  0.91552260  0.42385291  0.44588124  1
  Se  Se184  1  0.92600299  0.40257987  0.94436883  1
  Se  Se185  1  0.92516860  0.75344411  0.43710115  1
  Se  Se186  1  0.92664552  0.74312659  0.94533399  1
  Se  Se187  1  0.24377971  0.24425361  0.31427297  1
  Se  Se188  1  0.24666761  0.23295804  0.81158397  1
  Se  Se189  1  0.25464290  0.58831094  0.30221231  1
  Se  Se190  1  0.24751014  0.58369641  0.79632771  1
  Se  Se191  1  0.25670145  0.92208507  0.30722227  1
  Se  Se192  1  0.24520861  0.91861300  0.80806400  1
  Se  Se193  1  0.57341273  0.24523538  0.30170200  1
  Se  Se194  1  0.57356382  0.24304329  0.80628379  1
  Se  Se195  1  0.57345972  0.57625230  0.30849573  1
  Se  Se196  1  0.59026968  0.60249016  0.80295096  1
  Se  Se197  1  0.57962470  0.90873194  0.30905961  1
  Se  Se198  1  0.57854087  0.91999100  0.80307610  1
  Se  Se199  1  0.92225202  0.25166959  0.30226149  1
  Se  Se200  1  0.92176454  0.24340431  0.79796663  1
  Se  Se201  1  0.91933286  0.58565482  0.30735162  1
  Se  Se202  1  0.91784364  0.57784442  0.80984228  1
  Se  Se203  1  0.92259286  0.91777184  0.30200014  1
  Se  Se204  1  0.90744108  0.91022564  0.80879856  1
  Se  Se205  1  0.07546563  0.06835391  0.30662203  1
  Se  Se206  1  0.09462383  0.07502725  0.81689325  1
  Se  Se207  1  0.08206663  0.41763925  0.30398398  1
  Se  Se208  1  0.08334970  0.40781036  0.79893232  1
  Se  Se209  1  0.08888155  0.75289994  0.30405375  1
  Se  Se210  1  0.08345068  0.75255603  0.80671119  1
  Se  Se211  1  0.41412293  0.08065308  0.30213526  1
  Se  Se212  1  0.40915307  0.07995306  0.80410926  1
  Se  Se213  1  0.41593760  0.42046718  0.30619212  1
  Se  Se214  1  0.43071273  0.41982687  0.81169355  1
  Se  Se215  1  0.41590600  0.74974418  0.30388066  1
  Se  Se216  1  0.40839650  0.75251100  0.80569897  1
  Se  Se217  1  0.75230024  0.09389992  0.31015726  1
  Se  Se218  1  0.74636275  0.08607917  0.79509509  1
  Se  Se219  1  0.75208686  0.41829979  0.31598151  1
  Se  Se220  1  0.76034537  0.42594950  0.81289457  1
  Se  Se221  1  0.75983203  0.75513554  0.31337749  1
  Se  Se222  1  0.74733034  0.74619675  0.79623934  1
  Se  Se223  1  0.25548144  0.09288092  0.19383312  1
  Se  Se224  1  0.25081014  0.07125357  0.69717519  1
  Se  Se225  1  0.23860912  0.42811379  0.18769926  1
  Se  Se226  1  0.24739544  0.41291240  0.68922076  1
  Se  Se227  1  0.25462490  0.75334688  0.19823336  1
  Se  Se228  1  0.24826577  0.74660200  0.69329730  1
  Se  Se229  1  0.57237855  0.07521907  0.18514560  1
  Se  Se230  1  0.58102577  0.08165923  0.69283529  1
  Se  Se231  1  0.57007668  0.41960838  0.18669353  1
  Se  Se232  1  0.57509336  0.42705086  0.69842912  1
  Se  Se233  1  0.57800497  0.75684975  0.19116280  1
  Se  Se234  1  0.57755863  0.75307841  0.69990711  1
  Se  Se235  1  0.91219880  0.08170784  0.21044285  1
  Se  Se236  1  0.90891313  0.08702712  0.68255554  1
  Se  Se237  1  0.91758706  0.41419910  0.20050182  1
  Se  Se238  1  0.92303407  0.41547079  0.69409645  1
  Se  Se239  1  0.92470271  0.74328824  0.19869977  1
  Se  Se240  1  0.90926284  0.76388135  0.68552751  1
  Se  Se241  1  0.07975804  0.26010256  0.20879036  1
  Se  Se242  1  0.08543217  0.24191644  0.69850139  1
  Se  Se243  1  0.08139276  0.58978329  0.20132143  1
  Se  Se244  1  0.09462357  0.57483655  0.68227518  1
  Se  Se245  1  0.08905122  0.92018532  0.19914431  1
  Se  Se246  1  0.08457860  0.90779424  0.69214097  1
  Se  Se247  1  0.41923311  0.24466732  0.18509870  1
  Se  Se248  1  0.41702001  0.24322474  0.68949306  1
  Se  Se249  1  0.41049466  0.59178027  0.19671000  1
  Se  Se250  1  0.41480841  0.57452588  0.70598704  1
  Se  Se251  1  0.41436752  0.92276408  0.19255034  1
  Se  Se252  1  0.41001731  0.91855400  0.69555188  1
  Se  Se253  1  0.75439786  0.23226786  0.19322951  1
  Se  Se254  1  0.75181157  0.24876530  0.68281823  1
  Se  Se255  1  0.75886291  0.56995164  0.19447932  1
  Se  Se256  1  0.75452421  0.58375515  0.69614904  1
  Se  Se257  1  0.76137375  0.90522481  0.19054745  1
  Se  Se258  1  0.73958944  0.92479228  0.69811051  1
