# generated using pymatgen
data_In86Cu29Se144
_symmetry_space_group_name_H-M   'P 1'
_cell_length_a   17.71484923
_cell_length_b   17.70916339
_cell_length_c   23.58351689
_cell_angle_alpha   90.00718437
_cell_angle_beta   90.01141120
_cell_angle_gamma   90.01875772
_symmetry_Int_Tables_number   1
_chemical_formula_structural   In86Cu29Se144
_chemical_formula_sum   'In86 Cu29 Se144'
_cell_volume   7398.50615726
_cell_formula_units_Z   1
loop_
 _symmetry_equiv_pos_site_id
 _symmetry_equiv_pos_as_xyz
  1  'x, y, z'
loop_
 _atom_site_type_symbol
 _atom_site_label
 _atom_site_symmetry_multiplicity
 _atom_site_fract_x
 _atom_site_fract_y
 _atom_site_fract_z
 _atom_site_occupancy
  In  In0  1  -0.00101195  0.17013184  0.12096902  1
  In  In1  1  0.00590567  0.17680798  0.62062888  1
  In  In2  1  0.00800839  0.48778606  0.13509682  1
  In  In3  1  -0.00244336  0.49492069  0.61519357  1
  In  In4  1  0.00097404  0.84073881  0.12393972  1
  In  In5  1  -0.00366086  0.83424421  0.61959759  1
  In  In6  1  0.33765671  0.18392646  0.12109222  1
  In  In7  1  0.32887727  0.15583929  0.62834639  1
  In  In8  1  0.32515441  0.49637687  0.11903118  1
  In  In9  1  0.33343874  0.49856829  0.61772754  1
  In  In10  1  0.33275872  0.84025041  0.12028942  1
  In  In11  1  0.35876088  0.82790956  0.63445013  1
  In  In12  1  0.66428260  0.15123048  0.12349701  1
  In  In13  1  0.66215876  0.18015011  0.63090445  1
  In  In14  1  0.67339074  0.51347970  0.13000465  1
  In  In15  1  0.66495644  0.50100485  0.62737362  1
  In  In16  1  0.67884448  0.82991981  0.13667196  1
  In  In17  1  0.64303724  0.85113715  0.65046496  1
  In  In18  1  0.15943585  0.00330811  0.37167298  1
  In  In19  1  0.16927968  -0.00362749  0.88504385  1
  In  In20  1  0.16914466  0.33224547  0.36721704  1
  In  In21  1  0.15809071  0.34418223  0.87781762  1
  In  In22  1  0.14829486  0.66441519  0.36687680  1
  In  In23  1  0.17392042  0.66753331  0.89014185  1
  In  In24  1  0.50582971  -0.01394999  0.38585551  1
  In  In25  1  0.50363746  -0.00268453  0.86167301  1
  In  In26  1  0.48979115  0.34179579  0.38378374  1
  In  In27  1  0.51099327  0.33808478  0.87160729  1
  In  In28  1  0.51296742  0.65795633  0.38816121  1
  In  In29  1  0.49853134  0.65697842  0.87003470  1
  In  In30  1  0.82561667  -0.01230658  0.35844843  1
  In  In31  1  0.83199903  0.00175777  0.88017278  1
  In  In32  1  0.84854779  0.33411276  0.37381159  1
  In  In33  1  0.82749294  0.32485809  0.86958286  1
  In  In34  1  0.82902478  0.65120122  0.37766589  1
  In  In35  1  0.83523830  0.67702125  0.87723996  1
  In  In36  1  -0.00107273  0.16204841  0.36219430  1
  In  In37  1  -0.00631325  0.17350538  0.88296594  1
  In  In38  1  0.00074840  0.49374270  0.37529639  1
  In  In39  1  0.01267648  0.49679820  0.87520518  1
  In  In40  1  -0.06681401  0.79602318  0.30420485  1
  In  In41  1  0.00002239  0.82981148  0.88863438  1
  In  In42  1  0.32673643  0.17500264  0.37449164  1
  In  In43  1  0.33223859  0.15826233  0.87502418  1
  In  In44  1  0.33754595  0.49234775  0.37893787  1
  In  In45  1  0.32945529  0.50979880  0.88376981  1
  In  In46  1  0.33569427  0.83859390  0.37887668  1
  In  In47  1  0.32102458  0.82789210  0.87655564  1
  In  In48  1  0.66512812  0.15088059  0.37938854  1
  In  In49  1  0.67218041  0.16842613  0.86956457  1
  In  In50  1  0.66594986  0.50946259  0.38841955  1
  In  In51  1  0.66239155  0.49215187  0.86781730  1
  In  In52  1  0.66531009  0.82428571  0.37369306  1
  In  In53  1  0.67281799  0.84065600  0.86529893  1
  In  In54  1  0.15554508  -0.00529983  0.11328862  1
  In  In55  1  0.17400577  0.01128657  0.62753310  1
  In  In56  1  0.16759806  0.33770436  0.11993869  1
  In  In57  1  0.14899462  0.33966026  0.63902553  1
  In  In58  1  0.15668752  0.65215132  0.11770235  1
  In  In59  1  0.17635188  0.66351934  0.62436834  1
  In  In60  1  0.51316499  -0.00411008  0.12862940  1
  In  In61  1  0.49807391  0.00852771  0.62733959  1
  In  In62  1  0.48847164  0.33542931  0.12866712  1
  In  In63  1  0.50930217  0.34591132  0.61692726  1
  In  In64  1  0.51891777  0.66917791  0.13195839  1
  In  In65  1  0.52099688  0.67981815  0.60712531  1
  In  In66  1  0.83129402  0.00124456  0.12261507  1
  In  In67  1  0.83198459  -0.01438293  0.62363135  1
  In  In68  1  0.84453273  0.33423816  0.12556336  1
  In  In69  1  0.83386567  0.33599614  0.62813196  1
  In  In70  1  0.82447349  0.66999644  0.13076291  1
  In  In71  1  0.82650710  0.65301530  0.61947494  1
  In  In72  1  0.82486414  0.80588531  0.48918384  1
  In  In73  1  0.83222026  0.49916353  0.00463457  1
  In  In74  1  -0.00073891  0.00495798  0.75449126  1
  In  In75  1  0.83013696  0.16837415  0.50003525  1
  In  In76  1  0.16726350  0.83888782  0.49515075  1
  In  In77  1  0.66473103  0.32934377  0.25933259  1
  In  In78  1  0.33650853  0.66524542  0.75598399  1
  In  In79  1  0.50176843  0.16829543  -0.00491545  1
  In  In80  1  0.33157174  0.00633922  0.24189201  1
  In  In81  1  0.16865617  0.16792182  0.49965266  1
  In  In82  1  0.49780189  0.82640092  -0.00838507  1
  In  In83  1  0.33679775  0.66780962  0.24491239  1
  In  In84  1  0.00114054  0.66336243  0.75403101  1
  In  In85  1  0.33577845  0.33199318  0.75019665  1
  Cu  Cu86  1  0.66288527  -0.00596839  0.50532394  1
  Cu  Cu87  1  -0.00412367  0.00313095  0.00137409  1
  Cu  Cu88  1  0.50881981  0.82905275  0.25863497  1
  Cu  Cu89  1  0.34044677  -0.00401091  0.50705943  1
  Cu  Cu90  1  0.16272064  0.83573344  0.24288969  1
  Cu  Cu91  1  0.32976184  0.32855636  0.49881488  1
  Cu  Cu92  1  -0.00164183  -0.00513342  0.48717860  1
  Cu  Cu93  1  0.16477651  0.17555492  0.24190583  1
  Cu  Cu94  1  0.33306002  0.00533903  0.00061634  1
  Cu  Cu95  1  0.50256869  0.50037745  0.26070348  1
  Cu  Cu96  1  0.66343216  0.33346773  -0.00724421  1
  Cu  Cu97  1  -0.00524228  0.66861886  0.00507299  1
  Cu  Cu98  1  0.00052731  0.33619623  0.00337614  1
  Cu  Cu99  1  -0.00073929  0.66418028  0.49053272  1
  Cu  Cu100  1  0.83607737  0.50245977  0.25104611  1
  Cu  Cu101  1  0.83645406  0.16230551  0.75350104  1
  Cu  Cu102  1  0.83501836  0.49446294  0.74419289  1
  Cu  Cu103  1  0.50590531  0.17163607  0.74844800  1
  Cu  Cu104  1  0.67278213  -0.00754990  -0.00140590  1
  Cu  Cu105  1  0.83364830  0.16543004  0.24632180  1
  Cu  Cu106  1  0.16805678  0.49784629  0.24593031  1
  Cu  Cu107  1  0.33152761  0.34139122  0.00029489  1
  Cu  Cu108  1  0.83168602  0.82874140  0.75056235  1
  Cu  Cu109  1  0.66932433  0.33639007  0.50477420  1
  Cu  Cu110  1  0.49321460  0.16416540  0.25160489  1
  Cu  Cu111  1  0.33195383  0.66096798  0.49981119  1
  Cu  Cu112  1  0.66735113  0.66586690  0.00530191  1
  Cu  Cu113  1  0.16660383  0.84113307  0.75651687  1
  Cu  Cu114  1  0.50177463  0.50281703  0.74313236  1
  Se  Se115  1  0.08101690  0.08885211  0.05007356  1
  Se  Se116  1  0.07412034  0.07063819  0.55301385  1
  Se  Se117  1  0.08237409  0.42299837  0.05364110  1
  Se  Se118  1  0.08685720  0.40842204  0.55627984  1
  Se  Se119  1  0.07996477  0.74981422  0.05810458  1
  Se  Se120  1  0.07793100  0.74203931  0.55516221  1
  Se  Se121  1  0.41835369  0.07705233  0.06166998  1
  Se  Se122  1  0.41578087  0.08895795  0.55536512  1
  Se  Se123  1  0.41890316  0.41759978  0.05492362  1
  Se  Se124  1  0.41318087  0.41355859  0.55074838  1
  Se  Se125  1  0.42077201  0.74442200  0.06487756  1
  Se  Se126  1  0.41213042  0.74744456  0.55198661  1
  Se  Se127  1  0.74864315  0.08284350  0.05055295  1
  Se  Se128  1  0.74427917  0.07628499  0.56179895  1
  Se  Se129  1  0.73913010  0.40818141  0.06174304  1
  Se  Se130  1  0.75054558  0.41632720  0.56029919  1
  Se  Se131  1  0.74718983  0.75047466  0.05825398  1
  Se  Se132  1  0.74625829  0.76330587  0.57597547  1
  Se  Se133  1  0.25110726  0.25417597  0.05082835  1
  Se  Se134  1  0.25164447  0.25583889  0.56417867  1
  Se  Se135  1  0.25941246  0.59328053  0.05510657  1
  Se  Se136  1  0.24637334  0.58055816  0.55133513  1
  Se  Se137  1  0.25169326  0.91877925  0.05117917  1
  Se  Se138  1  0.25592265  0.91674989  0.56424565  1
  Se  Se139  1  0.58725847  0.25648872  0.06027931  1
  Se  Se140  1  0.58521631  0.25026963  0.55331039  1
  Se  Se141  1  0.58620058  0.58212108  0.05788274  1
  Se  Se142  1  0.57146081  0.56349442  0.55630499  1
  Se  Se143  1  0.58896138  0.91251030  0.05533133  1
  Se  Se144  1  0.58088697  0.91714351  0.56354801  1
  Se  Se145  1  0.91380221  0.25237495  0.05145802  1
  Se  Se146  1  0.92367412  0.25971592  0.55237822  1
  Se  Se147  1  0.92065736  0.58505353  0.06718283  1
  Se  Se148  1  0.91906785  0.58726095  0.55122281  1
  Se  Se149  1  0.91477104  0.91859561  0.05476191  1
  Se  Se150  1  0.91684569  0.91518593  0.54615115  1
  Se  Se151  1  0.07794493  0.24797278  0.43519416  1
  Se  Se152  1  0.08233752  0.25595351  0.94684596  1
  Se  Se153  1  0.08576005  0.57938988  0.44277537  1
  Se  Se154  1  0.07542259  0.58843364  0.94726919  1
  Se  Se155  1  0.07365199  0.91131994  0.42974286  1
  Se  Se156  1  0.08146868  0.91788641  0.95144322  1
  Se  Se157  1  0.41269672  0.24580715  0.44602753  1
  Se  Se158  1  0.41123707  0.26176769  0.93863134  1
  Se  Se159  1  0.41564520  0.57932052  0.44600777  1
  Se  Se160  1  0.41350452  0.59623223  0.94456736  1
  Se  Se161  1  0.41739692  0.90892011  0.45298159  1
  Se  Se162  1  0.41281535  0.92789990  0.93887933  1
  Se  Se163  1  0.74184385  0.25774126  0.43783096  1
  Se  Se164  1  0.74715932  0.24914131  0.94368123  1
  Se  Se165  1  0.74482027  0.59517091  0.45514357  1
  Se  Se166  1  0.74512681  0.58627240  0.94157715  1
  Se  Se167  1  0.74812515  0.92235042  0.44317489  1
  Se  Se168  1  0.75209832  0.90911835  0.94295474  1
  Se  Se169  1  0.25846197  0.07025234  0.44311421  1
  Se  Se170  1  0.24992059  0.08854499  0.94954625  1
  Se  Se171  1  0.24869574  0.40861111  0.44113715  1
  Se  Se172  1  0.24697768  0.42079734  0.94576435  1
  Se  Se173  1  0.25214190  0.73954014  0.43721127  1
  Se  Se174  1  0.25351670  0.75409414  0.95429121  1
  Se  Se175  1  0.58162426  0.07834739  0.45148336  1
  Se  Se176  1  0.58938823  0.07217132  0.93993984  1
  Se  Se177  1  0.58504235  0.41448808  0.44748498  1
  Se  Se178  1  0.58251847  0.42146670  0.94518194  1
  Se  Se179  1  0.58456118  0.75640876  0.44849100  1
  Se  Se180  1  0.59519279  0.74122336  0.93676092  1
  Se  Se181  1  0.91469406  0.07970437  0.43529331  1
  Se  Se182  1  0.91271023  0.08497664  0.94735906  1
  Se  Se183  1  0.90917994  0.42449306  0.44466769  1
  Se  Se184  1  0.91806924  0.41238069  0.94071021  1
  Se  Se185  1  0.93179703  0.74851119  0.42760461  1
  Se  Se186  1  0.91055379  0.75071955  0.95354917  1
  Se  Se187  1  0.25152783  0.24905448  0.29876058  1
  Se  Se188  1  0.24683929  0.25035860  0.81391639  1
  Se  Se189  1  0.24802352  0.57897526  0.30657320  1
  Se  Se190  1  0.23741290  0.58047273  0.80993849  1
  Se  Se191  1  0.24689592  0.91128598  0.30343722  1
  Se  Se192  1  0.24950332  0.92120808  0.81011160  1
  Se  Se193  1  0.57180782  0.24020279  0.31599849  1
  Se  Se194  1  0.58766655  0.25258322  0.80400140  1
  Se  Se195  1  0.58707970  0.58242524  0.31109854  1
  Se  Se196  1  0.58436167  0.58114024  0.80132393  1
  Se  Se197  1  0.58722940  0.91803556  0.30966643  1
  Se  Se198  1  0.58371999  0.91248138  0.79773079  1
  Se  Se199  1  0.91543739  0.24953875  0.29902263  1
  Se  Se200  1  0.91853191  0.24724060  0.80475930  1
  Se  Se201  1  0.91931834  0.58086096  0.30739659  1
  Se  Se202  1  0.90762258  0.57354052  0.81171687  1
  Se  Se203  1  0.94587495  0.94108999  0.31150328  1
  Se  Se204  1  0.91613364  0.90508743  0.81071092  1
  Se  Se205  1  0.09154452  0.08672429  0.29730777  1
  Se  Se206  1  0.08610895  0.08747247  0.81802134  1
  Se  Se207  1  0.08519497  0.41774155  0.30263412  1
  Se  Se208  1  0.07935639  0.41456503  0.80140552  1
  Se  Se209  1  0.08070253  0.75799418  0.30013310  1
  Se  Se210  1  0.09030552  0.75601005  0.81381930  1
  Se  Se211  1  0.41817587  0.08124578  0.31352011  1
  Se  Se212  1  0.42242926  0.09258007  0.80406267  1
  Se  Se213  1  0.41592756  0.41447163  0.30503722  1
  Se  Se214  1  0.42105877  0.42938234  0.80894801  1
  Se  Se215  1  0.42243213  0.75081005  0.31363569  1
  Se  Se216  1  0.42368977  0.76207872  0.80993749  1
  Se  Se217  1  0.74860549  0.08818595  0.30227265  1
  Se  Se218  1  0.75421444  0.07926194  0.80617155  1
  Se  Se219  1  0.75418646  0.42452545  0.31281001  1
  Se  Se220  1  0.75243951  0.41510743  0.80278925  1
  Se  Se221  1  0.77172450  0.76075062  0.31327723  1
  Se  Se222  1  0.75103794  0.74431070  0.80313855  1
  Se  Se223  1  0.24332777  0.09362407  0.18091615  1
  Se  Se224  1  0.24368431  0.08890041  0.70193982  1
  Se  Se225  1  0.25121476  0.41594711  0.19232965  1
  Se  Se226  1  0.24805648  0.42685330  0.69443029  1
  Se  Se227  1  0.24437660  0.75590453  0.18648564  1
  Se  Se228  1  0.24461700  0.75972939  0.69485719  1
  Se  Se229  1  0.57993945  0.08558287  0.19949382  1
  Se  Se230  1  0.58746545  0.08720535  0.69531315  1
  Se  Se231  1  0.58145940  0.42147549  0.19531154  1
  Se  Se232  1  0.58486818  0.41357916  0.69667046  1
  Se  Se233  1  0.59350526  0.74857839  0.20488145  1
  Se  Se234  1  0.57640647  0.73834739  0.69749817  1
  Se  Se235  1  0.91554006  0.08729819  0.18863861  1
  Se  Se236  1  0.91191836  0.08777581  0.68543809  1
  Se  Se237  1  0.91498975  0.41398266  0.20075069  1
  Se  Se238  1  0.92310707  0.41796997  0.69217095  1
  Se  Se239  1  0.91730440  0.75366091  0.19083999  1
  Se  Se240  1  0.91348301  0.75220782  0.68998356  1
  Se  Se241  1  0.08204009  0.25616461  0.18741533  1
  Se  Se242  1  0.09984646  0.22410251  0.69451861  1
  Se  Se243  1  0.08288927  0.58419287  0.19816984  1
  Se  Se244  1  0.08636730  0.58030518  0.68829724  1
  Se  Se245  1  0.08335591  0.92454731  0.19289330  1
  Se  Se246  1  0.08549922  0.91087940  0.69089012  1
  Se  Se247  1  0.41507277  0.25096809  0.20002222  1
  Se  Se248  1  0.42582651  0.24850884  0.68658890  1
  Se  Se249  1  0.42800373  0.57401224  0.19146467  1
  Se  Se250  1  0.41891354  0.58206739  0.68680827  1
  Se  Se251  1  0.42810803  0.90523388  0.19604509  1
  Se  Se252  1  0.40753255  0.93528983  0.69560039  1
  Se  Se253  1  0.74942953  0.24639239  0.18942336  1
  Se  Se254  1  0.75837602  0.24798111  0.69676144  1
  Se  Se255  1  0.74997467  0.58793010  0.20459622  1
  Se  Se256  1  0.75140653  0.58115856  0.69659287  1
  Se  Se257  1  0.74147034  0.93461242  0.19449207  1
  Se  Se258  1  0.75413610  0.92063498  0.70183220  1
