# generated using pymatgen
data_In86Cu29Se144
_symmetry_space_group_name_H-M   'P 1'
_cell_length_a   17.59936315
_cell_length_b   17.60051073
_cell_length_c   23.46762328
_cell_angle_alpha   89.99422529
_cell_angle_beta   90.00130313
_cell_angle_gamma   89.97713758
_symmetry_Int_Tables_number   1
_chemical_formula_structural   In86Cu29Se144
_chemical_formula_sum   'In86 Cu29 Se144'
_cell_volume   7269.27827081
_cell_formula_units_Z   1
loop_
 _symmetry_equiv_pos_site_id
 _symmetry_equiv_pos_as_xyz
  1  'x, y, z'
loop_
 _atom_site_type_symbol
 _atom_site_label
 _atom_site_symmetry_multiplicity
 _atom_site_fract_x
 _atom_site_fract_y
 _atom_site_fract_z
 _atom_site_occupancy
  In  In0  1  -0.01699695  0.17712529  0.14496115  1
  In  In1  1  -0.01084825  0.17743975  0.62761484  1
  In  In2  1  -0.01115579  0.51370629  0.12758914  1
  In  In3  1  -0.01404977  0.49053907  0.61861268  1
  In  In4  1  0.01072884  0.82895835  0.13442309  1
  In  In5  1  0.00989596  0.83662991  0.62074927  1
  In  In6  1  0.34880509  0.17407589  0.11781961  1
  In  In7  1  0.34748040  0.17726368  0.62573688  1
  In  In8  1  0.36031048  0.48485924  0.14324350  1
  In  In9  1  0.34267935  0.48534412  0.63084771  1
  In  In10  1  0.32294351  0.82880239  0.12010956  1
  In  In11  1  0.33200882  0.82593903  0.61811248  1
  In  In12  1  0.65878791  0.19118040  0.14415339  1
  In  In13  1  0.67236526  0.16443035  0.62800302  1
  In  In14  1  0.65259438  0.48915699  0.11845680  1
  In  In15  1  0.65215333  0.48122387  0.60723875  1
  In  In16  1  0.66480842  0.84563548  0.12560554  1
  In  In17  1  0.66641308  0.84934154  0.62295141  1
  In  In18  1  0.14476768  -0.00687882  0.37764835  1
  In  In19  1  0.15298191  -0.00038388  0.87963799  1
  In  In20  1  0.17031326  0.34029364  0.36501713  1
  In  In21  1  0.16307562  0.33322124  0.86941308  1
  In  In22  1  0.17637089  0.67047547  0.36818439  1
  In  In23  1  0.17619614  0.66620062  0.88065206  1
  In  In24  1  0.50004835  -0.00873512  0.37442728  1
  In  In25  1  0.50412330  -0.00427319  0.87885560  1
  In  In26  1  0.51903038  0.34951608  0.35918507  1
  In  In27  1  0.49882927  0.33324876  0.87944338  1
  In  In28  1  0.49546890  0.66709676  0.37397287  1
  In  In29  1  0.50171739  0.66557850  0.88602828  1
  In  In30  1  0.84649762  0.01370519  0.36707525  1
  In  In31  1  0.83523370  0.00611348  0.86749978  1
  In  In32  1  0.83294849  0.32992534  0.37642959  1
  In  In33  1  0.83468376  0.33708635  0.87022577  1
  In  In34  1  0.83074788  0.64955347  0.37248707  1
  In  In35  1  0.82417129  0.66358460  0.88022417  1
  In  In36  1  -0.01982109  0.15593834  0.35906543  1
  In  In37  1  -0.00327394  0.16561676  0.86953422  1
  In  In38  1  -0.01353455  0.48722371  0.36466237  1
  In  In39  1  0.00431612  0.49345965  0.87745767  1
  In  In40  1  0.01283030  0.84360658  0.37318358  1
  In  In41  1  -0.00643448  0.84618224  0.87960977  1
  In  In42  1  0.32594255  0.17467223  0.37332580  1
  In  In43  1  0.34158589  0.18589646  0.87481550  1
  In  In44  1  0.34639345  0.50753265  0.36053517  1
  In  In45  1  0.34611788  0.48901166  0.88382435  1
  In  In46  1  0.33865428  0.82177823  0.37958021  1
  In  In47  1  0.33448196  0.82723168  0.88441183  1
  In  In48  1  0.69282555  0.18530388  0.35799998  1
  In  In49  1  0.66100137  0.16291579  0.87078540  1
  In  In50  1  0.67279880  0.48421006  0.38483887  1
  In  In51  1  0.66860495  0.49261264  0.88107737  1
  In  In52  1  0.65257863  0.83471789  0.37245765  1
  In  In53  1  0.65781597  0.83587473  0.87614193  1
  In  In54  1  0.16461944  -0.00995276  0.12499643  1
  In  In55  1  0.16213742  -0.00972339  0.62231684  1
  In  In56  1  0.16981018  0.33114116  0.12922543  1
  In  In57  1  0.16856425  0.32657870  0.63062851  1
  In  In58  1  0.16177611  0.67630160  0.12845407  1
  In  In59  1  0.15788847  0.67182722  0.61928800  1
  In  In60  1  0.51003729  0.01047417  0.11716030  1
  In  In61  1  0.51303647  0.00503250  0.62152469  1
  In  In62  1  0.50343118  0.33821792  0.12430948  1
  In  In63  1  0.50509333  0.33907490  0.63150677  1
  In  In64  1  0.48607667  0.65404751  0.12233929  1
  In  In65  1  0.49766271  0.66134807  0.61867189  1
  In  In66  1  0.82684104  0.01125333  0.14266930  1
  In  In67  1  0.82705358  0.01151860  0.62798000  1
  In  In68  1  0.81451651  0.34291972  0.13763385  1
  In  In69  1  0.83000524  0.33312624  0.62362979  1
  In  In70  1  0.85211633  0.65858166  0.12609219  1
  In  In71  1  0.83842406  0.65348868  0.61840775  1
  In  In72  1  0.66231135  0.66242308  0.25061541  1
  In  In73  1  0.16027865  0.16511665  0.49545346  1
  In  In74  1  0.16753986  0.50649654  0.49934403  1
  In  In75  1  0.82918105  0.16745468  0.00777123  1
  In  In76  1  0.83571906  0.82941083  0.00818686  1
  In  In77  1  0.33478285  0.65980344  0.75085109  1
  In  In78  1  0.16822505  0.50845156  0.00661003  1
  In  In79  1  0.82933812  0.83055030  0.50170500  1
  In  In80  1  0.33123199  0.00345234  0.74557526  1
  In  In81  1  0.00024870  0.66557065  0.74411478  1
  In  In82  1  0.50581258  0.16688561  0.49860361  1
  In  In83  1  0.33160229  0.00334705  0.24688629  1
  In  In84  1  0.17104089  0.15925335  0.00652283  1
  In  In85  1  0.66614367  0.66394218  0.75613931  1
  Cu  Cu86  1  0.16818219  0.83373111  0.25128792  1
  Cu  Cu87  1  -0.00635265  0.32806579  0.49497257  1
  Cu  Cu88  1  0.34140039  0.34014390  0.49748653  1
  Cu  Cu89  1  0.66154837  0.33337374  0.00430782  1
  Cu  Cu90  1  0.83157591  0.17139656  0.74870551  1
  Cu  Cu91  1  0.83530313  0.83264591  0.24830346  1
  Cu  Cu92  1  0.49193801  0.83184007  0.24958984  1
  Cu  Cu93  1  0.83257652  0.49815281  0.25044269  1
  Cu  Cu94  1  0.66129345  0.66359330  0.49180794  1
  Cu  Cu95  1  0.83255738  0.49341497  0.74709542  1
  Cu  Cu96  1  0.33487293  0.66542471  0.49406833  1
  Cu  Cu97  1  0.83649651  0.84594469  0.74658027  1
  Cu  Cu98  1  0.50648159  0.83859441  0.75135684  1
  Cu  Cu99  1  0.16514559  0.50626091  0.24438847  1
  Cu  Cu100  1  0.32993021  -0.01206829  0.49761855  1
  Cu  Cu101  1  0.15996484  0.83849816  0.75262898  1
  Cu  Cu102  1  0.00423228  0.67005629  0.49275053  1
  Cu  Cu103  1  0.32894801  0.66980529  0.00800153  1
  Cu  Cu104  1  0.33752941  -0.00252274  0.00002342  1
  Cu  Cu105  1  0.66541165  0.00083823  0.00007061  1
  Cu  Cu106  1  0.16216156  0.16529001  0.75212041  1
  Cu  Cu107  1  0.66351591  -0.00043820  0.49783415  1
  Cu  Cu108  1  0.66543801  0.66200711  0.00184810  1
  Cu  Cu109  1  0.50299013  0.17034996  0.24380195  1
  Cu  Cu110  1  0.16541047  0.48852666  0.74983410  1
  Cu  Cu111  1  0.16632566  0.16991044  0.25006555  1
  Cu  Cu112  1  0.50524644  0.17555749  0.74990983  1
  Cu  Cu113  1  0.00177427  -0.00491258  0.00738047  1
  Cu  Cu114  1  -0.00189767  0.33644085  -0.00190045  1
  Se  Se115  1  0.07012521  0.08517458  0.06786222  1
  Se  Se116  1  0.07425302  0.08204559  0.56098059  1
  Se  Se117  1  0.07717771  0.41276162  0.06125441  1
  Se  Se118  1  0.08168236  0.40402497  0.55414964  1
  Se  Se119  1  0.08089371  0.75402351  0.05658712  1
  Se  Se120  1  0.08419315  0.75374349  0.54698604  1
  Se  Se121  1  0.42002892  0.08469767  0.04853351  1
  Se  Se122  1  0.40719367  0.07434459  0.55517473  1
  Se  Se123  1  0.42087100  0.42202053  0.05642339  1
  Se  Se124  1  0.42424438  0.41617433  0.55563601  1
  Se  Se125  1  0.41821291  0.75272430  0.05635129  1
  Se  Se126  1  0.41816148  0.74760079  0.55101766  1
  Se  Se127  1  0.73775749  0.07938326  0.06562246  1
  Se  Se128  1  0.74497755  0.08255199  0.55261689  1
  Se  Se129  1  0.75058975  0.41535882  0.05412395  1
  Se  Se130  1  0.77402051  0.43853513  0.55769090  1
  Se  Se131  1  0.74291347  0.73921925  0.06639013  1
  Se  Se132  1  0.73629282  0.73893674  0.56073421  1
  Se  Se133  1  0.25899138  0.26186511  0.05308524  1
  Se  Se134  1  0.25902588  0.25582088  0.55277136  1
  Se  Se135  1  0.26005196  0.58567660  0.07215882  1
  Se  Se136  1  0.26185353  0.58890328  0.56408200  1
  Se  Se137  1  0.24802504  0.91929909  0.05115512  1
  Se  Se138  1  0.24614960  0.91065362  0.55408255  1
  Se  Se139  1  0.58464220  0.24549910  0.05842013  1
  Se  Se140  1  0.59131037  0.25635920  0.55995872  1
  Se  Se141  1  0.57724965  0.58160535  0.05324593  1
  Se  Se142  1  0.57832412  0.58176739  0.54793952  1
  Se  Se143  1  0.58160622  0.91429916  0.05008494  1
  Se  Se144  1  0.57865684  0.91515371  0.54832999  1
  Se  Se145  1  0.91965459  0.26090694  0.06245285  1
  Se  Se146  1  0.91022911  0.24891400  0.55143266  1
  Se  Se147  1  0.91356595  0.57919726  0.04707743  1
  Se  Se148  1  0.92439771  0.58379653  0.54585484  1
  Se  Se149  1  0.91546132  0.92542304  0.06988616  1
  Se  Se150  1  0.91589949  0.92282555  0.56051681  1
  Se  Se151  1  0.07962142  0.25788491  0.43311108  1
  Se  Se152  1  0.07814868  0.25006971  0.94420730  1
  Se  Se153  1  0.07772611  0.58465407  0.43196856  1
  Se  Se154  1  0.07507504  0.59284409  0.94351039  1
  Se  Se155  1  0.07824179  0.91612299  0.45538225  1
  Se  Se156  1  0.08338793  0.91312373  0.95284018  1
  Se  Se157  1  0.41700204  0.25623606  0.43763372  1
  Se  Se158  1  0.42368919  0.24676425  0.95098990  1
  Se  Se159  1  0.41557230  0.57916256  0.44253033  1
  Se  Se160  1  0.40915701  0.58867957  0.94971049  1
  Se  Se161  1  0.41890741  0.91137789  0.44485168  1
  Se  Se162  1  0.42040704  0.91314644  0.94661483  1
  Se  Se163  1  0.74967161  0.24858685  0.44562935  1
  Se  Se164  1  0.74395363  0.25474186  0.94256072  1
  Se  Se165  1  0.75107855  0.57953067  0.44799236  1
  Se  Se166  1  0.74946826  0.57929985  0.94963785  1
  Se  Se167  1  0.74381037  0.91838266  0.43785124  1
  Se  Se168  1  0.75142714  0.92303601  0.94274466  1
  Se  Se169  1  0.25494031  0.07210131  0.43801395  1
  Se  Se170  1  0.25903023  0.07763026  0.93686382  1
  Se  Se171  1  0.25728245  0.41765485  0.43941876  1
  Se  Se172  1  0.24681644  0.40952676  0.94502166  1
  Se  Se173  1  0.24578325  0.74830643  0.44732357  1
  Se  Se174  1  0.24600368  0.75185647  0.95322306  1
  Se  Se175  1  0.59136398  0.08168164  0.43332444  1
  Se  Se176  1  0.58408743  0.08438210  0.94509804  1
  Se  Se177  1  0.57641628  0.41132479  0.44786855  1
  Se  Se178  1  0.58024372  0.41816837  0.95022912  1
  Se  Se179  1  0.57789615  0.75017535  0.44349010  1
  Se  Se180  1  0.58752467  0.75144866  0.94924943  1
  Se  Se181  1  0.91915070  0.08726525  0.44399402  1
  Se  Se182  1  0.92271198  0.07682869  0.94674744  1
  Se  Se183  1  0.91397969  0.41882476  0.44539430  1
  Se  Se184  1  0.91430429  0.41622987  0.94352966  1
  Se  Se185  1  0.91656907  0.74556310  0.43532370  1
  Se  Se186  1  0.92237827  0.74320766  0.94295515  1
  Se  Se187  1  0.25286055  0.25332561  0.29875059  1
  Se  Se188  1  0.24686064  0.24797523  0.80385426  1
  Se  Se189  1  0.25239083  0.58581449  0.29811899  1
  Se  Se190  1  0.24321348  0.56962374  0.81066693  1
  Se  Se191  1  0.24806121  0.91451904  0.31266693  1
  Se  Se192  1  0.24818036  0.91163864  0.81119898  1
  Se  Se193  1  0.59043693  0.25220512  0.29532466  1
  Se  Se194  1  0.58566915  0.25664418  0.80703985  1
  Se  Se195  1  0.58250312  0.57136686  0.31434446  1
  Se  Se196  1  0.57388237  0.57619546  0.81354294  1
  Se  Se197  1  0.57742764  0.91579277  0.29838073  1
  Se  Se198  1  0.58767915  0.92290851  0.80368841  1
  Se  Se199  1  0.92638234  0.26834135  0.30349619  1
  Se  Se200  1  0.91683693  0.25176306  0.80356555  1
  Se  Se201  1  0.91788341  0.58546875  0.29763845  1
  Se  Se202  1  0.90917209  0.57982882  0.80690732  1
  Se  Se203  1  0.91770755  0.91287679  0.30558647  1
  Se  Se204  1  0.92228190  0.92257356  0.80228601  1
  Se  Se205  1  0.08673395  0.08378163  0.30291441  1
  Se  Se206  1  0.08170534  0.07992081  0.80452156  1
  Se  Se207  1  0.08467836  0.42122614  0.29855073  1
  Se  Se208  1  0.07517981  0.41242452  0.80215620  1
  Se  Se209  1  0.08391329  0.75072506  0.30486630  1
  Se  Se210  1  0.08578506  0.75187928  0.81179871  1
  Se  Se211  1  0.42310137  0.09333467  0.30735238  1
  Se  Se212  1  0.42265987  0.08971107  0.80638119  1
  Se  Se213  1  0.40187343  0.39571928  0.30384993  1
  Se  Se214  1  0.41191327  0.40955803  0.80837351  1
  Se  Se215  1  0.41241300  0.74650153  0.30220595  1
  Se  Se216  1  0.42530119  0.75642363  0.80820994  1
  Se  Se217  1  0.73152611  0.06077834  0.30890689  1
  Se  Se218  1  0.74891479  0.08582854  0.80197688  1
  Se  Se219  1  0.75105809  0.41615862  0.30599644  1
  Se  Se220  1  0.74671358  0.41833853  0.80457508  1
  Se  Se221  1  0.75457747  0.75387873  0.31000105  1
  Se  Se222  1  0.76063487  0.76288927  0.80787375  1
  Se  Se223  1  0.24557980  0.09483304  0.18430808  1
  Se  Se224  1  0.24242937  0.09503768  0.68446772  1
  Se  Se225  1  0.24905197  0.41822606  0.19653439  1
  Se  Se226  1  0.25283370  0.40981334  0.69716509  1
  Se  Se227  1  0.25219888  0.75179782  0.19796441  1
  Se  Se228  1  0.23976752  0.75466446  0.69523913  1
  Se  Se229  1  0.58535699  0.08113551  0.19571518  1
  Se  Se230  1  0.58220263  0.08622051  0.69628224  1
  Se  Se231  1  0.59749949  0.40254038  0.19603049  1
  Se  Se232  1  0.59343979  0.42077119  0.69586409  1
  Se  Se233  1  0.57574527  0.75396227  0.18866329  1
  Se  Se234  1  0.58034625  0.75416507  0.68964082  1
  Se  Se235  1  0.93001925  0.06951386  0.20662296  1
  Se  Se236  1  0.91573256  0.08659526  0.69710193  1
  Se  Se237  1  0.91734437  0.41847205  0.19433226  1
  Se  Se238  1  0.91870443  0.41134426  0.69553560  1
  Se  Se239  1  0.91883609  0.74832407  0.19798068  1
  Se  Se240  1  0.90719910  0.75803255  0.68603285  1
  Se  Se241  1  0.08340783  0.25663471  0.19981887  1
  Se  Se242  1  0.08053765  0.24984336  0.69722736  1
  Se  Se243  1  0.07935226  0.58980028  0.19464205  1
  Se  Se244  1  0.09048905  0.56996441  0.68675184  1
  Se  Se245  1  0.08507564  0.92117759  0.20219076  1
  Se  Se246  1  0.07865124  0.91952029  0.69748916  1
  Se  Se247  1  0.41724983  0.25395425  0.19394625  1
  Se  Se248  1  0.41802952  0.25755185  0.69971425  1
  Se  Se249  1  0.42462815  0.58544642  0.20703064  1
  Se  Se250  1  0.43170796  0.57313829  0.69702405  1
  Se  Se251  1  0.42007354  0.91559706  0.18502995  1
  Se  Se252  1  0.42175151  0.90990557  0.68802779  1
  Se  Se253  1  0.78510273  0.22061502  0.19463103  1
  Se  Se254  1  0.74786620  0.25415726  0.69574448  1
  Se  Se255  1  0.75200335  0.57642794  0.18764575  1
  Se  Se256  1  0.75358278  0.57902280  0.69136187  1
  Se  Se257  1  0.74573727  0.91461425  0.20136073  1
  Se  Se258  1  0.74594758  0.92403117  0.69626937  1
