# generated using pymatgen
data_In86Cu29Se144
_symmetry_space_group_name_H-M   'P 1'
_cell_length_a   17.56489201
_cell_length_b   17.56766580
_cell_length_c   23.42595933
_cell_angle_alpha   89.99820847
_cell_angle_beta   90.03092356
_cell_angle_gamma   90.02409847
_symmetry_Int_Tables_number   1
_chemical_formula_structural   In86Cu29Se144
_chemical_formula_sum   'In86 Cu29 Se144'
_cell_volume   7228.64385299
_cell_formula_units_Z   1
loop_
 _symmetry_equiv_pos_site_id
 _symmetry_equiv_pos_as_xyz
  1  'x, y, z'
loop_
 _atom_site_type_symbol
 _atom_site_label
 _atom_site_symmetry_multiplicity
 _atom_site_fract_x
 _atom_site_fract_y
 _atom_site_fract_z
 _atom_site_occupancy
  In  In0  1  0.02400711  0.15001608  0.12028829  1
  In  In1  1  0.03329809  0.14590771  0.64945016  1
  In  In2  1  -0.00984908  0.49957917  0.12441913  1
  In  In3  1  0.00387214  0.50107813  0.62981307  1
  In  In4  1  0.00701709  0.83528401  0.11980245  1
  In  In5  1  -0.00606135  0.83862652  0.61933702  1
  In  In6  1  0.33239698  0.16462979  0.12149730  1
  In  In7  1  0.32374559  0.16162809  0.63216450  1
  In  In8  1  0.34868251  0.48323944  0.14228691  1
  In  In9  1  0.32192103  0.51326309  0.62238420  1
  In  In10  1  0.32856872  0.84149142  0.13406712  1
  In  In11  1  0.34375604  0.83735911  0.61335203  1
  In  In12  1  0.66289677  0.18174094  0.11888657  1
  In  In13  1  0.64957145  0.16469435  0.62362904  1
  In  In14  1  0.65283138  0.52363528  0.12940433  1
  In  In15  1  0.68192033  0.49666943  0.62457514  1
  In  In16  1  0.65490041  0.82568655  0.12734710  1
  In  In17  1  0.66270340  0.83305197  0.62684914  1
  In  In18  1  0.18343601  -0.02593817  0.40144984  1
  In  In19  1  0.16892711  -0.00083023  0.86290999  1
  In  In20  1  0.18729419  0.32203767  0.38644288  1
  In  In21  1  0.15834476  0.31312933  0.85113791  1
  In  In22  1  0.18388058  0.65531484  0.39971388  1
  In  In23  1  0.16830939  0.68358334  0.87285627  1
  In  In24  1  0.48577007  0.01119175  0.38678002  1
  In  In25  1  0.50833807  0.01129111  0.86942695  1
  In  In26  1  0.48145700  0.33922891  0.37420784  1
  In  In27  1  0.48352654  0.34144835  0.87385540  1
  In  In28  1  0.50691464  0.66493647  0.36769310  1
  In  In29  1  0.50504156  0.65593091  0.87420640  1
  In  In30  1  0.83320579  -0.01486233  0.38613283  1
  In  In31  1  0.83389918  0.00024564  0.85869617  1
  In  In32  1  0.85075139  0.32997998  0.38512998  1
  In  In33  1  0.83729358  0.32671041  0.86678204  1
  In  In34  1  0.82689600  0.67198315  0.38483825  1
  In  In35  1  0.82879287  0.66508353  0.86584884  1
  In  In36  1  0.01746892  0.16790973  0.38321888  1
  In  In37  1  0.00795542  0.16359437  0.85790036  1
  In  In38  1  -0.00328623  0.50311366  0.39244385  1
  In  In39  1  -0.00346197  0.49879967  0.86512028  1
  In  In40  1  0.01315029  0.82563228  0.39585709  1
  In  In41  1  0.01342031  0.84381892  0.85580362  1
  In  In42  1  0.33345970  0.16377352  0.37597710  1
  In  In43  1  0.32847950  0.16643873  0.86665012  1
  In  In44  1  0.33433793  0.49188347  0.36657818  1
  In  In45  1  0.35030447  0.49234512  0.87464138  1
  In  In46  1  0.33406800  0.83543909  0.38148151  1
  In  In47  1  0.31118645  0.83377108  0.87628198  1
  In  In48  1  0.66299623  0.14742688  0.37967758  1
  In  In49  1  0.66915769  0.15911428  0.87166567  1
  In  In50  1  0.65727681  0.52388499  0.37856169  1
  In  In51  1  0.64601756  0.50868423  0.87257353  1
  In  In52  1  0.67233159  0.81953525  0.38493066  1
  In  In53  1  0.66530432  0.83450629  0.86571157  1
  In  In54  1  0.17849549  0.01625246  0.10556523  1
  In  In55  1  0.16755032  0.00457516  0.62628323  1
  In  In56  1  0.18578490  0.33803602  0.12213702  1
  In  In57  1  0.16832540  0.33028187  0.63165222  1
  In  In58  1  0.17122034  0.68018275  0.12416908  1
  In  In59  1  0.16585798  0.65690348  0.61509706  1
  In  In60  1  0.48268881  -0.00696194  0.12126681  1
  In  In61  1  0.49444085  -0.00050274  0.62882542  1
  In  In62  1  0.48078359  0.32135822  0.11184143  1
  In  In63  1  0.49985043  0.31731801  0.62517951  1
  In  In64  1  0.50690090  0.65643126  0.13907646  1
  In  In65  1  0.48778454  0.68397336  0.62452200  1
  In  In66  1  0.84317993  -0.01317616  0.12104458  1
  In  In67  1  0.84559965  -0.01794117  0.62833332  1
  In  In68  1  0.83361846  0.33244765  0.12093024  1
  In  In69  1  0.84057998  0.34961024  0.62129742  1
  In  In70  1  0.82328000  0.65682608  0.12629174  1
  In  In71  1  0.83248954  0.66873918  0.62378985  1
  In  In72  1  0.83693805  0.16478602  -0.01690438  1
  In  In73  1  0.82509633  0.49774544  -0.00336010  1
  In  In74  1  0.49905722  0.49950801  0.49806941  1
  In  In75  1  0.33597499  0.66739711  0.75099625  1
  In  In76  1  0.00844061  0.66961474  0.24861415  1
  In  In77  1  0.65519649  0.34613339  0.25795150  1
  In  In78  1  0.65054892  -0.00621905  0.25047179  1
  In  In79  1  0.66834354  0.33640126  0.74998080  1
  In  In80  1  0.49731023  0.83172786  -0.00270400  1
  In  In81  1  0.00937353  -0.00600364  0.26255575  1
  In  In82  1  0.83820741  0.83276198  0.00261991  1
  In  In83  1  0.17521371  0.49835157  -0.00181194  1
  In  In84  1  0.00835024  0.33667512  0.25592973  1
  In  In85  1  0.83880052  0.16731090  0.51358321  1
  Cu  Cu86  1  0.83336676  0.15833840  0.24798529  1
  Cu  Cu87  1  0.64766217  0.34010259  -0.00162048  1
  Cu  Cu88  1  0.32885411  0.33029908  0.50193696  1
  Cu  Cu89  1  0.16492837  0.83170223  0.74051353  1
  Cu  Cu90  1  0.32842278  0.32463426  -0.00571030  1
  Cu  Cu91  1  0.00490271  0.67817730  -0.00885047  1
  Cu  Cu92  1  0.00789750  0.33721785  0.51020886  1
  Cu  Cu93  1  0.82554648  0.82268971  0.25787514  1
  Cu  Cu94  1  0.82324255  0.50781739  0.25977129  1
  Cu  Cu95  1  0.83233276  0.16900565  0.74308150  1
  Cu  Cu96  1  0.66580308  0.66562721  0.50437682  1
  Cu  Cu97  1  0.49299232  0.16283512  0.74748377  1
  Cu  Cu98  1  0.83721228  0.50898279  0.74604874  1
  Cu  Cu99  1  0.66678600  0.33034986  0.50329016  1
  Cu  Cu100  1  0.49317997  0.16814807  0.24838723  1
  Cu  Cu101  1  0.00983312  0.32023104  -0.00707096  1
  Cu  Cu102  1  0.65824999  -0.00516462  0.50543259  1
  Cu  Cu103  1  0.67102411  0.00650088  -0.00508893  1
  Cu  Cu104  1  0.83304511  0.83024256  0.74415527  1
  Cu  Cu105  1  0.49675271  0.83823598  0.74915471  1
  Cu  Cu106  1  0.17312185  0.83971208  0.25885332  1
  Cu  Cu107  1  -0.00469856  0.66464344  0.50999388  1
  Cu  Cu108  1  0.18180214  0.16461419  0.25028663  1
  Cu  Cu109  1  0.33087295  0.00498478  -0.00516268  1
  Cu  Cu110  1  0.49613902  0.83226727  0.25649972  1
  Cu  Cu111  1  0.16790182  0.50145150  0.74708546  1
  Cu  Cu112  1  0.33714407  0.66606294  0.00441126  1
  Cu  Cu113  1  0.33462122  0.00879315  0.50529735  1
  Cu  Cu114  1  0.17097759  0.50087629  0.25933573  1
  Se  Se115  1  0.08349465  0.07998693  0.03703555  1
  Se  Se116  1  0.08813018  0.09223767  0.55733116  1
  Se  Se117  1  0.07576165  0.40927694  0.05769965  1
  Se  Se118  1  0.09205192  0.42160314  0.56190832  1
  Se  Se119  1  0.08775160  0.75324477  0.05027698  1
  Se  Se120  1  0.08232550  0.75148131  0.55558669  1
  Se  Se121  1  0.41641242  0.08333826  0.05032117  1
  Se  Se122  1  0.41648437  0.09069672  0.56207910  1
  Se  Se123  1  0.40170230  0.41755417  0.05043215  1
  Se  Se124  1  0.41184236  0.40983805  0.56145936  1
  Se  Se125  1  0.41329948  0.74920317  0.06517219  1
  Se  Se126  1  0.40968115  0.74287077  0.54425393  1
  Se  Se127  1  0.75284157  0.08070630  0.05940890  1
  Se  Se128  1  0.74306102  0.07291392  0.56533160  1
  Se  Se129  1  0.73373759  0.41268776  0.06125184  1
  Se  Se130  1  0.75246178  0.41696219  0.54756087  1
  Se  Se131  1  0.74052427  0.74295333  0.05569738  1
  Se  Se132  1  0.74703104  0.75218404  0.55687823  1
  Se  Se133  1  0.24538019  0.24423683  0.05066215  1
  Se  Se134  1  0.24849228  0.24894619  0.55920285  1
  Se  Se135  1  0.25815048  0.58377879  0.06528987  1
  Se  Se136  1  0.25990581  0.59320129  0.54406698  1
  Se  Se137  1  0.25882728  0.91438308  0.05244483  1
  Se  Se138  1  0.25012745  0.92310464  0.55555960  1
  Se  Se139  1  0.57299812  0.24454545  0.04585950  1
  Se  Se140  1  0.57846654  0.24638169  0.54760760  1
  Se  Se141  1  0.57538237  0.59356838  0.05358344  1
  Se  Se142  1  0.58561761  0.58564252  0.56444002  1
  Se  Se143  1  0.59231454  0.92548108  0.05536784  1
  Se  Se144  1  0.57424369  0.91301289  0.55941689  1
  Se  Se145  1  0.92417588  0.24670772  0.05552682  1
  Se  Se146  1  0.93268038  0.25245758  0.57118489  1
  Se  Se147  1  0.92250910  0.59590625  0.05076671  1
  Se  Se148  1  0.91375549  0.57669633  0.56017124  1
  Se  Se149  1  0.93808778  0.93052347  0.04565819  1
  Se  Se150  1  0.91027383  0.91304813  0.54551195  1
  Se  Se151  1  0.08949746  0.25468139  0.45343836  1
  Se  Se152  1  0.08696797  0.24257698  0.93316186  1
  Se  Se153  1  0.08338893  0.58143269  0.45963101  1
  Se  Se154  1  0.07917220  0.58534334  0.93762174  1
  Se  Se155  1  0.05923187  0.94089857  0.45401239  1
  Se  Se156  1  0.10296311  0.90044751  0.93074998  1
  Se  Se157  1  0.41421199  0.25086733  0.44600902  1
  Se  Se158  1  0.41394452  0.24484755  0.93964408  1
  Se  Se159  1  0.41205816  0.58654257  0.43678794  1
  Se  Se160  1  0.41492530  0.58633358  0.94570512  1
  Se  Se161  1  0.41474580  0.91833576  0.45412762  1
  Se  Se162  1  0.41154424  0.92257231  0.93491423  1
  Se  Se163  1  0.74630919  0.24772812  0.44221900  1
  Se  Se164  1  0.73722326  0.26552611  0.94035866  1
  Se  Se165  1  0.75091214  0.58076004  0.45264651  1
  Se  Se166  1  0.73942492  0.59232553  0.94105895  1
  Se  Se167  1  0.74407207  0.91147350  0.45370733  1
  Se  Se168  1  0.74976081  0.92292075  0.93813324  1
  Se  Se169  1  0.24977521  0.08958536  0.44989356  1
  Se  Se170  1  0.24801535  0.08219585  0.93666580  1
  Se  Se171  1  0.25677538  0.42373090  0.44774402  1
  Se  Se172  1  0.24959736  0.40502287  0.93151718  1
  Se  Se173  1  0.22101832  0.78356336  0.44378795  1
  Se  Se174  1  0.24937217  0.74588556  0.95296110  1
  Se  Se175  1  0.57821221  0.08436635  0.45571045  1
  Se  Se176  1  0.58412116  0.08866122  0.94600357  1
  Se  Se177  1  0.59079688  0.40865228  0.43718302  1
  Se  Se178  1  0.57019305  0.42350499  0.94239431  1
  Se  Se179  1  0.57866123  0.74127060  0.44739960  1
  Se  Se180  1  0.59338768  0.74647767  0.94080097  1
  Se  Se181  1  0.92023077  0.08185900  0.44331616  1
  Se  Se182  1  0.92796911  0.07173819  0.92992649  1
  Se  Se183  1  0.91673661  0.41547006  0.45957595  1
  Se  Se184  1  0.92398031  0.40609709  0.94166818  1
  Se  Se185  1  0.91390584  0.74786586  0.45352370  1
  Se  Se186  1  0.92129914  0.75133936  0.93097352  1
  Se  Se187  1  0.25859672  0.25315818  0.30439681  1
  Se  Se188  1  0.27119222  0.26321787  0.79368776  1
  Se  Se189  1  0.24694091  0.59081174  0.31185578  1
  Se  Se190  1  0.24525129  0.57728729  0.81393250  1
  Se  Se191  1  0.25454305  0.92580974  0.31167938  1
  Se  Se192  1  0.25169780  0.91172918  0.79437030  1
  Se  Se193  1  0.57756548  0.23822474  0.31261409  1
  Se  Se194  1  0.57649337  0.24444705  0.80738915  1
  Se  Se195  1  0.56952230  0.56657432  0.29833842  1
  Se  Se196  1  0.58619785  0.59339719  0.79568044  1
  Se  Se197  1  0.57431058  0.90974077  0.32198918  1
  Se  Se198  1  0.58341524  0.92096648  0.80103532  1
  Se  Se199  1  0.91618085  0.23619827  0.30906053  1
  Se  Se200  1  0.91764451  0.25063540  0.79604347  1
  Se  Se201  1  0.91823719  0.58182934  0.31281369  1
  Se  Se202  1  0.92247937  0.59138799  0.79964610  1
  Se  Se203  1  0.91406503  0.89743342  0.31503984  1
  Se  Se204  1  0.91834626  0.91869717  0.79232117  1
  Se  Se205  1  0.10324362  0.08735625  0.31373033  1
  Se  Se206  1  0.09838428  0.08821615  0.79006472  1
  Se  Se207  1  0.09040626  0.42384257  0.32249859  1
  Se  Se208  1  0.08106470  0.41814668  0.79782858  1
  Se  Se209  1  0.09282519  0.75365270  0.31536135  1
  Se  Se210  1  0.08529913  0.74351193  0.79292660  1
  Se  Se211  1  0.41643029  0.08158815  0.30471198  1
  Se  Se212  1  0.41277586  0.07681429  0.80109078  1
  Se  Se213  1  0.42566026  0.42370636  0.29631158  1
  Se  Se214  1  0.42435719  0.42476188  0.79495409  1
  Se  Se215  1  0.41193888  0.75073921  0.31026988  1
  Se  Se216  1  0.42102365  0.76037811  0.81571214  1
  Se  Se217  1  0.75782303  0.07505708  0.30754603  1
  Se  Se218  1  0.74728670  0.08667001  0.79585881  1
  Se  Se219  1  0.75692879  0.41907894  0.32211894  1
  Se  Se220  1  0.75701185  0.43092309  0.81082669  1
  Se  Se221  1  0.74254644  0.73832759  0.30758008  1
  Se  Se222  1  0.74745241  0.75046795  0.79874097  1
  Se  Se223  1  0.25223487  0.07681763  0.19010629  1
  Se  Se224  1  0.23188148  0.09277708  0.70347316  1
  Se  Se225  1  0.24863951  0.41140602  0.20517646  1
  Se  Se226  1  0.25446631  0.42300373  0.69385261  1
  Se  Se227  1  0.24848656  0.75288829  0.20081565  1
  Se  Se228  1  0.25028566  0.75125741  0.68423670  1
  Se  Se229  1  0.57545840  0.09238944  0.18588787  1
  Se  Se230  1  0.58145502  0.08066385  0.69861777  1
  Se  Se231  1  0.57499078  0.41118281  0.17866561  1
  Se  Se232  1  0.57938698  0.41962085  0.68591638  1
  Se  Se233  1  0.58385546  0.75099001  0.20473443  1
  Se  Se234  1  0.57707725  0.75180558  0.69694424  1
  Se  Se235  1  0.91980184  0.08162015  0.19128686  1
  Se  Se236  1  0.91470157  0.08037005  0.69469892  1
  Se  Se237  1  0.90234731  0.42364951  0.20006958  1
  Se  Se238  1  0.91873464  0.41849064  0.69960116  1
  Se  Se239  1  0.90946904  0.75636120  0.18884256  1
  Se  Se240  1  0.91892192  0.75060357  0.69093871  1
  Se  Se241  1  0.09484661  0.24342229  0.19274838  1
  Se  Se242  1  0.07465154  0.26637539  0.70330206  1
  Se  Se243  1  0.09308474  0.57049968  0.18923324  1
  Se  Se244  1  0.08788282  0.58939839  0.69533754  1
  Se  Se245  1  0.09326980  0.91292426  0.19213410  1
  Se  Se246  1  0.08041869  0.91614591  0.69013366  1
  Se  Se247  1  0.41045904  0.24949130  0.19330799  1
  Se  Se248  1  0.41144813  0.24973059  0.69734528  1
  Se  Se249  1  0.39379100  0.60276236  0.19483852  1
  Se  Se250  1  0.42525179  0.57753711  0.69116393  1
  Se  Se251  1  0.41796676  0.91909013  0.20257401  1
  Se  Se252  1  0.40842677  0.91436730  0.69512083  1
  Se  Se253  1  0.75419182  0.24799892  0.19658348  1
  Se  Se254  1  0.75303559  0.24893326  0.68307659  1
  Se  Se255  1  0.74253483  0.58921137  0.20355013  1
  Se  Se256  1  0.74840600  0.58809430  0.69568251  1
  Se  Se257  1  0.75488850  0.90834963  0.19376384  1
  Se  Se258  1  0.74676943  0.91641556  0.69524060  1
