# generated using pymatgen
data_In86Cu29Se144
_symmetry_space_group_name_H-M   'P 1'
_cell_length_a   17.58463035
_cell_length_b   17.58605855
_cell_length_c   23.44880645
_cell_angle_alpha   89.95930386
_cell_angle_beta   89.97759541
_cell_angle_gamma   89.99715549
_symmetry_Int_Tables_number   1
_chemical_formula_structural   In86Cu29Se144
_chemical_formula_sum   'In86 Cu29 Se144'
_cell_volume   7251.40825701
_cell_formula_units_Z   1
loop_
 _symmetry_equiv_pos_site_id
 _symmetry_equiv_pos_as_xyz
  1  'x, y, z'
loop_
 _atom_site_type_symbol
 _atom_site_label
 _atom_site_symmetry_multiplicity
 _atom_site_fract_x
 _atom_site_fract_y
 _atom_site_fract_z
 _atom_site_occupancy
  In  In0  1  -0.01316742  0.16325506  0.11975301  1
  In  In1  1  -0.00471956  0.17059457  0.63425081  1
  In  In2  1  -0.00408124  0.50004170  0.12078510  1
  In  In3  1  -0.01342350  0.51323740  0.63844907  1
  In  In4  1  -0.01086874  0.83878445  0.12942719  1
  In  In5  1  -0.00082233  0.83028897  0.62816673  1
  In  In6  1  0.34485375  0.15606684  0.13269124  1
  In  In7  1  0.34379625  0.17317390  0.62585748  1
  In  In8  1  0.32434823  0.51052437  0.13263769  1
  In  In9  1  0.33429194  0.49558974  0.62480627  1
  In  In10  1  0.34221173  0.82664546  0.13102713  1
  In  In11  1  0.32845844  0.84563631  0.61676078  1
  In  In12  1  0.65903006  0.16385029  0.11455613  1
  In  In13  1  0.67041897  0.16496129  0.63569690  1
  In  In14  1  0.69072927  0.50321872  0.12316205  1
  In  In15  1  0.66099934  0.49680814  0.62260093  1
  In  In16  1  0.66934380  0.83396951  0.12738285  1
  In  In17  1  0.67393611  0.83602182  0.62738974  1
  In  In18  1  0.15065747  -0.01961002  0.36463663  1
  In  In19  1  0.16473547  0.00930610  0.87622646  1
  In  In20  1  0.17285539  0.32144732  0.37636360  1
  In  In21  1  0.17637740  0.34188701  0.87089789  1
  In  In22  1  0.17807844  0.67865728  0.36973177  1
  In  In23  1  0.14744561  0.66680181  0.87573400  1
  In  In24  1  0.50366995  0.00378014  0.36660870  1
  In  In25  1  0.51615625  -0.00437439  0.88296718  1
  In  In26  1  0.50197851  0.35151350  0.37334736  1
  In  In27  1  0.49067530  0.32950227  0.87003810  1
  In  In28  1  0.49055452  0.65737845  0.36844963  1
  In  In29  1  0.51332093  0.66587849  0.88049396  1
  In  In30  1  0.83440430  -0.00615230  0.36673032  1
  In  In31  1  0.82958186  0.00116786  0.87975904  1
  In  In32  1  0.83766483  0.33791054  0.37967542  1
  In  In33  1  0.82911505  0.33392533  0.87174021  1
  In  In34  1  0.82655909  0.65051675  0.35811470  1
  In  In35  1  0.84437450  0.65449024  0.88458876  1
  In  In36  1  0.00699955  0.16189957  0.37370979  1
  In  In37  1  -0.01389597  0.15583552  0.86911216  1
  In  In38  1  -0.01740325  0.50258377  0.37463381  1
  In  In39  1  -0.00523919  0.50303144  0.87163260  1
  In  In40  1  0.00974274  0.83500814  0.37040470  1
  In  In41  1  -0.01319754  0.82124764  0.87069490  1
  In  In42  1  0.33528087  0.16686219  0.36189996  1
  In  In43  1  0.33859532  0.18208957  0.87625332  1
  In  In44  1  0.35033474  0.51673860  0.36450455  1
  In  In45  1  0.33682119  0.48169288  0.87742878  1
  In  In46  1  0.31953418  0.81909870  0.36753129  1
  In  In47  1  0.33935846  0.84289045  0.88190479  1
  In  In48  1  0.67398965  0.15851752  0.37171672  1
  In  In49  1  0.67182103  0.17008116  0.88068170  1
  In  In50  1  0.66138811  0.49998221  0.37923888  1
  In  In51  1  0.68091091  0.49839846  0.87155669  1
  In  In52  1  0.67372914  0.83571244  0.36623185  1
  In  In53  1  0.66241283  0.84054710  0.88480900  1
  In  In54  1  0.16913610  -0.00326126  0.13163879  1
  In  In55  1  0.15770554  -0.01013102  0.61693963  1
  In  In56  1  0.16307005  0.34767953  0.12125053  1
  In  In57  1  0.16444279  0.33723761  0.63585064  1
  In  In58  1  0.16682688  0.65708147  0.13103685  1
  In  In59  1  0.15304500  0.66294935  0.62027060  1
  In  In60  1  0.50786538  -0.00044927  0.12649172  1
  In  In61  1  0.50026220  0.00539818  0.62431704  1
  In  In62  1  0.50682518  0.32054807  0.11938382  1
  In  In63  1  0.49561742  0.34833204  0.64510061  1
  In  In64  1  0.49368404  0.67722257  0.13098725  1
  In  In65  1  0.50818627  0.66169312  0.62163518  1
  In  In66  1  0.83327125  -0.00335439  0.12485678  1
  In  In67  1  0.82891128  0.00309983  0.63264357  1
  In  In68  1  0.82857333  0.33342841  0.10523806  1
  In  In69  1  0.81412947  0.35457088  0.64786689  1
  In  In70  1  0.83114328  0.66492291  0.12928674  1
  In  In71  1  0.84580073  0.67426432  0.62494119  1
  In  In72  1  -0.00027265  0.33210967  0.24174648  1
  In  In73  1  0.83440269  0.16806137  0.50283440  1
  In  In74  1  0.83781998  0.83251553  0.49340811  1
  In  In75  1  0.16866424  0.50186597  0.49879058  1
  In  In76  1  0.49664407  0.82726484  0.49637683  1
  In  In77  1  0.67582703  0.66192089  0.75853870  1
  In  In78  1  0.16798210  0.17271416  -0.00379871  1
  In  In79  1  0.32804588  0.00637537  0.74323684  1
  In  In80  1  0.16640396  0.16466572  0.50270944  1
  In  In81  1  0.32825150  0.66386248  0.74218298  1
  In  In82  1  0.50582836  0.49919735  0.00023713  1
  In  In83  1  0.16701906  0.82962563  0.00860642  1
  In  In84  1  0.66595050  0.33388535  0.24468501  1
  In  In85  1  0.50462622  0.17011533  0.50067627  1
  Cu  Cu86  1  0.15602694  0.83885607  0.74772435  1
  Cu  Cu87  1  0.16155644  0.16837885  0.75548747  1
  Cu  Cu88  1  0.50364233  0.83803889  0.24923092  1
  Cu  Cu89  1  0.66655424  0.65781109  0.49421296  1
  Cu  Cu90  1  0.32254371  -0.00446672  0.48877311  1
  Cu  Cu91  1  0.50305717  0.16301507  0.75339151  1
  Cu  Cu92  1  -0.00950589  0.65851706  0.00063311  1
  Cu  Cu93  1  0.16523127  0.82883938  0.24671705  1
  Cu  Cu94  1  -0.00202576  0.33849989  -0.00784432  1
  Cu  Cu95  1  0.16494664  0.49470021  0.25118168  1
  Cu  Cu96  1  0.33487630  0.33487871  -0.00034131  1
  Cu  Cu97  1  0.49921087  0.50228670  0.24791444  1
  Cu  Cu98  1  -0.00932004  0.34237848  0.50868391  1
  Cu  Cu99  1  0.83220797  0.16506103  0.75833908  1
  Cu  Cu100  1  0.50308373  0.83046486  0.75928855  1
  Cu  Cu101  1  0.83799549  0.82882849  0.24720274  1
  Cu  Cu102  1  0.83306504  0.15939252  0.24474616  1
  Cu  Cu103  1  0.32970610  0.66415779  0.00853690  1
  Cu  Cu104  1  0.00085927  0.66952062  0.49969117  1
  Cu  Cu105  1  0.66456841  0.34009025  0.51020292  1
  Cu  Cu106  1  0.83181908  0.84136054  0.75411118  1
  Cu  Cu107  1  0.16552934  0.50305003  0.75109654  1
  Cu  Cu108  1  0.35333178  0.00317955  0.00425462  1
  Cu  Cu109  1  0.34192150  0.34175443  0.50098600  1
  Cu  Cu110  1  0.50275485  0.16539323  0.24296927  1
  Cu  Cu111  1  0.16990881  0.16342557  0.25050249  1
  Cu  Cu112  1  0.66934616  0.67406402  0.00410527  1
  Cu  Cu113  1  0.67154018  0.00259094  0.00377687  1
  Cu  Cu114  1  -0.00201368  -0.00586755  -0.00220730  1
  Se  Se115  1  0.08341414  0.07426551  0.05495270  1
  Se  Se116  1  0.06644677  0.08166003  0.55653571  1
  Se  Se117  1  0.07887871  0.41932931  0.04929049  1
  Se  Se118  1  0.07924408  0.41837790  0.56408821  1
  Se  Se119  1  0.07168600  0.73894012  0.06183551  1
  Se  Se120  1  0.08026762  0.75506649  0.55289934  1
  Se  Se121  1  0.43033863  0.09077783  0.05705498  1
  Se  Se122  1  0.40313571  0.07383713  0.55092400  1
  Se  Se123  1  0.41016927  0.41729522  0.06313187  1
  Se  Se124  1  0.42483449  0.41531542  0.56036215  1
  Se  Se125  1  0.41610537  0.75075543  0.05309820  1
  Se  Se126  1  0.40809750  0.74170372  0.56017919  1
  Se  Se127  1  0.75721983  0.08527758  0.05544032  1
  Se  Se128  1  0.73953156  0.07775238  0.55794830  1
  Se  Se129  1  0.73235152  0.40928326  0.04574140  1
  Se  Se130  1  0.75618619  0.41923156  0.55824060  1
  Se  Se131  1  0.75486910  0.75306422  0.05855835  1
  Se  Se132  1  0.74264138  0.74208905  0.55432907  1
  Se  Se133  1  0.25763575  0.25310830  0.06271075  1
  Se  Se134  1  0.25802046  0.26192828  0.55779739  1
  Se  Se135  1  0.24329972  0.57942847  0.05485746  1
  Se  Se136  1  0.25822013  0.59253198  0.55831837  1
  Se  Se137  1  0.26300906  0.92526030  0.05853118  1
  Se  Se138  1  0.24120479  0.91488197  0.54457137  1
  Se  Se139  1  0.59660524  0.26161320  0.04639547  1
  Se  Se140  1  0.58609250  0.25673316  0.56814042  1
  Se  Se141  1  0.58774662  0.59180912  0.06394143  1
  Se  Se142  1  0.58243044  0.57907736  0.54996711  1
  Se  Se143  1  0.58791042  0.91668839  0.05609068  1
  Se  Se144  1  0.58622131  0.91882861  0.55696237  1
  Se  Se145  1  0.92110330  0.24948567  0.04569921  1
  Se  Se146  1  0.91143594  0.26126808  0.56767290  1
  Se  Se147  1  0.90525757  0.57827263  0.05524797  1
  Se  Se148  1  0.91967166  0.58598233  0.55496476  1
  Se  Se149  1  0.91455543  0.91363003  0.05276127  1
  Se  Se150  1  0.91637966  0.92321093  0.56045462  1
  Se  Se151  1  0.07009325  0.26097916  0.44838918  1
  Se  Se152  1  0.07675294  0.25456178  0.93285598  1
  Se  Se153  1  0.07824618  0.58858203  0.43684436  1
  Se  Se154  1  0.07825561  0.58026957  0.94716685  1
  Se  Se155  1  0.07776162  0.91785039  0.44623346  1
  Se  Se156  1  0.08205863  0.91550524  0.94013926  1
  Se  Se157  1  0.41147572  0.25480922  0.43868168  1
  Se  Se158  1  0.42124440  0.25131244  0.95094824  1
  Se  Se159  1  0.42197283  0.57952486  0.44660266  1
  Se  Se160  1  0.40874275  0.58860208  0.94198598  1
  Se  Se161  1  0.41193564  0.92010785  0.43365434  1
  Se  Se162  1  0.42840843  0.91396091  0.95025814  1
  Se  Se163  1  0.73710462  0.25893453  0.44448435  1
  Se  Se164  1  0.76694969  0.24203832  0.94549372  1
  Se  Se165  1  0.75580809  0.58101794  0.44130381  1
  Se  Se166  1  0.74369318  0.58562987  0.94788876  1
  Se  Se167  1  0.74214259  0.92572598  0.44264153  1
  Se  Se168  1  0.75311058  0.91574853  0.95169551  1
  Se  Se169  1  0.24757488  0.08176881  0.43094537  1
  Se  Se170  1  0.26597492  0.07716873  0.94403444  1
  Se  Se171  1  0.25914687  0.41426939  0.43732492  1
  Se  Se172  1  0.24694479  0.41744780  0.95116117  1
  Se  Se173  1  0.25089665  0.74910537  0.44877404  1
  Se  Se174  1  0.25373646  0.74275868  0.94115927  1
  Se  Se175  1  0.59120738  0.07512032  0.44411379  1
  Se  Se176  1  0.58734693  0.08674509  0.95067360  1
  Se  Se177  1  0.58147702  0.41767988  0.45115517  1
  Se  Se178  1  0.58679921  0.41241013  0.93443194  1
  Se  Se179  1  0.59165450  0.74377304  0.43522601  1
  Se  Se180  1  0.58077899  0.75312108  0.95232412  1
  Se  Se181  1  0.91992186  0.07719091  0.44017588  1
  Se  Se182  1  0.91607843  0.08271834  0.94899224  1
  Se  Se183  1  0.91061307  0.42280120  0.45142114  1
  Se  Se184  1  0.91200294  0.42059440  0.94073223  1
  Se  Se185  1  0.91926466  0.73834900  0.43219137  1
  Se  Se186  1  0.91333018  0.75222461  0.95129828  1
  Se  Se187  1  0.25078368  0.25395594  0.29781745  1
  Se  Se188  1  0.25158864  0.24957205  0.80319849  1
  Se  Se189  1  0.24716706  0.58207534  0.30246991  1
  Se  Se190  1  0.24587511  0.58106054  0.81353413  1
  Se  Se191  1  0.25000879  0.91383528  0.29948252  1
  Se  Se192  1  0.24397618  0.91078972  0.80737171  1
  Se  Se193  1  0.57710226  0.24465797  0.31035667  1
  Se  Se194  1  0.58254371  0.24528935  0.80963696  1
  Se  Se195  1  0.58460135  0.57952506  0.30479364  1
  Se  Se196  1  0.57471415  0.57205707  0.80743064  1
  Se  Se197  1  0.58898568  0.92090283  0.30101305  1
  Se  Se198  1  0.58769544  0.91646517  0.80628936  1
  Se  Se199  1  0.90910674  0.24228011  0.30691694  1
  Se  Se200  1  0.91879741  0.25292139  0.80345622  1
  Se  Se201  1  0.92096897  0.57685171  0.29338284  1
  Se  Se202  1  0.91637595  0.59058369  0.80330604  1
  Se  Se203  1  0.92086409  0.91293391  0.30155835  1
  Se  Se204  1  0.91677061  0.92208311  0.80884263  1
  Se  Se205  1  0.08171288  0.08224874  0.30070745  1
  Se  Se206  1  0.08087728  0.07886008  0.80336284  1
  Se  Se207  1  0.08547436  0.41439327  0.31267297  1
  Se  Se208  1  0.08497616  0.41954766  0.80626270  1
  Se  Se209  1  0.08259073  0.74483382  0.30072142  1
  Se  Se210  1  0.07912767  0.75060084  0.80109614  1
  Se  Se211  1  0.41882938  0.08187664  0.29723565  1
  Se  Se212  1  0.41918097  0.08229622  0.81194248  1
  Se  Se213  1  0.41542561  0.41542851  0.29818312  1
  Se  Se214  1  0.41369989  0.41531176  0.80036469  1
  Se  Se215  1  0.41976110  0.75292682  0.30238759  1
  Se  Se216  1  0.41739985  0.74997014  0.81156879  1
  Se  Se217  1  0.74982482  0.07813127  0.29980914  1
  Se  Se218  1  0.74641908  0.08096243  0.80897934  1
  Se  Se219  1  0.75491189  0.41896944  0.30829361  1
  Se  Se220  1  0.75454084  0.41866035  0.79839935  1
  Se  Se221  1  0.74919046  0.74803795  0.29804975  1
  Se  Se222  1  0.75761612  0.75805920  0.81779415  1
  Se  Se223  1  0.25368285  0.07894984  0.19821612  1
  Se  Se224  1  0.23594482  0.09533640  0.68378354  1
  Se  Se225  1  0.24827867  0.41375111  0.19644790  1
  Se  Se226  1  0.25225368  0.42173740  0.69851189  1
  Se  Se227  1  0.25028076  0.74627595  0.19408029  1
  Se  Se228  1  0.24030066  0.76244952  0.68726206  1
  Se  Se229  1  0.59214021  0.08505466  0.19412872  1
  Se  Se230  1  0.58123585  0.07802608  0.69765689  1
  Se  Se231  1  0.57838416  0.42642458  0.18421799  1
  Se  Se232  1  0.60385855  0.41044731  0.70141125  1
  Se  Se233  1  0.58541478  0.75163729  0.19742132  1
  Se  Se234  1  0.58123657  0.75286961  0.69561007  1
  Se  Se235  1  0.92136270  0.07776999  0.19472944  1
  Se  Se236  1  0.91373801  0.08361717  0.70020534  1
  Se  Se237  1  0.90167039  0.41443644  0.18602363  1
  Se  Se238  1  0.93595547  0.40133607  0.69722777  1
  Se  Se239  1  0.92198297  0.74324575  0.19707476  1
  Se  Se240  1  0.91398716  0.75601128  0.70072246  1
  Se  Se241  1  0.09146840  0.23869604  0.18410003  1
  Se  Se242  1  0.08073581  0.25266143  0.70072117  1
  Se  Se243  1  0.07946298  0.57283323  0.19539813  1
  Se  Se244  1  0.08358192  0.59072140  0.70015248  1
  Se  Se245  1  0.08199542  0.91482125  0.19559069  1
  Se  Se246  1  0.07631036  0.92426903  0.69448446  1
  Se  Se247  1  0.42068898  0.25423471  0.19473531  1
  Se  Se248  1  0.41659134  0.24749126  0.70238873  1
  Se  Se249  1  0.41397562  0.58882037  0.19810210  1
  Se  Se250  1  0.42931336  0.57591837  0.69381747  1
  Se  Se251  1  0.41937912  0.91979312  0.19469204  1
  Se  Se252  1  0.42383039  0.90687156  0.69406686  1
  Se  Se253  1  0.75818315  0.24487396  0.18580751  1
  Se  Se254  1  0.74687194  0.24814390  0.70581233  1
  Se  Se255  1  0.74492365  0.58895341  0.20050877  1
  Se  Se256  1  0.75775753  0.58324133  0.68697654  1
  Se  Se257  1  0.75351499  0.91570019  0.19700909  1
  Se  Se258  1  0.74466745  0.91959753  0.70033427  1
