# generated using pymatgen
data_In86Cu29Se144
_symmetry_space_group_name_H-M   'P 1'
_cell_length_a   17.57290555
_cell_length_b   17.57355888
_cell_length_c   23.43929008
_cell_angle_alpha   89.98705600
_cell_angle_beta   90.00322359
_cell_angle_gamma   90.00576134
_symmetry_Int_Tables_number   1
_chemical_formula_structural   In86Cu29Se144
_chemical_formula_sum   'In86 Cu29 Se144'
_cell_volume   7238.48594802
_cell_formula_units_Z   1
loop_
 _symmetry_equiv_pos_site_id
 _symmetry_equiv_pos_as_xyz
  1  'x, y, z'
loop_
 _atom_site_type_symbol
 _atom_site_label
 _atom_site_symmetry_multiplicity
 _atom_site_fract_x
 _atom_site_fract_y
 _atom_site_fract_z
 _atom_site_occupancy
  In  In0  1  0.00484904  0.17168926  0.12164435  1
  In  In1  1  -0.00492824  0.18170882  0.63415844  1
  In  In2  1  -0.00810279  0.50836858  0.13270139  1
  In  In3  1  -0.01628189  0.48419524  0.60917438  1
  In  In4  1  -0.00833747  0.82534296  0.11732552  1
  In  In5  1  -0.00818509  0.84167140  0.62609301  1
  In  In6  1  0.32734588  0.17843147  0.13216161  1
  In  In7  1  0.32958710  0.15333242  0.63109043  1
  In  In8  1  0.33264450  0.48579696  0.12508338  1
  In  In9  1  0.33328545  0.51214036  0.62159214  1
  In  In10  1  0.34442343  0.84501200  0.11726466  1
  In  In11  1  0.33724097  0.83035857  0.63288311  1
  In  In12  1  0.67616577  0.16088853  0.12508927  1
  In  In13  1  0.66768699  0.16925906  0.61604130  1
  In  In14  1  0.66095435  0.49484511  0.11968735  1
  In  In15  1  0.67718013  0.49650389  0.62642248  1
  In  In16  1  0.66450691  0.84037356  0.11225057  1
  In  In17  1  0.65532472  0.82210030  0.61846520  1
  In  In18  1  0.18319603  -0.00704747  0.36968462  1
  In  In19  1  0.17153444  -0.00759405  0.88381630  1
  In  In20  1  0.16726737  0.33249742  0.37412322  1
  In  In21  1  0.14957153  0.33820162  0.87444952  1
  In  In22  1  0.14998965  0.66521694  0.37308837  1
  In  In23  1  0.18109872  0.66910444  0.87326758  1
  In  In24  1  0.49597874  0.00391412  0.38075869  1
  In  In25  1  0.48526695  0.00420570  0.87348265  1
  In  In26  1  0.49338550  0.31610953  0.36029307  1
  In  In27  1  0.51172283  0.33260145  0.87903439  1
  In  In28  1  0.51791061  0.66950212  0.37939644  1
  In  In29  1  0.50121328  0.67040507  0.87500091  1
  In  In30  1  0.82856670  0.00130939  0.38290208  1
  In  In31  1  0.82775874  0.00579460  0.88593841  1
  In  In32  1  0.83275169  0.33268350  0.36927764  1
  In  In33  1  0.84710035  0.32552321  0.88207748  1
  In  In34  1  0.83803920  0.64925506  0.38707338  1
  In  In35  1  0.82275162  0.67421038  0.87885617  1
  In  In36  1  -0.01476668  0.17262117  0.37860268  1
  In  In37  1  -0.00713552  0.17809294  0.87971912  1
  In  In38  1  -0.00514219  0.49649312  0.37533555  1
  In  In39  1  0.00022328  0.48137340  0.87248825  1
  In  In40  1  -0.00018045  0.81901216  0.37162372  1
  In  In41  1  -0.00870390  0.84389731  0.88591949  1
  In  In42  1  0.34386153  0.16894158  0.36510871  1
  In  In43  1  0.33295827  0.14922642  0.86920455  1
  In  In44  1  0.33806894  0.48072327  0.37670873  1
  In  In45  1  0.33065569  0.51585035  0.87310373  1
  In  In46  1  0.33889650  0.84710021  0.37037325  1
  In  In47  1  0.33738126  0.83374983  0.87760472  1
  In  In48  1  0.65793237  0.17556424  0.37875481  1
  In  In49  1  0.67241297  0.17618712  0.87652109  1
  In  In50  1  0.70279050  0.48875827  0.38801027  1
  In  In51  1  0.65978102  0.50732814  0.88053588  1
  In  In52  1  0.66647435  0.82309038  0.38910137  1
  In  In53  1  0.67805108  0.82750834  0.88176975  1
  In  In54  1  0.17664578  0.00984021  0.11767618  1
  In  In55  1  0.18293993  0.01774038  0.63209582  1
  In  In56  1  0.17193601  0.32546032  0.13186744  1
  In  In57  1  0.13672267  0.32763724  0.62184552  1
  In  In58  1  0.15164138  0.65948295  0.12350966  1
  In  In59  1  0.17895189  0.66427231  0.62541693  1
  In  In60  1  0.50832896  -0.00922038  0.12452749  1
  In  In61  1  0.49613346  -0.00276913  0.62531758  1
  In  In62  1  0.49115724  0.33679207  0.13185079  1
  In  In63  1  0.50992978  0.33058936  0.61907092  1
  In  In64  1  0.50680237  0.67303239  0.11751547  1
  In  In65  1  0.48887283  0.67240282  0.63199890  1
  In  In66  1  0.82429348  0.00170432  0.11085083  1
  In  In67  1  0.83136847  -0.00257220  0.61747885  1
  In  In68  1  0.83325663  0.33527058  0.12663178  1
  In  In69  1  0.83518919  0.33566085  0.61722467  1
  In  In70  1  0.83889692  0.67080793  0.12109819  1
  In  In71  1  0.82020503  0.65685303  0.62101236  1
  In  In72  1  0.00697281  0.00521392  0.24644661  1
  In  In73  1  0.50389762  0.16342173  -0.00000807  1
  In  In74  1  0.16689002  0.50162776  -0.00198689  1
  In  In75  1  0.32975647  0.66223439  0.24536258  1
  In  In76  1  0.66338940  0.00238162  0.24557815  1
  In  In77  1  0.67114580  0.33319223  0.75259156  1
  In  In78  1  0.66516518  0.00435767  0.75666267  1
  In  In79  1  0.00668626  0.66464301  0.75262712  1
  In  In80  1  0.33164599  0.33328821  0.74647295  1
  In  In81  1  0.00531698  0.00314519  0.74931061  1
  In  In82  1  0.67193964  0.66151982  0.25913076  1
  In  In83  1  0.50440894  0.50002299  0.49760041  1
  In  In84  1  0.15934595  0.17015385  0.50141229  1
  In  In85  1  0.16244954  0.82877899  0.49926271  1
  Cu  Cu86  1  0.50285784  0.83470791  0.24892662  1
  Cu  Cu87  1  0.17631191  0.83617382  0.75639297  1
  Cu  Cu88  1  0.66875355  0.66370662  -0.00048550  1
  Cu  Cu89  1  0.83529792  0.49797277  0.74653582  1
  Cu  Cu90  1  0.49662314  0.83191961  0.75095340  1
  Cu  Cu91  1  0.33233164  -0.00017904  -0.00022234  1
  Cu  Cu92  1  0.50421922  0.49296212  0.24893606  1
  Cu  Cu93  1  0.34011175  0.67210721  -0.00293154  1
  Cu  Cu94  1  0.16823030  0.83315880  0.24622227  1
  Cu  Cu95  1  0.66514481  -0.00172007  0.50151684  1
  Cu  Cu96  1  0.16211061  0.49462607  0.25232798  1
  Cu  Cu97  1  0.49787872  0.50979632  0.75402863  1
  Cu  Cu98  1  0.66861916  0.32878467  0.49477025  1
  Cu  Cu99  1  -0.00212915  0.33477085  0.00473977  1
  Cu  Cu100  1  -0.00184617  0.00074472  0.49983004  1
  Cu  Cu101  1  0.33047650  0.32497530  0.49352747  1
  Cu  Cu102  1  0.84134713  0.82905091  0.24746339  1
  Cu  Cu103  1  -0.00235492  0.66638399  -0.00085555  1
  Cu  Cu104  1  0.83407579  0.17309827  0.24786184  1
  Cu  Cu105  1  0.33440647  0.33104510  0.00534268  1
  Cu  Cu106  1  0.33367609  0.67189183  0.50205724  1
  Cu  Cu107  1  0.00379620  0.00344907  0.00256795  1
  Cu  Cu108  1  0.82577782  0.83188714  0.75137237  1
  Cu  Cu109  1  0.16142778  0.49588309  0.74686892  1
  Cu  Cu110  1  0.33965282  -0.00010773  0.50112897  1
  Cu  Cu111  1  0.67243536  0.33821401  0.00125264  1
  Cu  Cu112  1  0.16614165  0.17075013  0.24880863  1
  Cu  Cu113  1  0.83812875  0.49756063  0.25242212  1
  Cu  Cu114  1  -0.00641918  0.66129322  0.49787280  1
  Se  Se115  1  0.08700701  0.08958318  0.05289964  1
  Se  Se116  1  0.07651655  0.07489104  0.56414144  1
  Se  Se117  1  0.08160435  0.41576298  0.06390689  1
  Se  Se118  1  0.09314876  0.42677736  0.54964321  1
  Se  Se119  1  0.08429289  0.74757242  0.05083585  1
  Se  Se120  1  0.07192718  0.74015280  0.56174117  1
  Se  Se121  1  0.40995766  0.08094337  0.06271375  1
  Se  Se122  1  0.41636992  0.08636096  0.55672598  1
  Se  Se123  1  0.42019741  0.41629338  0.05286077  1
  Se  Se124  1  0.40861727  0.40898325  0.55561398  1
  Se  Se125  1  0.42318788  0.75578384  0.05104824  1
  Se  Se126  1  0.41388468  0.75375152  0.55704366  1
  Se  Se127  1  0.73958025  0.08320917  0.04595511  1
  Se  Se128  1  0.75105890  0.08402889  0.55050092  1
  Se  Se129  1  0.75616326  0.42121391  0.05491048  1
  Se  Se130  1  0.74613674  0.41573038  0.55019082  1
  Se  Se131  1  0.75044459  0.74875296  0.05393146  1
  Se  Se132  1  0.76828146  0.76805100  0.56159323  1
  Se  Se133  1  0.24713110  0.24919902  0.05465143  1
  Se  Se134  1  0.25422185  0.25367683  0.56312129  1
  Se  Se135  1  0.26027936  0.59067233  0.05892941  1
  Se  Se136  1  0.24856474  0.58444544  0.54772081  1
  Se  Se137  1  0.24767737  0.91432939  0.05117780  1
  Se  Se138  1  0.25194422  0.92208350  0.55835808  1
  Se  Se139  1  0.58837493  0.25813042  0.06075565  1
  Se  Se140  1  0.58150633  0.24751826  0.54600819  1
  Se  Se141  1  0.58219074  0.58193395  0.05170025  1
  Se  Se142  1  0.58331118  0.58592319  0.56657205  1
  Se  Se143  1  0.57980623  0.92013268  0.04615207  1
  Se  Se144  1  0.57938183  0.91756818  0.55561966  1
  Se  Se145  1  0.91353258  0.24965642  0.05648916  1
  Se  Se146  1  0.92665772  0.25406662  0.55498306  1
  Se  Se147  1  0.91807264  0.58114489  0.05373433  1
  Se  Se148  1  0.90496543  0.58068286  0.54978302  1
  Se  Se149  1  0.91700763  0.91798976  0.05152377  1
  Se  Se150  1  0.91519230  0.91339594  0.54951852  1
  Se  Se151  1  0.06863456  0.26249315  0.44543589  1
  Se  Se152  1  0.08276206  0.25447381  0.95021191  1
  Se  Se153  1  0.07979244  0.58032175  0.44545234  1
  Se  Se154  1  0.07662228  0.58950919  0.93443086  1
  Se  Se155  1  0.07829012  0.92410929  0.43684103  1
  Se  Se156  1  0.08505155  0.91418873  0.95269530  1
  Se  Se157  1  0.41842673  0.24676982  0.44149018  1
  Se  Se158  1  0.41002496  0.25231196  0.93966384  1
  Se  Se159  1  0.40977433  0.59001182  0.43792336  1
  Se  Se160  1  0.41895549  0.58380551  0.94478258  1
  Se  Se161  1  0.41921078  0.91195096  0.44869522  1
  Se  Se162  1  0.41841623  0.91818367  0.94794081  1
  Se  Se163  1  0.75584120  0.24700635  0.44221374  1
  Se  Se164  1  0.75330244  0.25156012  0.94913828  1
  Se  Se165  1  0.71575421  0.61393569  0.44278566  1
  Se  Se166  1  0.75358416  0.58007052  0.94765089  1
  Se  Se167  1  0.75013874  0.91449782  0.44986712  1
  Se  Se168  1  0.75582739  0.91263773  0.94976235  1
  Se  Se169  1  0.25529277  0.08045981  0.44363362  1
  Se  Se170  1  0.25092679  0.08637651  0.94817708  1
  Se  Se171  1  0.24693504  0.41348702  0.44727872  1
  Se  Se172  1  0.25789798  0.41070152  0.93897857  1
  Se  Se173  1  0.25537959  0.74624003  0.43419407  1
  Se  Se174  1  0.25048392  0.75254664  0.94739872  1
  Se  Se175  1  0.58466587  0.08297473  0.44620404  1
  Se  Se176  1  0.59107013  0.07660937  0.93630848  1
  Se  Se177  1  0.58646142  0.40830163  0.43351541  1
  Se  Se178  1  0.58336937  0.41811657  0.95005379  1
  Se  Se179  1  0.57393927  0.75360724  0.45739757  1
  Se  Se180  1  0.58567772  0.74822446  0.94593448  1
  Se  Se181  1  0.91381656  0.08502195  0.44891682  1
  Se  Se182  1  0.91994750  0.08637827  0.94814339  1
  Se  Se183  1  0.88528206  0.43902169  0.43679856  1
  Se  Se184  1  0.91716742  0.42042652  0.95131172  1
  Se  Se185  1  0.91554847  0.75081435  0.44551786  1
  Se  Se186  1  0.91227854  0.75003892  0.94727998  1
  Se  Se187  1  0.25036582  0.25141047  0.30495533  1
  Se  Se188  1  0.24588097  0.25155229  0.81424185  1
  Se  Se189  1  0.24588308  0.57452537  0.31203627  1
  Se  Se190  1  0.24438364  0.58142137  0.79754823  1
  Se  Se191  1  0.25637235  0.91553417  0.29351363  1
  Se  Se192  1  0.25600164  0.92129181  0.80945811  1
  Se  Se193  1  0.58958763  0.24415875  0.29732895  1
  Se  Se194  1  0.57387464  0.23976852  0.80394026  1
  Se  Se195  1  0.58276751  0.56566578  0.31416878  1
  Se  Se196  1  0.58657704  0.58804061  0.80548184  1
  Se  Se197  1  0.58543091  0.90763303  0.31247184  1
  Se  Se198  1  0.57761493  0.90825728  0.81358182  1
  Se  Se199  1  0.92053052  0.25292393  0.30007218  1
  Se  Se200  1  0.92328956  0.25907586  0.80328737  1
  Se  Se201  1  0.91648158  0.58678141  0.30574250  1
  Se  Se202  1  0.91168004  0.57781418  0.81110009  1
  Se  Se203  1  0.91430935  0.91666055  0.30767431  1
  Se  Se204  1  0.90675831  0.91509953  0.80761089  1
  Se  Se205  1  0.09114930  0.09182006  0.31482846  1
  Se  Se206  1  0.08622463  0.08564802  0.81850269  1
  Se  Se207  1  0.07932275  0.41327667  0.30737798  1
  Se  Se208  1  0.07665237  0.41012735  0.79424162  1
  Se  Se209  1  0.08376934  0.74985431  0.29687997  1
  Se  Se210  1  0.08641776  0.76403415  0.81409605  1
  Se  Se211  1  0.40653921  0.06281648  0.30558085  1
  Se  Se212  1  0.42300664  0.08724975  0.79679780  1
  Se  Se213  1  0.41396898  0.41193366  0.29829842  1
  Se  Se214  1  0.42265812  0.42159611  0.81153312  1
  Se  Se215  1  0.42540796  0.74803482  0.30672675  1
  Se  Se216  1  0.41311588  0.74801585  0.80566647  1
  Se  Se217  1  0.75688124  0.08750549  0.30701699  1
  Se  Se218  1  0.76340586  0.09599399  0.80744269  1
  Se  Se219  1  0.74722063  0.41501154  0.29911156  1
  Se  Se220  1  0.75766768  0.42307766  0.81410255  1
  Se  Se221  1  0.76134737  0.75714484  0.31339262  1
  Se  Se222  1  0.74357695  0.74630669  0.80216195  1
  Se  Se223  1  0.24746065  0.08476088  0.19662620  1
  Se  Se224  1  0.25644808  0.08433001  0.71192167  1
  Se  Se225  1  0.24977032  0.41579036  0.19917648  1
  Se  Se226  1  0.24260459  0.41992730  0.68319016  1
  Se  Se227  1  0.24633219  0.75395537  0.18258713  1
  Se  Se228  1  0.24998578  0.74819731  0.69912890  1
  Se  Se229  1  0.57106561  0.09523134  0.19216696  1
  Se  Se230  1  0.58172711  0.09104452  0.68964608  1
  Se  Se231  1  0.58896281  0.41323708  0.19436487  1
  Se  Se232  1  0.57473199  0.42498549  0.69474186  1
  Se  Se233  1  0.58799622  0.75527326  0.19305221  1
  Se  Se234  1  0.58134045  0.74970890  0.69774888  1
  Se  Se235  1  0.90641648  0.08479643  0.18763232  1
  Se  Se236  1  0.90651618  0.08523528  0.69199740  1
  Se  Se237  1  0.91953075  0.41318803  0.19792189  1
  Se  Se238  1  0.91506008  0.41468655  0.69184941  1
  Se  Se239  1  0.92272588  0.74472303  0.19532768  1
  Se  Se240  1  0.91170775  0.75274601  0.69463600  1
  Se  Se241  1  0.07801985  0.25097753  0.19813240  1
  Se  Se242  1  0.10679248  0.22637224  0.69685648  1
  Se  Se243  1  0.08211439  0.58364816  0.20186601  1
  Se  Se244  1  0.08229755  0.57511512  0.68360419  1
  Se  Se245  1  0.08829263  0.91189469  0.18372448  1
  Se  Se246  1  0.09775523  0.90987398  0.68996304  1
  Se  Se247  1  0.41532661  0.25106263  0.20051330  1
  Se  Se248  1  0.42685025  0.24704649  0.68892260  1
  Se  Se249  1  0.42870428  0.57731474  0.18846065  1
  Se  Se250  1  0.40869661  0.58484899  0.69955968  1
  Se  Se251  1  0.42039037  0.91708403  0.19581795  1
  Se  Se252  1  0.41582869  0.91948103  0.69914074  1
  Se  Se253  1  0.74740662  0.25145765  0.19434578  1
  Se  Se254  1  0.75639240  0.24516827  0.68918472  1
  Se  Se255  1  0.75669586  0.57789223  0.19110062  1
  Se  Se256  1  0.74721255  0.58262426  0.70009070  1
  Se  Se257  1  0.75775710  0.90849434  0.18988192  1
  Se  Se258  1  0.74882751  0.91455001  0.69124575  1
