# generated using pymatgen
data_In86Cu29Se144
_symmetry_space_group_name_H-M   'P 1'
_cell_length_a   17.58631978
_cell_length_b   17.58379492
_cell_length_c   23.43378914
_cell_angle_alpha   90.01596202
_cell_angle_beta   90.01855242
_cell_angle_gamma   90.00447725
_symmetry_Int_Tables_number   1
_chemical_formula_structural   In86Cu29Se144
_chemical_formula_sum   'In86 Cu29 Se144'
_cell_volume   7246.52930228
_cell_formula_units_Z   1
loop_
 _symmetry_equiv_pos_site_id
 _symmetry_equiv_pos_as_xyz
  1  'x, y, z'
loop_
 _atom_site_type_symbol
 _atom_site_label
 _atom_site_symmetry_multiplicity
 _atom_site_fract_x
 _atom_site_fract_y
 _atom_site_fract_z
 _atom_site_occupancy
  In  In0  1  0.00018721  0.16842295  0.12870687  1
  In  In1  1  -0.01479942  0.14306264  0.60606698  1
  In  In2  1  -0.02052472  0.48962300  0.12336256  1
  In  In3  1  -0.00198515  0.51801765  0.63544604  1
  In  In4  1  -0.00865783  0.83129005  0.12260351  1
  In  In5  1  -0.01431877  0.84740525  0.63463005  1
  In  In6  1  0.32872316  0.16234009  0.12557836  1
  In  In7  1  0.34161917  0.16105014  0.62509306  1
  In  In8  1  0.34277894  0.49896580  0.11558102  1
  In  In9  1  0.33111736  0.49215042  0.64264739  1
  In  In10  1  0.34569924  0.84401367  0.11953868  1
  In  In11  1  0.34322763  0.83082612  0.62912134  1
  In  In12  1  0.66254055  0.15668971  0.10559421  1
  In  In13  1  0.66192995  0.16343119  0.62956155  1
  In  In14  1  0.66293351  0.49630889  0.11006370  1
  In  In15  1  0.67478784  0.49455211  0.63471752  1
  In  In16  1  0.65568733  0.82662213  0.09636071  1
  In  In17  1  0.66757769  0.83404277  0.63288023  1
  In  In18  1  0.18240566  -0.00087628  0.38334061  1
  In  In19  1  0.16879434  0.00059325  0.86026461  1
  In  In20  1  0.15415157  0.33628700  0.37607572  1
  In  In21  1  0.17303378  0.32532313  0.86995475  1
  In  In22  1  0.16358028  0.66491228  0.37743556  1
  In  In23  1  0.16557867  0.65886874  0.85877954  1
  In  In24  1  0.49226303  0.00329178  0.38671133  1
  In  In25  1  0.50531613  0.00116782  0.87675366  1
  In  In26  1  0.49070158  0.33215566  0.37262394  1
  In  In27  1  0.50484747  0.33154929  0.87166405  1
  In  In28  1  0.51168161  0.67297711  0.37604022  1
  In  In29  1  0.50793217  0.67327002  0.87609014  1
  In  In30  1  0.83648702  -0.00287902  0.39106844  1
  In  In31  1  0.83118824  -0.00176042  0.87248089  1
  In  In32  1  0.84349478  0.32430361  0.38113895  1
  In  In33  1  0.82346281  0.34615198  0.87951675  1
  In  In34  1  0.82609247  0.66767456  0.38751031  1
  In  In35  1  0.82854626  0.66789558  0.88108553  1
  In  In36  1  -0.01191846  0.17490686  0.38820516  1
  In  In37  1  -0.00128161  0.15517764  0.86628858  1
  In  In38  1  0.00275180  0.48801663  0.37707328  1
  In  In39  1  -0.01628596  0.50792008  0.88033411  1
  In  In40  1  -0.00801782  0.82421563  0.37966985  1
  In  In41  1  -0.02017175  0.81677389  0.85921662  1
  In  In42  1  0.34651535  0.14989595  0.39841875  1
  In  In43  1  0.34453099  0.17519557  0.86273884  1
  In  In44  1  0.33732098  0.48660410  0.37647432  1
  In  In45  1  0.35617691  0.52043804  0.85628668  1
  In  In46  1  0.32744432  0.84648907  0.38167151  1
  In  In47  1  0.34685159  0.84481659  0.86634852  1
  In  In48  1  0.67003356  0.16282646  0.38479346  1
  In  In49  1  0.66431413  0.16007035  0.87387430  1
  In  In50  1  0.66979029  0.51493575  0.37501012  1
  In  In51  1  0.66981568  0.50364686  0.87504795  1
  In  In52  1  0.66077501  0.83736372  0.38829953  1
  In  In53  1  0.66864816  0.83544726  0.88128571  1
  In  In54  1  0.17390413  0.01725974  0.12907125  1
  In  In55  1  0.16554934  0.00893251  0.62424971  1
  In  In56  1  0.16504197  0.31677521  0.13025124  1
  In  In57  1  0.17990017  0.32872411  0.63290507  1
  In  In58  1  0.16768727  0.66815489  0.12123071  1
  In  In59  1  0.16579905  0.65838161  0.64263536  1
  In  In60  1  0.49300052  -0.00286065  0.11765375  1
  In  In61  1  0.50146694  0.00097697  0.62898435  1
  In  In62  1  0.50881685  0.33959667  0.11568738  1
  In  In63  1  0.50742156  0.32530635  0.63370534  1
  In  In64  1  0.50181138  0.66822064  0.10624332  1
  In  In65  1  0.49424586  0.67698402  0.63600756  1
  In  In66  1  0.81547687  -0.01197379  0.10335410  1
  In  In67  1  0.83107650  -0.00499912  0.62823501  1
  In  In68  1  0.83374725  0.32832943  0.12398504  1
  In  In69  1  0.82180811  0.32359333  0.62358445  1
  In  In70  1  0.81138763  0.64890277  0.09058487  1
  In  In71  1  0.82961304  0.67133862  0.63329817  1
  In  In72  1  0.16071359  0.84005974  0.51569904  1
  In  In73  1  0.66398116  0.66763860  0.23474816  1
  In  In74  1  0.16117491  0.83183414  -0.00540581  1
  In  In75  1  -0.00441927  0.66421185  0.24496967  1
  In  In76  1  0.67277594  0.33439208  0.23988989  1
  In  In77  1  0.16709860  0.16550827  0.00037141  1
  In  In78  1  -0.00221161  0.00436114  0.25461086  1
  In  In79  1  0.33187990  0.32920099  0.25486605  1
  In  In80  1  0.00283130  0.33461275  0.74872555  1
  In  In81  1  0.66482200  -0.00082809  0.24391208  1
  In  In82  1  0.50473140  0.50134927  0.49822313  1
  In  In83  1  0.15910262  0.50139930  0.50655445  1
  In  In84  1  0.33570506  0.66938879  0.24128408  1
  In  In85  1  0.16531202  0.49412178  -0.01188988  1
  Cu  Cu86  1  0.34001397  0.32874291  0.50829963  1
  Cu  Cu87  1  0.33545332  0.67156084  -0.01413077  1
  Cu  Cu88  1  0.66720967  0.33136770  0.50586310  1
  Cu  Cu89  1  0.33445495  0.66933975  0.50839135  1
  Cu  Cu90  1  -0.00644854  -0.00643428  -0.01051276  1
  Cu  Cu91  1  0.17300003  0.83638604  0.74435589  1
  Cu  Cu92  1  0.49307205  0.84384111  0.24663381  1
  Cu  Cu93  1  0.66611871  0.32962378  -0.00779432  1
  Cu  Cu94  1  0.33732068  0.00387377  -0.00707052  1
  Cu  Cu95  1  0.82969435  0.50676314  0.75603382  1
  Cu  Cu96  1  0.50063681  0.16196193  0.75135383  1
  Cu  Cu97  1  0.82983919  0.83540234  0.75524573  1
  Cu  Cu98  1  0.50453782  0.49589095  0.75379318  1
  Cu  Cu99  1  0.66616236  -0.00299028  0.51054823  1
  Cu  Cu100  1  0.16799029  0.16563255  0.25768054  1
  Cu  Cu101  1  -0.00525873  0.33995141  0.50500728  1
  Cu  Cu102  1  -0.00430437  0.32880098  0.00295918  1
  Cu  Cu103  1  0.50603105  0.83282315  0.75449992  1
  Cu  Cu104  1  0.83680474  0.49308243  0.24866629  1
  Cu  Cu105  1  -0.01509382  0.67444316  0.51146976  1
  Cu  Cu106  1  0.17055878  0.84894367  0.25454680  1
  Cu  Cu107  1  0.34715780  0.33818023  -0.00903214  1
  Cu  Cu108  1  0.16726416  0.49532421  0.25125557  1
  Cu  Cu109  1  0.66967169  0.66755136  0.50926813  1
  Cu  Cu110  1  0.82884745  0.16559070  0.74657928  1
  Cu  Cu111  1  0.49840257  0.16849646  0.25522321  1
  Cu  Cu112  1  0.83884457  0.16150469  0.25398561  1
  Cu  Cu113  1  0.16697819  0.16582547  0.74186028  1
  Cu  Cu114  1  0.82325793  0.82658245  0.24756325  1
  Se  Se115  1  0.07213799  0.07060078  0.05484545  1
  Se  Se116  1  0.09511857  0.08586489  0.54619826  1
  Se  Se117  1  0.08363358  0.40555427  0.05987380  1
  Se  Se118  1  0.07443300  0.41314387  0.57003122  1
  Se  Se119  1  0.07262567  0.73959052  0.05445778  1
  Se  Se120  1  0.07684984  0.74096010  0.57141875  1
  Se  Se121  1  0.41088079  0.08880416  0.05357672  1
  Se  Se122  1  0.43346834  0.09095012  0.55646075  1
  Se  Se123  1  0.42683358  0.42317434  0.04627514  1
  Se  Se124  1  0.41499429  0.41738767  0.56392249  1
  Se  Se125  1  0.41089135  0.75490613  0.04706595  1
  Se  Se126  1  0.42307769  0.75057175  0.55566422  1
  Se  Se127  1  0.75786928  0.09070062  0.03991642  1
  Se  Se128  1  0.74854176  0.08355450  0.56084669  1
  Se  Se129  1  0.75012943  0.40572090  0.05275135  1
  Se  Se130  1  0.74800706  0.41849017  0.55640581  1
  Se  Se131  1  0.75481138  0.75886650  0.03363401  1
  Se  Se132  1  0.75113648  0.75380327  0.56086679  1
  Se  Se133  1  0.26244407  0.26383555  0.05260073  1
  Se  Se134  1  0.25359388  0.24848712  0.55933918  1
  Se  Se135  1  0.25721423  0.59153061  0.04940573  1
  Se  Se136  1  0.25706078  0.58504693  0.56511235  1
  Se  Se137  1  0.24977175  0.93013021  0.05368969  1
  Se  Se138  1  0.26507242  0.92559428  0.56095542  1
  Se  Se139  1  0.57952408  0.24965687  0.04678507  1
  Se  Se140  1  0.58288094  0.24907706  0.55739642  1
  Se  Se141  1  0.59833808  0.59521114  0.04570152  1
  Se  Se142  1  0.58577889  0.58685431  0.56658239  1
  Se  Se143  1  0.59486719  0.94337413  0.05004251  1
  Se  Se144  1  0.58316455  0.91217092  0.56157809  1
  Se  Se145  1  0.91712294  0.24256855  0.05659419  1
  Se  Se146  1  0.91220877  0.25183558  0.55389719  1
  Se  Se147  1  0.92846160  0.58173866  0.04927646  1
  Se  Se148  1  0.90907865  0.58308805  0.56240725  1
  Se  Se149  1  0.91727419  0.91021606  0.04819836  1
  Se  Se150  1  0.92150951  0.92532422  0.55608135  1
  Se  Se151  1  0.08005702  0.25887067  0.45065477  1
  Se  Se152  1  0.07551744  0.25328671  0.94001006  1
  Se  Se153  1  0.06601333  0.59564345  0.44780569  1
  Se  Se154  1  0.07934851  0.59666363  0.94054289  1
  Se  Se155  1  0.07839982  0.91677648  0.43997959  1
  Se  Se156  1  0.07883557  0.92039394  0.92963190  1
  Se  Se157  1  0.42618155  0.25341654  0.45111605  1
  Se  Se158  1  0.42199206  0.24524080  0.94090493  1
  Se  Se159  1  0.40708461  0.59127318  0.44023632  1
  Se  Se160  1  0.42168703  0.58360983  0.94200726  1
  Se  Se161  1  0.42866464  0.89919963  0.44843481  1
  Se  Se162  1  0.42000573  0.91541857  0.94614774  1
  Se  Se163  1  0.75153369  0.25087808  0.44869944  1
  Se  Se164  1  0.75069098  0.24679414  0.94088330  1
  Se  Se165  1  0.74701597  0.57974923  0.45459901  1
  Se  Se166  1  0.76884526  0.56209615  0.94491511  1
  Se  Se167  1  0.74919623  0.91391837  0.45465036  1
  Se  Se168  1  0.75397605  0.92073274  0.94643426  1
  Se  Se169  1  0.24001205  0.08985131  0.45788230  1
  Se  Se170  1  0.25415875  0.08252325  0.93462947  1
  Se  Se171  1  0.25512446  0.40942590  0.44997239  1
  Se  Se172  1  0.26456671  0.41375327  0.93083226  1
  Se  Se173  1  0.24741558  0.74401790  0.44864179  1
  Se  Se174  1  0.25128892  0.74899041  0.92922647  1
  Se  Se175  1  0.58733084  0.07891088  0.45011572  1
  Se  Se176  1  0.57195800  0.09575865  0.94601295  1
  Se  Se177  1  0.59332021  0.40878190  0.43728987  1
  Se  Se178  1  0.58418468  0.41664681  0.94135209  1
  Se  Se179  1  0.58242389  0.74643681  0.45413641  1
  Se  Se180  1  0.58402992  0.75292367  0.94916562  1
  Se  Se181  1  0.91830987  0.08208099  0.45427341  1
  Se  Se182  1  0.91649845  0.08591331  0.94057337  1
  Se  Se183  1  0.91354999  0.42161239  0.44863374  1
  Se  Se184  1  0.91661809  0.41490027  0.95007168  1
  Se  Se185  1  0.90627045  0.75590652  0.45328941  1
  Se  Se186  1  0.91678386  0.75445114  0.94463006  1
  Se  Se187  1  0.24835560  0.24316697  0.32057467  1
  Se  Se188  1  0.24942874  0.24815225  0.79625238  1
  Se  Se189  1  0.24780079  0.57569691  0.30939894  1
  Se  Se190  1  0.25116850  0.57856498  0.79402247  1
  Se  Se191  1  0.25838077  0.92719140  0.30450579  1
  Se  Se192  1  0.25784997  0.91934970  0.79709330  1
  Se  Se193  1  0.58581027  0.24705834  0.30882185  1
  Se  Se194  1  0.58550171  0.24640420  0.80262400  1
  Se  Se195  1  0.57539198  0.57979145  0.30110138  1
  Se  Se196  1  0.58420277  0.58389132  0.80604365  1
  Se  Se197  1  0.57859691  0.91294116  0.30970132  1
  Se  Se198  1  0.58753878  0.91710524  0.80855846  1
  Se  Se199  1  0.92004069  0.24748910  0.30507768  1
  Se  Se200  1  0.90725174  0.24891557  0.80815785  1
  Se  Se201  1  0.90746545  0.58000381  0.31207926  1
  Se  Se202  1  0.91443031  0.59100418  0.80555014  1
  Se  Se203  1  0.90337793  0.90629117  0.30791530  1
  Se  Se204  1  0.91913159  0.92453165  0.79936549  1
  Se  Se205  1  0.08719907  0.08741817  0.31897301  1
  Se  Se206  1  0.08228920  0.08278745  0.79432136  1
  Se  Se207  1  0.07922343  0.41441872  0.30039348  1
  Se  Se208  1  0.08163843  0.42286993  0.81762239  1
  Se  Se209  1  0.09015327  0.75809160  0.30506051  1
  Se  Se210  1  0.08756121  0.75578535  0.79821239  1
  Se  Se211  1  0.41913372  0.08797498  0.31311695  1
  Se  Se212  1  0.41747406  0.07522419  0.80297790  1
  Se  Se213  1  0.42954239  0.43013097  0.29885779  1
  Se  Se214  1  0.41760341  0.40868367  0.80039028  1
  Se  Se215  1  0.42082620  0.75657472  0.30768698  1
  Se  Se216  1  0.41945630  0.74665716  0.80371769  1
  Se  Se217  1  0.75767814  0.08076537  0.31138777  1
  Se  Se218  1  0.74903776  0.08146539  0.80225907  1
  Se  Se219  1  0.75491569  0.41977077  0.31136347  1
  Se  Se220  1  0.74636125  0.41665954  0.80179636  1
  Se  Se221  1  0.74464398  0.75040856  0.31113500  1
  Se  Se222  1  0.74895248  0.75132075  0.80968324  1
  Se  Se223  1  0.25512651  0.08761266  0.20423272  1
  Se  Se224  1  0.25546824  0.08122232  0.69486206  1
  Se  Se225  1  0.24883805  0.42214974  0.18743385  1
  Se  Se226  1  0.23686204  0.42018641  0.70635683  1
  Se  Se227  1  0.24148864  0.76600266  0.18852668  1
  Se  Se228  1  0.25752769  0.74873802  0.69677034  1
  Se  Se229  1  0.57545737  0.09489245  0.18901472  1
  Se  Se230  1  0.58663541  0.07782119  0.70140909  1
  Se  Se231  1  0.57832564  0.42994347  0.19098535  1
  Se  Se232  1  0.58737234  0.41278149  0.70001873  1
  Se  Se233  1  0.57182495  0.76551381  0.18311791  1
  Se  Se234  1  0.58894425  0.74672477  0.70304704  1
  Se  Se235  1  0.90433352  0.07636870  0.18617733  1
  Se  Se236  1  0.91615734  0.08511645  0.69380690  1
  Se  Se237  1  0.91687234  0.40336730  0.19939458  1
  Se  Se238  1  0.90438513  0.42207367  0.69254858  1
  Se  Se239  1  0.89979778  0.74624186  0.18507391  1
  Se  Se240  1  0.91578979  0.75283906  0.70162319  1
  Se  Se241  1  0.08244710  0.24367676  0.20283698  1
  Se  Se242  1  0.07704916  0.23892739  0.68292369  1
  Se  Se243  1  0.08971410  0.57237454  0.18716498  1
  Se  Se244  1  0.07916440  0.58351691  0.71130203  1
  Se  Se245  1  0.08746589  0.91592090  0.18879794  1
  Se  Se246  1  0.08881362  0.92003299  0.69270977  1
  Se  Se247  1  0.42582422  0.24953009  0.18947099  1
  Se  Se248  1  0.41672243  0.24733404  0.69892294  1
  Se  Se249  1  0.42914629  0.58203187  0.18483583  1
  Se  Se250  1  0.42117116  0.57979991  0.70009553  1
  Se  Se251  1  0.41086277  0.92895556  0.19568443  1
  Se  Se252  1  0.42242160  0.91434317  0.69957742  1
  Se  Se253  1  0.75284426  0.22822531  0.18848860  1
  Se  Se254  1  0.74294610  0.25097525  0.69903188  1
  Se  Se255  1  0.76060407  0.57271181  0.18454167  1
  Se  Se256  1  0.74508367  0.58910876  0.70206138  1
  Se  Se257  1  0.74542115  0.90180653  0.18328145  1
  Se  Se258  1  0.74780189  0.91992546  0.70194051  1
