# generated using pymatgen
data_In86Cu29Se144
_symmetry_space_group_name_H-M   'P 1'
_cell_length_a   17.59251859
_cell_length_b   17.59030768
_cell_length_c   23.45961221
_cell_angle_alpha   89.98673520
_cell_angle_beta   89.99474990
_cell_angle_gamma   89.98558347
_symmetry_Int_Tables_number   1
_chemical_formula_structural   In86Cu29Se144
_chemical_formula_sum   'In86 Cu29 Se144'
_cell_volume   7259.75987678
_cell_formula_units_Z   1
loop_
 _symmetry_equiv_pos_site_id
 _symmetry_equiv_pos_as_xyz
  1  'x, y, z'
loop_
 _atom_site_type_symbol
 _atom_site_label
 _atom_site_symmetry_multiplicity
 _atom_site_fract_x
 _atom_site_fract_y
 _atom_site_fract_z
 _atom_site_occupancy
  In  In0  1  0.01854720  0.18685939  0.09526428  1
  In  In1  1  0.00473280  0.15986661  0.61971105  1
  In  In2  1  0.01745667  0.49226794  0.11820357  1
  In  In3  1  0.00423184  0.49984554  0.61676284  1
  In  In4  1  0.01077459  0.82856319  0.12512615  1
  In  In5  1  0.02227865  0.86476403  0.60219417  1
  In  In6  1  0.32742231  0.17570188  0.13124340  1
  In  In7  1  0.33031078  0.16578119  0.62258665  1
  In  In8  1  0.32837254  0.49325738  0.12541079  1
  In  In9  1  0.32756900  0.51077462  0.62862177  1
  In  In10  1  0.31397343  0.84572378  0.14464867  1
  In  In11  1  0.32986675  0.83332276  0.62300952  1
  In  In12  1  0.68318978  0.17237792  0.12513610  1
  In  In13  1  0.67067118  0.17557522  0.62389847  1
  In  In14  1  0.64856464  0.50249295  0.12593334  1
  In  In15  1  0.66537168  0.48141440  0.62539480  1
  In  In16  1  0.66550074  0.83898686  0.12829833  1
  In  In17  1  0.67439756  0.84362639  0.61530846  1
  In  In18  1  0.18095453  -0.01416968  0.39293318  1
  In  In19  1  0.16836255  -0.00472394  0.88013797  1
  In  In20  1  0.16893086  0.32927318  0.37747420  1
  In  In21  1  0.17786846  0.31990393  0.88667331  1
  In  In22  1  0.17626716  0.66816073  0.37712800  1
  In  In23  1  0.17734368  0.65547408  0.88550957  1
  In  In24  1  0.49131465  0.00867465  0.38180920  1
  In  In25  1  0.49148386  0.01567558  0.87409534  1
  In  In26  1  0.49012689  0.32597844  0.37050316  1
  In  In27  1  0.49996411  0.33298654  0.87158127  1
  In  In28  1  0.49079030  0.67907830  0.37885542  1
  In  In29  1  0.48054740  0.67149369  0.87581620  1
  In  In30  1  0.84037345  -0.00046427  0.39180762  1
  In  In31  1  0.84697628  0.00337316  0.87632074  1
  In  In32  1  0.83477879  0.33622033  0.37992199  1
  In  In33  1  0.82448975  0.32564904  0.86836530  1
  In  In34  1  0.83376878  0.66706086  0.38399235  1
  In  In35  1  0.83884867  0.66983016  0.87368895  1
  In  In36  1  0.00726261  0.15504264  0.39414821  1
  In  In37  1  0.02770041  0.13829747  0.90586073  1
  In  In38  1  0.00820082  0.49320575  0.38110288  1
  In  In39  1  0.00796892  0.50745205  0.87652645  1
  In  In40  1  0.01484342  0.83913783  0.39213836  1
  In  In41  1  0.01835437  0.86608301  0.86640617  1
  In  In42  1  0.33249955  0.16687844  0.37756285  1
  In  In43  1  0.30820662  0.15156676  0.85313131  1
  In  In44  1  0.31791708  0.49519481  0.36260876  1
  In  In45  1  0.33437538  0.49902965  0.87657712  1
  In  In46  1  0.33003875  0.83806404  0.37482963  1
  In  In47  1  0.32117156  0.82404126  0.86663513  1
  In  In48  1  0.66389908  0.17012722  0.37961532  1
  In  In49  1  0.65906011  0.18018346  0.87577506  1
  In  In50  1  0.67971671  0.49609830  0.37373424  1
  In  In51  1  0.66587677  0.47924220  0.87544637  1
  In  In52  1  0.66101892  0.83237848  0.38426051  1
  In  In53  1  0.67994933  0.82889260  0.86555676  1
  In  In54  1  0.16971264  0.00832730  0.11938700  1
  In  In55  1  0.17403310  0.00396006  0.62386437  1
  In  In56  1  0.18257661  0.34284938  0.10458485  1
  In  In57  1  0.17107778  0.33700563  0.61992070  1
  In  In58  1  0.17902739  0.66982939  0.12528782  1
  In  In59  1  0.16885210  0.67743776  0.61844257  1
  In  In60  1  0.49611145  -0.00921728  0.12428118  1
  In  In61  1  0.48597536  -0.00918618  0.61639173  1
  In  In62  1  0.48659078  0.34367737  0.13603991  1
  In  In63  1  0.50493699  0.32879403  0.63034065  1
  In  In64  1  0.49224467  0.64723834  0.12066021  1
  In  In65  1  0.48376185  0.66993590  0.62722000  1
  In  In66  1  0.83808379  0.02631082  0.11853381  1
  In  In67  1  0.85166971  0.01875136  0.60731499  1
  In  In68  1  0.83560834  0.31595960  0.13110747  1
  In  In69  1  0.82865846  0.32230898  0.62050279  1
  In  In70  1  0.83526567  0.67560328  0.12856697  1
  In  In71  1  0.84306673  0.67394344  0.61646313  1
  In  In72  1  0.66515886  0.00720980  0.24798951  1
  In  In73  1  0.65834301  0.65818487  0.74386744  1
  In  In74  1  0.50068551  0.17271864  -0.00341389  1
  In  In75  1  0.00692255  0.00247751  0.24954516  1
  In  In76  1  0.65523187  0.66420872  0.25206141  1
  In  In77  1  0.83290961  0.49530086  -0.00027906  1
  In  In78  1  0.00237346  0.66995944  0.75297560  1
  In  In79  1  0.00783531  0.32794831  0.24802524  1
  In  In80  1  0.49458764  0.82942268  0.00493401  1
  In  In81  1  0.65942372  0.00383473  0.75025422  1
  In  In82  1  0.49763992  0.50025498  0.50082312  1
  In  In83  1  0.84268968  0.83828934  -0.00447327  1
  In  In84  1  0.00793409  0.31962201  0.75273731  1
  In  In85  1  0.00893819  0.66438014  0.26451309  1
  Cu  Cu86  1  0.66900528  0.33246390  0.50120708  1
  Cu  Cu87  1  0.34009949  0.32997784  -0.00348819  1
  Cu  Cu88  1  0.49463317  0.49652889  0.75010778  1
  Cu  Cu89  1  0.33451786  0.00009188  0.50240313  1
  Cu  Cu90  1  0.83596991  0.16289091  0.74426954  1
  Cu  Cu91  1  -0.00019804  0.66566543  0.49776460  1
  Cu  Cu92  1  0.83925663  0.16803290  0.25550840  1
  Cu  Cu93  1  0.66426699  0.66133590  0.49831733  1
  Cu  Cu94  1  0.17428643  0.50057450  0.75107355  1
  Cu  Cu95  1  0.00967810  0.66772985  0.00079226  1
  Cu  Cu96  1  0.83353692  0.84058869  0.25768871  1
  Cu  Cu97  1  0.16587701  0.83554136  0.74308722  1
  Cu  Cu98  1  0.49667603  0.16572838  0.25607688  1
  Cu  Cu99  1  0.49107840  0.16960016  0.74654758  1
  Cu  Cu100  1  0.49500400  0.49355658  0.25057952  1
  Cu  Cu101  1  0.49205532  0.83676563  0.25340283  1
  Cu  Cu102  1  0.66117735  0.33607898  0.00014303  1
  Cu  Cu103  1  0.00340925  0.33707971  0.50056407  1
  Cu  Cu104  1  0.66183013  0.00054162  0.49939118  1
  Cu  Cu105  1  0.33194089  -0.00220300  -0.00104726  1
  Cu  Cu106  1  0.84415191  0.84028975  0.73840541  1
  Cu  Cu107  1  0.82918336  0.49096050  0.25076364  1
  Cu  Cu108  1  0.17178054  0.16378518  0.25212692  1
  Cu  Cu109  1  0.65892429  0.66493916  0.00024538  1
  Cu  Cu110  1  0.32761765  0.67146845  0.50064491  1
  Cu  Cu111  1  0.82915573  0.48727489  0.74240353  1
  Cu  Cu112  1  0.33213440  0.33231407  0.49597283  1
  Cu  Cu113  1  0.49308231  0.83611510  0.74700035  1
  Cu  Cu114  1  0.33269754  0.66209463  0.00365931  1
  Se  Se115  1  0.07939143  0.07233668  0.04666643  1
  Se  Se116  1  0.07452986  0.06438847  0.55200587  1
  Se  Se117  1  0.06542604  0.39171410  0.04822984  1
  Se  Se118  1  0.09068578  0.42107017  0.54998968  1
  Se  Se119  1  0.09184183  0.74940034  0.05559505  1
  Se  Se120  1  0.08413333  0.75245297  0.54741501  1
  Se  Se121  1  0.41294996  0.07896519  0.05747477  1
  Se  Se122  1  0.41798407  0.08879615  0.55097088  1
  Se  Se123  1  0.41650818  0.41428514  0.05482102  1
  Se  Se124  1  0.40873809  0.41127994  0.56095953  1
  Se  Se125  1  0.40388929  0.74669450  0.06748814  1
  Se  Se126  1  0.41548981  0.75204338  0.55206858  1
  Se  Se127  1  0.73653698  0.07870055  0.05174793  1
  Se  Se128  1  0.74204982  0.08576055  0.55346530  1
  Se  Se129  1  0.74198022  0.41231690  0.06500704  1
  Se  Se130  1  0.75401825  0.41568665  0.55249586  1
  Se  Se131  1  0.74200104  0.74595773  0.05604421  1
  Se  Se132  1  0.74701243  0.74628138  0.55206915  1
  Se  Se133  1  0.25714879  0.24071322  0.04654986  1
  Se  Se134  1  0.24951939  0.24946670  0.55143562  1
  Se  Se135  1  0.24784803  0.57777115  0.05479627  1
  Se  Se136  1  0.24752752  0.58492432  0.55361491  1
  Se  Se137  1  0.25410956  0.91468166  0.05751869  1
  Se  Se138  1  0.24874885  0.91507142  0.55242201  1
  Se  Se139  1  0.58307763  0.25909675  0.06540243  1
  Se  Se140  1  0.58275744  0.25328077  0.55478839  1
  Se  Se141  1  0.57684227  0.57693834  0.04699824  1
  Se  Se142  1  0.58702928  0.58765223  0.56544379  1
  Se  Se143  1  0.59400782  0.92402071  0.05326572  1
  Se  Se144  1  0.57865041  0.91448950  0.55050371  1
  Se  Se145  1  0.89874162  0.24429698  0.04998402  1
  Se  Se146  1  0.92418015  0.25184206  0.55574125  1
  Se  Se147  1  0.92134719  0.59255802  0.05951927  1
  Se  Se148  1  0.91723413  0.58105095  0.55099161  1
  Se  Se149  1  0.92422644  0.92254238  0.06396045  1
  Se  Se150  1  0.88997696  0.89235181  0.56049292  1
  Se  Se151  1  0.08859494  0.25187928  0.45085612  1
  Se  Se152  1  0.07162496  0.26488034  0.95030613  1
  Se  Se153  1  0.08612936  0.58710736  0.44277549  1
  Se  Se154  1  0.08871551  0.57659804  0.95270600  1
  Se  Se155  1  0.06301797  0.94987679  0.45539388  1
  Se  Se156  1  0.08937614  0.91351812  0.95325930  1
  Se  Se157  1  0.41862701  0.24857477  0.44722997  1
  Se  Se158  1  0.40418881  0.24385845  0.93050656  1
  Se  Se159  1  0.40490444  0.58602272  0.44061102  1
  Se  Se160  1  0.41721472  0.58228998  0.94860605  1
  Se  Se161  1  0.41622764  0.91564016  0.44672071  1
  Se  Se162  1  0.41151519  0.91813873  0.93790931  1
  Se  Se163  1  0.75173827  0.25037884  0.44618389  1
  Se  Se164  1  0.74477549  0.25488469  0.94673970  1
  Se  Se165  1  0.74971446  0.57927563  0.44761777  1
  Se  Se166  1  0.74334413  0.58933499  0.93802918  1
  Se  Se167  1  0.74646622  0.91473269  0.44908535  1
  Se  Se168  1  0.74404136  0.92088380  0.93804652  1
  Se  Se169  1  0.25198723  0.08864968  0.45149285  1
  Se  Se170  1  0.25514765  0.08498350  0.94366531  1
  Se  Se171  1  0.25115101  0.41872363  0.44336272  1
  Se  Se172  1  0.25323592  0.41748661  0.94810805  1
  Se  Se173  1  0.24696523  0.75836519  0.44774189  1
  Se  Se174  1  0.25523230  0.74991968  0.94885592  1
  Se  Se175  1  0.58137720  0.08649835  0.44696021  1
  Se  Se176  1  0.59263465  0.07583421  0.94268834  1
  Se  Se177  1  0.58755031  0.41133123  0.43991392  1
  Se  Se178  1  0.57444770  0.41527500  0.94771513  1
  Se  Se179  1  0.57862777  0.74743344  0.45087397  1
  Se  Se180  1  0.58901712  0.74840449  0.93628551  1
  Se  Se181  1  0.89884079  0.10088391  0.45603851  1
  Se  Se182  1  0.90596908  0.08702009  0.95369502  1
  Se  Se183  1  0.91736183  0.41952804  0.44824493  1
  Se  Se184  1  0.91667560  0.41309636  0.93276736  1
  Se  Se185  1  0.91815345  0.75303353  0.44685895  1
  Se  Se186  1  0.93390761  0.74750077  0.93646851  1
  Se  Se187  1  0.25104351  0.25016378  0.30622074  1
  Se  Se188  1  0.24173796  0.25977814  0.79948572  1
  Se  Se189  1  0.24916866  0.59409734  0.29929963  1
  Se  Se190  1  0.25329986  0.58550790  0.80653534  1
  Se  Se191  1  0.24782759  0.92398997  0.30845516  1
  Se  Se192  1  0.24595449  0.91714673  0.80246286  1
  Se  Se193  1  0.58375925  0.24741863  0.30605676  1
  Se  Se194  1  0.57880785  0.24910860  0.79971984  1
  Se  Se195  1  0.57034459  0.57403233  0.31538510  1
  Se  Se196  1  0.57587320  0.57566020  0.81327279  1
  Se  Se197  1  0.57957178  0.91381477  0.30892240  1
  Se  Se198  1  0.57241996  0.90842653  0.81172888  1
  Se  Se199  1  0.92409570  0.24227232  0.31630972  1
  Se  Se200  1  0.91473287  0.23442732  0.81118708  1
  Se  Se201  1  0.90660369  0.57159554  0.31180777  1
  Se  Se202  1  0.90580634  0.57036489  0.80362895  1
  Se  Se203  1  0.91783711  0.91472830  0.31622971  1
  Se  Se204  1  0.91699334  0.92380228  0.79895611  1
  Se  Se205  1  0.09273198  0.08806602  0.31507011  1
  Se  Se206  1  0.08243438  0.08145620  0.81538477  1
  Se  Se207  1  0.09342677  0.42415726  0.30453421  1
  Se  Se208  1  0.09039870  0.42167599  0.80831508  1
  Se  Se209  1  0.09300218  0.76836731  0.31257508  1
  Se  Se210  1  0.09561385  0.75530846  0.81272995  1
  Se  Se211  1  0.41271568  0.08158074  0.30621066  1
  Se  Se212  1  0.41233691  0.07803884  0.79529010  1
  Se  Se213  1  0.41036895  0.41134843  0.30280943  1
  Se  Se214  1  0.41273316  0.41464747  0.80543833  1
  Se  Se215  1  0.41111405  0.75077536  0.30426612  1
  Se  Se216  1  0.41173410  0.74827560  0.79819263  1
  Se  Se217  1  0.76155393  0.08353359  0.31262156  1
  Se  Se218  1  0.75213906  0.09046305  0.80996855  1
  Se  Se219  1  0.74934401  0.40633163  0.30336379  1
  Se  Se220  1  0.74478900  0.40984365  0.79798283  1
  Se  Se221  1  0.75165744  0.75413302  0.30949084  1
  Se  Se222  1  0.76593336  0.75049787  0.79246150  1
  Se  Se223  1  0.25119600  0.08060236  0.19478176  1
  Se  Se224  1  0.26181099  0.07571906  0.69424888  1
  Se  Se225  1  0.24241975  0.40811099  0.18975068  1
  Se  Se226  1  0.25084615  0.41711815  0.69310894  1
  Se  Se227  1  0.25518702  0.73762049  0.20465717  1
  Se  Se228  1  0.24923979  0.74854315  0.69419583  1
  Se  Se229  1  0.57423769  0.09473364  0.18687733  1
  Se  Se230  1  0.57157308  0.08833832  0.68516923  1
  Se  Se231  1  0.58597253  0.41483808  0.20102763  1
  Se  Se232  1  0.58280352  0.41467223  0.70107809  1
  Se  Se233  1  0.56888214  0.75613682  0.18944655  1
  Se  Se234  1  0.57946678  0.76164467  0.68830126  1
  Se  Se235  1  0.92408339  0.10031411  0.19109716  1
  Se  Se236  1  0.92040344  0.08151357  0.69224315  1
  Se  Se237  1  0.91547738  0.42273814  0.18828400  1
  Se  Se238  1  0.92112528  0.41367190  0.68845264  1
  Se  Se239  1  0.91565006  0.75781284  0.20106095  1
  Se  Se240  1  0.92823439  0.75974141  0.68391611  1
  Se  Se241  1  0.09344368  0.23860932  0.18554498  1
  Se  Se242  1  0.09764648  0.23732153  0.68792731  1
  Se  Se243  1  0.08532606  0.58075715  0.19167703  1
  Se  Se244  1  0.08960703  0.57923990  0.69167493  1
  Se  Se245  1  0.09659674  0.91011468  0.19297722  1
  Se  Se246  1  0.08433135  0.92146629  0.69199549  1
  Se  Se247  1  0.41394787  0.24969264  0.20175686  1
  Se  Se248  1  0.40948335  0.25369946  0.69302014  1
  Se  Se249  1  0.41334933  0.57650627  0.19579848  1
  Se  Se250  1  0.41447715  0.58536805  0.70054307  1
  Se  Se251  1  0.41478097  0.92496139  0.20067231  1
  Se  Se252  1  0.40989191  0.91825846  0.69384177  1
  Se  Se253  1  0.74980490  0.24926889  0.20616640  1
  Se  Se254  1  0.75081362  0.25086024  0.69875489  1
  Se  Se255  1  0.75461179  0.57877952  0.19226177  1
  Se  Se256  1  0.75824895  0.57743492  0.68473983  1
  Se  Se257  1  0.76446385  0.91926197  0.19020679  1
  Se  Se258  1  0.75544964  0.92355793  0.68874621  1
