# generated using pymatgen
data_In86Cu29Se144
_symmetry_space_group_name_H-M   'P 1'
_cell_length_a   17.59368340
_cell_length_b   17.58258671
_cell_length_c   23.45328917
_cell_angle_alpha   89.99859777
_cell_angle_beta   89.95889849
_cell_angle_gamma   89.99446210
_symmetry_Int_Tables_number   1
_chemical_formula_structural   In86Cu29Se144
_chemical_formula_sum   'In86 Cu29 Se144'
_cell_volume   7255.09635416
_cell_formula_units_Z   1
loop_
 _symmetry_equiv_pos_site_id
 _symmetry_equiv_pos_as_xyz
  1  'x, y, z'
loop_
 _atom_site_type_symbol
 _atom_site_label
 _atom_site_symmetry_multiplicity
 _atom_site_fract_x
 _atom_site_fract_y
 _atom_site_fract_z
 _atom_site_occupancy
  In  In0  1  -0.00000770  0.15999052  0.12895137  1
  In  In1  1  -0.00452567  0.16029344  0.61970007  1
  In  In2  1  0.00493279  0.49463910  0.12952449  1
  In  In3  1  -0.00360050  0.51510731  0.61403664  1
  In  In4  1  0.01067322  0.83318907  0.12601987  1
  In  In5  1  0.02346988  0.84497441  0.59633929  1
  In  In6  1  0.33470334  0.16142132  0.11557897  1
  In  In7  1  0.33465202  0.13688013  0.63582015  1
  In  In8  1  0.33034841  0.51487829  0.12305337  1
  In  In9  1  0.35120385  0.50374244  0.62223506  1
  In  In10  1  0.34054367  0.83872448  0.11171003  1
  In  In11  1  0.34079435  0.83611629  0.63094200  1
  In  In12  1  0.66449989  0.16234193  0.13129291  1
  In  In13  1  0.65920029  0.15200887  0.61641890  1
  In  In14  1  0.66265309  0.49723732  0.13722956  1
  In  In15  1  0.68033757  0.51771591  0.61265186  1
  In  In16  1  0.65689130  0.83970686  0.14314826  1
  In  In17  1  0.66102472  0.83094231  0.62461141  1
  In  In18  1  0.14435738  -0.01095752  0.38183342  1
  In  In19  1  0.16358319  0.00245828  0.87352442  1
  In  In20  1  0.15559772  0.34213581  0.36912218  1
  In  In21  1  0.17479714  0.33404322  0.88508064  1
  In  In22  1  0.16404031  0.68609196  0.37952729  1
  In  In23  1  0.17967567  0.66215854  0.87283015  1
  In  In24  1  0.51250223  -0.01751779  0.38751799  1
  In  In25  1  0.50038529  -0.00185726  0.86973550  1
  In  In26  1  0.51656067  0.32104725  0.38527183  1
  In  In27  1  0.48875637  0.33171997  0.87927559  1
  In  In28  1  0.50727637  0.65839472  0.39064709  1
  In  In29  1  0.51761072  0.69643325  0.84426218  1
  In  In30  1  0.83440903  0.00441900  0.37988263  1
  In  In31  1  0.82707090  -0.00904793  0.86386178  1
  In  In32  1  0.82944725  0.32916038  0.37414158  1
  In  In33  1  0.83149987  0.33188569  0.87299293  1
  In  In34  1  0.82200494  0.69899141  0.39841410  1
  In  In35  1  0.83006988  0.68301312  0.86893679  1
  In  In36  1  -0.01796567  0.14596816  0.36342224  1
  In  In37  1  0.01373292  0.16231244  0.87780432  1
  In  In38  1  -0.00972273  0.48571784  0.36676460  1
  In  In39  1  0.01102253  0.51576859  0.87158446  1
  In  In40  1  -0.03200170  0.87305092  0.43014897  1
  In  In41  1  0.00215693  0.85300827  0.87075707  1
  In  In42  1  0.34100469  0.16989253  0.37906593  1
  In  In43  1  0.33912232  0.16130016  0.87949071  1
  In  In44  1  0.33705185  0.52046850  0.38403777  1
  In  In45  1  0.32986029  0.50476040  0.87492086  1
  In  In46  1  0.32912148  0.82392744  0.39564733  1
  In  In47  1  0.33339005  0.83464873  0.86808152  1
  In  In48  1  0.66803408  0.16132172  0.37619303  1
  In  In49  1  0.66301347  0.14764878  0.87357061  1
  In  In50  1  0.67199698  0.50287661  0.37891632  1
  In  In51  1  0.65387930  0.50893543  0.87537074  1
  In  In52  1  0.67133172  0.83604172  0.36834751  1
  In  In53  1  0.66406768  0.83522578  0.86505687  1
  In  In54  1  0.16462389  -0.00198162  0.11385349  1
  In  In55  1  0.17847603  -0.00601429  0.63965568  1
  In  In56  1  0.15888999  0.32381273  0.12054504  1
  In  In57  1  0.16496623  0.32093278  0.62811089  1
  In  In58  1  0.17644231  0.67649699  0.11634214  1
  In  In59  1  0.16924902  0.69872070  0.61163245  1
  In  In60  1  0.51122383  0.00049528  0.11336198  1
  In  In61  1  0.49965071  -0.00369548  0.62808196  1
  In  In62  1  0.51173137  0.32310274  0.13345531  1
  In  In63  1  0.50409128  0.33610854  0.61602339  1
  In  In64  1  0.49915671  0.67253764  0.12756728  1
  In  In65  1  0.50041119  0.68018308  0.62768410  1
  In  In66  1  0.82459810  0.00003323  0.13609119  1
  In  In67  1  0.83271002  -0.00572212  0.61597210  1
  In  In68  1  0.83309626  0.33227740  0.13853819  1
  In  In69  1  0.83609722  0.33478865  0.61301388  1
  In  In70  1  0.83250696  0.66379669  0.13270999  1
  In  In71  1  0.83418010  0.66780084  0.60867300  1
  In  In72  1  -0.00715623  0.67355877  0.26176936  1
  In  In73  1  0.17369717  0.16392612  0.50198347  1
  In  In74  1  0.33738738  0.66998444  0.25504738  1
  In  In75  1  0.83020792  0.83333961  -0.00149949  1
  In  In76  1  0.33407866  0.33921267  0.25518079  1
  In  In77  1  0.16626315  0.49276226  0.49660109  1
  In  In78  1  0.83181018  0.16111556  0.01423906  1
  In  In79  1  0.83792567  0.49983546  0.01348631  1
  In  In80  1  0.33337639  -0.00205449  0.24801271  1
  In  In81  1  0.66987336  0.33205107  0.74142428  1
  In  In82  1  0.48839887  0.50218489  0.00001150  1
  In  In83  1  0.33481407  0.33090745  0.75641423  1
  In  In84  1  -0.00331647  0.32495455  0.74166424  1
  In  In85  1  -0.00308325  0.67632629  0.73433863  1
  Cu  Cu86  1  -0.00170481  0.00519293  -0.00093070  1
  Cu  Cu87  1  0.15984043  0.50230872  0.24732509  1
  Cu  Cu88  1  0.65741313  0.67862920  0.50035764  1
  Cu  Cu89  1  0.16843377  0.84396252  0.24893727  1
  Cu  Cu90  1  0.82978907  0.16691317  0.25244599  1
  Cu  Cu91  1  0.16452270  0.83612015  0.74833656  1
  Cu  Cu92  1  0.66765829  0.33249905  0.49503936  1
  Cu  Cu93  1  0.01785179  0.67117934  -0.00317878  1
  Cu  Cu94  1  0.33030766  -0.00459113  -0.00865268  1
  Cu  Cu95  1  0.66407943  0.00033037  0.50057246  1
  Cu  Cu96  1  0.82655093  0.50899969  0.73985044  1
  Cu  Cu97  1  0.00588106  0.34490163  -0.00063417  1
  Cu  Cu98  1  0.50628164  0.15830954  0.25336402  1
  Cu  Cu99  1  0.50572249  0.83045806  0.25419467  1
  Cu  Cu100  1  0.50800193  0.49468888  0.26366716  1
  Cu  Cu101  1  0.16529327  0.49517797  0.74884194  1
  Cu  Cu102  1  -0.00266251  0.32288051  0.49388999  1
  Cu  Cu103  1  0.33518717  -0.00090832  0.50883916  1
  Cu  Cu104  1  0.50845106  0.51473518  0.74314377  1
  Cu  Cu105  1  0.66131104  0.31830260  0.00599659  1
  Cu  Cu106  1  0.50154815  0.16458064  0.74949008  1
  Cu  Cu107  1  0.66452882  0.66614490  -0.00735275  1
  Cu  Cu108  1  0.82891359  0.83532942  0.73753556  1
  Cu  Cu109  1  0.33821955  0.67202623  -0.00843698  1
  Cu  Cu110  1  0.32991094  0.33288213  0.00287823  1
  Cu  Cu111  1  0.34299172  0.33084067  0.50135704  1
  Cu  Cu112  1  0.15616889  0.16747053  0.24956604  1
  Cu  Cu113  1  0.82479044  0.50321973  0.25493999  1
  Cu  Cu114  1  0.83455298  0.15171390  0.74327532  1
  Se  Se115  1  0.08079474  0.09025627  0.05198601  1
  Se  Se116  1  0.08984867  0.07155355  0.56144324  1
  Se  Se117  1  0.08949382  0.42438644  0.05567762  1
  Se  Se118  1  0.07576645  0.40063503  0.55876159  1
  Se  Se119  1  0.09230139  0.76147868  0.05067030  1
  Se  Se120  1  0.04443676  0.70803578  0.55520628  1
  Se  Se121  1  0.41352471  0.07373428  0.05062143  1
  Se  Se122  1  0.42059890  0.08527848  0.55635159  1
  Se  Se123  1  0.41207862  0.40753874  0.06790307  1
  Se  Se124  1  0.42367841  0.42225713  0.54840853  1
  Se  Se125  1  0.42292331  0.74576274  0.05117138  1
  Se  Se126  1  0.41367324  0.75386046  0.55668045  1
  Se  Se127  1  0.73465759  0.06550739  0.05900677  1
  Se  Se128  1  0.75362299  0.08396276  0.54814986  1
  Se  Se129  1  0.73896901  0.40506448  0.06268654  1
  Se  Se130  1  0.74861623  0.41687284  0.54933979  1
  Se  Se131  1  0.74703923  0.73713243  0.05728277  1
  Se  Se132  1  0.74778346  0.75955991  0.54982829  1
  Se  Se133  1  0.24720653  0.24681581  0.05346126  1
  Se  Se134  1  0.26696922  0.25142282  0.56393191  1
  Se  Se135  1  0.25529094  0.58953403  0.04762141  1
  Se  Se136  1  0.24396757  0.58025462  0.56516765  1
  Se  Se137  1  0.24738393  0.91303661  0.04729604  1
  Se  Se138  1  0.25068451  0.91719996  0.56175914  1
  Se  Se139  1  0.57725157  0.23724963  0.05832834  1
  Se  Se140  1  0.58712269  0.24973382  0.55222755  1
  Se  Se141  1  0.59031609  0.58387550  0.05785113  1
  Se  Se142  1  0.57905740  0.59297772  0.55557975  1
  Se  Se143  1  0.57974612  0.89233891  0.05896681  1
  Se  Se144  1  0.58094170  0.91819241  0.55546408  1
  Se  Se145  1  0.92327874  0.26590555  0.06022805  1
  Se  Se146  1  0.91534582  0.24242233  0.54998486  1
  Se  Se147  1  0.93455631  0.59808531  0.06045464  1
  Se  Se148  1  0.89601587  0.56279174  0.54495426  1
  Se  Se149  1  0.91875434  0.92458216  0.06050504  1
  Se  Se150  1  0.91796053  0.91752095  0.54257162  1
  Se  Se151  1  0.08336502  0.24675141  0.43676589  1
  Se  Se152  1  0.08257695  0.25399382  0.94773110  1
  Se  Se153  1  0.08194856  0.57501528  0.42907812  1
  Se  Se154  1  0.09556271  0.58142974  0.94535699  1
  Se  Se155  1  0.11022398  0.89242242  0.45953066  1
  Se  Se156  1  0.08200949  0.92015751  0.94764701  1
  Se  Se157  1  0.42447391  0.24297491  0.45079907  1
  Se  Se158  1  0.41466039  0.24992977  0.95098075  1
  Se  Se159  1  0.40698250  0.59865935  0.45841190  1
  Se  Se160  1  0.42330103  0.59762142  0.93056031  1
  Se  Se161  1  0.41593394  0.91441497  0.45403765  1
  Se  Se162  1  0.41591700  0.91403907  0.93902084  1
  Se  Se163  1  0.75049081  0.24585121  0.44472589  1
  Se  Se164  1  0.74788761  0.24978800  0.94365517  1
  Se  Se165  1  0.74398359  0.59323692  0.44995357  1
  Se  Se166  1  0.75384933  0.58512333  0.94070203  1
  Se  Se167  1  0.74535504  0.91899952  0.44380579  1
  Se  Se168  1  0.73966764  0.92378494  0.94079487  1
  Se  Se169  1  0.25820104  0.06976405  0.43802515  1
  Se  Se170  1  0.24667678  0.08375673  0.94431923  1
  Se  Se171  1  0.26147585  0.40345635  0.43726690  1
  Se  Se172  1  0.25524987  0.42349824  0.94919462  1
  Se  Se173  1  0.25023509  0.73395024  0.45952639  1
  Se  Se174  1  0.25060416  0.75350314  0.94132759  1
  Se  Se175  1  0.58025899  0.08602879  0.44804498  1
  Se  Se176  1  0.57090775  0.08737229  0.94307085  1
  Se  Se177  1  0.58425781  0.42239975  0.44784373  1
  Se  Se178  1  0.58954956  0.40815147  0.94645649  1
  Se  Se179  1  0.58216491  0.76480757  0.44282822  1
  Se  Se180  1  0.58572054  0.74748680  0.93529041  1
  Se  Se181  1  0.92360094  0.08206425  0.44996238  1
  Se  Se182  1  0.91067765  0.07805547  0.93929594  1
  Se  Se183  1  0.91580828  0.41056433  0.44382027  1
  Se  Se184  1  0.92193887  0.41911674  0.93857077  1
  Se  Se185  1  0.94484814  0.72957936  0.45324528  1
  Se  Se186  1  0.92960922  0.74539388  0.93943739  1
  Se  Se187  1  0.24139750  0.24127466  0.30957499  1
  Se  Se188  1  0.24029150  0.24272296  0.81129998  1
  Se  Se189  1  0.23764872  0.58018083  0.30913230  1
  Se  Se190  1  0.25189907  0.57862749  0.79861405  1
  Se  Se191  1  0.25152824  0.91079253  0.31638833  1
  Se  Se192  1  0.24495496  0.91929348  0.80343887  1
  Se  Se193  1  0.58511784  0.24594237  0.30534499  1
  Se  Se194  1  0.57811229  0.25108581  0.80818403  1
  Se  Se195  1  0.58424803  0.58746179  0.31247841  1
  Se  Se196  1  0.59897248  0.59061806  0.79482035  1
  Se  Se197  1  0.58449098  0.92212005  0.30226018  1
  Se  Se198  1  0.57583409  0.91170908  0.79898738  1
  Se  Se199  1  0.91672260  0.25110283  0.30319310  1
  Se  Se200  1  0.90649626  0.23721106  0.80599917  1
  Se  Se201  1  0.89811442  0.58577492  0.31796590  1
  Se  Se202  1  0.91112606  0.58345660  0.80263471  1
  Se  Se203  1  0.93730720  0.91919118  0.32941304  1
  Se  Se204  1  0.91306952  0.91278672  0.79538485  1
  Se  Se205  1  0.08470294  0.07487772  0.30320553  1
  Se  Se206  1  0.06150463  0.06422559  0.80677621  1
  Se  Se207  1  0.07623118  0.41334885  0.29307970  1
  Se  Se208  1  0.08591347  0.41521155  0.80740051  1
  Se  Se209  1  0.08538675  0.76982255  0.31013144  1
  Se  Se210  1  0.08310608  0.75194754  0.80758052  1
  Se  Se211  1  0.42437565  0.07990364  0.31319544  1
  Se  Se212  1  0.41452775  0.08617095  0.80325881  1
  Se  Se213  1  0.42053468  0.42227525  0.32228975  1
  Se  Se214  1  0.43150329  0.43072278  0.80498970  1
  Se  Se215  1  0.42258260  0.75838876  0.31768083  1
  Se  Se216  1  0.39479258  0.73833157  0.79700649  1
  Se  Se217  1  0.75018222  0.08005831  0.30613619  1
  Se  Se218  1  0.74449476  0.07821955  0.79796919  1
  Se  Se219  1  0.74555098  0.41494365  0.30707364  1
  Se  Se220  1  0.75456966  0.42790372  0.80556589  1
  Se  Se221  1  0.76150874  0.75106630  0.30734705  1
  Se  Se222  1  0.74945469  0.75288843  0.79507012  1
  Se  Se223  1  0.24222237  0.09147549  0.19068565  1
  Se  Se224  1  0.23893193  0.09126954  0.70922286  1
  Se  Se225  1  0.24590715  0.42504624  0.18943146  1
  Se  Se226  1  0.24849767  0.41801065  0.68842440  1
  Se  Se227  1  0.25225432  0.76327918  0.19224630  1
  Se  Se228  1  0.24648560  0.75184673  0.69481418  1
  Se  Se229  1  0.58070232  0.07293878  0.19522875  1
  Se  Se230  1  0.58521772  0.08243455  0.69609785  1
  Se  Se231  1  0.58311005  0.41013046  0.20457802  1
  Se  Se232  1  0.58399700  0.42872995  0.68460618  1
  Se  Se233  1  0.58307004  0.73822799  0.20372208  1
  Se  Se234  1  0.57523308  0.76384913  0.70014601  1
  Se  Se235  1  0.91375650  0.08383356  0.19825067  1
  Se  Se236  1  0.91759410  0.07355807  0.68761978  1
  Se  Se237  1  0.91283525  0.42688494  0.19922707  1
  Se  Se238  1  0.91118153  0.42680210  0.68741024  1
  Se  Se239  1  0.91203463  0.76265207  0.19320383  1
  Se  Se240  1  0.91342504  0.76770856  0.67331480  1
  Se  Se241  1  0.07688793  0.25274183  0.19563130  1
  Se  Se242  1  0.09149331  0.22781267  0.69593810  1
  Se  Se243  1  0.08908445  0.59513372  0.19029670  1
  Se  Se244  1  0.09284887  0.57899793  0.68590431  1
  Se  Se245  1  0.08781179  0.92426408  0.19200015  1
  Se  Se246  1  0.07627750  0.90632308  0.68910361  1
  Se  Se247  1  0.41644421  0.23670520  0.19795774  1
  Se  Se248  1  0.42390528  0.24811178  0.68967132  1
  Se  Se249  1  0.42773784  0.57096636  0.19921191  1
  Se  Se250  1  0.41553968  0.59115562  0.69552338  1
  Se  Se251  1  0.42424089  0.90672869  0.19094100  1
  Se  Se252  1  0.39870196  0.93937229  0.69698111  1
  Se  Se253  1  0.74406991  0.24872470  0.19952533  1
  Se  Se254  1  0.76016197  0.24003982  0.68446374  1
  Se  Se255  1  0.74478386  0.58634880  0.19983614  1
  Se  Se256  1  0.75224654  0.59860056  0.68796684  1
  Se  Se257  1  0.75618740  0.90805017  0.20359432  1
  Se  Se258  1  0.74581845  0.92152590  0.68779080  1
