# generated using pymatgen
data_In86Cu29Se144
_symmetry_space_group_name_H-M   'P 1'
_cell_length_a   17.57927854
_cell_length_b   17.57561922
_cell_length_c   23.44003404
_cell_angle_alpha   89.99731074
_cell_angle_beta   90.00240474
_cell_angle_gamma   89.99081821
_symmetry_Int_Tables_number   1
_chemical_formula_structural   In86Cu29Se144
_chemical_formula_sum   'In86 Cu29 Se144'
_cell_volume   7242.18999445
_cell_formula_units_Z   1
loop_
 _symmetry_equiv_pos_site_id
 _symmetry_equiv_pos_as_xyz
  1  'x, y, z'
loop_
 _atom_site_type_symbol
 _atom_site_label
 _atom_site_symmetry_multiplicity
 _atom_site_fract_x
 _atom_site_fract_y
 _atom_site_fract_z
 _atom_site_occupancy
  In  In0  1  0.00671276  0.16267037  0.11641008  1
  In  In1  1  -0.00341801  0.16974395  0.63704829  1
  In  In2  1  -0.01377711  0.49295214  0.11229000  1
  In  In3  1  0.00497323  0.49740566  0.63260523  1
  In  In4  1  -0.00219180  0.84497142  0.11650719  1
  In  In5  1  -0.01232398  0.84260599  0.63407004  1
  In  In6  1  0.32455610  0.17434289  0.13298859  1
  In  In7  1  0.33461082  0.15155202  0.62660942  1
  In  In8  1  0.32138748  0.49761929  0.12544758  1
  In  In9  1  0.32530298  0.51655681  0.61720817  1
  In  In10  1  0.35092509  0.83350195  0.12907171  1
  In  In11  1  0.34823909  0.83107137  0.62274832  1
  In  In12  1  0.66903607  0.15591386  0.11982214  1
  In  In13  1  0.65769767  0.17307052  0.63214791  1
  In  In14  1  0.68345225  0.50327561  0.12433162  1
  In  In15  1  0.65677681  0.50329355  0.64403235  1
  In  In16  1  0.66800918  0.83268691  0.11914465  1
  In  In17  1  0.66933190  0.82830697  0.62485645  1
  In  In18  1  0.16748147  0.00516396  0.36435011  1
  In  In19  1  0.17116145  0.00817899  0.87467297  1
  In  In20  1  0.17085242  0.33818956  0.36926960  1
  In  In21  1  0.14968944  0.34526321  0.88610263  1
  In  In22  1  0.15550139  0.65934155  0.37966311  1
  In  In23  1  0.14906464  0.66540550  0.87985379  1
  In  In24  1  0.49470958  0.00469399  0.38491293  1
  In  In25  1  0.49576402  -0.01069918  0.86968215  1
  In  In26  1  0.48261409  0.34130846  0.37557987  1
  In  In27  1  0.50867816  0.33242474  0.87133719  1
  In  In28  1  0.51259311  0.66827821  0.36996578  1
  In  In29  1  0.52063356  0.66812941  0.86760462  1
  In  In30  1  0.82923789  -0.01063698  0.37114726  1
  In  In31  1  0.83674689  -0.00118996  0.87534577  1
  In  In32  1  0.83184825  0.32294470  0.36784385  1
  In  In33  1  0.84053398  0.33225455  0.87632682  1
  In  In34  1  0.82825313  0.68682315  0.37813818  1
  In  In35  1  0.83590894  0.67166785  0.88107843  1
  In  In36  1  -0.00074601  0.16999781  0.36302186  1
  In  In37  1  -0.00366482  0.16204135  0.87839631  1
  In  In38  1  0.00864928  0.49944067  0.37421115  1
  In  In39  1  0.00103119  0.50462861  0.87957098  1
  In  In40  1  -0.01008350  0.83648600  0.37199436  1
  In  In41  1  -0.01079496  0.82379460  0.87335742  1
  In  In42  1  0.33612418  0.17338637  0.37255418  1
  In  In43  1  0.33339208  0.15109325  0.87656455  1
  In  In44  1  0.33815382  0.48206407  0.37159081  1
  In  In45  1  0.32881787  0.49065996  0.87898829  1
  In  In46  1  0.33546358  0.84576837  0.37251340  1
  In  In47  1  0.33340830  0.85046275  0.87688921  1
  In  In48  1  0.66682539  0.15177252  0.37997619  1
  In  In49  1  0.68395810  0.17383701  0.86787603  1
  In  In50  1  0.65433341  0.51906126  0.37328676  1
  In  In51  1  0.68534264  0.52144288  0.85664178  1
  In  In52  1  0.66793428  0.82696467  0.38241080  1
  In  In53  1  0.66812669  0.83224688  0.87361458  1
  In  In54  1  0.15563129  0.00954056  0.12628788  1
  In  In55  1  0.16183603  0.00489500  0.63881473  1
  In  In56  1  0.16291557  0.32860829  0.12388274  1
  In  In57  1  0.15504409  0.33911397  0.62951656  1
  In  In58  1  0.16923443  0.65414204  0.11873696  1
  In  In59  1  0.17046910  0.65432607  0.62548807  1
  In  In60  1  0.50357987  -0.01696557  0.12894667  1
  In  In61  1  0.50366925  -0.00335233  0.62678001  1
  In  In62  1  0.49681963  0.32202122  0.13106580  1
  In  In63  1  0.51452443  0.33856926  0.62593662  1
  In  In64  1  0.50529377  0.68778832  0.12806308  1
  In  In65  1  0.50173296  0.67466936  0.62157126  1
  In  In66  1  0.85672889  0.01332353  0.09593833  1
  In  In67  1  0.83919070  -0.01031879  0.63326582  1
  In  In68  1  0.84532946  0.34143313  0.11738422  1
  In  In69  1  0.83140660  0.33661518  0.63671633  1
  In  In70  1  0.82837959  0.65957991  0.11178644  1
  In  In71  1  0.81877161  0.68409460  0.63605632  1
  In  In72  1  -0.00316263  0.66850332  0.24873314  1
  In  In73  1  0.66362081  0.33930257  0.25098244  1
  In  In74  1  0.33810269  0.66112720  0.25270306  1
  In  In75  1  0.16393954  0.83626407  -0.00139981  1
  In  In76  1  0.83190561  0.15966855  0.50931331  1
  In  In77  1  0.16822803  0.16738369  0.50477305  1
  In  In78  1  0.50237131  0.16269673  -0.00179898  1
  In  In79  1  0.67030161  -0.00651657  0.24700223  1
  In  In80  1  0.83255048  0.50196534  0.50565132  1
  In  In81  1  0.16909583  0.82820439  0.50075712  1
  In  In82  1  0.50185974  0.50262630  -0.00279161  1
  In  In83  1  0.33707888  0.33112313  0.75602647  1
  In  In84  1  0.33627598  0.66892656  0.74066711  1
  In  In85  1  0.49731298  0.50842173  0.50115995  1
  Cu  Cu86  1  0.15984768  0.16328424  0.24505463  1
  Cu  Cu87  1  0.16222105  0.48737671  0.24749831  1
  Cu  Cu88  1  0.17105678  0.83874965  0.24306708  1
  Cu  Cu89  1  0.49246142  0.16663434  0.25770974  1
  Cu  Cu90  1  0.16387681  0.50188328  0.75503247  1
  Cu  Cu91  1  0.00145866  0.32811423  -0.00212612  1
  Cu  Cu92  1  0.33472960  0.00005425  0.00313635  1
  Cu  Cu93  1  0.33704814  0.66916768  0.00368574  1
  Cu  Cu94  1  0.66071676  -0.01104264  0.50284745  1
  Cu  Cu95  1  0.16387099  0.17157488  0.75582700  1
  Cu  Cu96  1  0.83571799  0.16069112  0.75601366  1
  Cu  Cu97  1  0.16229917  0.83683846  0.75865882  1
  Cu  Cu98  1  0.66962807  -0.00318516  -0.00493202  1
  Cu  Cu99  1  0.32519554  0.32731114  0.00318262  1
  Cu  Cu100  1  0.65958030  0.33124127  0.50672376  1
  Cu  Cu101  1  0.50252351  0.15942607  0.75257935  1
  Cu  Cu102  1  0.82931218  0.82881162  0.75492261  1
  Cu  Cu103  1  0.50354026  0.83451504  0.74704725  1
  Cu  Cu104  1  0.66722833  0.67125306  -0.00572176  1
  Cu  Cu105  1  0.84237314  0.16984441  0.23634318  1
  Cu  Cu106  1  0.83314290  0.50804532  0.24216617  1
  Cu  Cu107  1  0.00513991  0.34024939  0.50241655  1
  Cu  Cu108  1  0.83137737  0.84017618  0.24633261  1
  Cu  Cu109  1  -0.00399982  0.66745098  0.50278755  1
  Cu  Cu110  1  0.33838267  -0.00510071  0.50331359  1
  Cu  Cu111  1  -0.00622420  -0.00488514  0.50187330  1
  Cu  Cu112  1  0.67634927  0.34037554  -0.00438883  1
  Cu  Cu113  1  0.84304847  0.49760872  0.75535488  1
  Cu  Cu114  1  0.33186716  0.33171205  0.49484471  1
  Se  Se115  1  0.07852840  0.07186288  0.04678229  1
  Se  Se116  1  0.07173512  0.07764804  0.56091168  1
  Se  Se117  1  0.08307051  0.41254508  0.05358742  1
  Se  Se118  1  0.08617338  0.42401491  0.55525196  1
  Se  Se119  1  0.07903007  0.74094252  0.05791766  1
  Se  Se120  1  0.07516398  0.74816664  0.56471130  1
  Se  Se121  1  0.41496351  0.08020659  0.06501820  1
  Se  Se122  1  0.42066819  0.08041730  0.55536345  1
  Se  Se123  1  0.41439343  0.40667617  0.05757170  1
  Se  Se124  1  0.40958764  0.41082644  0.56038924  1
  Se  Se125  1  0.42135386  0.75485640  0.05135770  1
  Se  Se126  1  0.39830092  0.72878994  0.55509776  1
  Se  Se127  1  0.74898656  0.08834856  0.04347093  1
  Se  Se128  1  0.73973220  0.07044074  0.56522808  1
  Se  Se129  1  0.75763397  0.42345138  0.05074344  1
  Se  Se130  1  0.73932386  0.41254204  0.56466293  1
  Se  Se131  1  0.75069230  0.75363155  0.04848537  1
  Se  Se132  1  0.75418823  0.75206199  0.55326993  1
  Se  Se133  1  0.24470838  0.24162547  0.05492356  1
  Se  Se134  1  0.25720468  0.25890141  0.56483461  1
  Se  Se135  1  0.25420394  0.57868229  0.04776507  1
  Se  Se136  1  0.24397470  0.58835286  0.54498771  1
  Se  Se137  1  0.25610125  0.91806748  0.06388165  1
  Se  Se138  1  0.24906525  0.92600918  0.56372378  1
  Se  Se139  1  0.59303035  0.26080510  0.05468269  1
  Se  Se140  1  0.57689792  0.24359283  0.55451059  1
  Se  Se141  1  0.58952851  0.59235772  0.05933964  1
  Se  Se142  1  0.59743361  0.58666391  0.56027271  1
  Se  Se143  1  0.58473255  0.91856622  0.05085397  1
  Se  Se144  1  0.57788796  0.90697458  0.55732924  1
  Se  Se145  1  0.91621682  0.24682532  0.05183405  1
  Se  Se146  1  0.92339707  0.26008779  0.56063099  1
  Se  Se147  1  0.92380973  0.59113544  0.04658499  1
  Se  Se148  1  0.91890422  0.59074250  0.56759009  1
  Se  Se149  1  0.90977981  0.89985448  0.03871943  1
  Se  Se150  1  0.91116321  0.91253579  0.55439804  1
  Se  Se151  1  0.07653102  0.25258527  0.44173921  1
  Se  Se152  1  0.08516364  0.24154678  0.94786151  1
  Se  Se153  1  0.07676433  0.58001480  0.45188847  1
  Se  Se154  1  0.09592386  0.56919768  0.95065422  1
  Se  Se155  1  0.08128660  0.92413378  0.44037512  1
  Se  Se156  1  0.07666286  0.92131757  0.93571016  1
  Se  Se157  1  0.41829831  0.24776190  0.44700007  1
  Se  Se158  1  0.41096687  0.25690844  0.94013688  1
  Se  Se159  1  0.40933684  0.58709228  0.43275128  1
  Se  Se160  1  0.41391985  0.59412631  0.93558654  1
  Se  Se161  1  0.41912843  0.90963916  0.45070192  1
  Se  Se162  1  0.42015859  0.91900397  0.95048623  1
  Se  Se163  1  0.74434042  0.25443348  0.44655166  1
  Se  Se164  1  0.75509815  0.24978779  0.94596555  1
  Se  Se165  1  0.74553328  0.59232700  0.44398743  1
  Se  Se166  1  0.74848077  0.58193886  0.94476589  1
  Se  Se167  1  0.75139873  0.91722254  0.44673189  1
  Se  Se168  1  0.75262446  0.91232912  0.94289184  1
  Se  Se169  1  0.25457390  0.07487907  0.44382113  1
  Se  Se170  1  0.25021832  0.08289439  0.95195644  1
  Se  Se171  1  0.24738935  0.41588627  0.44459353  1
  Se  Se172  1  0.24724494  0.41687702  0.95134666  1
  Se  Se173  1  0.25574328  0.74392538  0.43523184  1
  Se  Se174  1  0.25713046  0.74566811  0.93848281  1
  Se  Se175  1  0.58361203  0.08232409  0.45354904  1
  Se  Se176  1  0.59035868  0.07883314  0.93379983  1
  Se  Se177  1  0.58838849  0.41306775  0.44133013  1
  Se  Se178  1  0.59567669  0.41932767  0.93600249  1
  Se  Se179  1  0.58334497  0.74269047  0.44728563  1
  Se  Se180  1  0.58026163  0.75399687  0.94490615  1
  Se  Se181  1  0.92146119  0.08055709  0.43927616  1
  Se  Se182  1  0.90335536  0.09107670  0.94611512  1
  Se  Se183  1  0.91639224  0.40838726  0.44045718  1
  Se  Se184  1  0.91909710  0.41592720  0.94697488  1
  Se  Se185  1  0.92034199  0.75522808  0.44816835  1
  Se  Se186  1  0.92339841  0.74505033  0.95231443  1
  Se  Se187  1  0.24255399  0.24288479  0.30447428  1
  Se  Se188  1  0.24357549  0.24935415  0.81835917  1
  Se  Se189  1  0.23740865  0.57326227  0.30756059  1
  Se  Se190  1  0.24928563  0.58338772  0.80972415  1
  Se  Se191  1  0.25207872  0.91971217  0.29980229  1
  Se  Se192  1  0.25036925  0.92220044  0.80384548  1
  Se  Se193  1  0.58094104  0.24324782  0.31456958  1
  Se  Se194  1  0.58486729  0.24545409  0.80386801  1
  Se  Se195  1  0.57349009  0.57829647  0.29532406  1
  Se  Se196  1  0.58106153  0.58077665  0.79362145  1
  Se  Se197  1  0.58199945  0.91806976  0.31582302  1
  Se  Se198  1  0.58705911  0.91581114  0.80224508  1
  Se  Se199  1  0.91798238  0.25523848  0.29485454  1
  Se  Se200  1  0.91978517  0.24754629  0.80565759  1
  Se  Se201  1  0.90691260  0.58214720  0.31345694  1
  Se  Se202  1  0.91778183  0.58641033  0.81062385  1
  Se  Se203  1  0.91835792  0.92134654  0.29858567  1
  Se  Se204  1  0.91578786  0.91364471  0.80407906  1
  Se  Se205  1  0.07554110  0.07881482  0.29796717  1
  Se  Se206  1  0.08171580  0.08379766  0.80614511  1
  Se  Se207  1  0.07502431  0.40972111  0.30235372  1
  Se  Se208  1  0.07949647  0.41819506  0.80629603  1
  Se  Se209  1  0.09291546  0.75910991  0.30643245  1
  Se  Se210  1  0.07984916  0.74701232  0.80435827  1
  Se  Se211  1  0.41358541  0.07855556  0.30972081  1
  Se  Se212  1  0.41479034  0.07829460  0.80308483  1
  Se  Se213  1  0.41903916  0.41625798  0.29518240  1
  Se  Se214  1  0.42759254  0.42929646  0.80749224  1
  Se  Se215  1  0.42359184  0.75979296  0.30555241  1
  Se  Se216  1  0.41904384  0.75786588  0.80879714  1
  Se  Se217  1  0.76175797  0.09447296  0.30228190  1
  Se  Se218  1  0.74930293  0.07418628  0.80250574  1
  Se  Se219  1  0.75617211  0.43107958  0.31019443  1
  Se  Se220  1  0.75592120  0.41187537  0.80451025  1
  Se  Se221  1  0.74941101  0.75886654  0.30227570  1
  Se  Se222  1  0.74796506  0.74258358  0.80731693  1
  Se  Se223  1  0.24767319  0.07992771  0.19615753  1
  Se  Se224  1  0.24877826  0.08880405  0.70311575  1
  Se  Se225  1  0.24963761  0.40847144  0.19470550  1
  Se  Se226  1  0.24914794  0.42585095  0.69437828  1
  Se  Se227  1  0.24534380  0.74889864  0.18812574  1
  Se  Se228  1  0.23918282  0.76306570  0.68944417  1
  Se  Se229  1  0.57535805  0.09234608  0.19480050  1
  Se  Se230  1  0.58599292  0.07756275  0.69782034  1
  Se  Se231  1  0.57923805  0.42598088  0.18542217  1
  Se  Se232  1  0.59037589  0.40174674  0.70542569  1
  Se  Se233  1  0.58614180  0.76706213  0.19687175  1
  Se  Se234  1  0.58401522  0.74693711  0.69568629  1
  Se  Se235  1  0.91739983  0.07961895  0.18394018  1
  Se  Se236  1  0.91885357  0.07821099  0.70017262  1
  Se  Se237  1  0.91678678  0.42099252  0.19456870  1
  Se  Se238  1  0.92381357  0.41272616  0.70082602  1
  Se  Se239  1  0.91011830  0.75637834  0.18634980  1
  Se  Se240  1  0.91878570  0.74805583  0.70255579  1
  Se  Se241  1  0.07750770  0.24747638  0.19196707  1
  Se  Se242  1  0.08243790  0.25492071  0.70138553  1
  Se  Se243  1  0.08381138  0.57339930  0.19050627  1
  Se  Se244  1  0.08420990  0.58713587  0.69983932  1
  Se  Se245  1  0.07974516  0.91524306  0.19232074  1
  Se  Se246  1  0.07806836  0.91865510  0.70219448  1
  Se  Se247  1  0.41198393  0.25112670  0.20323863  1
  Se  Se248  1  0.42321482  0.24222673  0.69164206  1
  Se  Se249  1  0.42273172  0.58019348  0.18269132  1
  Se  Se250  1  0.42648631  0.57139599  0.68845679  1
  Se  Se251  1  0.41541261  0.92072607  0.20227592  1
  Se  Se252  1  0.41578348  0.91684468  0.69668750  1
  Se  Se253  1  0.75086378  0.24901940  0.18596545  1
  Se  Se254  1  0.75347079  0.24317868  0.69873486  1
  Se  Se255  1  0.75085801  0.59584171  0.19469766  1
  Se  Se256  1  0.75804705  0.57913434  0.70058596  1
  Se  Se257  1  0.76490737  0.92377548  0.17880847  1
  Se  Se258  1  0.74797794  0.91113785  0.69767052  1
