# generated using pymatgen
data_In86Cu29Se144
_symmetry_space_group_name_H-M   'P 1'
_cell_length_a   17.57602960
_cell_length_b   17.57674062
_cell_length_c   23.43428074
_cell_angle_alpha   90.00947982
_cell_angle_beta   90.01027042
_cell_angle_gamma   90.01470212
_symmetry_Int_Tables_number   1
_chemical_formula_structural   In86Cu29Se144
_chemical_formula_sum   'In86 Cu29 Se144'
_cell_volume   7239.53580443
_cell_formula_units_Z   1
loop_
 _symmetry_equiv_pos_site_id
 _symmetry_equiv_pos_as_xyz
  1  'x, y, z'
loop_
 _atom_site_type_symbol
 _atom_site_label
 _atom_site_symmetry_multiplicity
 _atom_site_fract_x
 _atom_site_fract_y
 _atom_site_fract_z
 _atom_site_occupancy
  In  In0  1  -0.00505583  0.17535315  0.13510106  1
  In  In1  1  -0.00496949  0.16271814  0.61348427  1
  In  In2  1  0.00533571  0.49219437  0.13405311  1
  In  In3  1  -0.00691090  0.48682490  0.60152892  1
  In  In4  1  -0.00681219  0.83909169  0.13746126  1
  In  In5  1  -0.00757910  0.84678208  0.62682404  1
  In  In6  1  0.33542777  0.15315241  0.12697592  1
  In  In7  1  0.32242521  0.14529159  0.60681293  1
  In  In8  1  0.33198978  0.51844889  0.12799426  1
  In  In9  1  0.33273913  0.50803969  0.62419188  1
  In  In10  1  0.33858348  0.82919869  0.12995930  1
  In  In11  1  0.33052232  0.83358462  0.63308227  1
  In  In12  1  0.66070695  0.15594104  0.11790663  1
  In  In13  1  0.66678252  0.16341992  0.62210310  1
  In  In14  1  0.67744238  0.49772414  0.13126379  1
  In  In15  1  0.66941717  0.48767836  0.63191721  1
  In  In16  1  0.65783687  0.84399897  0.12897133  1
  In  In17  1  0.68351744  0.84009928  0.62569513  1
  In  In18  1  0.17399335  0.01105531  0.37404812  1
  In  In19  1  0.16480761  0.00524147  0.85782022  1
  In  In20  1  0.14953854  0.34040477  0.39171887  1
  In  In21  1  0.17509534  0.33663118  0.87475124  1
  In  In22  1  0.16423029  0.66571538  0.36852427  1
  In  In23  1  0.16509531  0.65034002  0.87697803  1
  In  In24  1  0.50192759  0.00340900  0.37246832  1
  In  In25  1  0.50261717  0.00003272  0.87368380  1
  In  In26  1  0.49286212  0.32711193  0.37578847  1
  In  In27  1  0.49857406  0.31539963  0.87476966  1
  In  In28  1  0.50116367  0.66435433  0.35716939  1
  In  In29  1  0.50285318  0.68511743  0.87879793  1
  In  In30  1  0.83117449  -0.00222482  0.37540010  1
  In  In31  1  0.84854332  0.00941642  0.86062748  1
  In  In32  1  0.85730663  0.32029366  0.39418153  1
  In  In33  1  0.81270796  0.33334862  0.86423157  1
  In  In34  1  0.83310484  0.66728025  0.37852762  1
  In  In35  1  0.83463199  0.66503216  0.87271777  1
  In  In36  1  0.00204436  0.16419022  0.37873110  1
  In  In37  1  0.00039380  0.15089839  0.87089738  1
  In  In38  1  0.00032875  0.50130036  0.37874273  1
  In  In39  1  0.00427638  0.50676863  0.87710447  1
  In  In40  1  -0.00790401  0.82603371  0.36961360  1
  In  In41  1  -0.00626849  0.84784960  0.87322518  1
  In  In42  1  0.33681683  0.15458792  0.38901988  1
  In  In43  1  0.34166830  0.16892013  0.87122605  1
  In  In44  1  0.32640517  0.50089318  0.37244444  1
  In  In45  1  0.32033906  0.49600339  0.87403120  1
  In  In46  1  0.33779938  0.83940808  0.36859019  1
  In  In47  1  0.34141604  0.84583571  0.86895784  1
  In  In48  1  0.68073658  0.16000614  0.38277322  1
  In  In49  1  0.66725271  0.16282883  0.87047437  1
  In  In50  1  0.67371112  0.51374916  0.37132345  1
  In  In51  1  0.67247733  0.49168348  0.86522447  1
  In  In52  1  0.67003498  0.83944096  0.37006897  1
  In  In53  1  0.65477994  0.83165091  0.87619103  1
  In  In54  1  0.16649843  0.00335307  0.13659173  1
  In  In55  1  0.16552393  0.00629641  0.63169681  1
  In  In56  1  0.15032837  0.33243686  0.12869842  1
  In  In57  1  0.15679357  0.32605441  0.60688332  1
  In  In58  1  0.17468352  0.65924181  0.13305692  1
  In  In59  1  0.17528708  0.66128700  0.62320581  1
  In  In60  1  0.50131697  -0.00032550  0.12309664  1
  In  In61  1  0.49070557  0.01275300  0.63253854  1
  In  In62  1  0.51096445  0.32600203  0.12269246  1
  In  In63  1  0.51749710  0.32622194  0.63264050  1
  In  In64  1  0.48560093  0.67770416  0.13492031  1
  In  In65  1  0.48543962  0.65448858  0.63168962  1
  In  In66  1  0.82425677  0.00698118  0.13115392  1
  In  In67  1  0.82845712  0.00102857  0.62355528  1
  In  In68  1  0.84503150  0.33310912  0.12794961  1
  In  In69  1  0.83276560  0.32576016  0.61233422  1
  In  In70  1  0.83296053  0.66646859  0.13826283  1
  In  In71  1  0.83553038  0.67170297  0.61475772  1
  In  In72  1  0.33443246  0.32807305  0.74831500  1
  In  In73  1  0.50275258  0.49548246  0.50238132  1
  In  In74  1  0.49769805  0.50054560  0.00414002  1
  In  In75  1  0.67368102  0.33583457  0.25121215  1
  In  In76  1  0.16264931  0.83737346  0.50621871  1
  In  In77  1  0.00203966  0.66609522  0.74967483  1
  In  In78  1  0.82927620  0.83688649  -0.00559909  1
  In  In79  1  0.32721601  0.33166826  0.26259930  1
  In  In80  1  0.17050597  0.83073411  0.00421367  1
  In  In81  1  0.66201544  0.67065697  0.75046782  1
  In  In82  1  -0.00309970  0.32716964  0.73282464  1
  In  In83  1  0.16908924  0.16836841  -0.00326473  1
  In  In84  1  0.83262275  0.49668786  -0.00400989  1
  In  In85  1  0.50324015  0.84030546  0.49459173  1
  Cu  Cu86  1  0.33684987  0.32836724  0.49788920  1
  Cu  Cu87  1  0.50430442  0.16301850  0.74964490  1
  Cu  Cu88  1  0.16402233  0.83884780  0.25411938  1
  Cu  Cu89  1  0.83097180  0.82983908  0.25500559  1
  Cu  Cu90  1  -0.00065441  0.66841082  0.49174604  1
  Cu  Cu91  1  0.66454822  0.31993673  -0.00507546  1
  Cu  Cu92  1  0.66029940  0.66980630  0.00540467  1
  Cu  Cu93  1  0.17038068  0.82792136  0.74532170  1
  Cu  Cu94  1  0.33324902  0.67000215  0.00538905  1
  Cu  Cu95  1  -0.00649522  -0.00171273  0.49880324  1
  Cu  Cu96  1  0.83192261  0.17009261  0.73952284  1
  Cu  Cu97  1  0.50003252  0.16118496  0.25122920  1
  Cu  Cu98  1  0.83493431  0.16247270  0.25736790  1
  Cu  Cu99  1  0.66914779  0.00210748  0.49856411  1
  Cu  Cu100  1  -0.00477937  0.33081546  0.00614162  1
  Cu  Cu101  1  0.50000933  0.83679982  0.75132379  1
  Cu  Cu102  1  0.16585279  0.49789626  0.74537820  1
  Cu  Cu103  1  0.16621593  0.50245380  0.25510388  1
  Cu  Cu104  1  0.66763164  0.66857052  0.49916209  1
  Cu  Cu105  1  0.16267994  0.16734792  0.25726992  1
  Cu  Cu106  1  0.33293177  0.66748004  0.49829943  1
  Cu  Cu107  1  0.33181172  0.33376467  -0.00312915  1
  Cu  Cu108  1  0.84010960  0.49986880  0.25739768  1
  Cu  Cu109  1  -0.00103748  0.00620763  -0.00098569  1
  Cu  Cu110  1  0.66700842  0.00726670  -0.00158660  1
  Cu  Cu111  1  0.34339808  -0.00049240  -0.00149524  1
  Cu  Cu112  1  0.66907701  0.33165589  0.50312149  1
  Cu  Cu113  1  0.50042129  0.83917626  0.24821495  1
  Cu  Cu114  1  0.00558669  0.66167949  0.00577609  1
  Se  Se115  1  0.08052174  0.08227651  0.06107418  1
  Se  Se116  1  0.08320935  0.07309333  0.55363721  1
  Se  Se117  1  0.07917415  0.41709255  0.05495537  1
  Se  Se118  1  0.10543193  0.43483670  0.54460015  1
  Se  Se119  1  0.07586545  0.74852186  0.06629372  1
  Se  Se120  1  0.07222387  0.74257066  0.56263216  1
  Se  Se121  1  0.42118279  0.08667739  0.05270948  1
  Se  Se122  1  0.43278432  0.08654743  0.54878564  1
  Se  Se123  1  0.40692582  0.41001158  0.06426863  1
  Se  Se124  1  0.41371808  0.40574082  0.56320014  1
  Se  Se125  1  0.41834901  0.75443802  0.05434158  1
  Se  Se126  1  0.41348651  0.74740993  0.55731728  1
  Se  Se127  1  0.75627044  0.08454642  0.05137889  1
  Se  Se128  1  0.75338538  0.08673240  0.55135374  1
  Se  Se129  1  0.74223814  0.40270518  0.05621282  1
  Se  Se130  1  0.74839073  0.42137222  0.55306879  1
  Se  Se131  1  0.74924836  0.74553688  0.06171301  1
  Se  Se132  1  0.74939139  0.75581774  0.54946867  1
  Se  Se133  1  0.25410010  0.25604014  0.06332893  1
  Se  Se134  1  0.24914084  0.24409940  0.54546221  1
  Se  Se135  1  0.24658872  0.58503797  0.05273718  1
  Se  Se136  1  0.25127876  0.58105450  0.54894880  1
  Se  Se137  1  0.25610824  0.92881584  0.06061865  1
  Se  Se138  1  0.25946347  0.92340793  0.56049669  1
  Se  Se139  1  0.57876069  0.24133865  0.04916046  1
  Se  Se140  1  0.58335939  0.24848578  0.55295988  1
  Se  Se141  1  0.58759342  0.58663433  0.06698492  1
  Se  Se142  1  0.58822252  0.59131708  0.56232909  1
  Se  Se143  1  0.58613245  0.92055002  0.05153012  1
  Se  Se144  1  0.58924932  0.92409902  0.56110462  1
  Se  Se145  1  0.91463272  0.24407080  0.05617599  1
  Se  Se146  1  0.93941502  0.26874530  0.54901835  1
  Se  Se147  1  0.91699361  0.58545980  0.06209369  1
  Se  Se148  1  0.91382864  0.58672368  0.54573061  1
  Se  Se149  1  0.92096651  0.92219284  0.05779136  1
  Se  Se150  1  0.90964787  0.91551717  0.55203051  1
  Se  Se151  1  0.07273717  0.24796485  0.45450903  1
  Se  Se152  1  0.07385166  0.25633948  0.93844447  1
  Se  Se153  1  0.08914032  0.58787361  0.44352096  1
  Se  Se154  1  0.08617357  0.57643619  0.95298081  1
  Se  Se155  1  0.07630869  0.91949298  0.43841231  1
  Se  Se156  1  0.08476415  0.92660753  0.94308695  1
  Se  Se157  1  0.42414410  0.24473343  0.44990944  1
  Se  Se158  1  0.41408961  0.24576272  0.94917213  1
  Se  Se159  1  0.41825887  0.59018348  0.43961756  1
  Se  Se160  1  0.41003791  0.58905593  0.94073572  1
  Se  Se161  1  0.40511955  0.92925421  0.44403482  1
  Se  Se162  1  0.42326656  0.91398088  0.94531807  1
  Se  Se163  1  0.75516178  0.24682962  0.45282074  1
  Se  Se164  1  0.75311314  0.24558063  0.94037226  1
  Se  Se165  1  0.75132244  0.58269956  0.44919937  1
  Se  Se166  1  0.73650284  0.59114681  0.94193107  1
  Se  Se167  1  0.74825586  0.91389944  0.44575080  1
  Se  Se168  1  0.74542758  0.92954399  0.93388860  1
  Se  Se169  1  0.24032811  0.08487079  0.45428847  1
  Se  Se170  1  0.25536940  0.07245070  0.93817175  1
  Se  Se171  1  0.25732159  0.41588108  0.44528689  1
  Se  Se172  1  0.24504529  0.41847469  0.95023735  1
  Se  Se173  1  0.25441634  0.75182677  0.44076173  1
  Se  Se174  1  0.25590195  0.74512173  0.93804777  1
  Se  Se175  1  0.58411563  0.08244232  0.44422183  1
  Se  Se176  1  0.58189259  0.08716692  0.94246722  1
  Se  Se177  1  0.59258638  0.40994067  0.43796065  1
  Se  Se178  1  0.58784104  0.41185819  0.94132368  1
  Se  Se179  1  0.58418161  0.74000891  0.43680171  1
  Se  Se180  1  0.58065318  0.75798124  0.95509042  1
  Se  Se181  1  0.91139451  0.08244646  0.44481418  1
  Se  Se182  1  0.91301699  0.08394856  0.94441145  1
  Se  Se183  1  0.91605455  0.42899385  0.45236490  1
  Se  Se184  1  0.92037756  0.40502506  0.93597204  1
  Se  Se185  1  0.91306013  0.75590136  0.44692903  1
  Se  Se186  1  0.92929918  0.74178517  0.94312451  1
  Se  Se187  1  0.23921888  0.24392199  0.32333789  1
  Se  Se188  1  0.23803187  0.23823935  0.80539161  1
  Se  Se189  1  0.25455956  0.58781115  0.30104288  1
  Se  Se190  1  0.24696906  0.58059705  0.80072614  1
  Se  Se191  1  0.24994430  0.92221061  0.30456815  1
  Se  Se192  1  0.25119164  0.91555618  0.79877215  1
  Se  Se193  1  0.58231524  0.24268685  0.30905196  1
  Se  Se194  1  0.58617175  0.25048681  0.80090244  1
  Se  Se195  1  0.58683131  0.57699613  0.29795478  1
  Se  Se196  1  0.57358739  0.58216823  0.81335034  1
  Se  Se197  1  0.58348898  0.92055220  0.30358487  1
  Se  Se198  1  0.58612058  0.91821185  0.80296329  1
  Se  Se199  1  0.91764195  0.24842179  0.30853989  1
  Se  Se200  1  0.91238223  0.24605932  0.80516617  1
  Se  Se201  1  0.92007942  0.58742572  0.30949480  1
  Se  Se202  1  0.90772556  0.56988391  0.80481092  1
  Se  Se203  1  0.91424477  0.91752856  0.30423215  1
  Se  Se204  1  0.91812061  0.91302123  0.79529398  1
  Se  Se205  1  0.07851679  0.07984052  0.30599094  1
  Se  Se206  1  0.07544570  0.08169968  0.79360620  1
  Se  Se207  1  0.08581626  0.41782710  0.30965701  1
  Se  Se208  1  0.08378759  0.41735937  0.80411822  1
  Se  Se209  1  0.08164035  0.74983264  0.30180335  1
  Se  Se210  1  0.09141170  0.75575658  0.81340608  1
  Se  Se211  1  0.41219498  0.08632312  0.30741460  1
  Se  Se212  1  0.41833105  0.08198999  0.80357934  1
  Se  Se213  1  0.42770541  0.42627265  0.30730661  1
  Se  Se214  1  0.41990424  0.41680117  0.81335110  1
  Se  Se215  1  0.41443308  0.75432002  0.29857782  1
  Se  Se216  1  0.41737380  0.75123605  0.80364644  1
  Se  Se217  1  0.74640706  0.07938042  0.30422375  1
  Se  Se218  1  0.75353703  0.08748320  0.79903013  1
  Se  Se219  1  0.76462032  0.41385555  0.31761212  1
  Se  Se220  1  0.74830366  0.41878498  0.79026822  1
  Se  Se221  1  0.74725127  0.74509682  0.30675542  1
  Se  Se222  1  0.75705176  0.75966234  0.80945456  1
  Se  Se223  1  0.24973570  0.08876221  0.20272595  1
  Se  Se224  1  0.26242032  0.08100977  0.69395096  1
  Se  Se225  1  0.24429958  0.41961840  0.19298002  1
  Se  Se226  1  0.24045334  0.41210456  0.68546836  1
  Se  Se227  1  0.24638934  0.75608527  0.19692554  1
  Se  Se228  1  0.25264595  0.74019544  0.69695480  1
  Se  Se229  1  0.58405282  0.08219663  0.19449329  1
  Se  Se230  1  0.59061867  0.08099360  0.69670532  1
  Se  Se231  1  0.57542499  0.42197076  0.19357479  1
  Se  Se232  1  0.56537482  0.43411880  0.69725879  1
  Se  Se233  1  0.58398570  0.75255722  0.19657563  1
  Se  Se234  1  0.57414915  0.75806162  0.68510427  1
  Se  Se235  1  0.91657082  0.08175082  0.19811020  1
  Se  Se236  1  0.91714094  0.08670124  0.68843273  1
  Se  Se237  1  0.91839518  0.41293673  0.20214086  1
  Se  Se238  1  0.90861661  0.42576807  0.68308577  1
  Se  Se239  1  0.91902844  0.74737435  0.20400940  1
  Se  Se240  1  0.90896848  0.75484058  0.69330205  1
  Se  Se241  1  0.08063347  0.25340776  0.20514808  1
  Se  Se242  1  0.09497516  0.23678079  0.68497192  1
  Se  Se243  1  0.08206510  0.58409617  0.19929430  1
  Se  Se244  1  0.08096099  0.57236128  0.68455503  1
  Se  Se245  1  0.07936535  0.92273561  0.20194455  1
  Se  Se246  1  0.08623360  0.91296111  0.69559538  1
  Se  Se247  1  0.42018597  0.24749360  0.19507652  1
  Se  Se248  1  0.41973361  0.23693265  0.68713270  1
  Se  Se249  1  0.41726035  0.58245395  0.20126733  1
  Se  Se250  1  0.40887365  0.57566669  0.70281213  1
  Se  Se251  1  0.41589580  0.92220093  0.19405865  1
  Se  Se252  1  0.41540048  0.91889104  0.69757678  1
  Se  Se253  1  0.75612415  0.23947858  0.19049543  1
  Se  Se254  1  0.74962473  0.25442067  0.68732514  1
  Se  Se255  1  0.75202544  0.57885267  0.20404718  1
  Se  Se256  1  0.75586929  0.58704513  0.68938067  1
  Se  Se257  1  0.75120629  0.91378604  0.19728443  1
  Se  Se258  1  0.75300078  0.92161190  0.69916914  1
