# generated using pymatgen
data_In86Cu29Se144
_symmetry_space_group_name_H-M   'P 1'
_cell_length_a   17.57393787
_cell_length_b   17.57074099
_cell_length_c   23.42752845
_cell_angle_alpha   89.99933828
_cell_angle_beta   90.00302603
_cell_angle_gamma   89.99369815
_symmetry_Int_Tables_number   1
_chemical_formula_structural   In86Cu29Se144
_chemical_formula_sum   'In86 Cu29 Se144'
_cell_volume   7234.11876592
_cell_formula_units_Z   1
loop_
 _symmetry_equiv_pos_site_id
 _symmetry_equiv_pos_as_xyz
  1  'x, y, z'
loop_
 _atom_site_type_symbol
 _atom_site_label
 _atom_site_symmetry_multiplicity
 _atom_site_fract_x
 _atom_site_fract_y
 _atom_site_fract_z
 _atom_site_occupancy
  In  In0  1  -0.00303049  0.17937244  0.12525848  1
  In  In1  1  0.02352221  0.18695085  0.61768109  1
  In  In2  1  -0.00111459  0.49709655  0.13054510  1
  In  In3  1  -0.00187658  0.49419024  0.61500303  1
  In  In4  1  -0.00850920  0.81582202  0.11831877  1
  In  In5  1  0.00379048  0.81510011  0.62264766  1
  In  In6  1  0.32793974  0.16643200  0.13566002  1
  In  In7  1  0.31437391  0.16578075  0.62301698  1
  In  In8  1  0.33191576  0.50550934  0.12995924  1
  In  In9  1  0.33865728  0.51237754  0.61215325  1
  In  In10  1  0.34274544  0.83122847  0.13580738  1
  In  In11  1  0.33677708  0.83214224  0.62369940  1
  In  In12  1  0.67233696  0.18028995  0.12472746  1
  In  In13  1  0.67044595  0.16226588  0.61315967  1
  In  In14  1  0.65982839  0.50297843  0.13030578  1
  In  In15  1  0.66898128  0.49706676  0.60824645  1
  In  In16  1  0.65903815  0.78991043  0.13612811  1
  In  In17  1  0.65762010  0.84164132  0.61612900  1
  In  In18  1  0.17653296  -0.00904438  0.38672257  1
  In  In19  1  0.16790662  -0.01209361  0.87500195  1
  In  In20  1  0.16649951  0.33573640  0.37223580  1
  In  In21  1  0.16309360  0.35242999  0.87425293  1
  In  In22  1  0.16566754  0.66790415  0.37090333  1
  In  In23  1  0.17625080  0.66172185  0.88292454  1
  In  In24  1  0.47990120  -0.00091742  0.37527255  1
  In  In25  1  0.49568188  0.00349427  0.87161153  1
  In  In26  1  0.51607911  0.36365263  0.35131629  1
  In  In27  1  0.50288587  0.33885494  0.88143893  1
  In  In28  1  0.49898864  0.66192608  0.36713446  1
  In  In29  1  0.48407311  0.66674950  0.87758719  1
  In  In30  1  0.84515175  0.00233470  0.38038070  1
  In  In31  1  0.82594186  -0.00204921  0.88038270  1
  In  In32  1  0.83218369  0.34084703  0.37469789  1
  In  In33  1  0.84243797  0.33112986  0.87547061  1
  In  In34  1  0.80939581  0.63605479  0.34318376  1
  In  In35  1  0.83447623  0.66216020  0.88910215  1
  In  In36  1  -0.01019850  0.18062501  0.38930665  1
  In  In37  1  -0.00434248  0.17319263  0.87024411  1
  In  In38  1  -0.00099606  0.50335061  0.36644544  1
  In  In39  1  0.00618740  0.49371776  0.88158764  1
  In  In40  1  0.00915088  0.82670325  0.37613782  1
  In  In41  1  0.00930668  0.82321927  0.88612997  1
  In  In42  1  0.32684741  0.16902134  0.37376528  1
  In  In43  1  0.33907287  0.16723346  0.87308013  1
  In  In44  1  0.33381740  0.50039848  0.36590010  1
  In  In45  1  0.31740087  0.50501007  0.88739901  1
  In  In46  1  0.33284253  0.82704089  0.37039038  1
  In  In47  1  0.32906878  0.81532633  0.86588496  1
  In  In48  1  0.66759624  0.19592306  0.38166852  1
  In  In49  1  0.66696733  0.16678865  0.87766809  1
  In  In50  1  0.66565817  0.49971096  0.36757379  1
  In  In51  1  0.66456353  0.50463765  0.88707869  1
  In  In52  1  0.65969403  0.81684562  0.37080664  1
  In  In53  1  0.66487145  0.83849910  0.88232289  1
  In  In54  1  0.18621566  -0.01036934  0.12678307  1
  In  In55  1  0.18313957  0.01051077  0.62030108  1
  In  In56  1  0.15736095  0.33397853  0.13159195  1
  In  In57  1  0.16167554  0.32912354  0.61562021  1
  In  In58  1  0.16944511  0.66718800  0.12643074  1
  In  In59  1  0.17751089  0.67965444  0.60571558  1
  In  In60  1  0.48879102  -0.01335212  0.13015937  1
  In  In61  1  0.49246926  -0.01650729  0.61626115  1
  In  In62  1  0.47060758  0.37910951  0.16606134  1
  In  In63  1  0.49648833  0.34058986  0.61428649  1
  In  In64  1  0.52558134  0.64007457  0.16738310  1
  In  In65  1  0.49388984  0.66167431  0.61848550  1
  In  In66  1  0.84747955  -0.00488062  0.12636181  1
  In  In67  1  0.81992145  0.00283489  0.62149529  1
  In  In68  1  0.79803362  0.38238628  0.17398188  1
  In  In69  1  0.84937543  0.35170662  0.60790605  1
  In  In70  1  0.83392361  0.65757537  0.12976392  1
  In  In71  1  0.84260438  0.65760778  0.61926226  1
  In  In72  1  0.49666284  0.82297671  0.00870631  1
  In  In73  1  0.66657403  0.00524756  0.24922179  1
  In  In74  1  0.83910860  0.82355599  0.49658045  1
  In  In75  1  0.50345395  0.17446640  -0.00005747  1
  In  In76  1  0.00351714  0.00166431  0.74801279  1
  In  In77  1  0.32537854  0.33302528  0.75027071  1
  In  In78  1  0.01150920  0.00104345  0.25586995  1
  In  In79  1  0.00558118  0.65646011  0.74993938  1
  In  In80  1  0.83711704  0.17291345  -0.00340143  1
  In  In81  1  0.49660379  0.17778516  0.49168446  1
  In  In82  1  0.65984951  0.00171622  0.75888511  1
  In  In83  1  0.65960990  0.66571297  0.73997386  1
  In  In84  1  0.66513511  0.33016220  0.74790291  1
  In  In85  1  0.16524460  0.17127352  0.00742709  1
  Cu  Cu86  1  0.83210588  0.83070151  0.24251347  1
  Cu  Cu87  1  0.48975425  0.50306687  0.74715695  1
  Cu  Cu88  1  0.00029690  0.66500573  0.00722246  1
  Cu  Cu89  1  0.16719748  0.83150417  0.25187113  1
  Cu  Cu90  1  0.84425351  0.17835148  0.73990786  1
  Cu  Cu91  1  0.84079243  0.48887274  0.74554240  1
  Cu  Cu92  1  0.33813192  0.66273930  0.00713370  1
  Cu  Cu93  1  0.00632424  0.33602863  0.49205881  1
  Cu  Cu94  1  0.67435574  -0.01446645  0.00764053  1
  Cu  Cu95  1  0.65995673  0.34982538  0.01535551  1
  Cu  Cu96  1  0.17470997  0.83432934  0.74517139  1
  Cu  Cu97  1  -0.00809891  0.34138523  0.00662848  1
  Cu  Cu98  1  0.66390890  -0.00046492  0.49363208  1
  Cu  Cu99  1  0.00745686  -0.01209128  0.00433798  1
  Cu  Cu100  1  0.32944295  -0.00536504  0.49942605  1
  Cu  Cu101  1  0.83582139  0.17380049  0.26124575  1
  Cu  Cu102  1  0.66208016  0.66007841  0.48854934  1
  Cu  Cu103  1  0.49837576  0.16562086  0.25629279  1
  Cu  Cu104  1  0.16949556  0.50473226  0.74720319  1
  Cu  Cu105  1  0.67105990  0.65890624  0.01274504  1
  Cu  Cu106  1  0.33455126  0.66639180  0.48893297  1
  Cu  Cu107  1  0.16668914  0.50235897  0.24940574  1
  Cu  Cu108  1  0.33737176  0.34170524  0.49152493  1
  Cu  Cu109  1  0.82815674  0.83222274  0.76040386  1
  Cu  Cu110  1  -0.00545966  0.65934314  0.48762089  1
  Cu  Cu111  1  0.49084663  0.15826251  0.74338198  1
  Cu  Cu112  1  0.16519418  0.16492809  0.25641048  1
  Cu  Cu113  1  0.33577177  -0.00651637  0.00120267  1
  Cu  Cu114  1  0.00505236  0.00007117  0.50212535  1
  Se  Se115  1  0.07811387  0.07395290  0.06674002  1
  Se  Se116  1  0.08855507  0.08379885  0.55468371  1
  Se  Se117  1  0.08369240  0.41702099  0.05767514  1
  Se  Se118  1  0.08949507  0.42052090  0.54668158  1
  Se  Se119  1  0.09024143  0.74996681  0.05278585  1
  Se  Se120  1  0.07488027  0.74621363  0.54173446  1
  Se  Se121  1  0.41242741  0.08024326  0.05854515  1
  Se  Se122  1  0.41100052  0.08444305  0.55480400  1
  Se  Se123  1  0.42653853  0.42554168  0.06794991  1
  Se  Se124  1  0.42055115  0.42489125  0.54515987  1
  Se  Se125  1  0.41986102  0.73031007  0.07338440  1
  Se  Se126  1  0.41297336  0.74697525  0.55057968  1
  Se  Se127  1  0.75041715  0.07812154  0.06010329  1
  Se  Se128  1  0.75139236  0.08145126  0.54305892  1
  Se  Se129  1  0.75500967  0.41897152  0.06933890  1
  Se  Se130  1  0.75222077  0.41643824  0.54282822  1
  Se  Se131  1  0.75462476  0.74871700  0.05951503  1
  Se  Se132  1  0.74048945  0.73799382  0.55751748  1
  Se  Se133  1  0.25935396  0.25826020  0.06321641  1
  Se  Se134  1  0.25764665  0.25779127  0.54803408  1
  Se  Se135  1  0.24894220  0.58124457  0.05648348  1
  Se  Se136  1  0.24822071  0.58252215  0.54126952  1
  Se  Se137  1  0.26191155  0.90483276  0.05660335  1
  Se  Se138  1  0.24778684  0.91129787  0.55461693  1
  Se  Se139  1  0.57752994  0.26501641  0.06785571  1
  Se  Se140  1  0.59457873  0.26153095  0.55095054  1
  Se  Se141  1  0.57463953  0.59246844  0.06781007  1
  Se  Se142  1  0.57994751  0.58317756  0.54921750  1
  Se  Se143  1  0.59192078  0.91135920  0.06830409  1
  Se  Se144  1  0.57791548  0.91496533  0.54151927  1
  Se  Se145  1  0.90642863  0.26509159  0.06494271  1
  Se  Se146  1  0.92591026  0.25126288  0.54990117  1
  Se  Se147  1  0.91779986  0.57976350  0.05855646  1
  Se  Se148  1  0.91423543  0.57705337  0.54542561  1
  Se  Se149  1  0.91505027  0.91032141  0.05251292  1
  Se  Se150  1  0.92130580  0.91882402  0.56218585  1
  Se  Se151  1  0.09527808  0.24906616  0.44760479  1
  Se  Se152  1  0.07060987  0.25748918  0.94556250  1
  Se  Se153  1  0.08494606  0.58033211  0.43855915  1
  Se  Se154  1  0.08162759  0.58636000  0.94635288  1
  Se  Se155  1  0.08096667  0.91204968  0.44840506  1
  Se  Se156  1  0.09415985  0.90977442  0.95047989  1
  Se  Se157  1  0.41888529  0.26965519  0.42613430  1
  Se  Se158  1  0.40333362  0.26178571  0.94561911  1
  Se  Se159  1  0.41710645  0.57981583  0.43811712  1
  Se  Se160  1  0.41715551  0.57904518  0.94940510  1
  Se  Se161  1  0.41067527  0.91054362  0.44583131  1
  Se  Se162  1  0.41612777  0.91439386  0.94025258  1
  Se  Se163  1  0.77276337  0.24304397  0.44695791  1
  Se  Se164  1  0.73337597  0.26615466  0.94648243  1
  Se  Se165  1  0.75248011  0.58377909  0.43710969  1
  Se  Se166  1  0.75355970  0.57684874  0.95662805  1
  Se  Se167  1  0.74562923  0.91462977  0.43691125  1
  Se  Se168  1  0.75771988  0.90697784  0.95127469  1
  Se  Se169  1  0.25289625  0.08754729  0.44898670  1
  Se  Se170  1  0.25495453  0.07864916  0.94478473  1
  Se  Se171  1  0.25125677  0.42196289  0.43824495  1
  Se  Se172  1  0.24706731  0.40937945  0.95166773  1
  Se  Se173  1  0.24608611  0.75203943  0.44205507  1
  Se  Se174  1  0.25929532  0.74791114  0.94936683  1
  Se  Se175  1  0.58660916  0.08192476  0.43335936  1
  Se  Se176  1  0.59442807  0.06909377  0.94703785  1
  Se  Se177  1  0.58889668  0.41379113  0.43777563  1
  Se  Se178  1  0.57695513  0.42344574  0.95283915  1
  Se  Se179  1  0.57547931  0.74654230  0.44354451  1
  Se  Se180  1  0.59168607  0.73555407  0.94582694  1
  Se  Se181  1  0.91777731  0.08307119  0.45411726  1
  Se  Se182  1  0.93053394  0.07332516  0.94328278  1
  Se  Se183  1  0.92266598  0.42062447  0.44112197  1
  Se  Se184  1  0.91040616  0.41990138  0.94687395  1
  Se  Se185  1  0.90957310  0.73407607  0.42628629  1
  Se  Se186  1  0.91729564  0.75008885  0.95246126  1
  Se  Se187  1  0.25116794  0.25378777  0.30187302  1
  Se  Se188  1  0.23725008  0.24606748  0.81333971  1
  Se  Se189  1  0.24934567  0.58748130  0.30114599  1
  Se  Se190  1  0.25061617  0.58244356  0.80679336  1
  Se  Se191  1  0.24622549  0.91761720  0.30659789  1
  Se  Se192  1  0.25407635  0.91451315  0.80428428  1
  Se  Se193  1  0.58679373  0.25183230  0.29986894  1
  Se  Se194  1  0.56967195  0.23780264  0.80676706  1
  Se  Se195  1  0.59227958  0.59056549  0.29810086  1
  Se  Se196  1  0.57900712  0.57475003  0.80804645  1
  Se  Se197  1  0.57864608  0.91905733  0.31211394  1
  Se  Se198  1  0.57065311  0.90073983  0.80786797  1
  Se  Se199  1  0.92359729  0.25598855  0.30926200  1
  Se  Se200  1  0.92215999  0.25950441  0.79878027  1
  Se  Se201  1  0.93032661  0.59162101  0.29292640  1
  Se  Se202  1  0.90695739  0.57614055  0.81032992  1
  Se  Se203  1  0.91033838  0.90809872  0.30611305  1
  Se  Se204  1  0.91603757  0.91079405  0.81406702  1
  Se  Se205  1  0.08846411  0.09017312  0.32314873  1
  Se  Se206  1  0.09223612  0.08919883  0.81061011  1
  Se  Se207  1  0.08462904  0.41628355  0.30155319  1
  Se  Se208  1  0.08139266  0.42589130  0.80008145  1
  Se  Se209  1  0.07985444  0.74824998  0.29974845  1
  Se  Se210  1  0.09251610  0.75433798  0.80623206  1
  Se  Se211  1  0.40908183  0.08538719  0.30392110  1
  Se  Se212  1  0.40992849  0.07911201  0.80133084  1
  Se  Se213  1  0.41781527  0.43124741  0.28653833  1
  Se  Se214  1  0.41733814  0.42164712  0.81139749  1
  Se  Se215  1  0.41354297  0.74590344  0.30099093  1
  Se  Se216  1  0.42292439  0.74586302  0.79937458  1
  Se  Se217  1  0.75490165  0.08889249  0.31647738  1
  Se  Se218  1  0.76472486  0.09826363  0.80456783  1
  Se  Se219  1  0.75827177  0.42137214  0.29931601  1
  Se  Se220  1  0.75280475  0.42200304  0.80973089  1
  Se  Se221  1  0.74342315  0.75216099  0.29441432  1
  Se  Se222  1  0.74854594  0.74569902  0.81359719  1
  Se  Se223  1  0.24523441  0.08010959  0.20170326  1
  Se  Se224  1  0.24651494  0.08776542  0.70031822  1
  Se  Se225  1  0.24626828  0.41613770  0.19537425  1
  Se  Se226  1  0.24848529  0.42643781  0.68399210  1
  Se  Se227  1  0.25077584  0.74866443  0.19808775  1
  Se  Se228  1  0.24854829  0.74528040  0.68925026  1
  Se  Se229  1  0.57435846  0.09183053  0.18667943  1
  Se  Se230  1  0.57928975  0.08552171  0.68506609  1
  Se  Se231  1  0.60803459  0.39892363  0.20089464  1
  Se  Se232  1  0.57655339  0.42557759  0.68941531  1
  Se  Se233  1  0.54585701  0.77874055  0.20375065  1
  Se  Se234  1  0.57221058  0.76256126  0.68633556  1
  Se  Se235  1  0.91222135  0.09122175  0.19939323  1
  Se  Se236  1  0.91417146  0.08648170  0.68297259  1
  Se  Se237  1  0.93853531  0.39776510  0.19972926  1
  Se  Se238  1  0.92616088  0.41167632  0.69134444  1
  Se  Se239  1  0.91888578  0.74452065  0.19717786  1
  Se  Se240  1  0.90563133  0.75201892  0.69749278  1
  Se  Se241  1  0.08133731  0.24387884  0.20061990  1
  Se  Se242  1  0.09552383  0.25530130  0.69712602  1
  Se  Se243  1  0.08417509  0.58540472  0.19440829  1
  Se  Se244  1  0.09376478  0.58112626  0.67979175  1
  Se  Se245  1  0.08515968  0.90781240  0.18756807  1
  Se  Se246  1  0.08799507  0.90781102  0.68579683  1
  Se  Se247  1  0.41634289  0.24740812  0.20016290  1
  Se  Se248  1  0.42096958  0.24874971  0.68595556  1
  Se  Se249  1  0.41010135  0.57335115  0.21236199  1
  Se  Se250  1  0.41077414  0.58663306  0.69235029  1
  Se  Se251  1  0.40077317  0.93171528  0.20550880  1
  Se  Se252  1  0.40998142  0.92308255  0.69279399  1
  Se  Se253  1  0.74958586  0.24641341  0.20349705  1
  Se  Se254  1  0.75497536  0.24971427  0.68173826  1
  Se  Se255  1  0.73466964  0.59667119  0.19768199  1
  Se  Se256  1  0.75814118  0.57005233  0.68865390  1
  Se  Se257  1  0.74969997  0.91173821  0.18494541  1
  Se  Se258  1  0.75065548  0.90918615  0.69597293  1
