# generated using pymatgen
data_In86Cu29Se144
_symmetry_space_group_name_H-M   'P 1'
_cell_length_a   17.59186856
_cell_length_b   17.59232265
_cell_length_c   23.45176371
_cell_angle_alpha   90.02546066
_cell_angle_beta   89.98404922
_cell_angle_gamma   89.97575009
_symmetry_Int_Tables_number   1
_chemical_formula_structural   In86Cu29Se144
_chemical_formula_sum   'In86 Cu29 Se144'
_cell_volume   7257.89304765
_cell_formula_units_Z   1
loop_
 _symmetry_equiv_pos_site_id
 _symmetry_equiv_pos_as_xyz
  1  'x, y, z'
loop_
 _atom_site_type_symbol
 _atom_site_label
 _atom_site_symmetry_multiplicity
 _atom_site_fract_x
 _atom_site_fract_y
 _atom_site_fract_z
 _atom_site_occupancy
  In  In0  1  0.00602932  0.17680313  0.11559389  1
  In  In1  1  -0.00835923  0.17921210  0.63303005  1
  In  In2  1  -0.00309434  0.48635571  0.12530643  1
  In  In3  1  -0.00713352  0.47938014  0.61179768  1
  In  In4  1  0.00269627  0.84948335  0.11675358  1
  In  In5  1  0.02292846  0.82629344  0.63477547  1
  In  In6  1  0.31907417  0.16418278  0.11843475  1
  In  In7  1  0.34137288  0.16515575  0.63170966  1
  In  In8  1  0.33116633  0.50116183  0.11248376  1
  In  In9  1  0.33028744  0.50175451  0.63574815  1
  In  In10  1  0.34454897  0.83534767  0.11850347  1
  In  In11  1  0.31424859  0.83977476  0.64543020  1
  In  In12  1  0.66262826  0.15355571  0.12309289  1
  In  In13  1  0.67563312  0.17901266  0.61512868  1
  In  In14  1  0.66706903  0.51293100  0.12777689  1
  In  In15  1  0.64560297  0.48399735  0.61018902  1
  In  In16  1  0.66556343  0.83392413  0.12461835  1
  In  In17  1  0.66586340  0.82852255  0.62605488  1
  In  In18  1  0.16515262  -0.00751807  0.38039484  1
  In  In19  1  0.18455069  0.01366889  0.86589331  1
  In  In20  1  0.16571712  0.34348450  0.38479533  1
  In  In21  1  0.16623046  0.33379595  0.86452054  1
  In  In22  1  0.17471660  0.66437345  0.38575670  1
  In  In23  1  0.16361164  0.64492256  0.86420032  1
  In  In24  1  0.50556261  0.00203798  0.36921463  1
  In  In25  1  0.48152992  -0.00717319  0.87951447  1
  In  In26  1  0.49483736  0.33156388  0.38879453  1
  In  In27  1  0.50867925  0.34205182  0.86806107  1
  In  In28  1  0.50756270  0.65909795  0.37707249  1
  In  In29  1  0.49276545  0.67560769  0.88034486  1
  In  In30  1  0.82908576  0.01069357  0.37460453  1
  In  In31  1  0.84333664  -0.00455147  0.88223951  1
  In  In32  1  0.84323639  0.32667806  0.38372530  1
  In  In33  1  0.83230041  0.32544255  0.86870084  1
  In  In34  1  0.82303616  0.66123805  0.37571491  1
  In  In35  1  0.84739151  0.67537789  0.88009893  1
  In  In36  1  -0.01473724  0.16591489  0.37936861  1
  In  In37  1  0.00466490  0.17082617  0.87087464  1
  In  In38  1  0.00998212  0.48715383  0.38778381  1
  In  In39  1  0.02945150  0.49811545  0.86908745  1
  In  In40  1  0.01086694  0.84252333  0.37977781  1
  In  In41  1  -0.00896134  0.82924274  0.87720600  1
  In  In42  1  0.34376259  0.16711103  0.38083832  1
  In  In43  1  0.32406503  0.15572049  0.86686519  1
  In  In44  1  0.33434087  0.49939468  0.39004412  1
  In  In45  1  0.33096198  0.49969953  0.86509010  1
  In  In46  1  0.32443647  0.83564067  0.37796061  1
  In  In47  1  0.33493194  0.84216519  0.86521292  1
  In  In48  1  0.66797876  0.16387240  0.37651508  1
  In  In49  1  0.66629509  0.18098828  0.87650194  1
  In  In50  1  0.66297671  0.50963495  0.38431259  1
  In  In51  1  0.67051837  0.48613344  0.87266869  1
  In  In52  1  0.66269516  0.83088185  0.36387851  1
  In  In53  1  0.66966592  0.82966239  0.88477175  1
  In  In54  1  0.16207986  0.01020560  0.12373085  1
  In  In55  1  0.17155438  -0.00733598  0.63781851  1
  In  In56  1  0.16093532  0.32772738  0.11461959  1
  In  In57  1  0.16651776  0.35288423  0.63457979  1
  In  In58  1  0.18016782  0.66514081  0.11786687  1
  In  In59  1  0.17551938  0.66704109  0.62631423  1
  In  In60  1  0.50689255  -0.00430350  0.12942788  1
  In  In61  1  0.48413199  -0.00113973  0.62688636  1
  In  In62  1  0.48337080  0.33462953  0.11890617  1
  In  In63  1  0.49992114  0.33789955  0.62874132  1
  In  In64  1  0.50488511  0.67371301  0.11821244  1
  In  In65  1  0.47854377  0.61434078  0.60229346  1
  In  In66  1  0.82528210  -0.00491450  0.11681839  1
  In  In67  1  0.83494950  0.01658568  0.62376528  1
  In  In68  1  0.85080193  0.33896109  0.12450081  1
  In  In69  1  0.83176767  0.32574069  0.62435353  1
  In  In70  1  0.81934575  0.66229155  0.12572152  1
  In  In71  1  0.84125404  0.65564808  0.62203786  1
  In  In72  1  0.83797872  0.50370303  -0.00008224  1
  In  In73  1  0.66983831  0.33194294  0.25434498  1
  In  In74  1  -0.00582335  0.00507136  0.25185338  1
  In  In75  1  0.49634025  0.16565957  -0.00304630  1
  In  In76  1  0.16682695  0.83073539  -0.00897243  1
  In  In77  1  0.16517853  0.17981204  0.51727949  1
  In  In78  1  0.49509394  0.82812378  0.50045914  1
  In  In79  1  -0.00327306  0.66213148  0.75011107  1
  In  In80  1  0.34206436  0.66535129  0.25617236  1
  In  In81  1  0.65950658  0.00724580  0.75604390  1
  In  In82  1  0.66155317  0.66336826  0.74052714  1
  In  In83  1  -0.00163759  0.66568252  0.24489972  1
  In  In84  1  0.33114111  0.33236869  0.25837367  1
  In  In85  1  0.84210147  0.83337027  0.49639156  1
  Cu  Cu86  1  0.83364129  0.49146484  0.74647968  1
  Cu  Cu87  1  0.00519361  -0.00283743  0.50498600  1
  Cu  Cu88  1  0.16480545  0.49052953  0.25200585  1
  Cu  Cu89  1  0.00515846  0.01273479  -0.00458955  1
  Cu  Cu90  1  0.33152153  0.34025807  -0.01055046  1
  Cu  Cu91  1  0.16251815  0.17087767  0.24317631  1
  Cu  Cu92  1  0.49494373  0.82670004  0.75025258  1
  Cu  Cu93  1  0.50149191  0.17037294  0.75100115  1
  Cu  Cu94  1  0.83028679  0.84114831  0.75532907  1
  Cu  Cu95  1  0.00396202  0.33505077  -0.00679319  1
  Cu  Cu96  1  0.83667975  0.49735313  0.25056292  1
  Cu  Cu97  1  0.66661971  0.33096040  0.49912763  1
  Cu  Cu98  1  0.32867199  0.65616376  -0.00836864  1
  Cu  Cu99  1  0.83735190  0.16893377  0.74774592  1
  Cu  Cu100  1  0.83077269  0.16653919  0.25166080  1
  Cu  Cu101  1  0.50689380  0.50294782  0.25184671  1
  Cu  Cu102  1  0.32703615  0.00451956  0.51043581  1
  Cu  Cu103  1  0.82642613  0.83315567  0.24453052  1
  Cu  Cu104  1  0.00876180  0.65997693  0.50536776  1
  Cu  Cu105  1  0.66817590  0.33652250  -0.00571150  1
  Cu  Cu106  1  0.66764746  -0.00200138  0.00278606  1
  Cu  Cu107  1  0.66002815  0.00641731  0.49710985  1
  Cu  Cu108  1  0.50352815  0.83652760  0.24181254  1
  Cu  Cu109  1  0.50075496  0.49937350  0.74781941  1
  Cu  Cu110  1  0.33131090  0.66981474  0.50745216  1
  Cu  Cu111  1  0.16957446  0.16906740  0.74578341  1
  Cu  Cu112  1  0.17629538  0.83472288  0.25638992  1
  Cu  Cu113  1  0.66281682  0.66712895  0.00270452  1
  Cu  Cu114  1  0.49507471  0.15795529  0.25172242  1
  Se  Se115  1  0.09030285  0.09224522  0.04964969  1
  Se  Se116  1  0.07914005  0.07774662  0.56864689  1
  Se  Se117  1  0.08253680  0.42032045  0.05000789  1
  Se  Se118  1  0.08790186  0.40355804  0.54997837  1
  Se  Se119  1  0.07948778  0.74564673  0.05887709  1
  Se  Se120  1  0.08955824  0.74794587  0.55594194  1
  Se  Se121  1  0.41271682  0.07528163  0.05935477  1
  Se  Se122  1  0.41766952  0.08774773  0.55421082  1
  Se  Se123  1  0.41671107  0.41940522  0.04491237  1
  Se  Se124  1  0.44081804  0.45119314  0.56936827  1
  Se  Se125  1  0.40789572  0.73915845  0.05021251  1
  Se  Se126  1  0.41042685  0.74803031  0.57008360  1
  Se  Se127  1  0.75040670  0.08808323  0.04947623  1
  Se  Se128  1  0.74926799  0.08382496  0.54940024  1
  Se  Se129  1  0.74507734  0.41367665  0.06099752  1
  Se  Se130  1  0.75022920  0.41145315  0.55459605  1
  Se  Se131  1  0.74847129  0.74952507  0.05501116  1
  Se  Se132  1  0.75205117  0.74640684  0.55779530  1
  Se  Se133  1  0.25386850  0.25539571  0.04719669  1
  Se  Se134  1  0.26238941  0.26578834  0.57080571  1
  Se  Se135  1  0.24169497  0.57568034  0.04367697  1
  Se  Se136  1  0.25278869  0.57900963  0.55803518  1
  Se  Se137  1  0.24916685  0.91996957  0.05785529  1
  Se  Se138  1  0.25037279  0.91575310  0.56262039  1
  Se  Se139  1  0.58830476  0.25772677  0.05799291  1
  Se  Se140  1  0.57733598  0.25430850  0.55469181  1
  Se  Se141  1  0.58143075  0.57925242  0.05338502  1
  Se  Se142  1  0.60727753  0.60335459  0.55245418  1
  Se  Se143  1  0.58203042  0.91585586  0.05485009  1
  Se  Se144  1  0.58731235  0.92382266  0.55914899  1
  Se  Se145  1  0.91737817  0.25592584  0.04821475  1
  Se  Se146  1  0.90513362  0.23523942  0.55532379  1
  Se  Se147  1  0.92485810  0.59164457  0.06333117  1
  Se  Se148  1  0.91739610  0.57741037  0.54893544  1
  Se  Se149  1  0.92080842  0.92787695  0.04771098  1
  Se  Se150  1  0.92435271  0.91664153  0.56612858  1
  Se  Se151  1  0.07381019  0.25203096  0.44545027  1
  Se  Se152  1  0.08880820  0.25282309  0.93996620  1
  Se  Se153  1  0.09324850  0.57797982  0.45028186  1
  Se  Se154  1  0.06374173  0.60338079  0.93903106  1
  Se  Se155  1  0.09066439  0.91276629  0.45560342  1
  Se  Se156  1  0.08097031  0.92841248  0.93467825  1
  Se  Se157  1  0.40152942  0.25953424  0.45290558  1
  Se  Se158  1  0.41332911  0.25566519  0.93274678  1
  Se  Se159  1  0.41739817  0.59326671  0.44922163  1
  Se  Se160  1  0.41506663  0.57622641  0.93837299  1
  Se  Se161  1  0.40783017  0.92770801  0.44513253  1
  Se  Se162  1  0.41283388  0.90246441  0.94740111  1
  Se  Se163  1  0.74884126  0.24646538  0.44485678  1
  Se  Se164  1  0.75466406  0.25226576  0.94733463  1
  Se  Se165  1  0.75755540  0.57964985  0.45096896  1
  Se  Se166  1  0.74327538  0.59075055  0.93872690  1
  Se  Se167  1  0.74058308  0.92000928  0.44047056  1
  Se  Se168  1  0.75290236  0.91682979  0.94811817  1
  Se  Se169  1  0.24668004  0.08450634  0.44878690  1
  Se  Se170  1  0.25983231  0.07817775  0.94641692  1
  Se  Se171  1  0.25871085  0.40859649  0.45287264  1
  Se  Se172  1  0.24560478  0.41947275  0.93536777  1
  Se  Se173  1  0.25149826  0.75492859  0.45207988  1
  Se  Se174  1  0.25120259  0.73689910  0.92995402  1
  Se  Se175  1  0.57597921  0.08711180  0.44305882  1
  Se  Se176  1  0.58930192  0.07481067  0.93732132  1
  Se  Se177  1  0.58341475  0.41801997  0.44836753  1
  Se  Se178  1  0.58200174  0.41994165  0.94639010  1
  Se  Se179  1  0.59557649  0.74663538  0.44361979  1
  Se  Se180  1  0.57983023  0.75165184  0.94995936  1
  Se  Se181  1  0.91813256  0.07329351  0.44943251  1
  Se  Se182  1  0.91830082  0.09373975  0.94307847  1
  Se  Se183  1  0.90623391  0.42557340  0.44940887  1
  Se  Se184  1  0.92260938  0.41670582  0.93433673  1
  Se  Se185  1  0.93266673  0.73832919  0.43844637  1
  Se  Se186  1  0.91159978  0.76000154  0.95412318  1
  Se  Se187  1  0.23897406  0.24116661  0.31390386  1
  Se  Se188  1  0.25546905  0.25019805  0.79946512  1
  Se  Se189  1  0.24649935  0.57194906  0.30988400  1
  Se  Se190  1  0.23279307  0.55892744  0.79244167  1
  Se  Se191  1  0.25353922  0.92445085  0.30663473  1
  Se  Se192  1  0.24410233  0.91357057  0.79820171  1
  Se  Se193  1  0.56957826  0.24695981  0.30948835  1
  Se  Se194  1  0.58850319  0.25284991  0.80078996  1
  Se  Se195  1  0.59035619  0.58520794  0.30391412  1
  Se  Se196  1  0.58016489  0.57918670  0.81115757  1
  Se  Se197  1  0.58528275  0.92000534  0.29838370  1
  Se  Se198  1  0.57812198  0.90405610  0.81057917  1
  Se  Se199  1  0.91451744  0.24876823  0.30442266  1
  Se  Se200  1  0.92208112  0.25273300  0.79963747  1
  Se  Se201  1  0.91891404  0.57687027  0.31136116  1
  Se  Se202  1  0.90671557  0.57166150  0.81128733  1
  Se  Se203  1  0.90757824  0.90660261  0.30990155  1
  Se  Se204  1  0.91867219  0.91873041  0.80587582  1
  Se  Se205  1  0.08812530  0.09184276  0.31121252  1
  Se  Se206  1  0.08746569  0.08706127  0.80218808  1
  Se  Se207  1  0.08273266  0.41187919  0.30814593  1
  Se  Se208  1  0.07191268  0.40278754  0.79465949  1
  Se  Se209  1  0.09258698  0.75100188  0.30995039  1
  Se  Se210  1  0.08542022  0.75337596  0.80867680  1
  Se  Se211  1  0.40955712  0.07980338  0.30635776  1
  Se  Se212  1  0.42259456  0.08140050  0.80319151  1
  Se  Se213  1  0.42495323  0.42677022  0.31206254  1
  Se  Se214  1  0.41766284  0.41440107  0.79971414  1
  Se  Se215  1  0.42979715  0.76220403  0.31235865  1
  Se  Se216  1  0.41175697  0.74365969  0.80343755  1
  Se  Se217  1  0.74550422  0.08340778  0.30173171  1
  Se  Se218  1  0.75828994  0.09111713  0.81216419  1
  Se  Se219  1  0.75624887  0.42194559  0.31474223  1
  Se  Se220  1  0.74884317  0.40927672  0.80003844  1
  Se  Se221  1  0.75270554  0.74699398  0.30218135  1
  Se  Se222  1  0.75286789  0.75082150  0.80729598  1
  Se  Se223  1  0.24751516  0.08500268  0.19555717  1
  Se  Se224  1  0.25657250  0.08319019  0.69867041  1
  Se  Se225  1  0.24911422  0.41862538  0.18870402  1
  Se  Se226  1  0.23932927  0.43566733  0.70847246  1
  Se  Se227  1  0.25085448  0.75345234  0.19389278  1
  Se  Se228  1  0.24110863  0.74366640  0.70670882  1
  Se  Se229  1  0.58501145  0.08189871  0.19932833  1
  Se  Se230  1  0.57873939  0.09116967  0.68631059  1
  Se  Se231  1  0.57581995  0.41533356  0.18969394  1
  Se  Se232  1  0.58911771  0.41626696  0.69848076  1
  Se  Se233  1  0.58472975  0.74653798  0.19365565  1
  Se  Se234  1  0.56681298  0.74973900  0.68404054  1
  Se  Se235  1  0.91098573  0.09161239  0.18590337  1
  Se  Se236  1  0.91989147  0.08105418  0.69938725  1
  Se  Se237  1  0.92298397  0.41268539  0.20351637  1
  Se  Se238  1  0.91664758  0.41027534  0.69205585  1
  Se  Se239  1  0.91372905  0.76221822  0.18507541  1
  Se  Se240  1  0.90492304  0.75796834  0.69170570  1
  Se  Se241  1  0.08114309  0.25550255  0.19158067  1
  Se  Se242  1  0.08780292  0.25443748  0.69483015  1
  Se  Se243  1  0.09564825  0.57688038  0.18925349  1
  Se  Se244  1  0.07322671  0.57766537  0.67942779  1
  Se  Se245  1  0.09103002  0.91134286  0.19718163  1
  Se  Se246  1  0.07684905  0.92275922  0.70487680  1
  Se  Se247  1  0.41701357  0.24114197  0.19249366  1
  Se  Se248  1  0.41823114  0.25525506  0.69918916  1
  Se  Se249  1  0.42167590  0.57436791  0.18895707  1
  Se  Se250  1  0.41823686  0.58953285  0.70088099  1
  Se  Se251  1  0.41310236  0.91730115  0.19448588  1
  Se  Se252  1  0.41437852  0.91914834  0.70282369  1
  Se  Se253  1  0.75533292  0.24691406  0.18679735  1
  Se  Se254  1  0.74686966  0.24748084  0.69691632  1
  Se  Se255  1  0.75068755  0.58212225  0.20274794  1
  Se  Se256  1  0.75302922  0.56961008  0.68651831  1
  Se  Se257  1  0.74754527  0.92117779  0.19275361  1
  Se  Se258  1  0.75054612  0.91777226  0.69266036  1
