# generated using pymatgen
data_In86Cu29Se144
_symmetry_space_group_name_H-M   'P 1'
_cell_length_a   17.57841634
_cell_length_b   17.58457688
_cell_length_c   23.44788728
_cell_angle_alpha   90.01433185
_cell_angle_beta   90.02305694
_cell_angle_gamma   90.00861838
_symmetry_Int_Tables_number   1
_chemical_formula_structural   In86Cu29Se144
_chemical_formula_sum   'In86 Cu29 Se144'
_cell_volume   7247.95241231
_cell_formula_units_Z   1
loop_
 _symmetry_equiv_pos_site_id
 _symmetry_equiv_pos_as_xyz
  1  'x, y, z'
loop_
 _atom_site_type_symbol
 _atom_site_label
 _atom_site_symmetry_multiplicity
 _atom_site_fract_x
 _atom_site_fract_y
 _atom_site_fract_z
 _atom_site_occupancy
  In  In0  1  -0.00128283  0.17038999  0.12903081  1
  In  In1  1  -0.01035312  0.15943747  0.61672877  1
  In  In2  1  -0.01356415  0.49781859  0.12278494  1
  In  In3  1  0.00253939  0.50732564  0.62486069  1
  In  In4  1  -0.00299629  0.83260304  0.11604594  1
  In  In5  1  -0.00205166  0.83883670  0.63430760  1
  In  In6  1  0.33440607  0.16456809  0.12159429  1
  In  In7  1  0.33183605  0.16015214  0.60870586  1
  In  In8  1  0.34006269  0.51186940  0.13275727  1
  In  In9  1  0.34316443  0.50925746  0.62708162  1
  In  In10  1  0.33175822  0.82687157  0.11167927  1
  In  In11  1  0.33290759  0.82620191  0.62555215  1
  In  In12  1  0.66350171  0.16352047  0.12951540  1
  In  In13  1  0.67237133  0.16693842  0.61918499  1
  In  In14  1  0.67063729  0.48776947  0.13018118  1
  In  In15  1  0.67380323  0.49051462  0.63136861  1
  In  In16  1  0.67857533  0.84382279  0.11430253  1
  In  In17  1  0.65803074  0.82922685  0.62230669  1
  In  In18  1  0.17407102  0.01505037  0.37606568  1
  In  In19  1  0.15780624  0.00271274  0.88071326  1
  In  In20  1  0.14470244  0.32350854  0.36462553  1
  In  In21  1  0.15415656  0.32715035  0.88118573  1
  In  In22  1  0.16986555  0.65113538  0.36857943  1
  In  In23  1  0.17629897  0.67956366  0.86932675  1
  In  In24  1  0.50721782  -0.00822687  0.37744589  1
  In  In25  1  0.49581639  0.00217417  0.88213223  1
  In  In26  1  0.50742592  0.31075236  0.36160316  1
  In  In27  1  0.50476528  0.31984092  0.87718172  1
  In  In28  1  0.49803434  0.68216141  0.37519280  1
  In  In29  1  0.50578580  0.67102194  0.87148760  1
  In  In30  1  0.81818909  0.01417478  0.38266779  1
  In  In31  1  0.84304873  -0.00839935  0.87981020  1
  In  In32  1  0.82810637  0.33386072  0.37164161  1
  In  In33  1  0.82228200  0.34019515  0.88101322  1
  In  In34  1  0.82914428  0.66535530  0.38642371  1
  In  In35  1  0.83286672  0.66472285  0.87203922  1
  In  In36  1  -0.02734661  0.20151017  0.40206360  1
  In  In37  1  0.00205701  0.15480784  0.88000135  1
  In  In38  1  -0.01057915  0.46277244  0.36958760  1
  In  In39  1  -0.01735141  0.49625208  0.87634796  1
  In  In40  1  -0.00773219  0.82230702  0.37672649  1
  In  In41  1  -0.00145981  0.83334731  0.87405550  1
  In  In42  1  0.34072636  0.15285883  0.38650119  1
  In  In43  1  0.33396811  0.16377696  0.88494935  1
  In  In44  1  0.31913699  0.50427771  0.36449186  1
  In  In45  1  0.32623329  0.50958096  0.87653742  1
  In  In46  1  0.34826934  0.83732335  0.37344367  1
  In  In47  1  0.34291152  0.81608794  0.89097580  1
  In  In48  1  0.67095485  0.16422065  0.36327333  1
  In  In49  1  0.66165031  0.17268817  0.87778182  1
  In  In50  1  0.68226768  0.50004081  0.37790343  1
  In  In51  1  0.67289202  0.50521664  0.86892863  1
  In  In52  1  0.65924131  0.84021771  0.38256366  1
  In  In53  1  0.67911499  0.82624408  0.88104741  1
  In  In54  1  0.16636006  0.00019596  0.11883718  1
  In  In55  1  0.15811565  -0.00631031  0.62702434  1
  In  In56  1  0.17251972  0.31697670  0.12777525  1
  In  In57  1  0.16337113  0.33050748  0.61765765  1
  In  In58  1  0.17042265  0.67622088  0.11563396  1
  In  In59  1  0.16653550  0.67152535  0.63502268  1
  In  In60  1  0.51432918  0.00875982  0.11935961  1
  In  In61  1  0.49706871  0.00110225  0.60878304  1
  In  In62  1  0.51711396  0.33006046  0.13503162  1
  In  In63  1  0.51238339  0.33201112  0.62115087  1
  In  In64  1  0.48714165  0.66883293  0.12243003  1
  In  In65  1  0.49346184  0.67753004  0.63158340  1
  In  In66  1  0.82773653  0.00261585  0.12641113  1
  In  In67  1  0.84210953  0.00573629  0.62113761  1
  In  In68  1  0.82662030  0.32856604  0.13135210  1
  In  In69  1  0.82417414  0.31776782  0.61393494  1
  In  In70  1  0.83911821  0.66871669  0.11207208  1
  In  In71  1  0.83140359  0.66771416  0.62753680  1
  In  In72  1  0.67222647  -0.00061456  0.75030777  1
  In  In73  1  0.33635098  0.33546199  0.24684692  1
  In  In74  1  0.33016284  -0.00457718  0.75319862  1
  In  In75  1  0.15816985  0.49847670  0.49765724  1
  In  In76  1  0.33781927  0.34128126  0.74937671  1
  In  In77  1  -0.00632390  0.00669772  0.25025062  1
  In  In78  1  0.17177739  0.83975751  0.50398156  1
  In  In79  1  0.34163094  -0.00014382  0.25254145  1
  In  In80  1  0.50446599  0.49948529  0.49752618  1
  In  In81  1  0.65934514  0.66222314  0.24867868  1
  In  In82  1  0.16336010  0.49819679  0.00567448  1
  In  In83  1  0.50446182  0.49691218  0.00972720  1
  In  In84  1  0.00255450  0.66147460  0.24330227  1
  In  In85  1  -0.00415927  0.33513372  0.75012304  1
  Cu  Cu86  1  0.67376536  0.00099040  0.49756814  1
  Cu  Cu87  1  0.50674884  0.17266892  0.74661481  1
  Cu  Cu88  1  0.33601917  0.32677523  0.00481894  1
  Cu  Cu89  1  0.16508081  0.16535278  0.75505722  1
  Cu  Cu90  1  0.50116029  0.83518340  0.24790919  1
  Cu  Cu91  1  -0.00709743  0.00353924  0.00322678  1
  Cu  Cu92  1  0.00304721  -0.00163695  0.50293554  1
  Cu  Cu93  1  0.66746707  0.32231873  0.49555587  1
  Cu  Cu94  1  -0.00686083  0.66554695  0.50183151  1
  Cu  Cu95  1  0.66571811  0.66835924  0.50385043  1
  Cu  Cu96  1  0.82326026  0.83780757  0.25040886  1
  Cu  Cu97  1  0.50360494  0.83194454  0.75281710  1
  Cu  Cu98  1  0.83525070  0.16892561  0.74404739  1
  Cu  Cu99  1  0.16654398  0.51144711  0.74995392  1
  Cu  Cu100  1  -0.00853111  0.31980778  0.00142267  1
  Cu  Cu101  1  0.17445332  0.82934932  0.24049363  1
  Cu  Cu102  1  0.66512400  0.00563342  -0.00063003  1
  Cu  Cu103  1  0.50348036  0.50679837  0.74890563  1
  Cu  Cu104  1  0.16102325  0.16964878  0.25425620  1
  Cu  Cu105  1  0.83539938  0.82836416  0.75405119  1
  Cu  Cu106  1  0.83858532  0.49734672  0.25069337  1
  Cu  Cu107  1  0.33294087  0.32998552  0.49127245  1
  Cu  Cu108  1  0.83058578  0.50105400  0.74941570  1
  Cu  Cu109  1  0.16590964  0.83329692  0.75455063  1
  Cu  Cu110  1  0.32817190  -0.00314305  0.00058612  1
  Cu  Cu111  1  0.67000079  0.32908301  0.00679152  1
  Cu  Cu112  1  0.33616442  0.67300709  0.50097051  1
  Cu  Cu113  1  -0.00115525  0.66637378  -0.00754289  1
  Cu  Cu114  1  0.67053330  0.66649262  -0.00715340  1
  Se  Se115  1  0.07711518  0.08518008  0.05861229  1
  Se  Se116  1  0.08700134  0.08087172  0.55590802  1
  Se  Se117  1  0.07514029  0.40077756  0.06050506  1
  Se  Se118  1  0.06600517  0.40633673  0.55352064  1
  Se  Se119  1  0.07970137  0.74965746  0.04829912  1
  Se  Se120  1  0.07970545  0.74441003  0.55889851  1
  Se  Se121  1  0.41373088  0.07814174  0.05475504  1
  Se  Se122  1  0.43128152  0.09822841  0.54461478  1
  Se  Se123  1  0.41023823  0.40624954  0.06759912  1
  Se  Se124  1  0.40779837  0.40973851  0.55616575  1
  Se  Se125  1  0.42476670  0.75201120  0.04635327  1
  Se  Se126  1  0.42014331  0.75454371  0.55355932  1
  Se  Se127  1  0.74683228  0.08632464  0.05679305  1
  Se  Se128  1  0.75642237  0.08418012  0.55239222  1
  Se  Se129  1  0.75322182  0.41586916  0.05676953  1
  Se  Se130  1  0.74115507  0.41085026  0.55293996  1
  Se  Se131  1  0.75371897  0.75175180  0.04746621  1
  Se  Se132  1  0.74985686  0.75121993  0.55723059  1
  Se  Se133  1  0.24766293  0.24186388  0.05169889  1
  Se  Se134  1  0.24868391  0.25327922  0.54942844  1
  Se  Se135  1  0.26435855  0.58799611  0.05266043  1
  Se  Se136  1  0.25258892  0.59128721  0.55755076  1
  Se  Se137  1  0.24237650  0.91315807  0.05061330  1
  Se  Se138  1  0.26456969  0.92981105  0.56101464  1
  Se  Se139  1  0.58206682  0.24838302  0.05729344  1
  Se  Se140  1  0.58211922  0.24356598  0.55079106  1
  Se  Se141  1  0.59764490  0.59201405  0.06274456  1
  Se  Se142  1  0.58473620  0.58792636  0.56486298  1
  Se  Se143  1  0.58309349  0.91665023  0.04890208  1
  Se  Se144  1  0.58823553  0.91706716  0.54972542  1
  Se  Se145  1  0.90808059  0.24491548  0.06071968  1
  Se  Se146  1  0.92026146  0.25020880  0.54865835  1
  Se  Se147  1  0.91858174  0.57994317  0.04619145  1
  Se  Se148  1  0.91295630  0.58252278  0.55744681  1
  Se  Se149  1  0.90955926  0.91947526  0.05617709  1
  Se  Se150  1  0.92206316  0.91318742  0.55705540  1
  Se  Se151  1  0.09868116  0.24323624  0.44854281  1
  Se  Se152  1  0.08131018  0.24121336  0.95028029  1
  Se  Se153  1  0.06822443  0.58788707  0.43691113  1
  Se  Se154  1  0.08088406  0.58261418  0.93582906  1
  Se  Se155  1  0.07904556  0.92050650  0.43744662  1
  Se  Se156  1  0.07401983  0.91884641  0.94737542  1
  Se  Se157  1  0.42349736  0.25219202  0.44133491  1
  Se  Se158  1  0.42081619  0.24711999  0.94979738  1
  Se  Se159  1  0.40718970  0.58611620  0.43968531  1
  Se  Se160  1  0.41935257  0.58479601  0.94374532  1
  Se  Se161  1  0.41189091  0.92416803  0.44547091  1
  Se  Se162  1  0.41720919  0.91668798  0.94993775  1
  Se  Se163  1  0.75019484  0.24277488  0.43894288  1
  Se  Se164  1  0.75000962  0.24701776  0.94813287  1
  Se  Se165  1  0.74907699  0.58103618  0.45541669  1
  Se  Se166  1  0.75332314  0.57914153  0.94351617  1
  Se  Se167  1  0.75590012  0.91123193  0.44782685  1
  Se  Se168  1  0.74957969  0.92060966  0.94746166  1
  Se  Se169  1  0.25321106  0.07763677  0.45388469  1
  Se  Se170  1  0.24538863  0.08296367  0.94820645  1
  Se  Se171  1  0.25006746  0.41104243  0.43599542  1
  Se  Se172  1  0.25709632  0.40660133  0.94335700  1
  Se  Se173  1  0.25086068  0.74453872  0.43812162  1
  Se  Se174  1  0.24190973  0.74749967  0.95230047  1
  Se  Se175  1  0.59394460  0.08150732  0.43786273  1
  Se  Se176  1  0.58018226  0.08835717  0.94593646  1
  Se  Se177  1  0.58778361  0.40538404  0.43644345  1
  Se  Se178  1  0.59118436  0.41062116  0.94362735  1
  Se  Se179  1  0.58088340  0.75060551  0.45033013  1
  Se  Se180  1  0.58374300  0.75062147  0.94490237  1
  Se  Se181  1  0.91819046  0.07922598  0.44886558  1
  Se  Se182  1  0.90923569  0.08656927  0.94967451  1
  Se  Se183  1  0.89714156  0.42336084  0.44617921  1
  Se  Se184  1  0.91469686  0.41149346  0.95047352  1
  Se  Se185  1  0.91080038  0.75351588  0.45231945  1
  Se  Se186  1  0.91316576  0.75014289  0.94139223  1
  Se  Se187  1  0.25393885  0.24118716  0.31184876  1
  Se  Se188  1  0.24699473  0.24830311  0.81012963  1
  Se  Se189  1  0.25830836  0.59586919  0.29267599  1
  Se  Se190  1  0.25501776  0.58968666  0.80166210  1
  Se  Se191  1  0.24250279  0.91099864  0.30778273  1
  Se  Se192  1  0.24742151  0.90804294  0.81839165  1
  Se  Se193  1  0.60759181  0.26063978  0.29019651  1
  Se  Se194  1  0.58908143  0.25403743  0.80064622  1
  Se  Se195  1  0.57807191  0.57869653  0.31837213  1
  Se  Se196  1  0.58778314  0.58820512  0.80288673  1
  Se  Se197  1  0.58607418  0.91338407  0.30331907  1
  Se  Se198  1  0.58003135  0.91453661  0.81274582  1
  Se  Se199  1  0.92732487  0.26093554  0.30891145  1
  Se  Se200  1  0.91081534  0.24466265  0.81245730  1
  Se  Se201  1  0.91321276  0.58158873  0.31216693  1
  Se  Se202  1  0.91675059  0.58184118  0.80171301  1
  Se  Se203  1  0.90886005  0.91113681  0.31094287  1
  Se  Se204  1  0.91773291  0.91739161  0.80256101  1
  Se  Se205  1  0.07856230  0.09434342  0.31483970  1
  Se  Se206  1  0.08122976  0.08038998  0.80440508  1
  Se  Se207  1  0.10589948  0.44151380  0.30704232  1
  Se  Se208  1  0.09125988  0.42581743  0.80897011  1
  Se  Se209  1  0.09038506  0.75627639  0.30441365  1
  Se  Se210  1  0.07925382  0.74846782  0.80394342  1
  Se  Se211  1  0.43112847  0.09187068  0.30825683  1
  Se  Se212  1  0.42322311  0.09436910  0.80599254  1
  Se  Se213  1  0.42429998  0.42032888  0.31248967  1
  Se  Se214  1  0.42730888  0.42673001  0.81408526  1
  Se  Se215  1  0.41592395  0.75172439  0.29871015  1
  Se  Se216  1  0.41555862  0.75337252  0.80639623  1
  Se  Se217  1  0.75184909  0.07477021  0.29780375  1
  Se  Se218  1  0.75900589  0.09031184  0.81066612  1
  Se  Se219  1  0.74783193  0.41906630  0.30033028  1
  Se  Se220  1  0.74943589  0.41359699  0.80189897  1
  Se  Se221  1  0.75086941  0.75051918  0.31067891  1
  Se  Se222  1  0.74717340  0.74679879  0.80297990  1
  Se  Se223  1  0.24169080  0.08761466  0.19560442  1
  Se  Se224  1  0.24783444  0.09181693  0.69175168  1
  Se  Se225  1  0.24221274  0.42396794  0.18937041  1
  Se  Se226  1  0.24060218  0.42676790  0.68803745  1
  Se  Se227  1  0.25691943  0.74774673  0.18834862  1
  Se  Se228  1  0.25336812  0.75378052  0.70069713  1
  Se  Se229  1  0.58606575  0.07612417  0.19894762  1
  Se  Se230  1  0.57743154  0.08277335  0.68837850  1
  Se  Se231  1  0.56404972  0.44215126  0.19658806  1
  Se  Se232  1  0.57904566  0.41545983  0.69700360  1
  Se  Se233  1  0.58284367  0.75908764  0.18511078  1
  Se  Se234  1  0.58718587  0.74950325  0.69945674  1
  Se  Se235  1  0.89995185  0.09843032  0.19757864  1
  Se  Se236  1  0.92058061  0.08294085  0.69657937  1
  Se  Se237  1  0.91842050  0.41214795  0.19645953  1
  Se  Se238  1  0.90632016  0.41882312  0.68632140  1
  Se  Se239  1  0.90655321  0.75821952  0.19213141  1
  Se  Se240  1  0.91852550  0.74678325  0.69742916  1
  Se  Se241  1  0.08055259  0.25360334  0.20005996  1
  Se  Se242  1  0.08721617  0.24420804  0.69176396  1
  Se  Se243  1  0.09175522  0.57682688  0.18059664  1
  Se  Se244  1  0.07742515  0.58877540  0.69812684  1
  Se  Se245  1  0.08533103  0.91093525  0.19105066  1
  Se  Se246  1  0.08382368  0.91924174  0.70315365  1
  Se  Se247  1  0.42473277  0.23666662  0.19422428  1
  Se  Se248  1  0.41730676  0.24463961  0.68744941  1
  Se  Se249  1  0.43703683  0.57575650  0.19913676  1
  Se  Se250  1  0.41468283  0.58976984  0.70102198  1
  Se  Se251  1  0.42053424  0.91139660  0.18444503  1
  Se  Se252  1  0.42773632  0.91508986  0.69128166  1
  Se  Se253  1  0.72415987  0.26690529  0.19811160  1
  Se  Se254  1  0.74731372  0.24901829  0.69384156  1
  Se  Se255  1  0.76435397  0.58372988  0.19044082  1
  Se  Se256  1  0.74663860  0.58508514  0.69673149  1
  Se  Se257  1  0.74345057  0.92042585  0.19573024  1
  Se  Se258  1  0.75936259  0.90920132  0.68937186  1
