# generated using pymatgen
data_In86Cu29Se144
_symmetry_space_group_name_H-M   'P 1'
_cell_length_a   17.58389872
_cell_length_b   17.58508604
_cell_length_c   23.44527572
_cell_angle_alpha   90.00262183
_cell_angle_beta   89.98823612
_cell_angle_gamma   89.98914890
_symmetry_Int_Tables_number   1
_chemical_formula_structural   In86Cu29Se144
_chemical_formula_sum   'In86 Cu29 Se144'
_cell_volume   7249.61591793
_cell_formula_units_Z   1
loop_
 _symmetry_equiv_pos_site_id
 _symmetry_equiv_pos_as_xyz
  1  'x, y, z'
loop_
 _atom_site_type_symbol
 _atom_site_label
 _atom_site_symmetry_multiplicity
 _atom_site_fract_x
 _atom_site_fract_y
 _atom_site_fract_z
 _atom_site_occupancy
  In  In0  1  -0.00039784  0.16809304  0.12933658  1
  In  In1  1  -0.00773196  0.16610859  0.62328887  1
  In  In2  1  0.00240244  0.48639338  0.13369646  1
  In  In3  1  0.01263087  0.51217956  0.61355402  1
  In  In4  1  0.00405356  0.84678953  0.12613110  1
  In  In5  1  0.00881299  0.81750613  0.63655777  1
  In  In6  1  0.33135877  0.16812271  0.13592541  1
  In  In7  1  0.33624730  0.16042125  0.62341860  1
  In  In8  1  0.32402000  0.50870679  0.13507585  1
  In  In9  1  0.33824992  0.50695718  0.62429146  1
  In  In10  1  0.33814057  0.83566092  0.13054063  1
  In  In11  1  0.32979520  0.83072913  0.62303427  1
  In  In12  1  0.66987574  0.15400470  0.12469226  1
  In  In13  1  0.66994260  0.16477641  0.61537576  1
  In  In14  1  0.67346397  0.52253515  0.13421086  1
  In  In15  1  0.65849750  0.49360041  0.61242801  1
  In  In16  1  0.65919292  0.82472542  0.11877480  1
  In  In17  1  0.66344305  0.84408450  0.62487694  1
  In  In18  1  0.16051734  -0.00668909  0.37214200  1
  In  In19  1  0.16813117  0.00229535  0.86646730  1
  In  In20  1  0.18464205  0.36110573  0.35632701  1
  In  In21  1  0.18180335  0.33549706  0.87193232  1
  In  In22  1  0.18664759  0.64640916  0.38452775  1
  In  In23  1  0.16061832  0.66228291  0.87389390  1
  In  In24  1  0.49398522  0.00194424  0.38009038  1
  In  In25  1  0.48380143  -0.01347474  0.87322555  1
  In  In26  1  0.46443241  0.36111314  0.40657421  1
  In  In27  1  0.48737434  0.33915446  0.87190656  1
  In  In28  1  0.49076299  0.66958113  0.37610454  1
  In  In29  1  0.50165046  0.67614738  0.87195971  1
  In  In30  1  0.84688552  0.00342698  0.37390811  1
  In  In31  1  0.84288362  -0.01194040  0.88566591  1
  In  In32  1  0.83878661  0.32974081  0.37769844  1
  In  In33  1  0.82493718  0.33414398  0.87724359  1
  In  In34  1  0.81922347  0.66628986  0.37228925  1
  In  In35  1  0.84450129  0.66853014  0.87088761  1
  In  In36  1  -0.00256865  0.16480573  0.37428226  1
  In  In37  1  0.00063283  0.15149849  0.87256971  1
  In  In38  1  0.01271600  0.48863724  0.37810275  1
  In  In39  1  0.00198029  0.51435900  0.87288325  1
  In  In40  1  0.00115905  0.84622162  0.37126539  1
  In  In41  1  -0.00854404  0.82876504  0.86614839  1
  In  In42  1  0.33871005  0.17453783  0.37638305  1
  In  In43  1  0.32990777  0.16261774  0.86637760  1
  In  In44  1  0.32775411  0.50740241  0.37451840  1
  In  In45  1  0.32567296  0.48865915  0.86656892  1
  In  In46  1  0.33333463  0.82864431  0.37470860  1
  In  In47  1  0.34384575  0.84196499  0.87256283  1
  In  In48  1  0.66013377  0.17223110  0.38147001  1
  In  In49  1  0.67433019  0.17529818  0.87984893  1
  In  In50  1  0.65782204  0.50723664  0.38140439  1
  In  In51  1  0.66381189  0.50672710  0.87103731  1
  In  In52  1  0.65575438  0.81969558  0.36892876  1
  In  In53  1  0.66303428  0.83322173  0.88318699  1
  In  In54  1  0.16875521  -0.00611378  0.13568801  1
  In  In55  1  0.17748326  -0.01061081  0.63119226  1
  In  In56  1  0.16099260  0.34220130  0.13636014  1
  In  In57  1  0.18165661  0.35176939  0.61436397  1
  In  In58  1  0.18207727  0.66503250  0.12587381  1
  In  In59  1  0.16813926  0.66951902  0.62306149  1
  In  In60  1  0.49485729  -0.00948964  0.12813155  1
  In  In61  1  0.49116625  -0.01582529  0.61427314  1
  In  In62  1  0.48781857  0.33159577  0.13320991  1
  In  In63  1  0.48926243  0.33246853  0.61580397  1
  In  In64  1  0.48439833  0.68639144  0.14455063  1
  In  In65  1  0.47663507  0.65131122  0.61247247  1
  In  In66  1  0.84197156  0.00519894  0.11816109  1
  In  In67  1  0.83346430  0.00537345  0.62668688  1
  In  In68  1  0.85222622  0.33495887  0.12891342  1
  In  In69  1  0.83253307  0.33140562  0.61353314  1
  In  In70  1  0.81664361  0.66206798  0.13044412  1
  In  In71  1  0.84959867  0.66914922  0.62378583  1
  In  In72  1  0.17163575  0.83158506  0.00222970  1
  In  In73  1  0.65754169  0.33005362  0.73681338  1
  In  In74  1  0.65964655  -0.00548675  0.25364665  1
  In  In75  1  0.00493344  0.66600232  0.25415302  1
  In  In76  1  0.65917357  0.33459813  0.25604240  1
  In  In77  1  0.83825095  0.49965503  0.00701185  1
  In  In78  1  0.16833684  0.16417480  -0.00804786  1
  In  In79  1  0.16527383  0.17438123  0.49944226  1
  In  In80  1  0.83221032  0.83563115  0.49897954  1
  In  In81  1  0.50530150  0.50104557  -0.00320394  1
  In  In82  1  0.50480382  0.15945914  0.00096333  1
  In  In83  1  0.66944594  0.00113031  0.74470285  1
  In  In84  1  0.00678403  0.33475570  0.73676444  1
  In  In85  1  0.65936482  0.66696971  0.75088160  1
  Cu  Cu86  1  0.32641862  0.33517290  0.00163723  1
  Cu  Cu87  1  0.16036718  0.16473855  0.25409154  1
  Cu  Cu88  1  0.67142156  -0.00309528  0.00185448  1
  Cu  Cu89  1  0.66549107  0.67157599  0.00259577  1
  Cu  Cu90  1  0.00012381  -0.00210604  -0.00130155  1
  Cu  Cu91  1  0.84353556  0.16032622  0.75180403  1
  Cu  Cu92  1  0.17350544  0.16684361  0.74555553  1
  Cu  Cu93  1  0.00040431  0.33137082  0.49572373  1
  Cu  Cu94  1  0.83668726  0.16783547  0.24953993  1
  Cu  Cu95  1  0.16893093  0.82857054  0.75157240  1
  Cu  Cu96  1  0.16740785  0.50722048  0.74203516  1
  Cu  Cu97  1  0.66069192  0.66800807  0.49599116  1
  Cu  Cu98  1  0.67171107  0.33244956  0.49589895  1
  Cu  Cu99  1  -0.00010866  0.66691379  -0.00404126  1
  Cu  Cu100  1  0.49476287  0.16316962  0.74506612  1
  Cu  Cu101  1  0.67597432  0.32869281  0.00397970  1
  Cu  Cu102  1  0.00101092  -0.00106701  0.49776139  1
  Cu  Cu103  1  0.32989127  -0.00565866  0.50123540  1
  Cu  Cu104  1  0.66732336  0.00019366  0.49756186  1
  Cu  Cu105  1  0.33909414  0.66440258  0.00650020  1
  Cu  Cu106  1  0.49107082  0.82918288  0.74434131  1
  Cu  Cu107  1  0.00567194  0.33130666  0.00711373  1
  Cu  Cu108  1  0.49799323  0.50328510  0.26198266  1
  Cu  Cu109  1  0.49310609  0.17190452  0.26174650  1
  Cu  Cu110  1  0.33002842  0.66935465  0.49970492  1
  Cu  Cu111  1  0.17064664  0.83227520  0.25326216  1
  Cu  Cu112  1  0.83279680  0.83740855  0.24828199  1
  Cu  Cu113  1  0.00239938  0.66765539  0.49932914  1
  Cu  Cu114  1  0.83151275  0.50500025  0.74356674  1
  Se  Se115  1  0.08347918  0.07534184  0.05862026  1
  Se  Se116  1  0.08262268  0.07635099  0.56020306  1
  Se  Se117  1  0.08614355  0.41718191  0.05786601  1
  Se  Se118  1  0.08337004  0.41598887  0.54826244  1
  Se  Se119  1  0.07846820  0.74237255  0.06178385  1
  Se  Se120  1  0.08222245  0.75281295  0.55406736  1
  Se  Se121  1  0.40854342  0.08085976  0.06123131  1
  Se  Se122  1  0.41533198  0.07938663  0.55123684  1
  Se  Se123  1  0.41238963  0.41454695  0.05765084  1
  Se  Se124  1  0.41780874  0.42704322  0.55122420  1
  Se  Se125  1  0.41770983  0.75155300  0.05906573  1
  Se  Se126  1  0.41534465  0.75639080  0.54965279  1
  Se  Se127  1  0.75330350  0.08538306  0.05058567  1
  Se  Se128  1  0.75492644  0.07918507  0.55087009  1
  Se  Se129  1  0.74294004  0.41457012  0.06744628  1
  Se  Se130  1  0.75386094  0.41972384  0.54821207  1
  Se  Se131  1  0.75576024  0.74938301  0.05395098  1
  Se  Se132  1  0.74275043  0.74386275  0.55964728  1
  Se  Se133  1  0.24968595  0.25147008  0.06036460  1
  Se  Se134  1  0.26622668  0.25903451  0.55222245  1
  Se  Se135  1  0.25256454  0.57857630  0.05270360  1
  Se  Se136  1  0.24843556  0.58438757  0.55467496  1
  Se  Se137  1  0.25689387  0.92615684  0.05961588  1
  Se  Se138  1  0.24443224  0.91123455  0.55231448  1
  Se  Se139  1  0.58760923  0.25731901  0.06355830  1
  Se  Se140  1  0.58780602  0.25448252  0.55418609  1
  Se  Se141  1  0.58279516  0.59435959  0.06248877  1
  Se  Se142  1  0.57762242  0.58359586  0.54896797  1
  Se  Se143  1  0.58344516  0.92102412  0.05645214  1
  Se  Se144  1  0.58531144  0.91234174  0.54704930  1
  Se  Se145  1  0.91981684  0.24753364  0.05545791  1
  Se  Se146  1  0.91864363  0.24656325  0.54922241  1
  Se  Se147  1  0.92645570  0.59100151  0.06592250  1
  Se  Se148  1  0.91500144  0.58391144  0.54836784  1
  Se  Se149  1  0.91795879  0.91258709  0.05117318  1
  Se  Se150  1  0.92477759  0.91765161  0.56173286  1
  Se  Se151  1  0.08471877  0.26147737  0.43232996  1
  Se  Se152  1  0.07669974  0.25825815  0.93490585  1
  Se  Se153  1  0.08431265  0.58044247  0.44778628  1
  Se  Se154  1  0.08513630  0.58068247  0.94911798  1
  Se  Se155  1  0.08393179  0.91384656  0.44783075  1
  Se  Se156  1  0.08225790  0.91902639  0.93876269  1
  Se  Se157  1  0.42605443  0.23466998  0.45249566  1
  Se  Se158  1  0.40843571  0.25231193  0.94432122  1
  Se  Se159  1  0.41351853  0.58440010  0.44706933  1
  Se  Se160  1  0.41144706  0.58669492  0.93800828  1
  Se  Se161  1  0.41382150  0.91285094  0.44595360  1
  Se  Se162  1  0.42177715  0.90783416  0.95181995  1
  Se  Se163  1  0.75480485  0.24617513  0.44599758  1
  Se  Se164  1  0.76059799  0.24695534  0.95236111  1
  Se  Se165  1  0.74973284  0.58543656  0.44867093  1
  Se  Se166  1  0.74586545  0.58839150  0.94328298  1
  Se  Se167  1  0.74343662  0.92087959  0.43282373  1
  Se  Se168  1  0.75240093  0.90971385  0.95023125  1
  Se  Se169  1  0.25094906  0.07732320  0.44146080  1
  Se  Se170  1  0.26265251  0.07020511  0.94125708  1
  Se  Se171  1  0.24587542  0.42233350  0.44315742  1
  Se  Se172  1  0.24750570  0.42091176  0.94728315  1
  Se  Se173  1  0.24577185  0.75330473  0.44717480  1
  Se  Se174  1  0.25924140  0.74173882  0.94094343  1
  Se  Se175  1  0.58115036  0.08310947  0.44706314  1
  Se  Se176  1  0.59174757  0.07140196  0.93565043  1
  Se  Se177  1  0.58406147  0.42088360  0.45291516  1
  Se  Se178  1  0.59615639  0.40288304  0.93949872  1
  Se  Se179  1  0.57637883  0.75247986  0.44639682  1
  Se  Se180  1  0.57784389  0.74959785  0.94886237  1
  Se  Se181  1  0.91738593  0.08533633  0.44889310  1
  Se  Se182  1  0.91750843  0.08635435  0.94904873  1
  Se  Se183  1  0.91697036  0.41831127  0.44567672  1
  Se  Se184  1  0.92642702  0.41138565  0.94161630  1
  Se  Se185  1  0.92166621  0.74624089  0.43727761  1
  Se  Se186  1  0.91765676  0.75077405  0.94442907  1
  Se  Se187  1  0.24700437  0.24494038  0.30642911  1
  Se  Se188  1  0.25421393  0.25237192  0.79892814  1
  Se  Se189  1  0.25099482  0.58513491  0.29873676  1
  Se  Se190  1  0.24705442  0.58379836  0.80498070  1
  Se  Se191  1  0.25257761  0.91753307  0.30627559  1
  Se  Se192  1  0.25195271  0.91427655  0.80381015  1
  Se  Se193  1  0.56671422  0.25711794  0.32078898  1
  Se  Se194  1  0.57674598  0.24057868  0.80695479  1
  Se  Se195  1  0.58290792  0.58953636  0.30889791  1
  Se  Se196  1  0.56543549  0.57061545  0.80319041  1
  Se  Se197  1  0.56428550  0.90470131  0.30524289  1
  Se  Se198  1  0.57842725  0.90694333  0.80287978  1
  Se  Se199  1  0.91764890  0.25043005  0.30430027  1
  Se  Se200  1  0.91635699  0.25339509  0.80702878  1
  Se  Se201  1  0.91671158  0.57987849  0.31615573  1
  Se  Se202  1  0.91658310  0.58301708  0.79863862  1
  Se  Se203  1  0.91713239  0.92107728  0.29869737  1
  Se  Se204  1  0.92498043  0.93233060  0.80592202  1
  Se  Se205  1  0.07727607  0.07915967  0.30581899  1
  Se  Se206  1  0.08687145  0.08667203  0.79793366  1
  Se  Se207  1  0.07712191  0.41746227  0.29471331  1
  Se  Se208  1  0.08885274  0.42335185  0.80457986  1
  Se  Se209  1  0.09417300  0.75284173  0.31616756  1
  Se  Se210  1  0.08220948  0.74670294  0.80413127  1
  Se  Se211  1  0.41197072  0.08092984  0.30867047  1
  Se  Se212  1  0.41783507  0.07915049  0.80262221  1
  Se  Se213  1  0.41551904  0.41610898  0.31140927  1
  Se  Se214  1  0.41300872  0.41264747  0.79791053  1
  Se  Se215  1  0.40070635  0.73653824  0.30395306  1
  Se  Se216  1  0.41197869  0.74778876  0.80236775  1
  Se  Se217  1  0.75138886  0.09078305  0.30842907  1
  Se  Se218  1  0.75635695  0.08794258  0.81119114  1
  Se  Se219  1  0.74954423  0.42153402  0.31503737  1
  Se  Se220  1  0.75202993  0.42188620  0.80090383  1
  Se  Se221  1  0.74978344  0.75330802  0.29948718  1
  Se  Se222  1  0.75062238  0.75635729  0.80973385  1
  Se  Se223  1  0.24697125  0.08332480  0.20109598  1
  Se  Se224  1  0.25711318  0.07982260  0.69579534  1
  Se  Se225  1  0.27051863  0.39864506  0.19520211  1
  Se  Se226  1  0.25322830  0.42143208  0.69439379  1
  Se  Se227  1  0.25237867  0.75179470  0.19674811  1
  Se  Se228  1  0.25131293  0.74783711  0.69490643  1
  Se  Se229  1  0.57148381  0.09479794  0.19733068  1
  Se  Se230  1  0.57628144  0.08638812  0.68429898  1
  Se  Se231  1  0.57433042  0.42997430  0.19209882  1
  Se  Se232  1  0.56826741  0.42748635  0.68820037  1
  Se  Se233  1  0.60265811  0.73756989  0.19621515  1
  Se  Se234  1  0.57386000  0.75268890  0.68437101  1
  Se  Se235  1  0.91607130  0.08129902  0.19526723  1
  Se  Se236  1  0.92406612  0.07830851  0.69664646  1
  Se  Se237  1  0.90888788  0.42372573  0.20328157  1
  Se  Se238  1  0.91133939  0.42530156  0.68289417  1
  Se  Se239  1  0.91462550  0.75523423  0.18999293  1
  Se  Se240  1  0.91005600  0.75059732  0.70124475  1
  Se  Se241  1  0.08025760  0.24978069  0.19844560  1
  Se  Se242  1  0.10045926  0.24563446  0.67943080  1
  Se  Se243  1  0.09493483  0.57830159  0.19275862  1
  Se  Se244  1  0.07972858  0.58912252  0.69299244  1
  Se  Se245  1  0.08183194  0.91574516  0.20411657  1
  Se  Se246  1  0.08644292  0.91370293  0.69824804  1
  Se  Se247  1  0.41040420  0.25329366  0.20540853  1
  Se  Se248  1  0.41676214  0.24930688  0.69083210  1
  Se  Se249  1  0.41579543  0.58186504  0.20241303  1
  Se  Se250  1  0.40649608  0.59636531  0.69773643  1
  Se  Se251  1  0.41349645  0.92112370  0.20134725  1
  Se  Se252  1  0.41156059  0.91793401  0.69272853  1
  Se  Se253  1  0.75063782  0.24535530  0.19182496  1
  Se  Se254  1  0.76206311  0.23885940  0.69091029  1
  Se  Se255  1  0.76478050  0.57502041  0.20927033  1
  Se  Se256  1  0.74634185  0.57954725  0.68459420  1
  Se  Se257  1  0.75236680  0.91654985  0.18661908  1
  Se  Se258  1  0.76353262  0.90486357  0.69541730  1
