# generated using pymatgen
data_In86Cu29Se144
_symmetry_space_group_name_H-M   'P 1'
_cell_length_a   17.65455168
_cell_length_b   17.65329467
_cell_length_c   23.52937079
_cell_angle_alpha   90.00121577
_cell_angle_beta   89.99638776
_cell_angle_gamma   90.00306170
_symmetry_Int_Tables_number   1
_chemical_formula_structural   In86Cu29Se144
_chemical_formula_sum   'In86 Cu29 Se144'
_cell_volume   7333.18727847
_cell_formula_units_Z   1
loop_
 _symmetry_equiv_pos_site_id
 _symmetry_equiv_pos_as_xyz
  1  'x, y, z'
loop_
 _atom_site_type_symbol
 _atom_site_label
 _atom_site_symmetry_multiplicity
 _atom_site_fract_x
 _atom_site_fract_y
 _atom_site_fract_z
 _atom_site_occupancy
  In  In0  1  -0.00863070  0.16007731  0.11783481  1
  In  In1  1  -0.00328895  0.16069769  0.63234427  1
  In  In2  1  -0.02076237  0.48048205  0.10221946  1
  In  In3  1  0.00483434  0.49824737  0.63730950  1
  In  In4  1  -0.00048327  0.83553805  0.12162840  1
  In  In5  1  -0.00423210  0.83195888  0.63019543  1
  In  In6  1  0.31807152  0.16534445  0.12603825  1
  In  In7  1  0.33699776  0.16409121  0.62363615  1
  In  In8  1  0.32186349  0.49689844  0.12220908  1
  In  In9  1  0.31867079  0.49582215  0.62834622  1
  In  In10  1  0.34110448  0.83899141  0.12124697  1
  In  In11  1  0.33547411  0.83796196  0.61477555  1
  In  In12  1  0.69310785  0.14239050  0.13592306  1
  In  In13  1  0.65567005  0.16049852  0.62144098  1
  In  In14  1  0.67748386  0.48930913  0.13661174  1
  In  In15  1  0.67018120  0.49507992  0.62302972  1
  In  In16  1  0.66310235  0.84439258  0.12535323  1
  In  In17  1  0.68306164  0.85196163  0.61328676  1
  In  In18  1  0.15237987  -0.00954649  0.36006968  1
  In  In19  1  0.15356627  0.01331125  0.88535283  1
  In  In20  1  0.16539317  0.33526606  0.37479873  1
  In  In21  1  0.16004108  0.33170493  0.87813172  1
  In  In22  1  0.17550011  0.66838493  0.37038640  1
  In  In23  1  0.15529452  0.68110984  0.88225973  1
  In  In24  1  0.49929500  0.00374583  0.37381897  1
  In  In25  1  0.50393239  -0.00574083  0.87768190  1
  In  In26  1  0.50270462  0.31942176  0.37655294  1
  In  In27  1  0.50005095  0.33680917  0.86893341  1
  In  In28  1  0.51717248  0.67338739  0.37142872  1
  In  In29  1  0.51159223  0.67018138  0.87485947  1
  In  In30  1  0.83318269  -0.00484467  0.36698070  1
  In  In31  1  0.83290212  -0.00443972  0.87565881  1
  In  In32  1  0.83919433  0.33330380  0.36806802  1
  In  In33  1  0.89056882  0.30575996  0.93126920  1
  In  In34  1  0.83866193  0.68680995  0.36897683  1
  In  In35  1  0.84000703  0.65673343  0.88498726  1
  In  In36  1  0.00022777  0.16728117  0.36905406  1
  In  In37  1  0.00151330  0.16319626  0.87319626  1
  In  In38  1  0.00984192  0.49237003  0.36934887  1
  In  In39  1  -0.00239438  0.49885659  0.88056947  1
  In  In40  1  -0.00884181  0.85355412  0.39610782  1
  In  In41  1  -0.00327670  0.83473839  0.87494164  1
  In  In42  1  0.34985984  0.16743095  0.37984041  1
  In  In43  1  0.31761384  0.16690137  0.87368970  1
  In  In44  1  0.32281050  0.50090093  0.37283405  1
  In  In45  1  0.33453888  0.48241572  0.86753611  1
  In  In46  1  0.32130921  0.84877197  0.37949667  1
  In  In47  1  0.33418096  0.83366406  0.88132129  1
  In  In48  1  0.66495302  0.15571912  0.36584991  1
  In  In49  1  0.69442884  0.15946748  0.88341114  1
  In  In50  1  0.67634734  0.50426212  0.36145278  1
  In  In51  1  0.67370792  0.50112955  0.87872243  1
  In  In52  1  0.66500770  0.83838540  0.37303932  1
  In  In53  1  0.66359546  0.84278972  0.88720420  1
  In  In54  1  0.16238667  -0.00157668  0.12469189  1
  In  In55  1  0.15709808  -0.00976904  0.62443319  1
  In  In56  1  0.13075449  0.30481734  0.08751854  1
  In  In57  1  0.16115228  0.33113664  0.63342827  1
  In  In58  1  0.15777288  0.65815888  0.11421617  1
  In  In59  1  0.15658252  0.66660504  0.62827744  1
  In  In60  1  0.51152087  -0.01507184  0.13643361  1
  In  In61  1  0.50424552  0.00785932  0.61812285  1
  In  In62  1  0.50695028  0.34002674  0.12613400  1
  In  In63  1  0.49899872  0.31690747  0.61983650  1
  In  In64  1  0.50547627  0.68628115  0.12569828  1
  In  In65  1  0.49209217  0.67629949  0.62206819  1
  In  In66  1  0.83125478  0.00337207  0.11780404  1
  In  In67  1  0.85023690  -0.01303861  0.64832846  1
  In  In68  1  0.83664666  0.32560144  0.12163881  1
  In  In69  1  0.83918064  0.32998182  0.63032688  1
  In  In70  1  0.82498934  0.67092342  0.12520519  1
  In  In71  1  0.82935205  0.67970985  0.62859572  1
  In  In72  1  0.32750486  0.66497929  0.74655122  1
  In  In73  1  0.50183496  0.50154112  0.50165502  1
  In  In74  1  0.32643578  0.00364767  0.74741198  1
  In  In75  1  0.16644566  0.50431470  0.50132070  1
  In  In76  1  0.50026203  0.50889021  -0.00312973  1
  In  In77  1  0.84010578  0.50590308  0.49277840  1
  In  In78  1  -0.00253119  0.67026999  0.24132925  1
  In  In79  1  0.16616807  0.16161736  0.50505151  1
  In  In80  1  0.83259144  0.16041089  0.50256203  1
  In  In81  1  0.33840321  0.66956796  0.24402897  1
  In  In82  1  0.67615336  0.32493374  0.76197205  1
  In  In83  1  0.66682528  0.66669870  0.75137559  1
  In  In84  1  0.32740539  0.33283690  0.25283283  1
  In  In85  1  0.50278125  0.16059020  0.00533758  1
  Cu  Cu86  1  0.66117814  0.67541103  0.00637556  1
  Cu  Cu87  1  0.66655642  0.33133400  0.49586723  1
  Cu  Cu88  1  0.50091455  0.16474004  0.74455685  1
  Cu  Cu89  1  0.84062973  0.49724880  0.75887953  1
  Cu  Cu90  1  0.84180619  0.49498657  0.24166717  1
  Cu  Cu91  1  0.33528898  0.00573234  0.49784131  1
  Cu  Cu92  1  0.50765678  0.83688196  0.75021495  1
  Cu  Cu93  1  0.50184133  0.84042630  0.25145226  1
  Cu  Cu94  1  0.83410275  0.82760417  0.75497882  1
  Cu  Cu95  1  0.67127730  0.33092823  0.00941825  1
  Cu  Cu96  1  0.16015140  0.84035475  0.75313574  1
  Cu  Cu97  1  0.00070631  -0.00552027  -0.00012061  1
  Cu  Cu98  1  0.00013448  0.67274323  -0.00091887  1
  Cu  Cu99  1  0.50070630  0.48518872  0.74341826  1
  Cu  Cu100  1  0.50266148  0.16925351  0.25208974  1
  Cu  Cu101  1  0.33021823  0.67019625  -0.00000120  1
  Cu  Cu102  1  0.00056274  0.67516389  0.50578053  1
  Cu  Cu103  1  0.33406580  -0.00462352  0.00278207  1
  Cu  Cu104  1  0.66790992  0.68081839  0.49752741  1
  Cu  Cu105  1  0.32768642  0.33220348  -0.00685254  1
  Cu  Cu106  1  0.16151333  0.49767100  0.75628069  1
  Cu  Cu107  1  0.33973288  0.67617850  0.49492866  1
  Cu  Cu108  1  0.84084267  0.16813879  0.24523615  1
  Cu  Cu109  1  0.15813473  0.16535027  0.24035822  1
  Cu  Cu110  1  0.66362065  0.00335565  0.49299166  1
  Cu  Cu111  1  0.50265093  0.50108143  0.24902538  1
  Cu  Cu112  1  0.16261695  0.83297724  0.24585105  1
  Cu  Cu113  1  0.15496258  0.48696072  0.23827090  1
  Cu  Cu114  1  0.15814820  0.17467326  0.75594592  1
  Se  Se115  1  0.08241465  0.07921126  0.05342928  1
  Se  Se116  1  0.06786374  0.07308903  0.55665078  1
  Se  Se117  1  0.09995856  0.43684360  0.04984595  1
  Se  Se118  1  0.07735246  0.41420006  0.56007382  1
  Se  Se119  1  0.08430568  0.75471336  0.05268241  1
  Se  Se120  1  0.08534800  0.75463179  0.55942058  1
  Se  Se121  1  0.41130311  0.07514236  0.06627603  1
  Se  Se122  1  0.41832479  0.08897219  0.55124910  1
  Se  Se123  1  0.41154583  0.40943447  0.05296112  1
  Se  Se124  1  0.41091334  0.41561964  0.56142451  1
  Se  Se125  1  0.41634997  0.74936010  0.05268056  1
  Se  Se126  1  0.42278541  0.75794661  0.54799006  1
  Se  Se127  1  0.75989296  0.09448045  0.04730420  1
  Se  Se128  1  0.74456070  0.07023446  0.56121883  1
  Se  Se129  1  0.75284269  0.41852778  0.05904569  1
  Se  Se130  1  0.75034501  0.40893267  0.55358287  1
  Se  Se131  1  0.74607389  0.75719429  0.05763026  1
  Se  Se132  1  0.75699593  0.75417938  0.55173923  1
  Se  Se133  1  0.25280674  0.24339596  0.04682059  1
  Se  Se134  1  0.25249882  0.25906475  0.56075143  1
  Se  Se135  1  0.25132027  0.58136646  0.05020146  1
  Se  Se136  1  0.26053884  0.59924802  0.55762553  1
  Se  Se137  1  0.24849395  0.91544985  0.05686180  1
  Se  Se138  1  0.25103432  0.92583577  0.55395989  1
  Se  Se139  1  0.59237733  0.24813392  0.06673380  1
  Se  Se140  1  0.58541500  0.24681846  0.54794773  1
  Se  Se141  1  0.58907621  0.58586732  0.06541102  1
  Se  Se142  1  0.59539348  0.59538890  0.55910828  1
  Se  Se143  1  0.57183597  0.91327059  0.05404406  1
  Se  Se144  1  0.58221370  0.91943174  0.55117667  1
  Se  Se145  1  0.92227660  0.25422027  0.04883422  1
  Se  Se146  1  0.92423623  0.25458244  0.55804107  1
  Se  Se147  1  0.91452135  0.59644016  0.05570458  1
  Se  Se148  1  0.92364990  0.58868745  0.56340518  1
  Se  Se149  1  0.91492819  0.91476192  0.05279182  1
  Se  Se150  1  0.90835625  0.91351656  0.56515780  1
  Se  Se151  1  0.07870836  0.25355117  0.44311986  1
  Se  Se152  1  0.08682987  0.24114118  0.94516945  1
  Se  Se153  1  0.07452039  0.59418174  0.44098654  1
  Se  Se154  1  0.08203671  0.58701755  0.94636771  1
  Se  Se155  1  0.10417351  0.91461497  0.44634894  1
  Se  Se156  1  0.08458466  0.91199286  0.94555279  1
  Se  Se157  1  0.41257466  0.26181551  0.44907147  1
  Se  Se158  1  0.41635797  0.25266505  0.93961340  1
  Se  Se159  1  0.41264259  0.58926235  0.43597272  1
  Se  Se160  1  0.40640052  0.59201965  0.93373720  1
  Se  Se161  1  0.41713491  0.92061980  0.44392627  1
  Se  Se162  1  0.41856997  0.91732125  0.94664054  1
  Se  Se163  1  0.74800149  0.25192229  0.43722254  1
  Se  Se164  1  0.75499300  0.24967044  0.95705501  1
  Se  Se165  1  0.74399616  0.59452887  0.43891595  1
  Se  Se166  1  0.73878711  0.59044690  0.95003984  1
  Se  Se167  1  0.74910853  0.92208976  0.44080358  1
  Se  Se168  1  0.76559336  0.90558528  0.94806938  1
  Se  Se169  1  0.25102850  0.07943166  0.43585924  1
  Se  Se170  1  0.25404577  0.08174025  0.94923150  1
  Se  Se171  1  0.25849370  0.40904914  0.44652631  1
  Se  Se172  1  0.24888376  0.41932610  0.94194026  1
  Se  Se173  1  0.24832022  0.75055236  0.44291374  1
  Se  Se174  1  0.24813319  0.75533761  0.94818309  1
  Se  Se175  1  0.58218195  0.08937546  0.44250456  1
  Se  Se176  1  0.59435548  0.07621756  0.94460001  1
  Se  Se177  1  0.59483599  0.41969490  0.43766980  1
  Se  Se178  1  0.58989625  0.40578800  0.94573667  1
  Se  Se179  1  0.58036593  0.75926105  0.44632710  1
  Se  Se180  1  0.57750814  0.75268283  0.94910281  1
  Se  Se181  1  0.92180977  0.07732414  0.43859421  1
  Se  Se182  1  0.92262950  0.07638530  0.94226042  1
  Se  Se183  1  0.92940867  0.40817569  0.44231744  1
  Se  Se184  1  0.90366907  0.44548660  0.95661829  1
  Se  Se185  1  0.91385753  0.75078073  0.45055151  1
  Se  Se186  1  0.91532642  0.75349023  0.94598827  1
  Se  Se187  1  0.24032103  0.23562803  0.30891652  1
  Se  Se188  1  0.24658670  0.25551071  0.80468806  1
  Se  Se189  1  0.23876568  0.57095561  0.29450126  1
  Se  Se190  1  0.24315023  0.58123199  0.81290237  1
  Se  Se191  1  0.24925398  0.91491273  0.29730202  1
  Se  Se192  1  0.24410446  0.91570647  0.81326914  1
  Se  Se193  1  0.58770256  0.25230112  0.30302041  1
  Se  Se194  1  0.57959007  0.23285117  0.81452850  1
  Se  Se195  1  0.58564918  0.58671834  0.29946895  1
  Se  Se196  1  0.57496176  0.56764902  0.80480531  1
  Se  Se197  1  0.58391075  0.92458881  0.30475274  1
  Se  Se198  1  0.58710282  0.91515654  0.80799018  1
  Se  Se199  1  0.92219234  0.25246807  0.29987675  1
  Se  Se200  1  0.90767875  0.26120433  0.82788091  1
  Se  Se201  1  0.91431632  0.57619798  0.30849805  1
  Se  Se202  1  0.91936232  0.58588412  0.80882822  1
  Se  Se203  1  0.92236884  0.90615507  0.30937144  1
  Se  Se204  1  0.91682493  0.91550951  0.80374123  1
  Se  Se205  1  0.07617947  0.08392205  0.29752719  1
  Se  Se206  1  0.08305286  0.07900204  0.80255216  1
  Se  Se207  1  0.08201394  0.40473354  0.29951515  1
  Se  Se208  1  0.07770569  0.41558851  0.80955653  1
  Se  Se209  1  0.08660880  0.75187948  0.30726470  1
  Se  Se210  1  0.08057145  0.75200572  0.80408389  1
  Se  Se211  1  0.41674121  0.08681964  0.30319181  1
  Se  Se212  1  0.41940970  0.08835086  0.80951926  1
  Se  Se213  1  0.42220887  0.42479084  0.31040047  1
  Se  Se214  1  0.41464300  0.40541182  0.79498929  1
  Se  Se215  1  0.41886842  0.75798680  0.31061818  1
  Se  Se216  1  0.42368892  0.75376635  0.80474863  1
  Se  Se217  1  0.75756340  0.08466447  0.29946407  1
  Se  Se218  1  0.75528861  0.08095022  0.80490271  1
  Se  Se219  1  0.75730710  0.41489630  0.29933797  1
  Se  Se220  1  0.76366909  0.41650322  0.81848146  1
  Se  Se221  1  0.73737193  0.74485413  0.30631501  1
  Se  Se222  1  0.75214778  0.75014190  0.81616539  1
  Se  Se223  1  0.24624944  0.07911322  0.19640366  1
  Se  Se224  1  0.23349240  0.09449643  0.68994371  1
  Se  Se225  1  0.23785767  0.40580604  0.18320546  1
  Se  Se226  1  0.24443622  0.41620144  0.70065442  1
  Se  Se227  1  0.24046378  0.74939339  0.18558828  1
  Se  Se228  1  0.24491137  0.76548858  0.69133587  1
  Se  Se229  1  0.58223126  0.08645235  0.19616515  1
  Se  Se230  1  0.58264280  0.07809292  0.69583415  1
  Se  Se231  1  0.58518419  0.41182397  0.20157757  1
  Se  Se232  1  0.58614379  0.40792628  0.68863841  1
  Se  Se233  1  0.58603449  0.75734259  0.19903456  1
  Se  Se234  1  0.58259136  0.75654387  0.68714026  1
  Se  Se235  1  0.91723757  0.08018185  0.19144150  1
  Se  Se236  1  0.90402855  0.09940795  0.70324455  1
  Se  Se237  1  0.92213660  0.41069470  0.18929137  1
  Se  Se238  1  0.91623030  0.41430475  0.69929764  1
  Se  Se239  1  0.90320314  0.76458827  0.19327431  1
  Se  Se240  1  0.91718043  0.74523677  0.70099624  1
  Se  Se241  1  0.08119291  0.24749787  0.18128484  1
  Se  Se242  1  0.07410176  0.25191829  0.69855544  1
  Se  Se243  1  0.07570948  0.57029573  0.18241990  1
  Se  Se244  1  0.08508357  0.58659153  0.70251082  1
  Se  Se245  1  0.07876099  0.91589760  0.19381330  1
  Se  Se246  1  0.07594550  0.92018807  0.69926806  1
  Se  Se247  1  0.42018701  0.24667779  0.19049415  1
  Se  Se248  1  0.41580290  0.24699699  0.69472679  1
  Se  Se249  1  0.42492486  0.57424534  0.18432988  1
  Se  Se250  1  0.42434284  0.57344217  0.68906015  1
  Se  Se251  1  0.40999901  0.91654619  0.20013025  1
  Se  Se252  1  0.42115690  0.91265378  0.69148028  1
  Se  Se253  1  0.75320750  0.25167915  0.19509394  1
  Se  Se254  1  0.75021041  0.23996513  0.68913513  1
  Se  Se255  1  0.75473602  0.58373548  0.19864021  1
  Se  Se256  1  0.75799454  0.57040122  0.69490792  1
  Se  Se257  1  0.73460594  0.94197338  0.18814429  1
  Se  Se258  1  0.74654164  0.90907321  0.70256340  1
