# generated using pymatgen
data_In86Cu29Se144
_symmetry_space_group_name_H-M   'P 1'
_cell_length_a   17.58939560
_cell_length_b   17.59163445
_cell_length_c   23.45251986
_cell_angle_alpha   90.01022123
_cell_angle_beta   90.00059159
_cell_angle_gamma   90.00208955
_symmetry_Int_Tables_number   1
_chemical_formula_structural   In86Cu29Se144
_chemical_formula_sum   'In86 Cu29 Se144'
_cell_volume   7256.82439256
_cell_formula_units_Z   1
loop_
 _symmetry_equiv_pos_site_id
 _symmetry_equiv_pos_as_xyz
  1  'x, y, z'
loop_
 _atom_site_type_symbol
 _atom_site_label
 _atom_site_symmetry_multiplicity
 _atom_site_fract_x
 _atom_site_fract_y
 _atom_site_fract_z
 _atom_site_occupancy
  In  In0  1  -0.00926809  0.15373311  0.11979679  1
  In  In1  1  0.00531194  0.16549479  0.62411251  1
  In  In2  1  0.01622202  0.50486766  0.11918258  1
  In  In3  1  0.00607957  0.48508472  0.63918640  1
  In  In4  1  0.00053893  0.83534549  0.12203652  1
  In  In5  1  -0.00557652  0.84446189  0.63482031  1
  In  In6  1  0.32246498  0.17788983  0.13132579  1
  In  In7  1  0.33625917  0.18204374  0.62525824  1
  In  In8  1  0.32288934  0.49414156  0.12195710  1
  In  In9  1  0.32326549  0.50546403  0.63155239  1
  In  In10  1  0.33858182  0.84048752  0.11884227  1
  In  In11  1  0.31949611  0.83038695  0.63054623  1
  In  In12  1  0.68491099  0.16041372  0.13554543  1
  In  In13  1  0.67036888  0.15136003  0.62396142  1
  In  In14  1  0.67201289  0.49631611  0.13296616  1
  In  In15  1  0.68254539  0.50915195  0.62946025  1
  In  In16  1  0.66145500  0.83392874  0.11721175  1
  In  In17  1  0.67621780  0.81835437  0.62742605  1
  In  In18  1  0.17095375  0.01213963  0.36480382  1
  In  In19  1  0.15274723  0.01008057  0.88072169  1
  In  In20  1  0.17042603  0.32888372  0.38120127  1
  In  In21  1  0.16619726  0.33899017  0.87777825  1
  In  In22  1  0.15400230  0.67029427  0.37668363  1
  In  In23  1  0.16081315  0.66141944  0.87962302  1
  In  In24  1  0.48774001  0.01159179  0.36739231  1
  In  In25  1  0.49241029  -0.00827539  0.88053788  1
  In  In26  1  0.47809224  0.30527904  0.34473398  1
  In  In27  1  0.49552284  0.34454402  0.87407651  1
  In  In28  1  0.50426674  0.65854439  0.37210259  1
  In  In29  1  0.50434468  0.67433516  0.86949139  1
  In  In30  1  0.84368286  -0.00731196  0.37942808  1
  In  In31  1  0.85061365  -0.01932584  0.89215300  1
  In  In32  1  0.82399404  0.32926021  0.37316248  1
  In  In33  1  0.83851747  0.31965669  0.87779237  1
  In  In34  1  0.84087295  0.67509867  0.36638577  1
  In  In35  1  0.85195345  0.68476280  0.85810679  1
  In  In36  1  0.00824173  0.16153343  0.37761674  1
  In  In37  1  0.00165091  0.16883020  0.87188889  1
  In  In38  1  -0.00201341  0.51541197  0.37667059  1
  In  In39  1  0.01617589  0.51937612  0.86320324  1
  In  In40  1  -0.00689302  0.82499372  0.36655842  1
  In  In41  1  -0.00047290  0.83037166  0.87935715  1
  In  In42  1  0.31020754  0.15316151  0.35669895  1
  In  In43  1  0.31494317  0.17515419  0.88327344  1
  In  In44  1  0.33342719  0.48930626  0.37650864  1
  In  In45  1  0.31659054  0.48891146  0.87192407  1
  In  In46  1  0.32106912  0.84436676  0.37039048  1
  In  In47  1  0.33665248  0.82240863  0.88267587  1
  In  In48  1  0.66677576  0.17437772  0.37374001  1
  In  In49  1  0.67949550  0.16651679  0.88308324  1
  In  In50  1  0.66638897  0.49690514  0.36725874  1
  In  In51  1  0.65667937  0.50600484  0.87347287  1
  In  In52  1  0.68716541  0.83993551  0.37200816  1
  In  In53  1  0.68720320  0.82105859  0.89440766  1
  In  In54  1  0.16249222  -0.00127072  0.12277397  1
  In  In55  1  0.15646701  -0.00549538  0.62498913  1
  In  In56  1  0.18000227  0.33414991  0.11384963  1
  In  In57  1  0.16369668  0.33406472  0.62640786  1
  In  In58  1  0.15554984  0.66425497  0.11385845  1
  In  In59  1  0.16948830  0.65790373  0.63542658  1
  In  In60  1  0.50501348  -0.01585395  0.12549066  1
  In  In61  1  0.50098987  0.00931068  0.62369155  1
  In  In62  1  0.49458133  0.33459313  0.13741572  1
  In  In63  1  0.49148569  0.32304886  0.62923774  1
  In  In64  1  0.50469286  0.67999109  0.12135664  1
  In  In65  1  0.50167774  0.66214551  0.63112490  1
  In  In66  1  0.84468045  0.01723226  0.11563988  1
  In  In67  1  0.84773345  0.00759514  0.61411265  1
  In  In68  1  0.83716677  0.31647935  0.12712886  1
  In  In69  1  0.84756250  0.33182563  0.62419567  1
  In  In70  1  0.83112329  0.67181185  0.12558611  1
  In  In71  1  0.83177400  0.66853380  0.63735274  1
  In  In72  1  0.66430822  0.33826074  0.74757643  1
  In  In73  1  0.32381128  -0.00137561  0.75167626  1
  In  In74  1  0.49992551  0.16366070  0.01001942  1
  In  In75  1  0.49518026  0.16692479  0.49159757  1
  In  In76  1  0.16187253  0.83759992  0.50393087  1
  In  In77  1  0.49350161  0.50162330  0.00406639  1
  In  In78  1  0.66611217  -0.00298702  0.24948862  1
  In  In79  1  0.84187314  0.49615506  0.50514748  1
  In  In80  1  0.84369422  0.50499364  -0.00826784  1
  In  In81  1  0.33193784  0.66570229  0.23899929  1
  In  In82  1  -0.00050399  0.33638798  0.24860121  1
  In  In83  1  0.50502486  0.49430330  0.49433108  1
  In  In84  1  0.67337393  -0.00688912  0.76395975  1
  In  In85  1  0.50399520  0.83559793  0.48927229  1
  Cu  Cu86  1  0.32181809  0.33750501  0.50048781  1
  Cu  Cu87  1  0.68408808  0.66739156  0.50172084  1
  Cu  Cu88  1  0.16017729  0.84109392  0.24684885  1
  Cu  Cu89  1  0.32820017  0.66289121  -0.00073553  1
  Cu  Cu90  1  0.16848702  0.50157766  0.24472319  1
  Cu  Cu91  1  0.00141853  0.66666971  0.50223031  1
  Cu  Cu92  1  0.16588880  0.49726513  0.75287319  1
  Cu  Cu93  1  0.83545394  0.83977909  0.75448114  1
  Cu  Cu94  1  0.83656630  0.50659211  0.24882776  1
  Cu  Cu95  1  0.16185218  0.82638153  0.75644759  1
  Cu  Cu96  1  0.00637341  0.32880946  0.00050217  1
  Cu  Cu97  1  0.66300451  0.33030610  0.49115617  1
  Cu  Cu98  1  0.00267841  -0.00070851  -0.00014246  1
  Cu  Cu99  1  0.49870237  0.82908692  0.24429186  1
  Cu  Cu100  1  0.49756255  0.82737497  0.75185490  1
  Cu  Cu101  1  0.50588527  0.49974142  0.25094612  1
  Cu  Cu102  1  0.00502607  0.00095466  0.49824921  1
  Cu  Cu103  1  0.84512936  0.16393372  0.74768925  1
  Cu  Cu104  1  0.00573575  0.32758991  0.50362407  1
  Cu  Cu105  1  0.15647248  0.16736560  0.24500490  1
  Cu  Cu106  1  0.83508374  0.83245143  0.24451147  1
  Cu  Cu107  1  0.32649226  -0.00386735  0.00156048  1
  Cu  Cu108  1  0.49121549  0.50507711  0.75222822  1
  Cu  Cu109  1  0.67569781  -0.00808145  0.49957797  1
  Cu  Cu110  1  0.67163524  0.67310588  -0.00191138  1
  Cu  Cu111  1  0.49300809  0.17028448  0.75599388  1
  Cu  Cu112  1  0.32964240  0.66862731  0.51098837  1
  Cu  Cu113  1  0.67399342  0.32775565  0.00671747  1
  Cu  Cu114  1  0.16221707  0.17531477  0.75255624  1
  Se  Se115  1  0.08522919  0.08517563  0.05180521  1
  Se  Se116  1  0.08780907  0.08238348  0.55314945  1
  Se  Se117  1  0.08819229  0.41549734  0.05084381  1
  Se  Se118  1  0.08008849  0.41842178  0.55739262  1
  Se  Se119  1  0.08957516  0.76348874  0.05120294  1
  Se  Se120  1  0.07864439  0.74540916  0.56636693  1
  Se  Se121  1  0.40633525  0.07322504  0.06522465  1
  Se  Se122  1  0.40613929  0.07972154  0.55639416  1
  Se  Se123  1  0.40943123  0.40219235  0.05739859  1
  Se  Se124  1  0.41162585  0.41198384  0.55859175  1
  Se  Se125  1  0.41288355  0.74633069  0.05181084  1
  Se  Se126  1  0.41679676  0.75133728  0.56042411  1
  Se  Se127  1  0.73903350  0.08039663  0.05432285  1
  Se  Se128  1  0.75341466  0.08384964  0.54943173  1
  Se  Se129  1  0.75557710  0.41608408  0.05883304  1
  Se  Se130  1  0.73977650  0.40682340  0.55715973  1
  Se  Se131  1  0.75416084  0.75392872  0.05316868  1
  Se  Se132  1  0.76501782  0.74875081  0.55637462  1
  Se  Se133  1  0.25305158  0.24174295  0.04751901  1
  Se  Se134  1  0.24570487  0.25032139  0.55536051  1
  Se  Se135  1  0.24730800  0.57928221  0.05295578  1
  Se  Se136  1  0.24457003  0.58275207  0.55731602  1
  Se  Se137  1  0.24284137  0.91193560  0.05359924  1
  Se  Se138  1  0.26049608  0.92641359  0.55735020  1
  Se  Se139  1  0.58985995  0.25643075  0.06808676  1
  Se  Se140  1  0.58781313  0.25199080  0.55845041  1
  Se  Se141  1  0.59583830  0.58736911  0.05785344  1
  Se  Se142  1  0.59442777  0.58859847  0.55504592  1
  Se  Se143  1  0.57431289  0.90954932  0.04822281  1
  Se  Se144  1  0.59076744  0.91895401  0.56091914  1
  Se  Se145  1  0.91829843  0.24794417  0.05113739  1
  Se  Se146  1  0.91840209  0.24507547  0.55345661  1
  Se  Se147  1  0.92623512  0.59405336  0.05638996  1
  Se  Se148  1  0.92583019  0.58736508  0.56674843  1
  Se  Se149  1  0.91580149  0.91884737  0.05280666  1
  Se  Se150  1  0.92498232  0.91239175  0.55115360  1
  Se  Se151  1  0.08743263  0.24525232  0.44784964  1
  Se  Se152  1  0.08661889  0.24632509  0.94280759  1
  Se  Se153  1  0.08565301  0.58336171  0.45053214  1
  Se  Se154  1  0.07810568  0.58079841  0.94953648  1
  Se  Se155  1  0.07954039  0.91996486  0.43388927  1
  Se  Se156  1  0.08487157  0.91372289  0.94727281  1
  Se  Se157  1  0.40511474  0.26129874  0.43792394  1
  Se  Se158  1  0.41820206  0.25432811  0.94291174  1
  Se  Se159  1  0.40787871  0.59271283  0.44527143  1
  Se  Se160  1  0.41096122  0.58696519  0.93652496  1
  Se  Se161  1  0.40614680  0.92830156  0.44141017  1
  Se  Se162  1  0.41230387  0.91289508  0.95099773  1
  Se  Se163  1  0.75275432  0.24526795  0.44769220  1
  Se  Se164  1  0.75863131  0.24673002  0.95412196  1
  Se  Se165  1  0.75363153  0.58137820  0.43883003  1
  Se  Se166  1  0.74634023  0.59186504  0.93618571  1
  Se  Se167  1  0.76211377  0.90866952  0.45057820  1
  Se  Se168  1  0.73479948  0.93609092  0.95001424  1
  Se  Se169  1  0.25000790  0.08376810  0.44054392  1
  Se  Se170  1  0.24520790  0.08202743  0.94982588  1
  Se  Se171  1  0.24243700  0.42482507  0.44821664  1
  Se  Se172  1  0.25318343  0.41114136  0.95025324  1
  Se  Se173  1  0.25619693  0.74675576  0.44392913  1
  Se  Se174  1  0.24412820  0.74724646  0.94782038  1
  Se  Se175  1  0.59135086  0.07015083  0.44022659  1
  Se  Se176  1  0.58471244  0.07937447  0.94178699  1
  Se  Se177  1  0.58047500  0.40114705  0.42854559  1
  Se  Se178  1  0.59253800  0.40865742  0.94850953  1
  Se  Se179  1  0.59948641  0.73981356  0.43893318  1
  Se  Se180  1  0.57805911  0.74919064  0.94741675  1
  Se  Se181  1  0.91945354  0.08396538  0.44643195  1
  Se  Se182  1  0.92221532  0.08756598  0.94595153  1
  Se  Se183  1  0.92708247  0.40669666  0.43947721  1
  Se  Se184  1  0.93139442  0.40963035  0.93648951  1
  Se  Se185  1  0.92071509  0.74570955  0.44377923  1
  Se  Se186  1  0.90284750  0.75802607  0.94392089  1
  Se  Se187  1  0.23699826  0.25577163  0.29857352  1
  Se  Se188  1  0.24861458  0.25478274  0.80547583  1
  Se  Se189  1  0.24669670  0.58196232  0.30899188  1
  Se  Se190  1  0.24614724  0.58440790  0.80647256  1
  Se  Se191  1  0.24939405  0.92317402  0.29579052  1
  Se  Se192  1  0.24142013  0.90972289  0.81638615  1
  Se  Se193  1  0.59589273  0.25032586  0.29737008  1
  Se  Se194  1  0.58183197  0.24413341  0.81362125  1
  Se  Se195  1  0.58816150  0.58697931  0.30016094  1
  Se  Se196  1  0.58101216  0.58582063  0.80034707  1
  Se  Se197  1  0.57348807  0.90672490  0.31231730  1
  Se  Se198  1  0.57671707  0.90260126  0.81499289  1
  Se  Se199  1  0.91487243  0.24472802  0.30940700  1
  Se  Se200  1  0.92118109  0.25364056  0.80043349  1
  Se  Se201  1  0.92302613  0.58862894  0.29967056  1
  Se  Se202  1  0.90343658  0.57019580  0.80349011  1
  Se  Se203  1  0.91532932  0.91568738  0.30095345  1
  Se  Se204  1  0.92183288  0.91938494  0.80785712  1
  Se  Se205  1  0.07531457  0.08222617  0.29816595  1
  Se  Se206  1  0.08225800  0.08394009  0.80100900  1
  Se  Se207  1  0.08802052  0.42663449  0.31018586  1
  Se  Se208  1  0.08137998  0.41258388  0.80408132  1
  Se  Se209  1  0.08544683  0.74937343  0.29973039  1
  Se  Se210  1  0.07785222  0.74394984  0.80896418  1
  Se  Se211  1  0.42321386  0.10192801  0.29810787  1
  Se  Se212  1  0.41363852  0.08808942  0.81422763  1
  Se  Se213  1  0.41159786  0.42195107  0.29841311  1
  Se  Se214  1  0.41160825  0.41706138  0.80272259  1
  Se  Se215  1  0.41727187  0.75339280  0.30887419  1
  Se  Se216  1  0.40924639  0.74788460  0.80327500  1
  Se  Se217  1  0.75554259  0.08160443  0.31291229  1
  Se  Se218  1  0.76755686  0.08844379  0.81242472  1
  Se  Se219  1  0.75687688  0.41942447  0.30167938  1
  Se  Se220  1  0.75100804  0.41625101  0.81567753  1
  Se  Se221  1  0.74946451  0.75022436  0.29840306  1
  Se  Se222  1  0.74462215  0.75918806  0.80392539  1
  Se  Se223  1  0.24280774  0.08411478  0.19345252  1
  Se  Se224  1  0.24170560  0.09372625  0.69015101  1
  Se  Se225  1  0.24800641  0.41266107  0.19525916  1
  Se  Se226  1  0.24831804  0.41407304  0.69722540  1
  Se  Se227  1  0.24035459  0.75892606  0.18624409  1
  Se  Se228  1  0.24900320  0.74696651  0.70291638  1
  Se  Se229  1  0.57458585  0.08648369  0.19138950  1
  Se  Se230  1  0.57785309  0.08725599  0.70235254  1
  Se  Se231  1  0.58835210  0.41398219  0.19965554  1
  Se  Se232  1  0.57192358  0.42875165  0.68661317  1
  Se  Se233  1  0.58873020  0.75150401  0.19458212  1
  Se  Se234  1  0.58380628  0.74989959  0.69596265  1
  Se  Se235  1  0.90941199  0.08940415  0.19733727  1
  Se  Se236  1  0.92343342  0.07808613  0.69259981  1
  Se  Se237  1  0.91353395  0.42773338  0.18461780  1
  Se  Se238  1  0.89401700  0.42845566  0.69688749  1
  Se  Se239  1  0.92065238  0.74961229  0.19281105  1
  Se  Se240  1  0.91863094  0.75382681  0.70167456  1
  Se  Se241  1  0.08409388  0.25075480  0.18204346  1
  Se  Se242  1  0.07764571  0.25430119  0.69549724  1
  Se  Se243  1  0.08623298  0.58758208  0.19478572  1
  Se  Se244  1  0.07969310  0.58235184  0.70260389  1
  Se  Se245  1  0.07538182  0.92311910  0.19403911  1
  Se  Se246  1  0.08723791  0.91725933  0.70274076  1
  Se  Se247  1  0.41342267  0.24785543  0.20093433  1
  Se  Se248  1  0.40995971  0.25414801  0.70494294  1
  Se  Se249  1  0.42785206  0.57468932  0.18390810  1
  Se  Se250  1  0.40965006  0.58853548  0.69689556  1
  Se  Se251  1  0.41384673  0.91524157  0.19715148  1
  Se  Se252  1  0.42360689  0.91321614  0.69138893  1
  Se  Se253  1  0.75220242  0.25520118  0.20281063  1
  Se  Se254  1  0.75330576  0.23903865  0.69164120  1
  Se  Se255  1  0.75061497  0.58823900  0.19609986  1
  Se  Se256  1  0.74527610  0.59030356  0.70545160  1
  Se  Se257  1  0.75583828  0.91422007  0.18499125  1
  Se  Se258  1  0.75817134  0.91795250  0.68913301  1
