# generated using pymatgen
data_In86Cu29Se144
_symmetry_space_group_name_H-M   'P 1'
_cell_length_a   17.57894505
_cell_length_b   17.57933702
_cell_length_c   23.43589826
_cell_angle_alpha   90.00672415
_cell_angle_beta   90.01359971
_cell_angle_gamma   90.01054551
_symmetry_Int_Tables_number   1
_chemical_formula_structural   In86Cu29Se144
_chemical_formula_sum   'In86 Cu29 Se144'
_cell_volume   7242.30619217
_cell_formula_units_Z   1
loop_
 _symmetry_equiv_pos_site_id
 _symmetry_equiv_pos_as_xyz
  1  'x, y, z'
loop_
 _atom_site_type_symbol
 _atom_site_label
 _atom_site_symmetry_multiplicity
 _atom_site_fract_x
 _atom_site_fract_y
 _atom_site_fract_z
 _atom_site_occupancy
  In  In0  1  -0.00310516  0.18048275  0.12433880  1
  In  In1  1  -0.00625121  0.17415507  0.63279269  1
  In  In2  1  0.00147093  0.49983346  0.12651607  1
  In  In3  1  0.00072244  0.50162247  0.62498081  1
  In  In4  1  0.00157528  0.81299507  0.13017511  1
  In  In5  1  -0.00744369  0.84052019  0.63397013  1
  In  In6  1  0.32827618  0.17383090  0.13401938  1
  In  In7  1  0.32636280  0.16154371  0.62566780  1
  In  In8  1  0.33445808  0.49886333  0.12238717  1
  In  In9  1  0.33464174  0.50300645  0.61400528  1
  In  In10  1  0.33181952  0.82660674  0.12602794  1
  In  In11  1  0.33985925  0.83755500  0.62456673  1
  In  In12  1  0.67343549  0.15346076  0.11689335  1
  In  In13  1  0.66528565  0.15437327  0.62810605  1
  In  In14  1  0.67580004  0.51018243  0.12025585  1
  In  In15  1  0.66697238  0.49453342  0.61426608  1
  In  In16  1  0.65798459  0.83309219  0.12437614  1
  In  In17  1  0.68158653  0.82922192  0.62611098  1
  In  In18  1  0.17065146  -0.01058251  0.37362899  1
  In  In19  1  0.16036457  -0.00667965  0.87287377  1
  In  In20  1  0.17871855  0.34875111  0.36426220  1
  In  In21  1  0.16137522  0.35210145  0.87998348  1
  In  In22  1  0.15337960  0.65990298  0.35962817  1
  In  In23  1  0.16306133  0.66992787  0.88374029  1
  In  In24  1  0.48808161  0.00008630  0.37419990  1
  In  In25  1  0.49354716  -0.00332025  0.87158774  1
  In  In26  1  0.50077279  0.35022812  0.37357101  1
  In  In27  1  0.49805041  0.34160580  0.88138827  1
  In  In28  1  0.49095794  0.65926564  0.36318620  1
  In  In29  1  0.50355823  0.66901544  0.88435544  1
  In  In30  1  0.83417056  0.00452858  0.38838616  1
  In  In31  1  0.83995271  0.00343400  0.87021273  1
  In  In32  1  0.83693305  0.32923169  0.38377930  1
  In  In33  1  0.83865431  0.32720397  0.87706761  1
  In  In34  1  0.83170183  0.66394381  0.36999118  1
  In  In35  1  0.83694293  0.65122868  0.87530265  1
  In  In36  1  -0.01780034  0.17010654  0.37984087  1
  In  In37  1  -0.00810942  0.16057316  0.86876684  1
  In  In38  1  0.00235810  0.50113887  0.37166566  1
  In  In39  1  -0.00038150  0.49960339  0.87197298  1
  In  In40  1  -0.00835398  0.82118493  0.36787126  1
  In  In41  1  0.00816400  0.83614474  0.87238151  1
  In  In42  1  0.32416308  0.16178063  0.36638451  1
  In  In43  1  0.34266354  0.16253003  0.87707948  1
  In  In44  1  0.33189053  0.50242995  0.37061296  1
  In  In45  1  0.32946014  0.49725682  0.88790875  1
  In  In46  1  0.32462115  0.83321334  0.35851034  1
  In  In47  1  0.32589977  0.83842331  0.88675474  1
  In  In48  1  0.67572104  0.17667080  0.38337437  1
  In  In49  1  0.67996668  0.16860452  0.87338031  1
  In  In50  1  0.65653137  0.50272186  0.38145200  1
  In  In51  1  0.66530704  0.50665556  0.88147108  1
  In  In52  1  0.68564970  0.83005589  0.37106868  1
  In  In53  1  0.65515738  0.83431459  0.87935384  1
  In  In54  1  0.17988444  -0.00391042  0.12576669  1
  In  In55  1  0.16933795  -0.00814317  0.63471617  1
  In  In56  1  0.15855096  0.34081888  0.12951015  1
  In  In57  1  0.15550787  0.33210989  0.62448447  1
  In  In58  1  0.16968684  0.66654209  0.12651912  1
  In  In59  1  0.16378080  0.65172808  0.62053325  1
  In  In60  1  0.49957159  -0.01863374  0.11699835  1
  In  In61  1  0.49624267  0.00524498  0.63454507  1
  In  In62  1  0.48377196  0.34087912  0.12455707  1
  In  In63  1  0.49841585  0.33984507  0.62087701  1
  In  In64  1  0.49852770  0.66503234  0.12534472  1
  In  In65  1  0.50931109  0.66199567  0.62230951  1
  In  In66  1  0.82026747  0.00161768  0.11786866  1
  In  In67  1  0.83398745  -0.00155721  0.62751065  1
  In  In68  1  0.83874500  0.34087099  0.12089075  1
  In  In69  1  0.84567738  0.34933593  0.61186031  1
  In  In70  1  0.85180300  0.65767385  0.14239748  1
  In  In71  1  0.83905239  0.67336956  0.61683069  1
  In  In72  1  0.00143482  0.00170607  0.25391194  1
  In  In73  1  0.83512019  0.82877890  0.00339101  1
  In  In74  1  0.67085440  0.66780752  0.75359481  1
  In  In75  1  0.66237394  -0.00492925  0.24414169  1
  In  In76  1  0.66596186  0.33445744  0.25535394  1
  In  In77  1  0.49984735  0.82801940  0.49496470  1
  In  In78  1  0.16141208  0.82763189  0.49524073  1
  In  In79  1  0.32887647  0.33131833  0.75956994  1
  In  In80  1  0.50308019  0.17364738  -0.00438222  1
  In  In81  1  0.16415698  0.16972852  0.00751628  1
  In  In82  1  0.16104227  0.16785205  0.49628437  1
  In  In83  1  0.67085847  0.33118053  0.74234093  1
  In  In84  1  0.50292075  0.16863997  0.50464705  1
  In  In85  1  0.33074321  0.66787139  0.74636515  1
  Cu  Cu86  1  0.83830079  0.16475104  0.74938874  1
  Cu  Cu87  1  0.84059956  0.50090290  0.24972180  1
  Cu  Cu88  1  0.33729713  0.33851675  0.49262340  1
  Cu  Cu89  1  0.33258756  0.65582009  0.48893607  1
  Cu  Cu90  1  0.33556092  0.66700377  0.00723801  1
  Cu  Cu91  1  0.49597949  0.84048311  0.75488556  1
  Cu  Cu92  1  0.00585355  0.34531638  0.49883433  1
  Cu  Cu93  1  0.66918372  0.34023792  0.00004433  1
  Cu  Cu94  1  0.66943576  0.66138685  0.49651275  1
  Cu  Cu95  1  -0.00323639  0.66072763  0.49344436  1
  Cu  Cu96  1  -0.00632651  0.33683173  0.00002790  1
  Cu  Cu97  1  0.00230201  0.65665279  0.00564453  1
  Cu  Cu98  1  0.16269744  0.49965425  0.74920530  1
  Cu  Cu99  1  0.66696429  0.66688450  0.00411086  1
  Cu  Cu100  1  0.33807276  -0.00294327  0.00331397  1
  Cu  Cu101  1  0.50007269  0.16402534  0.75272011  1
  Cu  Cu102  1  -0.00573482  -0.00051771  0.50879317  1
  Cu  Cu103  1  0.16464793  0.16143124  0.74948071  1
  Cu  Cu104  1  0.49678547  0.82918577  0.24446991  1
  Cu  Cu105  1  0.16570970  0.83053989  0.75855491  1
  Cu  Cu106  1  0.16300874  0.17216283  0.24806393  1
  Cu  Cu107  1  0.00028248  -0.00352325  -0.00596921  1
  Cu  Cu108  1  0.66823774  -0.00632045  0.50444338  1
  Cu  Cu109  1  0.83730221  0.49744389  0.74662186  1
  Cu  Cu110  1  0.49640625  0.50325100  0.24826723  1
  Cu  Cu111  1  0.83331415  0.16981406  0.25337877  1
  Cu  Cu112  1  0.83790030  0.83591973  0.74928979  1
  Cu  Cu113  1  0.49122946  0.16459551  0.24969480  1
  Cu  Cu114  1  0.16702134  0.50288148  0.24514415  1
  Se  Se115  1  0.07373322  0.07442759  0.06284192  1
  Se  Se116  1  0.08105779  0.07715774  0.56453424  1
  Se  Se117  1  0.07976434  0.41598370  0.05408252  1
  Se  Se118  1  0.08982126  0.42410017  0.55448678  1
  Se  Se119  1  0.08397909  0.74596599  0.05407238  1
  Se  Se120  1  0.07165863  0.74268653  0.55890509  1
  Se  Se121  1  0.41249150  0.08622812  0.06094345  1
  Se  Se122  1  0.40872439  0.07340241  0.55592548  1
  Se  Se123  1  0.42154458  0.42569052  0.04989606  1
  Se  Se124  1  0.42068578  0.41915085  0.54854611  1
  Se  Se125  1  0.42126463  0.75335793  0.05553420  1
  Se  Se126  1  0.40621941  0.73603965  0.55487524  1
  Se  Se127  1  0.75801339  0.08782913  0.04330956  1
  Se  Se128  1  0.74986952  0.07969007  0.55686949  1
  Se  Se129  1  0.75461747  0.42196488  0.05305492  1
  Se  Se130  1  0.75130341  0.41803915  0.54646725  1
  Se  Se131  1  0.75160112  0.73855776  0.06699052  1
  Se  Se132  1  0.74875613  0.74967459  0.54881224  1
  Se  Se133  1  0.25609236  0.26211009  0.06055253  1
  Se  Se134  1  0.25804988  0.25884419  0.55492086  1
  Se  Se135  1  0.24829872  0.58260704  0.05549810  1
  Se  Se136  1  0.24638337  0.58019625  0.54637017  1
  Se  Se137  1  0.25256394  0.91282624  0.05331877  1
  Se  Se138  1  0.25182572  0.91928414  0.55542814  1
  Se  Se139  1  0.59051639  0.26033813  0.06271985  1
  Se  Se140  1  0.59613476  0.25736976  0.56118506  1
  Se  Se141  1  0.58084251  0.58225763  0.05442863  1
  Se  Se142  1  0.58189039  0.58154629  0.54892052  1
  Se  Se143  1  0.60504044  0.93073326  0.05262051  1
  Se  Se144  1  0.58253869  0.91797067  0.56286804  1
  Se  Se145  1  0.91156889  0.24934298  0.05069397  1
  Se  Se146  1  0.92963828  0.25433364  0.55319014  1
  Se  Se147  1  0.91270529  0.58144438  0.05904536  1
  Se  Se148  1  0.91648062  0.58029618  0.55331622  1
  Se  Se149  1  0.92727749  0.91898044  0.06304328  1
  Se  Se150  1  0.91212325  0.91035851  0.55720671  1
  Se  Se151  1  0.08054505  0.26342576  0.43498344  1
  Se  Se152  1  0.07475428  0.25253947  0.94104961  1
  Se  Se153  1  0.08691062  0.58504529  0.44092225  1
  Se  Se154  1  0.08263495  0.57678775  0.94548831  1
  Se  Se155  1  0.06816879  0.92343966  0.44129018  1
  Se  Se156  1  0.08744774  0.91167013  0.94806608  1
  Se  Se157  1  0.41167101  0.24943737  0.43640512  1
  Se  Se158  1  0.40128496  0.26422907  0.94710173  1
  Se  Se159  1  0.42394093  0.57716661  0.44052483  1
  Se  Se160  1  0.41627656  0.58609793  0.94843727  1
  Se  Se161  1  0.40205844  0.91442156  0.44083552  1
  Se  Se162  1  0.42260238  0.91646026  0.94854737  1
  Se  Se163  1  0.76297960  0.24193079  0.45414913  1
  Se  Se164  1  0.74911090  0.25366816  0.94694087  1
  Se  Se165  1  0.75346200  0.58024287  0.44235046  1
  Se  Se166  1  0.75154789  0.58476522  0.95025093  1
  Se  Se167  1  0.75068439  0.91257247  0.44910440  1
  Se  Se168  1  0.75128063  0.91890810  0.93997636  1
  Se  Se169  1  0.25551811  0.07471685  0.44486276  1
  Se  Se170  1  0.25451498  0.07854620  0.94550174  1
  Se  Se171  1  0.25005689  0.42201513  0.44364192  1
  Se  Se172  1  0.24350123  0.41877408  0.95417718  1
  Se  Se173  1  0.25414106  0.74224855  0.43427614  1
  Se  Se174  1  0.24959881  0.74783361  0.95213080  1
  Se  Se175  1  0.58903533  0.07233012  0.44179519  1
  Se  Se176  1  0.58882668  0.08089000  0.93709510  1
  Se  Se177  1  0.59541641  0.40001144  0.44660061  1
  Se  Se178  1  0.58286157  0.42151038  0.94848751  1
  Se  Se179  1  0.58972181  0.74132011  0.43416970  1
  Se  Se180  1  0.58331276  0.75291558  0.95384744  1
  Se  Se181  1  0.91464284  0.08859923  0.45705553  1
  Se  Se182  1  0.91741466  0.08256920  0.94507766  1
  Se  Se183  1  0.91933417  0.42307033  0.44398393  1
  Se  Se184  1  0.91393756  0.42026375  0.94246487  1
  Se  Se185  1  0.91359845  0.74671002  0.44269065  1
  Se  Se186  1  0.92549349  0.73974126  0.94218908  1
  Se  Se187  1  0.25192090  0.25358437  0.29903938  1
  Se  Se188  1  0.23688238  0.24045451  0.81722748  1
  Se  Se189  1  0.25212827  0.58475106  0.29926136  1
  Se  Se190  1  0.24578286  0.57677418  0.80973134  1
  Se  Se191  1  0.25248936  0.93023430  0.29585445  1
  Se  Se192  1  0.25269051  0.91382917  0.80821014  1
  Se  Se193  1  0.57469090  0.23793602  0.31157272  1
  Se  Se194  1  0.57686860  0.24968608  0.81007977  1
  Se  Se195  1  0.58651608  0.57923894  0.30206203  1
  Se  Se196  1  0.57430006  0.57971115  0.80759166  1
  Se  Se197  1  0.57441659  0.90735780  0.31035376  1
  Se  Se198  1  0.58621015  0.91919412  0.80501290  1
  Se  Se199  1  0.91465487  0.25506032  0.30495330  1
  Se  Se200  1  0.91804366  0.25355176  0.80130800  1
  Se  Se201  1  0.92309112  0.58681535  0.30213485  1
  Se  Se202  1  0.91913965  0.58305056  0.79961512  1
  Se  Se203  1  0.90210483  0.91868608  0.31035998  1
  Se  Se204  1  0.92242109  0.91670148  0.80464164  1
  Se  Se205  1  0.08762182  0.09612474  0.31554697  1
  Se  Se206  1  0.08133486  0.07885563  0.80459078  1
  Se  Se207  1  0.08262793  0.41906649  0.29907735  1
  Se  Se208  1  0.08008390  0.41396098  0.80090887  1
  Se  Se209  1  0.10316308  0.77752532  0.30599054  1
  Se  Se210  1  0.08360494  0.74203935  0.80664280  1
  Se  Se211  1  0.41054402  0.07745260  0.30095182  1
  Se  Se212  1  0.41241316  0.08141511  0.80199684  1
  Se  Se213  1  0.41423656  0.41753720  0.30048764  1
  Se  Se214  1  0.42033573  0.42877833  0.80906022  1
  Se  Se215  1  0.41161507  0.74652652  0.29671516  1
  Se  Se216  1  0.41853642  0.75445678  0.81192957  1
  Se  Se217  1  0.75090999  0.08628331  0.30915147  1
  Se  Se218  1  0.75213052  0.08338238  0.80127706  1
  Se  Se219  1  0.75880527  0.42326310  0.31208327  1
  Se  Se220  1  0.75219258  0.42424254  0.80801541  1
  Se  Se221  1  0.74864278  0.74286782  0.29850067  1
  Se  Se222  1  0.76017963  0.75824492  0.81432351  1
  Se  Se223  1  0.24621666  0.08586833  0.19817586  1
  Se  Se224  1  0.25255745  0.08085623  0.69902226  1
  Se  Se225  1  0.25128151  0.41760031  0.19419738  1
  Se  Se226  1  0.24834177  0.42211261  0.69055860  1
  Se  Se227  1  0.24670759  0.75181174  0.19657209  1
  Se  Se228  1  0.23840772  0.75772534  0.68685560  1
  Se  Se229  1  0.57221526  0.08957623  0.18697872  1
  Se  Se230  1  0.58601077  0.08012874  0.70283025  1
  Se  Se231  1  0.58127075  0.42226955  0.18988138  1
  Se  Se232  1  0.57662842  0.42730094  0.69290209  1
  Se  Se233  1  0.58416779  0.74715340  0.19514540  1
  Se  Se234  1  0.57534241  0.75938958  0.69413613  1
  Se  Se235  1  0.90806108  0.08754865  0.19048621  1
  Se  Se236  1  0.92074849  0.07804693  0.69682872  1
  Se  Se237  1  0.91903810  0.41362176  0.19596332  1
  Se  Se238  1  0.92066011  0.41364731  0.69403115  1
  Se  Se239  1  0.91810863  0.75473123  0.20822628  1
  Se  Se240  1  0.91394403  0.74536977  0.69631287  1
  Se  Se241  1  0.07700779  0.25442741  0.19794784  1
  Se  Se242  1  0.08530942  0.25098892  0.69950792  1
  Se  Se243  1  0.08057573  0.58662297  0.19508968  1
  Se  Se244  1  0.08122312  0.58573296  0.69689909  1
  Se  Se245  1  0.08630823  0.91417260  0.19009705  1
  Se  Se246  1  0.08301557  0.91401472  0.70242139  1
  Se  Se247  1  0.41500330  0.25652208  0.19952194  1
  Se  Se248  1  0.42142520  0.24591441  0.69235728  1
  Se  Se249  1  0.41276915  0.58459860  0.19385115  1
  Se  Se250  1  0.42283830  0.57620760  0.69025092  1
  Se  Se251  1  0.41617944  0.91643588  0.19284970  1
  Se  Se252  1  0.41062959  0.91917713  0.69912950  1
  Se  Se253  1  0.75061428  0.24390568  0.19036102  1
  Se  Se254  1  0.76427763  0.24501297  0.68412578  1
  Se  Se255  1  0.74986357  0.58054419  0.19997610  1
  Se  Se256  1  0.75398092  0.57761180  0.68786251  1
  Se  Se257  1  0.76010286  0.90643410  0.19223831  1
  Se  Se258  1  0.74964484  0.91647617  0.69840526  1
