# generated using pymatgen
data_In86Cu29Se144
_symmetry_space_group_name_H-M   'P 1'
_cell_length_a   17.58708812
_cell_length_b   17.59092657
_cell_length_c   23.45773469
_cell_angle_alpha   90.01820635
_cell_angle_beta   90.03596323
_cell_angle_gamma   89.98311007
_symmetry_Int_Tables_number   1
_chemical_formula_structural   In86Cu29Se144
_chemical_formula_sum   'In86 Cu29 Se144'
_cell_volume   7257.19176261
_cell_formula_units_Z   1
loop_
 _symmetry_equiv_pos_site_id
 _symmetry_equiv_pos_as_xyz
  1  'x, y, z'
loop_
 _atom_site_type_symbol
 _atom_site_label
 _atom_site_symmetry_multiplicity
 _atom_site_fract_x
 _atom_site_fract_y
 _atom_site_fract_z
 _atom_site_occupancy
  In  In0  1  0.00213844  0.14697278  0.12254919  1
  In  In1  1  0.00124495  0.16530824  0.63934689  1
  In  In2  1  0.00148857  0.48107714  0.11945758  1
  In  In3  1  -0.01000603  0.49543312  0.63393087  1
  In  In4  1  -0.00334785  0.84729613  0.12310249  1
  In  In5  1  0.00917393  0.84063181  0.62017026  1
  In  In6  1  0.33473761  0.16441291  0.12416873  1
  In  In7  1  0.34153633  0.16106004  0.62726878  1
  In  In8  1  0.33516539  0.49871559  0.12278784  1
  In  In9  1  0.33011934  0.48966579  0.62518051  1
  In  In10  1  0.34882073  0.82414377  0.14329671  1
  In  In11  1  0.35043262  0.84956317  0.60956314  1
  In  In12  1  0.65707520  0.17714950  0.13038993  1
  In  In13  1  0.64716765  0.16582963  0.62426375  1
  In  In14  1  0.63672423  0.50319871  0.11974093  1
  In  In15  1  0.66935462  0.50663955  0.63277683  1
  In  In16  1  0.67202030  0.83304265  0.11546591  1
  In  In17  1  0.65783691  0.84029048  0.63047417  1
  In  In18  1  0.16411561  -0.00721884  0.37072331  1
  In  In19  1  0.18338864  0.01026235  0.86906787  1
  In  In20  1  0.17152251  0.31902321  0.37522634  1
  In  In21  1  0.17266305  0.33024400  0.87592927  1
  In  In22  1  0.20838421  0.66902096  0.37579719  1
  In  In23  1  0.15553954  0.66160190  0.88002960  1
  In  In24  1  0.50062968  0.00029799  0.36773863  1
  In  In25  1  0.50195511  -0.00062469  0.87815815  1
  In  In26  1  0.50606168  0.33558112  0.37572538  1
  In  In27  1  0.48811077  0.34012815  0.88272971  1
  In  In28  1  0.46518491  0.69006367  0.40831919  1
  In  In29  1  0.51147980  0.66179691  0.88770922  1
  In  In30  1  0.83624609  -0.00046638  0.36858754  1
  In  In31  1  0.81980249  -0.00244296  0.85912156  1
  In  In32  1  0.82049253  0.33684656  0.37271685  1
  In  In33  1  0.83649586  0.31553099  0.86624425  1
  In  In34  1  0.83169677  0.66792153  0.37844860  1
  In  In35  1  0.83125446  0.68231042  0.87971255  1
  In  In36  1  0.01139116  0.15324958  0.37845604  1
  In  In37  1  0.00741908  0.17371048  0.86368501  1
  In  In38  1  -0.00437568  0.49628515  0.37752327  1
  In  In39  1  0.01272567  0.50005925  0.87668758  1
  In  In40  1  0.01463052  0.85683458  0.37277848  1
  In  In41  1  -0.01324688  0.83038991  0.87481439  1
  In  In42  1  0.34414788  0.17962618  0.36380729  1
  In  In43  1  0.33386978  0.16421361  0.88044445  1
  In  In44  1  0.35985222  0.51481413  0.36195137  1
  In  In45  1  0.34229621  0.49592493  0.88171461  1
  In  In46  1  0.33245067  0.83883489  0.37462336  1
  In  In47  1  0.34100661  0.84800785  0.87433113  1
  In  In48  1  0.66230637  0.16049734  0.37013309  1
  In  In49  1  0.66802610  0.15545008  0.87513376  1
  In  In50  1  0.64140527  0.48081576  0.36372112  1
  In  In51  1  0.65165813  0.49571085  0.87465905  1
  In  In52  1  0.64046026  0.83270791  0.37002223  1
  In  In53  1  0.66196907  0.83857759  0.87694876  1
  In  In54  1  0.16255285  -0.00354224  0.12735300  1
  In  In55  1  0.17042427  -0.00008888  0.62889567  1
  In  In56  1  0.18229554  0.33959221  0.11594806  1
  In  In57  1  0.17441400  0.32982288  0.63487771  1
  In  In58  1  0.18512511  0.66829980  0.12576574  1
  In  In59  1  0.16478789  0.67509137  0.61976569  1
  In  In60  1  0.50065471  0.00072841  0.12774370  1
  In  In61  1  0.49800937  0.00032792  0.62517543  1
  In  In62  1  0.49458813  0.33136871  0.12549141  1
  In  In63  1  0.49749881  0.31817874  0.61751497  1
  In  In64  1  0.49988729  0.66310359  0.11481886  1
  In  In65  1  0.50330617  0.67853068  0.61807012  1
  In  In66  1  0.83696248  -0.00408324  0.12634019  1
  In  In67  1  0.83405042  0.00567497  0.63638561  1
  In  In68  1  0.83088373  0.31907373  0.12504681  1
  In  In69  1  0.83586585  0.34586260  0.63735273  1
  In  In70  1  0.80167891  0.67235589  0.11337063  1
  In  In71  1  0.82752277  0.64974161  0.63496842  1
  In  In72  1  0.17230889  0.50327838  0.49870119  1
  In  In73  1  0.66579351  0.32869249  0.75174204  1
  In  In74  1  -0.00291410  0.66811423  0.74967539  1
  In  In75  1  0.65401076  0.66831422  0.24588947  1
  In  In76  1  0.83471599  0.49850032  -0.00471948  1
  In  In77  1  0.00401035  0.31951719  0.25554992  1
  In  In78  1  0.82466232  0.16550512  0.49758793  1
  In  In79  1  0.17059024  0.15850176  0.50736788  1
  In  In80  1  0.00447918  0.67593491  0.24287167  1
  In  In81  1  0.82427246  0.50195718  0.51312808  1
  In  In82  1  0.16985271  0.83350778  -0.00003105  1
  In  In83  1  0.33500027  0.67227758  0.74734651  1
  In  In84  1  0.83736016  0.15852318  -0.00907357  1
  In  In85  1  0.82555727  0.83344881  0.50669866  1
  Cu  Cu86  1  0.33484116  0.66411240  0.00252491  1
  Cu  Cu87  1  0.01213099  0.32593408  -0.00631900  1
  Cu  Cu88  1  0.49764189  0.50110495  0.75500207  1
  Cu  Cu89  1  0.66656454  0.00083664  -0.00072419  1
  Cu  Cu90  1  0.17239906  0.16995973  0.75189229  1
  Cu  Cu91  1  0.82830996  0.49830735  0.25124666  1
  Cu  Cu92  1  0.00270917  -0.00243752  -0.00505159  1
  Cu  Cu93  1  0.16990559  0.83286510  0.25070338  1
  Cu  Cu94  1  0.49193072  0.16244438  0.75111362  1
  Cu  Cu95  1  0.82868636  0.16118859  0.24705706  1
  Cu  Cu96  1  0.16940201  0.49493683  0.75371093  1
  Cu  Cu97  1  0.65679424  -0.00756214  0.49713590  1
  Cu  Cu98  1  0.33965266  -0.00048360  0.00466213  1
  Cu  Cu99  1  0.34243832  0.33867426  0.49399738  1
  Cu  Cu100  1  0.66312097  0.65523545  0.50117763  1
  Cu  Cu101  1  0.16970351  0.84184143  0.74679759  1
  Cu  Cu102  1  0.33700727  0.00630471  0.49650738  1
  Cu  Cu103  1  -0.00449984  0.33434673  0.51154737  1
  Cu  Cu104  1  0.66109623  0.33965894  0.00348570  1
  Cu  Cu105  1  0.16843827  0.16200442  0.24816963  1
  Cu  Cu106  1  0.33337106  0.33019852  0.00141896  1
  Cu  Cu107  1  0.82515355  0.83328077  0.75124910  1
  Cu  Cu108  1  0.17350030  0.49790304  0.24444877  1
  Cu  Cu109  1  0.50086803  0.16708905  0.24853163  1
  Cu  Cu110  1  0.00880379  0.67550120  0.49650902  1
  Cu  Cu111  1  0.50408348  0.83717715  0.74982093  1
  Cu  Cu112  1  0.49605247  0.49662614  0.24666817  1
  Cu  Cu113  1  -0.00129554  0.66254017  0.00130365  1
  Cu  Cu114  1  0.82985530  0.83608864  0.24744698  1
  Se  Se115  1  0.08717948  0.07589605  0.05008469  1
  Se  Se116  1  0.07069472  0.07782194  0.56250518  1
  Se  Se117  1  0.08898790  0.41346167  0.04822523  1
  Se  Se118  1  0.08144760  0.41540989  0.56368079  1
  Se  Se119  1  0.07884362  0.74370622  0.06329128  1
  Se  Se120  1  0.08978680  0.75992122  0.54916272  1
  Se  Se121  1  0.42236280  0.08555471  0.05566771  1
  Se  Se122  1  0.42024985  0.08595692  0.55286330  1
  Se  Se123  1  0.41699180  0.41544979  0.05363498  1
  Se  Se124  1  0.41895757  0.41595476  0.55642602  1
  Se  Se125  1  0.40945451  0.75371729  0.05678129  1
  Se  Se126  1  0.41108157  0.74489252  0.54818447  1
  Se  Se127  1  0.74586627  0.08444057  0.05993047  1
  Se  Se128  1  0.73967514  0.07088927  0.55830746  1
  Se  Se129  1  0.74718098  0.41386522  0.06279339  1
  Se  Se130  1  0.73694467  0.40281225  0.56407966  1
  Se  Se131  1  0.75279065  0.76287122  0.03802981  1
  Se  Se132  1  0.74278202  0.73435881  0.56449633  1
  Se  Se133  1  0.25000229  0.24208418  0.05079287  1
  Se  Se134  1  0.25948328  0.26109857  0.55650772  1
  Se  Se135  1  0.24893815  0.58026351  0.05222351  1
  Se  Se136  1  0.26122784  0.59277398  0.55870838  1
  Se  Se137  1  0.26023433  0.91468747  0.06362835  1
  Se  Se138  1  0.25049702  0.92792456  0.55198502  1
  Se  Se139  1  0.58101948  0.25190012  0.05462557  1
  Se  Se140  1  0.58224555  0.24333543  0.54655452  1
  Se  Se141  1  0.60356480  0.60616245  0.04822150  1
  Se  Se142  1  0.58312993  0.57789463  0.56054497  1
  Se  Se143  1  0.58367102  0.92179044  0.05523984  1
  Se  Se144  1  0.57667514  0.91157949  0.55478210  1
  Se  Se145  1  0.92774806  0.25019063  0.05470904  1
  Se  Se146  1  0.91436285  0.25166147  0.56593060  1
  Se  Se147  1  0.91801554  0.58655253  0.06492238  1
  Se  Se148  1  0.93019858  0.59518119  0.55844553  1
  Se  Se149  1  0.91536344  0.92050691  0.04920276  1
  Se  Se150  1  0.91653983  0.92819748  0.55871230  1
  Se  Se151  1  0.07490328  0.25610171  0.44962326  1
  Se  Se152  1  0.09026163  0.23919819  0.94139694  1
  Se  Se153  1  0.08193783  0.59161407  0.43476452  1
  Se  Se154  1  0.08482752  0.57866342  0.95383182  1
  Se  Se155  1  0.08462485  0.92968276  0.45082955  1
  Se  Se156  1  0.08409241  0.91903700  0.93389393  1
  Se  Se157  1  0.42028831  0.24930585  0.44248869  1
  Se  Se158  1  0.41794121  0.24588255  0.95011846  1
  Se  Se159  1  0.41440477  0.56869910  0.45437969  1
  Se  Se160  1  0.41970608  0.58154250  0.95068168  1
  Se  Se161  1  0.41868907  0.92257845  0.44173560  1
  Se  Se162  1  0.42153212  0.91633230  0.95066262  1
  Se  Se163  1  0.73553152  0.25959783  0.44318316  1
  Se  Se164  1  0.74187418  0.25896505  0.94404681  1
  Se  Se165  1  0.74179449  0.57954142  0.43797129  1
  Se  Se166  1  0.74285556  0.58647112  0.93823948  1
  Se  Se167  1  0.74244698  0.91730919  0.43699781  1
  Se  Se168  1  0.75191951  0.92502002  0.94111971  1
  Se  Se169  1  0.25766329  0.08603888  0.43461500  1
  Se  Se170  1  0.25273352  0.07931881  0.95132245  1
  Se  Se171  1  0.25647691  0.41394389  0.43486202  1
  Se  Se172  1  0.25211219  0.41547453  0.94631236  1
  Se  Se173  1  0.24527962  0.76678434  0.44888412  1
  Se  Se174  1  0.25894021  0.74331603  0.93716897  1
  Se  Se175  1  0.58185432  0.08067618  0.44161089  1
  Se  Se176  1  0.58329653  0.08579363  0.94806835  1
  Se  Se177  1  0.57894987  0.42051505  0.44965283  1
  Se  Se178  1  0.57625621  0.42133122  0.95080353  1
  Se  Se179  1  0.58754028  0.74991637  0.45208559  1
  Se  Se180  1  0.56846602  0.77071251  0.94620594  1
  Se  Se181  1  0.92142986  0.07354955  0.44607466  1
  Se  Se182  1  0.92576288  0.07247023  0.92924839  1
  Se  Se183  1  0.91484373  0.40965161  0.44840602  1
  Se  Se184  1  0.92293563  0.40190964  0.93840323  1
  Se  Se185  1  0.92280377  0.75436411  0.43957726  1
  Se  Se186  1  0.91875432  0.75162001  0.95255240  1
  Se  Se187  1  0.24812700  0.25216537  0.29667651  1
  Se  Se188  1  0.25725232  0.24921660  0.80736624  1
  Se  Se189  1  0.25831935  0.58079715  0.29706849  1
  Se  Se190  1  0.24563556  0.58237605  0.81085944  1
  Se  Se191  1  0.25216183  0.91959840  0.30113167  1
  Se  Se192  1  0.25760750  0.91891548  0.80056862  1
  Se  Se193  1  0.58370650  0.25024475  0.30386232  1
  Se  Se194  1  0.57100216  0.24477525  0.81375966  1
  Se  Se195  1  0.56420720  0.58560681  0.30946605  1
  Se  Se196  1  0.57930417  0.58694820  0.80575041  1
  Se  Se197  1  0.58902724  0.92565210  0.29713574  1
  Se  Se198  1  0.58490060  0.92272849  0.80413425  1
  Se  Se199  1  0.90748674  0.23471496  0.31577769  1
  Se  Se200  1  0.91563054  0.24268799  0.79377426  1
  Se  Se201  1  0.91229797  0.58009925  0.30472976  1
  Se  Se202  1  0.91446605  0.58366738  0.81703670  1
  Se  Se203  1  0.91817702  0.91472420  0.30080924  1
  Se  Se204  1  0.91583078  0.91262965  0.80105707  1
  Se  Se205  1  0.08316090  0.08003700  0.30078828  1
  Se  Se206  1  0.09009664  0.08152329  0.80153518  1
  Se  Se207  1  0.09151705  0.42298076  0.30815554  1
  Se  Se208  1  0.08575328  0.41346425  0.80692539  1
  Se  Se209  1  0.09256202  0.74949257  0.31428461  1
  Se  Se210  1  0.09248648  0.75959038  0.80684841  1
  Se  Se211  1  0.41529114  0.08344333  0.29937118  1
  Se  Se212  1  0.41399319  0.07951741  0.80955032  1
  Se  Se213  1  0.41841698  0.40763802  0.30111541  1
  Se  Se214  1  0.41351419  0.41628111  0.80495128  1
  Se  Se215  1  0.41899425  0.74703483  0.31483293  1
  Se  Se216  1  0.42551189  0.75475608  0.81081571  1
  Se  Se217  1  0.74815913  0.07820904  0.30297015  1
  Se  Se218  1  0.75391691  0.09969434  0.79793739  1
  Se  Se219  1  0.74240147  0.41419344  0.29956312  1
  Se  Se220  1  0.75433259  0.42043093  0.81266246  1
  Se  Se221  1  0.75215914  0.75407535  0.30818433  1
  Se  Se222  1  0.74510452  0.75206873  0.80727651  1
  Se  Se223  1  0.24894492  0.08066625  0.19193007  1
  Se  Se224  1  0.25204082  0.08606666  0.69507582  1
  Se  Se225  1  0.25665588  0.41224111  0.19415854  1
  Se  Se226  1  0.25637749  0.41429647  0.70237490  1
  Se  Se227  1  0.25338521  0.74370988  0.20443009  1
  Se  Se228  1  0.24870760  0.76273845  0.68629615  1
  Se  Se229  1  0.58640775  0.08372762  0.19703200  1
  Se  Se230  1  0.57809005  0.08146828  0.69844947  1
  Se  Se231  1  0.58194357  0.41319094  0.19552489  1
  Se  Se232  1  0.57285001  0.41715099  0.69247163  1
  Se  Se233  1  0.57278915  0.76172581  0.18492905  1
  Se  Se234  1  0.58136101  0.74783817  0.69650343  1
  Se  Se235  1  0.91717115  0.08019303  0.19720675  1
  Se  Se236  1  0.91930370  0.08144094  0.70447264  1
  Se  Se237  1  0.91137291  0.41414264  0.19658134  1
  Se  Se238  1  0.91704262  0.42088752  0.70896289  1
  Se  Se239  1  0.90169466  0.75236059  0.18299736  1
  Se  Se240  1  0.90905858  0.75932456  0.68724276  1
  Se  Se241  1  0.08910044  0.24326501  0.18395987  1
  Se  Se242  1  0.08561453  0.25420619  0.70127270  1
  Se  Se243  1  0.08663914  0.57247797  0.18623245  1
  Se  Se244  1  0.09468386  0.57814702  0.69176463  1
  Se  Se245  1  0.08223697  0.91225321  0.19829899  1
  Se  Se246  1  0.07998649  0.92077599  0.69618927  1
  Se  Se247  1  0.41429865  0.24865806  0.19536334  1
  Se  Se248  1  0.41642875  0.25153656  0.69597711  1
  Se  Se249  1  0.42159398  0.58334128  0.18831290  1
  Se  Se250  1  0.42217272  0.57924645  0.68915927  1
  Se  Se251  1  0.40591092  0.93557066  0.19814883  1
  Se  Se252  1  0.41673627  0.91447922  0.69500470  1
  Se  Se253  1  0.74882584  0.25168502  0.19995711  1
  Se  Se254  1  0.75091617  0.23990814  0.68787617  1
  Se  Se255  1  0.74762009  0.57422039  0.18816428  1
  Se  Se256  1  0.75361476  0.57272777  0.70823234  1
  Se  Se257  1  0.74718514  0.91497630  0.19070321  1
  Se  Se258  1  0.74522740  0.91920748  0.69730177  1
