# generated using pymatgen
data_In86Cu29Se144
_symmetry_space_group_name_H-M   'P 1'
_cell_length_a   17.57320815
_cell_length_b   17.57154352
_cell_length_c   23.44220727
_cell_angle_alpha   89.99623724
_cell_angle_beta   89.97636797
_cell_angle_gamma   89.99846183
_symmetry_Int_Tables_number   1
_chemical_formula_structural   In86Cu29Se144
_chemical_formula_sum   'In86 Cu29 Se144'
_cell_volume   7238.68084912
_cell_formula_units_Z   1
loop_
 _symmetry_equiv_pos_site_id
 _symmetry_equiv_pos_as_xyz
  1  'x, y, z'
loop_
 _atom_site_type_symbol
 _atom_site_label
 _atom_site_symmetry_multiplicity
 _atom_site_fract_x
 _atom_site_fract_y
 _atom_site_fract_z
 _atom_site_occupancy
  In  In0  1  0.01558074  0.17082474  0.13289948  1
  In  In1  1  0.00420887  0.17292373  0.61359957  1
  In  In2  1  0.00822257  0.48169379  0.12762944  1
  In  In3  1  -0.00201865  0.50184559  0.62529902  1
  In  In4  1  -0.00033845  0.84182324  0.10844959  1
  In  In5  1  -0.00277185  0.82912814  0.62250416  1
  In  In6  1  0.33831523  0.15005328  0.14159716  1
  In  In7  1  0.33332901  0.16514449  0.61172973  1
  In  In8  1  0.33103291  0.49948693  0.12249870  1
  In  In9  1  0.32394946  0.51186980  0.62096687  1
  In  In10  1  0.33303557  0.83985075  0.12378923  1
  In  In11  1  0.33405732  0.84189379  0.62382951  1
  In  In12  1  0.65285932  0.17406386  0.13618210  1
  In  In13  1  0.66058667  0.15832176  0.61615879  1
  In  In14  1  0.65511403  0.49706601  0.12712038  1
  In  In15  1  0.67726160  0.50111360  0.62458452  1
  In  In16  1  0.66889237  0.84082811  0.12284685  1
  In  In17  1  0.67423393  0.82258421  0.64090676  1
  In  In18  1  0.18106400  -0.00820393  0.37015624  1
  In  In19  1  0.16012624  -0.02060379  0.87497515  1
  In  In20  1  0.16580307  0.33118894  0.37386253  1
  In  In21  1  0.16710787  0.34175806  0.87411645  1
  In  In22  1  0.15842291  0.67369248  0.38167901  1
  In  In23  1  0.15495434  0.67244529  0.87724345  1
  In  In24  1  0.51383680  0.00330224  0.36110067  1
  In  In25  1  0.51559746  -0.01376713  0.89066962  1
  In  In26  1  0.47909738  0.31936957  0.35751315  1
  In  In27  1  0.49998872  0.33712377  0.89213012  1
  In  In28  1  0.49733454  0.66526727  0.37339621  1
  In  In29  1  0.50421851  0.66728532  0.88016752  1
  In  In30  1  0.82818744  0.00705467  0.38303206  1
  In  In31  1  0.81864784  0.00162355  0.87208960  1
  In  In32  1  0.83187110  0.33068496  0.37582170  1
  In  In33  1  0.84233362  0.32299474  0.87017968  1
  In  In34  1  0.83665665  0.66170516  0.38896337  1
  In  In35  1  0.84600759  0.67969426  0.86475809  1
  In  In36  1  -0.00802225  0.17145673  0.37974979  1
  In  In37  1  -0.00830635  0.16604579  0.86765679  1
  In  In38  1  0.00943250  0.48831067  0.38325422  1
  In  In39  1  0.00426923  0.50798705  0.86674898  1
  In  In40  1  0.00075226  0.83127272  0.38272808  1
  In  In41  1  0.01659835  0.81657268  0.88771910  1
  In  In42  1  0.33296239  0.16960181  0.37452308  1
  In  In43  1  0.33522034  0.17753879  0.88086558  1
  In  In44  1  0.32167665  0.46639915  0.36033292  1
  In  In45  1  0.33087882  0.50606745  0.88839647  1
  In  In46  1  0.32283212  0.83770701  0.36534080  1
  In  In47  1  0.33205123  0.83553607  0.88248923  1
  In  In48  1  0.66430923  0.16243791  0.37627803  1
  In  In49  1  0.66481606  0.15609713  0.87579982  1
  In  In50  1  0.67714759  0.49976741  0.37712417  1
  In  In51  1  0.65544125  0.50296487  0.88059326  1
  In  In52  1  0.66635127  0.84482022  0.37340853  1
  In  In53  1  0.66567506  0.83972965  0.87436457  1
  In  In54  1  0.17042361  -0.00177952  0.12789971  1
  In  In55  1  0.16257674  -0.00379433  0.61263030  1
  In  In56  1  0.16332269  0.33448710  0.13471897  1
  In  In57  1  0.15715476  0.32420821  0.61324442  1
  In  In58  1  0.17260539  0.66792000  0.11581367  1
  In  In59  1  0.16038442  0.66039834  0.61905235  1
  In  In60  1  0.49170521  -0.00471804  0.13182072  1
  In  In61  1  0.50022593  0.00962223  0.62692800  1
  In  In62  1  0.49980733  0.33269360  0.12935896  1
  In  In63  1  0.51081504  0.32696773  0.62019804  1
  In  In64  1  0.50096565  0.66968788  0.11543476  1
  In  In65  1  0.50967934  0.68059563  0.63052371  1
  In  In66  1  0.83394954  -0.01586079  0.12514822  1
  In  In67  1  0.82578189  -0.01104490  0.61471603  1
  In  In68  1  0.83827129  0.32250668  0.13767915  1
  In  In69  1  0.84272621  0.34691195  0.61295446  1
  In  In70  1  0.82735979  0.67579275  0.12155161  1
  In  In71  1  0.83439843  0.67021748  0.62863027  1
  In  In72  1  0.33283831  0.33545488  0.75158215  1
  In  In73  1  -0.00490118  -0.00598679  0.74366248  1
  In  In74  1  0.17064449  0.15890885  0.01109655  1
  In  In75  1  0.33671956  0.66784486  0.24376825  1
  In  In76  1  0.34150653  -0.00015515  0.75691213  1
  In  In77  1  0.67498232  0.33624803  0.74901174  1
  In  In78  1  0.00042744  0.00458740  0.24861765  1
  In  In79  1  0.66551594  0.66631821  0.24362677  1
  In  In80  1  0.49972352  0.83577926  0.50025110  1
  In  In81  1  0.83152868  0.16090060  -0.00090450  1
  In  In82  1  0.83673082  0.50362735  0.00047546  1
  In  In83  1  0.33029241  0.67055296  0.75690409  1
  In  In84  1  0.00038420  0.66949779  0.25826824  1
  In  In85  1  0.49354278  0.49308082  0.49201676  1
  Cu  Cu86  1  0.66360725  0.32488366  0.49491242  1
  Cu  Cu87  1  0.83549850  0.48853245  0.25320849  1
  Cu  Cu88  1  0.32374903  0.66502844  0.49375353  1
  Cu  Cu89  1  0.50136757  0.16417793  0.25097122  1
  Cu  Cu90  1  0.16842372  0.50054312  0.25117795  1
  Cu  Cu91  1  -0.00277057  0.33813087  0.49637669  1
  Cu  Cu92  1  0.83375720  0.50552937  0.74387147  1
  Cu  Cu93  1  0.50038253  0.50717359  0.75735256  1
  Cu  Cu94  1  0.66442514  0.33287462  0.00925700  1
  Cu  Cu95  1  -0.00486006  0.66791765  0.50608606  1
  Cu  Cu96  1  0.00485922  0.66072651  -0.00497848  1
  Cu  Cu97  1  0.50728698  0.16630676  0.75041224  1
  Cu  Cu98  1  0.83644850  0.17249110  0.74375277  1
  Cu  Cu99  1  0.33289108  0.00249603  0.00728968  1
  Cu  Cu100  1  0.33520151  0.00161337  0.49522792  1
  Cu  Cu101  1  0.32860469  0.33230160  0.49196854  1
  Cu  Cu102  1  0.33458996  0.66531444  -0.00016628  1
  Cu  Cu103  1  0.33929616  0.33329276  0.00766542  1
  Cu  Cu104  1  0.83012840  0.83374745  0.25068694  1
  Cu  Cu105  1  0.16177991  0.16156298  0.73726334  1
  Cu  Cu106  1  0.82706988  0.16308360  0.25895270  1
  Cu  Cu107  1  0.00700467  0.00307684  0.49578076  1
  Cu  Cu108  1  0.65888171  0.00237289  0.00407711  1
  Cu  Cu109  1  0.83366327  0.83622635  0.74959629  1
  Cu  Cu110  1  0.01061222  0.33189491  0.00118659  1
  Cu  Cu111  1  0.66694261  -0.00258372  0.49797886  1
  Cu  Cu112  1  0.15635054  0.49650581  0.74742010  1
  Cu  Cu113  1  0.67192130  0.66706978  0.50804712  1
  Cu  Cu114  1  0.66889679  0.67659687  -0.00083645  1
  Se  Se115  1  0.06787220  0.07106789  0.05882119  1
  Se  Se116  1  0.08971426  0.08946665  0.54726922  1
  Se  Se117  1  0.09441758  0.41361609  0.05404711  1
  Se  Se118  1  0.07946190  0.42059316  0.55280134  1
  Se  Se119  1  0.08402262  0.74790916  0.05006887  1
  Se  Se120  1  0.08468590  0.75236015  0.55243405  1
  Se  Se121  1  0.41520745  0.08473174  0.06077702  1
  Se  Se122  1  0.42194957  0.08066303  0.54949662  1
  Se  Se123  1  0.42247783  0.41945784  0.05788109  1
  Se  Se124  1  0.40544711  0.40704998  0.56104786  1
  Se  Se125  1  0.41166250  0.75358538  0.05439918  1
  Se  Se126  1  0.40843208  0.73797604  0.55633117  1
  Se  Se127  1  0.74076763  0.08105733  0.06508714  1
  Se  Se128  1  0.75153379  0.08319668  0.54897139  1
  Se  Se129  1  0.75538028  0.40799407  0.06318160  1
  Se  Se130  1  0.74020673  0.41372372  0.54961558  1
  Se  Se131  1  0.75208408  0.75976660  0.05182219  1
  Se  Se132  1  0.74990210  0.75555464  0.56023626  1
  Se  Se133  1  0.25852366  0.25336528  0.06660466  1
  Se  Se134  1  0.24732309  0.24707034  0.54684363  1
  Se  Se135  1  0.25025554  0.57876931  0.04989679  1
  Se  Se136  1  0.24155608  0.57967163  0.54614664  1
  Se  Se137  1  0.24524509  0.91706080  0.05363564  1
  Se  Se138  1  0.25454798  0.91509988  0.54939141  1
  Se  Se139  1  0.57961400  0.24721759  0.05750125  1
  Se  Se140  1  0.57810865  0.24230514  0.54664859  1
  Se  Se141  1  0.59236794  0.58751560  0.05302751  1
  Se  Se142  1  0.58034553  0.58540864  0.55776153  1
  Se  Se143  1  0.57595956  0.91823314  0.05846905  1
  Se  Se144  1  0.59116657  0.91835380  0.56356345  1
  Se  Se145  1  0.92600892  0.25218381  0.05819266  1
  Se  Se146  1  0.91359468  0.25088311  0.54753135  1
  Se  Se147  1  0.92922779  0.58758192  0.06481687  1
  Se  Se148  1  0.91109695  0.58370646  0.55808442  1
  Se  Se149  1  0.90523728  0.91507383  0.04561330  1
  Se  Se150  1  0.92539355  0.91919716  0.55198619  1
  Se  Se151  1  0.08126457  0.25318992  0.44470759  1
  Se  Se152  1  0.08296578  0.24462468  0.94060078  1
  Se  Se153  1  0.07794388  0.58758475  0.44796056  1
  Se  Se154  1  0.08671033  0.57361995  0.94452383  1
  Se  Se155  1  0.08945403  0.91969375  0.44107961  1
  Se  Se156  1  0.08046879  0.91710587  0.95241196  1
  Se  Se157  1  0.41957976  0.25109226  0.44472772  1
  Se  Se158  1  0.41924473  0.24607449  0.95506241  1
  Se  Se159  1  0.40103170  0.58294689  0.43358724  1
  Se  Se160  1  0.42428507  0.58314053  0.95043248  1
  Se  Se161  1  0.41478380  0.92091228  0.43461006  1
  Se  Se162  1  0.41406500  0.91693388  0.95176349  1
  Se  Se163  1  0.75124983  0.24338296  0.44394676  1
  Se  Se164  1  0.74230334  0.25945917  0.94197171  1
  Se  Se165  1  0.74910958  0.57915910  0.45382462  1
  Se  Se166  1  0.74987435  0.59413545  0.93922256  1
  Se  Se167  1  0.75147325  0.91175843  0.44793992  1
  Se  Se168  1  0.74476321  0.92325933  0.94778639  1
  Se  Se169  1  0.25056903  0.08290689  0.44163092  1
  Se  Se170  1  0.25338954  0.07350059  0.93827166  1
  Se  Se171  1  0.24354022  0.42006187  0.44600829  1
  Se  Se172  1  0.25347247  0.40811162  0.94816787  1
  Se  Se173  1  0.25027809  0.75831331  0.44189450  1
  Se  Se174  1  0.24930177  0.74476216  0.94417860  1
  Se  Se175  1  0.57994198  0.07625249  0.44384375  1
  Se  Se176  1  0.58011443  0.09236291  0.95240612  1
  Se  Se177  1  0.58358166  0.40441669  0.43349110  1
  Se  Se178  1  0.58531128  0.42201552  0.95660253  1
  Se  Se179  1  0.59177085  0.74107837  0.44281478  1
  Se  Se180  1  0.58315585  0.75755590  0.94572999  1
  Se  Se181  1  0.91560616  0.08522638  0.44996399  1
  Se  Se182  1  0.92308583  0.07404180  0.93884997  1
  Se  Se183  1  0.90851275  0.41993588  0.44600442  1
  Se  Se184  1  0.92510913  0.40815886  0.94143638  1
  Se  Se185  1  0.91424517  0.75445508  0.45200407  1
  Se  Se186  1  0.91464818  0.74521353  0.94929669  1
  Se  Se187  1  0.27384631  0.27570573  0.31053460  1
  Se  Se188  1  0.23912221  0.23845407  0.80403976  1
  Se  Se189  1  0.24436649  0.58494733  0.31109842  1
  Se  Se190  1  0.24184811  0.57040304  0.80944785  1
  Se  Se191  1  0.26586643  0.93065650  0.29038780  1
  Se  Se192  1  0.24420899  0.90271417  0.80204224  1
  Se  Se193  1  0.58635416  0.24620091  0.30423260  1
  Se  Se194  1  0.57787231  0.25524765  0.81134245  1
  Se  Se195  1  0.58094069  0.57645672  0.30796789  1
  Se  Se196  1  0.58686431  0.58859980  0.80692302  1
  Se  Se197  1  0.58169964  0.90395984  0.29735249  1
  Se  Se198  1  0.58900075  0.93094900  0.80728911  1
  Se  Se199  1  0.91472119  0.24883858  0.30476568  1
  Se  Se200  1  0.92351973  0.25329484  0.79418169  1
  Se  Se201  1  0.91057107  0.57379770  0.31289512  1
  Se  Se202  1  0.91917972  0.58656399  0.79862104  1
  Se  Se203  1  0.91192091  0.91274011  0.31093234  1
  Se  Se204  1  0.91365100  0.91157452  0.81403772  1
  Se  Se205  1  0.08629404  0.08775226  0.31448950  1
  Se  Se206  1  0.09107111  0.08266021  0.80515991  1
  Se  Se207  1  0.08341040  0.41763985  0.30422082  1
  Se  Se208  1  0.07831086  0.40997257  0.80254600  1
  Se  Se209  1  0.09417471  0.76696510  0.30560621  1
  Se  Se210  1  0.07963601  0.74938832  0.80318501  1
  Se  Se211  1  0.41494888  0.08431328  0.30486433  1
  Se  Se212  1  0.42639093  0.09442051  0.81564434  1
  Se  Se213  1  0.43490264  0.43458456  0.29733762  1
  Se  Se214  1  0.42255798  0.42330425  0.81454315  1
  Se  Se215  1  0.42619412  0.75902023  0.30479508  1
  Se  Se216  1  0.42386374  0.76057715  0.81114274  1
  Se  Se217  1  0.74513481  0.07460392  0.30682394  1
  Se  Se218  1  0.75261298  0.09343191  0.80013266  1
  Se  Se219  1  0.74672838  0.41154588  0.30520262  1
  Se  Se220  1  0.76020422  0.42828448  0.81301598  1
  Se  Se221  1  0.75880098  0.74564292  0.31105116  1
  Se  Se222  1  0.74817851  0.75485032  0.80444194  1
  Se  Se223  1  0.21275892  0.11089553  0.19062743  1
  Se  Se224  1  0.25150049  0.08259002  0.68683042  1
  Se  Se225  1  0.25337521  0.42063805  0.19659438  1
  Se  Se226  1  0.24200066  0.42024716  0.68819746  1
  Se  Se227  1  0.23893744  0.75613838  0.19167313  1
  Se  Se228  1  0.24663584  0.75204744  0.68703522  1
  Se  Se229  1  0.58150949  0.07524266  0.19899245  1
  Se  Se230  1  0.58906838  0.08428424  0.69660734  1
  Se  Se231  1  0.59283747  0.40599075  0.19715611  1
  Se  Se232  1  0.57497804  0.42516444  0.69319402  1
  Se  Se233  1  0.57385067  0.75892781  0.18985217  1
  Se  Se234  1  0.58017372  0.75285354  0.70754997  1
  Se  Se235  1  0.90498842  0.09191528  0.18900007  1
  Se  Se236  1  0.91163614  0.08830122  0.68226267  1
  Se  Se237  1  0.92380131  0.41044321  0.20034775  1
  Se  Se238  1  0.91445211  0.41641630  0.69423768  1
  Se  Se239  1  0.91496403  0.75819753  0.19112443  1
  Se  Se240  1  0.91850722  0.75290313  0.69736649  1
  Se  Se241  1  0.08443138  0.25297841  0.20589539  1
  Se  Se242  1  0.08012291  0.25044220  0.69050937  1
  Se  Se243  1  0.08872325  0.58257727  0.19180819  1
  Se  Se244  1  0.08054145  0.58632562  0.69457989  1
  Se  Se245  1  0.08224618  0.90548926  0.19065290  1
  Se  Se246  1  0.09472453  0.90948837  0.68929743  1
  Se  Se247  1  0.41690799  0.24890758  0.19914541  1
  Se  Se248  1  0.42288039  0.24319209  0.69115554  1
  Se  Se249  1  0.42971004  0.57784753  0.18878034  1
  Se  Se250  1  0.42076196  0.57967839  0.69223545  1
  Se  Se251  1  0.38904003  0.93274266  0.19971368  1
  Se  Se252  1  0.42930646  0.90889460  0.69462406  1
  Se  Se253  1  0.74641257  0.24774629  0.20287706  1
  Se  Se254  1  0.75474948  0.24873628  0.68126455  1
  Se  Se255  1  0.76348511  0.57279127  0.19018262  1
  Se  Se256  1  0.74518410  0.58850068  0.69672507  1
  Se  Se257  1  0.74692970  0.91769988  0.19934043  1
  Se  Se258  1  0.75290241  0.92398808  0.69780474  1
