# generated using pymatgen
data_In86Cu29Se144
_symmetry_space_group_name_H-M   'P 1'
_cell_length_a   17.58344545
_cell_length_b   17.58793436
_cell_length_c   23.44824869
_cell_angle_alpha   89.96909048
_cell_angle_beta   90.01581473
_cell_angle_gamma   90.01274504
_symmetry_Int_Tables_number   1
_chemical_formula_structural   In86Cu29Se144
_chemical_formula_sum   'In86 Cu29 Se144'
_cell_volume   7251.52144408
_cell_formula_units_Z   1
loop_
 _symmetry_equiv_pos_site_id
 _symmetry_equiv_pos_as_xyz
  1  'x, y, z'
loop_
 _atom_site_type_symbol
 _atom_site_label
 _atom_site_symmetry_multiplicity
 _atom_site_fract_x
 _atom_site_fract_y
 _atom_site_fract_z
 _atom_site_occupancy
  In  In0  1  -0.00262822  0.16154144  0.12249204  1
  In  In1  1  0.00069985  0.16675278  0.62574847  1
  In  In2  1  -0.01185906  0.52650298  0.11520828  1
  In  In3  1  -0.01123318  0.50227569  0.63726427  1
  In  In4  1  0.00904815  0.82423178  0.12255421  1
  In  In5  1  0.00515733  0.82936894  0.64081749  1
  In  In6  1  0.33047817  0.16364778  0.11863349  1
  In  In7  1  0.33906750  0.18197828  0.62007345  1
  In  In8  1  0.34924814  0.49969535  0.12388040  1
  In  In9  1  0.32987710  0.48730775  0.62704893  1
  In  In10  1  0.31422497  0.83120550  0.12001723  1
  In  In11  1  0.33954085  0.83228888  0.62860804  1
  In  In12  1  0.66786522  0.17230437  0.13085812  1
  In  In13  1  0.67099757  0.16327637  0.61006344  1
  In  In14  1  0.66783993  0.49996137  0.12285871  1
  In  In15  1  0.67741995  0.50679858  0.61615372  1
  In  In16  1  0.67321297  0.83155114  0.13437410  1
  In  In17  1  0.65835867  0.81979599  0.62655398  1
  In  In18  1  0.16043801  0.01719034  0.37294512  1
  In  In19  1  0.16210731  0.00699847  0.87985183  1
  In  In20  1  0.15368364  0.32525044  0.37582001  1
  In  In21  1  0.15146205  0.32500514  0.86087632  1
  In  In22  1  0.16621229  0.66644809  0.36631639  1
  In  In23  1  0.15808645  0.67975934  0.87969572  1
  In  In24  1  0.51251157  0.00982859  0.37284744  1
  In  In25  1  0.51469040  0.00443976  0.87894031  1
  In  In26  1  0.51284017  0.32230092  0.38271967  1
  In  In27  1  0.49815995  0.34091435  0.87793376  1
  In  In28  1  0.49852373  0.66031206  0.36856424  1
  In  In29  1  0.49588521  0.65838905  0.87794631  1
  In  In30  1  0.83611957  0.00479079  0.37096386  1
  In  In31  1  0.84682978  -0.00518200  0.87797790  1
  In  In32  1  0.82562741  0.34575067  0.38179117  1
  In  In33  1  0.83617034  0.32404175  0.87823560  1
  In  In34  1  0.82537535  0.66119897  0.36633001  1
  In  In35  1  0.82955896  0.66009492  0.87335189  1
  In  In36  1  0.00521771  0.15748388  0.38005901  1
  In  In37  1  -0.00033167  0.16665498  0.87542237  1
  In  In38  1  -0.01347758  0.49863424  0.37285229  1
  In  In39  1  -0.00671260  0.48984251  0.86786915  1
  In  In40  1  -0.00238223  0.83263365  0.36825432  1
  In  In41  1  0.01142714  0.84322705  0.86280964  1
  In  In42  1  0.32912280  0.17382978  0.38092025  1
  In  In43  1  0.32741524  0.17451345  0.87906633  1
  In  In44  1  0.33623479  0.51206352  0.37142882  1
  In  In45  1  0.34555235  0.49534509  0.87708217  1
  In  In46  1  0.34401276  0.83016209  0.37262416  1
  In  In47  1  0.32689576  0.82073450  0.87767361  1
  In  In48  1  0.66672323  0.16861397  0.37552868  1
  In  In49  1  0.66743084  0.16580597  0.88659349  1
  In  In50  1  0.66824138  0.49782926  0.37339377  1
  In  In51  1  0.66480658  0.51259935  0.89211944  1
  In  In52  1  0.67101331  0.83841465  0.36224215  1
  In  In53  1  0.67687262  0.82915076  0.87571426  1
  In  In54  1  0.15824492  -0.00415947  0.11966748  1
  In  In55  1  0.14930310  0.00328163  0.63176207  1
  In  In56  1  0.16613896  0.32942441  0.11844034  1
  In  In57  1  0.17559296  0.33142988  0.63763107  1
  In  In58  1  0.15386585  0.67954026  0.12575188  1
  In  In59  1  0.16272316  0.65015355  0.63688044  1
  In  In60  1  0.50047154  0.01486599  0.12813196  1
  In  In61  1  0.49494477  0.00504947  0.62086464  1
  In  In62  1  0.50833137  0.34555054  0.11952828  1
  In  In63  1  0.49590109  0.32859191  0.61991419  1
  In  In64  1  0.51375019  0.65325081  0.13113724  1
  In  In65  1  0.52082900  0.66696795  0.62659037  1
  In  In66  1  0.82670149  0.01005910  0.13387210  1
  In  In67  1  0.83938433  0.01263151  0.62313112  1
  In  In68  1  0.82868973  0.32241483  0.12006110  1
  In  In69  1  0.83487966  0.33253107  0.62030716  1
  In  In70  1  0.83395715  0.66319050  0.12164546  1
  In  In71  1  0.83787157  0.65975196  0.62993277  1
  In  In72  1  0.50564593  0.84055770  0.49832011  1
  In  In73  1  0.16636669  0.83446625  0.51299557  1
  In  In74  1  0.33029295  -0.00571766  0.24674400  1
  In  In75  1  0.67556795  -0.00514425  0.74734093  1
  In  In76  1  0.16362574  0.48919600  0.50834499  1
  In  In77  1  -0.00618951  0.33448945  0.24451989  1
  In  In78  1  0.33499679  -0.00267021  0.74940415  1
  In  In79  1  0.33487843  0.33436657  0.25545667  1
  In  In80  1  0.16603204  0.49887503  -0.00761694  1
  In  In81  1  0.83449093  0.83762089  0.49009501  1
  In  In82  1  0.83719178  0.83186605  0.00441028  1
  In  In83  1  0.66906334  0.33565937  0.74652946  1
  In  In84  1  0.49731274  0.83042448  -0.00176054  1
  In  In85  1  0.33115537  0.66321730  0.75474973  1
  Cu  Cu86  1  0.67094765  0.66094209  0.49415301  1
  Cu  Cu87  1  0.33638826  0.32390210  -0.00175101  1
  Cu  Cu88  1  0.16375575  0.16442992  0.75304239  1
  Cu  Cu89  1  0.51034667  0.50121865  0.24747673  1
  Cu  Cu90  1  0.84383407  0.16514850  0.75129989  1
  Cu  Cu91  1  -0.00383523  0.65309386  0.50475108  1
  Cu  Cu92  1  -0.00641422  0.32467983  0.50231755  1
  Cu  Cu93  1  0.32909920  0.00231024  0.00202879  1
  Cu  Cu94  1  0.16177399  0.83121998  0.24663279  1
  Cu  Cu95  1  0.66721743  0.33057246  0.00354596  1
  Cu  Cu96  1  0.50415519  0.17290232  0.25039489  1
  Cu  Cu97  1  0.00163710  0.33140988  -0.00672677  1
  Cu  Cu98  1  0.33153311  0.01506812  0.50171639  1
  Cu  Cu99  1  0.49727411  0.82646120  0.24877058  1
  Cu  Cu100  1  0.16558687  0.50787382  0.24287743  1
  Cu  Cu101  1  -0.00067321  0.00617024  -0.00166930  1
  Cu  Cu102  1  0.83831548  0.83758219  0.24658461  1
  Cu  Cu103  1  0.66605144  0.00924648  0.00980100  1
  Cu  Cu104  1  0.66687806  0.33597006  0.49796150  1
  Cu  Cu105  1  0.49799108  0.17209616  0.74622110  1
  Cu  Cu106  1  0.33085455  0.66166554  -0.00062185  1
  Cu  Cu107  1  0.83668116  0.82571223  0.75283776  1
  Cu  Cu108  1  0.33188513  0.33600329  0.50182304  1
  Cu  Cu109  1  0.33793912  0.66435967  0.49390451  1
  Cu  Cu110  1  -0.00047316  0.00101041  0.50113368  1
  Cu  Cu111  1  0.82386934  0.50021517  0.74996500  1
  Cu  Cu112  1  0.82981689  0.50533933  0.24805703  1
  Cu  Cu113  1  0.83163532  0.17124850  0.25245886  1
  Cu  Cu114  1  0.50378903  0.50100458  0.75449177  1
  Se  Se115  1  0.08538472  0.08800225  0.05135633  1
  Se  Se116  1  0.08386978  0.08389299  0.55418692  1
  Se  Se117  1  0.07126575  0.41617246  0.05862762  1
  Se  Se118  1  0.07016312  0.40466438  0.56715364  1
  Se  Se119  1  0.07967177  0.74633986  0.04595276  1
  Se  Se120  1  0.07557682  0.73403761  0.56366995  1
  Se  Se121  1  0.41737159  0.08258290  0.05233188  1
  Se  Se122  1  0.41998823  0.09357578  0.55368248  1
  Se  Se123  1  0.41498177  0.41374342  0.04940541  1
  Se  Se124  1  0.41605193  0.41944461  0.55341814  1
  Se  Se125  1  0.41114573  0.74157751  0.06214224  1
  Se  Se126  1  0.41570771  0.74422156  0.55643034  1
  Se  Se127  1  0.75277093  0.09146055  0.05985432  1
  Se  Se128  1  0.75388921  0.07537142  0.54910392  1
  Se  Se129  1  0.75135629  0.41428063  0.05539117  1
  Se  Se130  1  0.75378257  0.41584641  0.55127387  1
  Se  Se131  1  0.73627251  0.74569466  0.05565374  1
  Se  Se132  1  0.74907169  0.74449716  0.55384243  1
  Se  Se133  1  0.24736036  0.24696152  0.05076264  1
  Se  Se134  1  0.24395915  0.25736617  0.55566099  1
  Se  Se135  1  0.25070707  0.58331061  0.06207020  1
  Se  Se136  1  0.25638940  0.59042487  0.55796521  1
  Se  Se137  1  0.24270934  0.91654050  0.04866519  1
  Se  Se138  1  0.26084810  0.93047748  0.56466309  1
  Se  Se139  1  0.58304504  0.24795389  0.05790993  1
  Se  Se140  1  0.58352827  0.25224977  0.55136600  1
  Se  Se141  1  0.57553253  0.57222765  0.05376130  1
  Se  Se142  1  0.58413476  0.58317272  0.54945756  1
  Se  Se143  1  0.58621780  0.91997585  0.06261260  1
  Se  Se144  1  0.59722812  0.92600030  0.55968991  1
  Se  Se145  1  0.92161679  0.24972323  0.05305481  1
  Se  Se146  1  0.91079131  0.23980473  0.55492193  1
  Se  Se147  1  0.89797197  0.58487145  0.03986997  1
  Se  Se148  1  0.91162472  0.57337699  0.55796921  1
  Se  Se149  1  0.92071702  0.92861334  0.06324202  1
  Se  Se150  1  0.92827247  0.91167679  0.56052756  1
  Se  Se151  1  0.08199465  0.24554070  0.45041788  1
  Se  Se152  1  0.08750261  0.24901526  0.94284950  1
  Se  Se153  1  0.08344706  0.58354206  0.44213150  1
  Se  Se154  1  0.06959928  0.58635409  0.93949782  1
  Se  Se155  1  0.08038116  0.91682730  0.44339788  1
  Se  Se156  1  0.07838642  0.91907426  0.94466298  1
  Se  Se157  1  0.41528808  0.25231025  0.44799508  1
  Se  Se158  1  0.42430655  0.24611188  0.94405056  1
  Se  Se159  1  0.42292054  0.58119205  0.44474899  1
  Se  Se160  1  0.41798205  0.57866599  0.95109388  1
  Se  Se161  1  0.40810734  0.93063507  0.44183772  1
  Se  Se162  1  0.40855580  0.92480002  0.93831180  1
  Se  Se163  1  0.75055514  0.25121802  0.44569062  1
  Se  Se164  1  0.75324253  0.24801013  0.95118913  1
  Se  Se165  1  0.75674559  0.57894359  0.44235210  1
  Se  Se166  1  0.76893144  0.57804739  0.95414629  1
  Se  Se167  1  0.73723129  0.92677096  0.43890958  1
  Se  Se168  1  0.74255375  0.92784300  0.94720581  1
  Se  Se169  1  0.24362478  0.08914260  0.44634430  1
  Se  Se170  1  0.24871300  0.08736720  0.94665675  1
  Se  Se171  1  0.25339144  0.41187062  0.43616065  1
  Se  Se172  1  0.25359036  0.40240913  0.93702995  1
  Se  Se173  1  0.25269827  0.74818910  0.44284423  1
  Se  Se174  1  0.24667079  0.74949389  0.95299089  1
  Se  Se175  1  0.57779246  0.09398904  0.44588674  1
  Se  Se176  1  0.57968666  0.08781539  0.95507695  1
  Se  Se177  1  0.58376378  0.42117846  0.44579580  1
  Se  Se178  1  0.58454540  0.41430044  0.94912165  1
  Se  Se179  1  0.59228073  0.74705172  0.43681830  1
  Se  Se180  1  0.59227251  0.74170103  0.94349956  1
  Se  Se181  1  0.91434761  0.08062514  0.44692128  1
  Se  Se182  1  0.91341404  0.08822955  0.94683670  1
  Se  Se183  1  0.92016556  0.41743560  0.44977546  1
  Se  Se184  1  0.91556358  0.41448741  0.94383098  1
  Se  Se185  1  0.92574280  0.73746963  0.44046282  1
  Se  Se186  1  0.91976760  0.75713809  0.93123817  1
  Se  Se187  1  0.23733201  0.24123782  0.30457754  1
  Se  Se188  1  0.25203237  0.24793951  0.80172968  1
  Se  Se189  1  0.25160741  0.58485588  0.29927893  1
  Se  Se190  1  0.24536049  0.57952358  0.82013142  1
  Se  Se191  1  0.23987083  0.90804064  0.31214000  1
  Se  Se192  1  0.24563039  0.91185969  0.81150822  1
  Se  Se193  1  0.58854203  0.25463722  0.30313058  1
  Se  Se194  1  0.58334286  0.24340914  0.80918787  1
  Se  Se195  1  0.59117413  0.58577080  0.30312098  1
  Se  Se196  1  0.58529636  0.57978639  0.81171194  1
  Se  Se197  1  0.57472273  0.91631749  0.30119508  1
  Se  Se198  1  0.58173524  0.90946085  0.80836834  1
  Se  Se199  1  0.91172954  0.25059065  0.31425622  1
  Se  Se200  1  0.92105405  0.25319916  0.80441826  1
  Se  Se201  1  0.91857818  0.58537463  0.29975436  1
  Se  Se202  1  0.91161923  0.57983479  0.80271588  1
  Se  Se203  1  0.91832533  0.92036566  0.30292948  1
  Se  Se204  1  0.91523477  0.91996447  0.79900437  1
  Se  Se205  1  0.07205536  0.08013151  0.30082048  1
  Se  Se206  1  0.08079874  0.08148231  0.80566996  1
  Se  Se207  1  0.08907657  0.42570292  0.30473803  1
  Se  Se208  1  0.08727424  0.42473119  0.79741876  1
  Se  Se209  1  0.07887916  0.74720891  0.30123382  1
  Se  Se210  1  0.08579778  0.74775079  0.79941870  1
  Se  Se211  1  0.41574154  0.09282666  0.30600998  1
  Se  Se212  1  0.42580740  0.08787178  0.80931735  1
  Se  Se213  1  0.43057492  0.42216161  0.31118099  1
  Se  Se214  1  0.41861818  0.41403413  0.80161434  1
  Se  Se215  1  0.41290102  0.74390326  0.30097445  1
  Se  Se216  1  0.42612213  0.75724199  0.80841325  1
  Se  Se217  1  0.74814281  0.08566764  0.30486283  1
  Se  Se218  1  0.75674574  0.08967664  0.81101912  1
  Se  Se219  1  0.75240245  0.41754516  0.30231688  1
  Se  Se220  1  0.74855715  0.42210429  0.81543697  1
  Se  Se221  1  0.75307019  0.75204052  0.29786802  1
  Se  Se222  1  0.74901028  0.74572293  0.80330140  1
  Se  Se223  1  0.24180605  0.08660161  0.19033786  1
  Se  Se224  1  0.24917907  0.09197874  0.68950548  1
  Se  Se225  1  0.24538522  0.42182513  0.18875717  1
  Se  Se226  1  0.24191239  0.43087834  0.70223613  1
  Se  Se227  1  0.24781184  0.74792310  0.19633132  1
  Se  Se228  1  0.24391970  0.75658204  0.69297188  1
  Se  Se229  1  0.58633502  0.08491256  0.20019071  1
  Se  Se230  1  0.58219368  0.09064494  0.69110076  1
  Se  Se231  1  0.58989657  0.41403774  0.19573461  1
  Se  Se232  1  0.57925550  0.42540385  0.68694780  1
  Se  Se233  1  0.58608020  0.74688593  0.19784982  1
  Se  Se234  1  0.58561639  0.74733077  0.70326724  1
  Se  Se235  1  0.91701220  0.08995574  0.19918465  1
  Se  Se236  1  0.92384622  0.07914384  0.69789957  1
  Se  Se237  1  0.91013473  0.42867292  0.18394984  1
  Se  Se238  1  0.90404020  0.41085280  0.69866973  1
  Se  Se239  1  0.91346777  0.75196306  0.18838509  1
  Se  Se240  1  0.91941710  0.74002698  0.70046172  1
  Se  Se241  1  0.09031982  0.24527695  0.19206377  1
  Se  Se242  1  0.08231728  0.24770050  0.69703634  1
  Se  Se243  1  0.07678558  0.58712062  0.19174630  1
  Se  Se244  1  0.08315829  0.57067252  0.70505780  1
  Se  Se245  1  0.08068342  0.91533598  0.19279104  1
  Se  Se246  1  0.09037092  0.91251037  0.70387634  1
  Se  Se247  1  0.41979702  0.24736592  0.18898877  1
  Se  Se248  1  0.41487267  0.25788459  0.69699383  1
  Se  Se249  1  0.41857000  0.58169501  0.19940043  1
  Se  Se250  1  0.42416343  0.57933188  0.69026380  1
  Se  Se251  1  0.42067901  0.90584743  0.18475472  1
  Se  Se252  1  0.43465231  0.90793610  0.69503400  1
  Se  Se253  1  0.75015831  0.25679988  0.20006395  1
  Se  Se254  1  0.75394298  0.23559658  0.69122673  1
  Se  Se255  1  0.74754146  0.58728519  0.19237500  1
  Se  Se256  1  0.74292681  0.58534380  0.69595816  1
  Se  Se257  1  0.74784503  0.92221477  0.20113048  1
  Se  Se258  1  0.76287049  0.90408073  0.68502404  1
