# generated using pymatgen
data_In86Cu29Se144
_symmetry_space_group_name_H-M   'P 1'
_cell_length_a   17.58198869
_cell_length_b   17.58645557
_cell_length_c   23.43391981
_cell_angle_alpha   90.01203938
_cell_angle_beta   89.97662356
_cell_angle_gamma   90.01189528
_symmetry_Int_Tables_number   1
_chemical_formula_structural   In86Cu29Se144
_chemical_formula_sum   'In86 Cu29 Se144'
_cell_volume   7245.88104506
_cell_formula_units_Z   1
loop_
 _symmetry_equiv_pos_site_id
 _symmetry_equiv_pos_as_xyz
  1  'x, y, z'
loop_
 _atom_site_type_symbol
 _atom_site_label
 _atom_site_symmetry_multiplicity
 _atom_site_fract_x
 _atom_site_fract_y
 _atom_site_fract_z
 _atom_site_occupancy
  In  In0  1  -0.00209671  0.16103428  0.11811097  1
  In  In1  1  0.00667411  0.16157993  0.63429699  1
  In  In2  1  0.01337742  0.49377202  0.11500185  1
  In  In3  1  0.01081100  0.49092192  0.63499814  1
  In  In4  1  -0.00134799  0.85115595  0.11969103  1
  In  In5  1  -0.00353368  0.83348035  0.64796415  1
  In  In6  1  0.32824746  0.17411130  0.12961882  1
  In  In7  1  0.33965432  0.16727835  0.63177242  1
  In  In8  1  0.33202072  0.50183861  0.12211852  1
  In  In9  1  0.32632211  0.50575325  0.63298042  1
  In  In10  1  0.34145253  0.82145064  0.12801202  1
  In  In11  1  0.33737495  0.82580589  0.63562778  1
  In  In12  1  0.65142411  0.17853434  0.14271767  1
  In  In13  1  0.66882509  0.16305779  0.63288214  1
  In  In14  1  0.63577752  0.52648369  0.14708323  1
  In  In15  1  0.65533338  0.49517873  0.62574542  1
  In  In16  1  0.66439748  0.83503562  0.11983381  1
  In  In17  1  0.67156184  0.84041286  0.62305009  1
  In  In18  1  0.16883422  -0.00153906  0.36689998  1
  In  In19  1  0.17487857  0.00115091  0.86575136  1
  In  In20  1  0.18037045  0.33843544  0.37417953  1
  In  In21  1  0.16760128  0.32861305  0.87983653  1
  In  In22  1  0.16692946  0.65360581  0.37812739  1
  In  In23  1  0.15986924  0.66032271  0.86630565  1
  In  In24  1  0.49140247  -0.00848327  0.36728203  1
  In  In25  1  0.49063731  -0.00641337  0.87219196  1
  In  In26  1  0.49748622  0.33332936  0.35389098  1
  In  In27  1  0.50745298  0.33742379  0.87602784  1
  In  In28  1  0.51042364  0.67789980  0.36379634  1
  In  In29  1  0.49076638  0.67251412  0.88340427  1
  In  In30  1  0.83677115  0.00224564  0.37009983  1
  In  In31  1  0.82523757  -0.01298773  0.86388028  1
  In  In32  1  0.82418438  0.33558529  0.37522597  1
  In  In33  1  0.83087697  0.32997933  0.86953780  1
  In  In34  1  0.82347317  0.67843735  0.37589335  1
  In  In35  1  0.84659622  0.67176562  0.87228556  1
  In  In36  1  0.01162175  0.15863074  0.37850680  1
  In  In37  1  0.01089742  0.17636107  0.87224978  1
  In  In38  1  0.01235222  0.50850838  0.38165866  1
  In  In39  1  0.00938281  0.50247346  0.87454011  1
  In  In40  1  -0.00767362  0.83926300  0.37705049  1
  In  In41  1  -0.00578609  0.82437114  0.86008789  1
  In  In42  1  0.33797952  0.16893960  0.36066546  1
  In  In43  1  0.32113356  0.15712063  0.87462504  1
  In  In44  1  0.33334415  0.49609337  0.36534974  1
  In  In45  1  0.33623480  0.49628266  0.87795474  1
  In  In46  1  0.34393723  0.84273902  0.36773310  1
  In  In47  1  0.33712355  0.83953588  0.86627182  1
  In  In48  1  0.65083493  0.15522190  0.35360346  1
  In  In49  1  0.66963584  0.16803786  0.87356403  1
  In  In50  1  0.65797816  0.50025441  0.36096084  1
  In  In51  1  0.66389321  0.48965871  0.87824844  1
  In  In52  1  0.65060283  0.81935103  0.36863092  1
  In  In53  1  0.65914218  0.83832420  0.88097200  1
  In  In54  1  0.16033571  0.00516857  0.12643725  1
  In  In55  1  0.16449493  -0.00515859  0.63807421  1
  In  In56  1  0.17669416  0.34860864  0.10353437  1
  In  In57  1  0.16533206  0.33802745  0.63361766  1
  In  In58  1  0.18225062  0.66441640  0.12394468  1
  In  In59  1  0.18075944  0.66216462  0.63940948  1
  In  In60  1  0.50914029  -0.00556230  0.12947926  1
  In  In61  1  0.50940093  -0.00744045  0.62754639  1
  In  In62  1  0.47359433  0.35695395  0.14996182  1
  In  In63  1  0.50070845  0.33194396  0.63539316  1
  In  In64  1  0.49382741  0.66858175  0.12029935  1
  In  In65  1  0.48426282  0.66106582  0.62175853  1
  In  In66  1  0.83378079  0.00053087  0.12397121  1
  In  In67  1  0.83554275  -0.01362279  0.63901917  1
  In  In68  1  0.82953435  0.33165944  0.11951424  1
  In  In69  1  0.83456295  0.33368417  0.63513679  1
  In  In70  1  0.81724615  0.66763283  0.12266157  1
  In  In71  1  0.83781964  0.68268858  0.63040442  1
  In  In72  1  0.16503274  0.83239072  -0.00989771  1
  In  In73  1  -0.00373130  0.67334172  0.25666323  1
  In  In74  1  0.17310265  0.16317967  0.51086202  1
  In  In75  1  0.49887497  0.16646184  0.48654486  1
  In  In76  1  0.49765040  0.50828732  0.49058961  1
  In  In77  1  0.66908484  0.66539459  0.74711279  1
  In  In78  1  0.83249979  0.16285434  0.49661351  1
  In  In79  1  0.83355658  0.50519834  -0.00296679  1
  In  In80  1  -0.00420562  0.32614946  0.24060142  1
  In  In81  1  0.49712039  0.16723328  0.01181092  1
  In  In82  1  0.16622888  0.83305138  0.50895422  1
  In  In83  1  0.83248167  0.50257412  0.49337204  1
  In  In84  1  0.83494965  0.83270847  0.50894087  1
  In  In85  1  0.83303491  0.16464870  0.00179352  1
  Cu  Cu86  1  0.50209314  0.83499758  0.75275033  1
  Cu  Cu87  1  0.17115731  0.83662444  0.24480174  1
  Cu  Cu88  1  0.83044616  0.83964305  0.24772536  1
  Cu  Cu89  1  0.00361554  0.67276006  -0.00830724  1
  Cu  Cu90  1  0.32976817  0.67283548  0.50395428  1
  Cu  Cu91  1  0.83779574  0.49827779  0.75656692  1
  Cu  Cu92  1  0.33708180  -0.00203263  0.49483168  1
  Cu  Cu93  1  0.33395264  0.34994001  0.49711539  1
  Cu  Cu94  1  0.33515002  0.33101048  0.00179085  1
  Cu  Cu95  1  0.49726981  0.16578344  0.75663751  1
  Cu  Cu96  1  0.66255326  0.33006691  0.49847749  1
  Cu  Cu97  1  0.16973110  0.17195863  0.75194981  1
  Cu  Cu98  1  0.83057585  0.16531512  0.75304379  1
  Cu  Cu99  1  0.66126149  0.34748585  0.00734687  1
  Cu  Cu100  1  -0.00528662  0.00158843  -0.00417575  1
  Cu  Cu101  1  0.82650758  0.50311999  0.24875302  1
  Cu  Cu102  1  0.50110705  0.83305573  0.24362626  1
  Cu  Cu103  1  0.16914004  0.49788586  0.24643014  1
  Cu  Cu104  1  0.67080714  -0.01178623  0.50097192  1
  Cu  Cu105  1  0.66499925  0.00116099  0.00139616  1
  Cu  Cu106  1  0.00725395  0.66023744  0.51096784  1
  Cu  Cu107  1  0.17328947  0.49294490  0.75640349  1
  Cu  Cu108  1  0.16426689  0.16498154  0.24700537  1
  Cu  Cu109  1  0.49855634  0.49712894  0.75181754  1
  Cu  Cu110  1  0.00813878  0.33436719  0.51025260  1
  Cu  Cu111  1  0.33398391  0.65882505  0.00023731  1
  Cu  Cu112  1  0.32986662  -0.00821136  -0.00480288  1
  Cu  Cu113  1  0.83906844  0.15999915  0.24605974  1
  Cu  Cu114  1  0.66247948  0.67211903  0.00353127  1
  Se  Se115  1  0.08156035  0.07927460  0.04977136  1
  Se  Se116  1  0.07815625  0.07065301  0.56054008  1
  Se  Se117  1  0.07899973  0.41516134  0.03849281  1
  Se  Se118  1  0.09196038  0.41973607  0.55825124  1
  Se  Se119  1  0.08058739  0.74621809  0.06120816  1
  Se  Se120  1  0.07787903  0.74590664  0.57218378  1
  Se  Se121  1  0.40531966  0.06986312  0.06193423  1
  Se  Se122  1  0.41577528  0.08098974  0.55530027  1
  Se  Se123  1  0.41766879  0.41288617  0.05743550  1
  Se  Se124  1  0.41919617  0.41809853  0.56104244  1
  Se  Se125  1  0.41411808  0.75092450  0.04783724  1
  Se  Se126  1  0.41365872  0.75621804  0.55526094  1
  Se  Se127  1  0.73456091  0.08792320  0.06351855  1
  Se  Se128  1  0.74745933  0.07106122  0.56096856  1
  Se  Se129  1  0.74227568  0.42919285  0.06515896  1
  Se  Se130  1  0.74552443  0.40788975  0.55631031  1
  Se  Se131  1  0.75221568  0.75556501  0.04928415  1
  Se  Se132  1  0.73919508  0.73596976  0.55564605  1
  Se  Se133  1  0.25149325  0.24221542  0.05003393  1
  Se  Se134  1  0.26478844  0.26236893  0.55971800  1
  Se  Se135  1  0.24524141  0.57734915  0.04914378  1
  Se  Se136  1  0.25142336  0.58730815  0.55890330  1
  Se  Se137  1  0.25029421  0.91410115  0.05981042  1
  Se  Se138  1  0.25955361  0.92676260  0.56249431  1
  Se  Se139  1  0.58342655  0.26438647  0.06597938  1
  Se  Se140  1  0.58454735  0.24957387  0.55871892  1
  Se  Se141  1  0.58222276  0.58330263  0.05392017  1
  Se  Se142  1  0.58904073  0.59090002  0.55594292  1
  Se  Se143  1  0.57850783  0.91643450  0.05064811  1
  Se  Se144  1  0.58118100  0.91040788  0.55206484  1
  Se  Se145  1  0.92677119  0.26251408  0.05137432  1
  Se  Se146  1  0.92080104  0.25275448  0.56071726  1
  Se  Se147  1  0.92526787  0.59617376  0.05879842  1
  Se  Se148  1  0.91782517  0.58266816  0.56511378  1
  Se  Se149  1  0.90959239  0.91998004  0.04835098  1
  Se  Se150  1  0.93007050  0.91878599  0.56509812  1
  Se  Se151  1  0.08616709  0.25627201  0.44608679  1
  Se  Se152  1  0.09028342  0.24196949  0.94950994  1
  Se  Se153  1  0.09159429  0.58049783  0.45695097  1
  Se  Se154  1  0.08815390  0.58536128  0.94604607  1
  Se  Se155  1  0.08208820  0.92321468  0.44328550  1
  Se  Se156  1  0.07358487  0.92240365  0.93325539  1
  Se  Se157  1  0.40845152  0.26607556  0.43561547  1
  Se  Se158  1  0.41309723  0.24867939  0.94092699  1
  Se  Se159  1  0.40465410  0.59775351  0.43526607  1
  Se  Se160  1  0.42093850  0.57591465  0.94928201  1
  Se  Se161  1  0.42188625  0.91322272  0.44597765  1
  Se  Se162  1  0.41585689  0.90992697  0.94509410  1
  Se  Se163  1  0.73432002  0.24468350  0.43656615  1
  Se  Se164  1  0.73884536  0.26303222  0.94840202  1
  Se  Se165  1  0.73527711  0.58742295  0.43776069  1
  Se  Se166  1  0.74205040  0.59641660  0.93740775  1
  Se  Se167  1  0.75049242  0.91319328  0.43712794  1
  Se  Se168  1  0.74885352  0.92137866  0.94587565  1
  Se  Se169  1  0.25899631  0.08256500  0.43835244  1
  Se  Se170  1  0.24378257  0.07615877  0.94733270  1
  Se  Se171  1  0.24894326  0.42969822  0.44431766  1
  Se  Se172  1  0.25265011  0.41398461  0.94704505  1
  Se  Se173  1  0.25259163  0.75193063  0.43951114  1
  Se  Se174  1  0.25820431  0.74049804  0.93618326  1
  Se  Se175  1  0.59433813  0.06999134  0.43868932  1
  Se  Se176  1  0.58335781  0.08243849  0.94278397  1
  Se  Se177  1  0.58394772  0.40726513  0.43619321  1
  Se  Se178  1  0.57514215  0.42377135  0.95181097  1
  Se  Se179  1  0.57973884  0.74561771  0.44605712  1
  Se  Se180  1  0.57836293  0.75392455  0.94905601  1
  Se  Se181  1  0.92886098  0.06978267  0.44680641  1
  Se  Se182  1  0.91500035  0.08003449  0.93336059  1
  Se  Se183  1  0.92898635  0.40504263  0.44189128  1
  Se  Se184  1  0.91858428  0.41143030  0.93864291  1
  Se  Se185  1  0.92772240  0.73750853  0.44784992  1
  Se  Se186  1  0.91972312  0.75823840  0.94363092  1
  Se  Se187  1  0.24538352  0.25170970  0.30008922  1
  Se  Se188  1  0.25346633  0.25270932  0.80688308  1
  Se  Se189  1  0.24658278  0.58457718  0.30152359  1
  Se  Se190  1  0.25623630  0.57957120  0.80678145  1
  Se  Se191  1  0.25505895  0.92010429  0.29972630  1
  Se  Se192  1  0.24833571  0.91137125  0.79792006  1
  Se  Se193  1  0.59502514  0.26137471  0.29282649  1
  Se  Se194  1  0.58407503  0.24967390  0.80671451  1
  Se  Se195  1  0.56827277  0.57589089  0.29661210  1
  Se  Se196  1  0.57866427  0.58020706  0.81092121  1
  Se  Se197  1  0.58330537  0.91454971  0.30108704  1
  Se  Se198  1  0.58410062  0.91867393  0.80593698  1
  Se  Se199  1  0.91258502  0.24033541  0.31270411  1
  Se  Se200  1  0.91662699  0.24835880  0.80409447  1
  Se  Se201  1  0.90762241  0.57541590  0.31424072  1
  Se  Se202  1  0.92246237  0.58234665  0.80597756  1
  Se  Se203  1  0.91899268  0.91686005  0.30171199  1
  Se  Se204  1  0.92294752  0.92297580  0.79767939  1
  Se  Se205  1  0.08165066  0.08194994  0.30118015  1
  Se  Se206  1  0.08583897  0.08710549  0.80346132  1
  Se  Se207  1  0.08287301  0.41970985  0.30462970  1
  Se  Se208  1  0.08612289  0.41162982  0.80825255  1
  Se  Se209  1  0.09412577  0.76113840  0.31304283  1
  Se  Se210  1  0.09344991  0.75370749  0.79863301  1
  Se  Se211  1  0.43253915  0.09294529  0.30096551  1
  Se  Se212  1  0.41086073  0.08099874  0.80593567  1
  Se  Se213  1  0.40990476  0.41667279  0.29310111  1
  Se  Se214  1  0.41837529  0.41302518  0.80723416  1
  Se  Se215  1  0.41564100  0.75182513  0.29869619  1
  Se  Se216  1  0.42068650  0.74726517  0.80370536  1
  Se  Se217  1  0.75325860  0.07772645  0.29869934  1
  Se  Se218  1  0.74426660  0.08221172  0.80328740  1
  Se  Se219  1  0.74979060  0.41406881  0.30162343  1
  Se  Se220  1  0.74761781  0.41744969  0.80487265  1
  Se  Se221  1  0.74893931  0.75222685  0.29979749  1
  Se  Se222  1  0.75089387  0.75565086  0.81084237  1
  Se  Se223  1  0.24908050  0.08149473  0.19474016  1
  Se  Se224  1  0.25059398  0.08732504  0.69636554  1
  Se  Se225  1  0.24501804  0.41379963  0.18822529  1
  Se  Se226  1  0.25742658  0.41119611  0.70091281  1
  Se  Se227  1  0.25245087  0.74632537  0.19845011  1
  Se  Se228  1  0.24295382  0.76183817  0.70513588  1
  Se  Se229  1  0.58963364  0.07273661  0.20087283  1
  Se  Se230  1  0.57903766  0.08463056  0.69752173  1
  Se  Se231  1  0.60294784  0.39825791  0.19209832  1
  Se  Se232  1  0.58684740  0.41473320  0.70172965  1
  Se  Se233  1  0.58247069  0.75021025  0.18791807  1
  Se  Se234  1  0.57464890  0.75201266  0.68764128  1
  Se  Se235  1  0.92282923  0.07989981  0.19173025  1
  Se  Se236  1  0.91403485  0.08416460  0.69783071  1
  Se  Se237  1  0.91082971  0.43063265  0.18754869  1
  Se  Se238  1  0.92057243  0.41355468  0.70157487  1
  Se  Se239  1  0.91193461  0.75739957  0.18797112  1
  Se  Se240  1  0.91513019  0.74280981  0.70991582  1
  Se  Se241  1  0.09324701  0.24707241  0.18153649  1
  Se  Se242  1  0.08213452  0.25301122  0.69951014  1
  Se  Se243  1  0.08335049  0.58136516  0.19299996  1
  Se  Se244  1  0.09069935  0.57767944  0.70164136  1
  Se  Se245  1  0.08173679  0.91737758  0.19610403  1
  Se  Se246  1  0.07847251  0.92357796  0.70848263  1
  Se  Se247  1  0.42706182  0.23406742  0.19739024  1
  Se  Se248  1  0.41617358  0.25129239  0.70255350  1
  Se  Se249  1  0.41418065  0.58468777  0.18923241  1
  Se  Se250  1  0.41612427  0.58379493  0.70017656  1
  Se  Se251  1  0.41432542  0.91645676  0.19348838  1
  Se  Se252  1  0.42003898  0.91862126  0.69675506  1
  Se  Se253  1  0.76154838  0.25032011  0.19534395  1
  Se  Se254  1  0.74770314  0.25081406  0.69924244  1
  Se  Se255  1  0.74623177  0.59435787  0.20167324  1
  Se  Se256  1  0.75982345  0.57143292  0.68821172  1
  Se  Se257  1  0.74752513  0.91815191  0.19019030  1
  Se  Se258  1  0.74328082  0.90989493  0.70185405  1
