# generated using pymatgen
data_In86Cu29Se144
_symmetry_space_group_name_H-M   'P 1'
_cell_length_a   17.56174126
_cell_length_b   17.56152302
_cell_length_c   23.42267651
_cell_angle_alpha   89.99937576
_cell_angle_beta   90.01429964
_cell_angle_gamma   89.99106613
_symmetry_Int_Tables_number   1
_chemical_formula_structural   In86Cu29Se144
_chemical_formula_sum   'In86 Cu29 Se144'
_cell_volume   7223.80897904
_cell_formula_units_Z   1
loop_
 _symmetry_equiv_pos_site_id
 _symmetry_equiv_pos_as_xyz
  1  'x, y, z'
loop_
 _atom_site_type_symbol
 _atom_site_label
 _atom_site_symmetry_multiplicity
 _atom_site_fract_x
 _atom_site_fract_y
 _atom_site_fract_z
 _atom_site_occupancy
  In  In0  1  0.01201139  0.15661519  0.11734970  1
  In  In1  1  0.00425865  0.12614589  0.62786710  1
  In  In2  1  0.01211482  0.50830887  0.11255539  1
  In  In3  1  0.00087295  0.51828034  0.62806674  1
  In  In4  1  -0.01393403  0.83166048  0.12419213  1
  In  In5  1  -0.00502628  0.83845608  0.61941188  1
  In  In6  1  0.33826574  0.16606022  0.12411842  1
  In  In7  1  0.32185142  0.15615866  0.61898867  1
  In  In8  1  0.33215981  0.49758513  0.12632564  1
  In  In9  1  0.33433246  0.48787884  0.62132588  1
  In  In10  1  0.33761278  0.83701405  0.14216997  1
  In  In11  1  0.34716814  0.84905664  0.61122182  1
  In  In12  1  0.67178808  0.18365616  0.12094711  1
  In  In13  1  0.68135896  0.14976141  0.65819125  1
  In  In14  1  0.65307035  0.49639693  0.11362200  1
  In  In15  1  0.68224310  0.49111811  0.63229598  1
  In  In16  1  0.66740982  0.82381635  0.12125424  1
  In  In17  1  0.66695081  0.82298825  0.63042224  1
  In  In18  1  0.17780637  -0.01584010  0.39365809  1
  In  In19  1  0.17562251  0.01369530  0.86505245  1
  In  In20  1  0.17610475  0.32316268  0.37621245  1
  In  In21  1  0.15944609  0.32618657  0.89515570  1
  In  In22  1  0.17465885  0.67636411  0.36593988  1
  In  In23  1  0.15468256  0.66657799  0.87110408  1
  In  In24  1  0.49117828  -0.00292883  0.37499534  1
  In  In25  1  0.51421961  0.02214602  0.84992363  1
  In  In26  1  0.50207484  0.33467211  0.36359775  1
  In  In27  1  0.50836001  0.32638810  0.88110411  1
  In  In28  1  0.49252278  0.67975175  0.37620360  1
  In  In29  1  0.49835004  0.65454337  0.87678798  1
  In  In30  1  0.82879363  -0.00583212  0.38562242  1
  In  In31  1  0.82068147  -0.00701419  0.86114716  1
  In  In32  1  0.83500482  0.34865715  0.37591703  1
  In  In33  1  0.83704500  0.34952054  0.87636384  1
  In  In34  1  0.83445669  0.66105936  0.37989431  1
  In  In35  1  0.83424505  0.66852571  0.87506285  1
  In  In36  1  0.01422024  0.16924610  0.38015425  1
  In  In37  1  0.00983691  0.17038921  0.87501243  1
  In  In38  1  -0.01476440  0.50248676  0.37555900  1
  In  In39  1  -0.01126262  0.50365045  0.88826634  1
  In  In40  1  0.00824486  0.82730813  0.38647333  1
  In  In41  1  -0.01166972  0.82368848  0.86248350  1
  In  In42  1  0.33417329  0.16022993  0.36780143  1
  In  In43  1  0.33628536  0.16380141  0.88189805  1
  In  In44  1  0.33073041  0.49851756  0.36243590  1
  In  In45  1  0.33709352  0.48949185  0.88802382  1
  In  In46  1  0.33213582  0.83256225  0.37397866  1
  In  In47  1  0.33209958  0.84373025  0.87067635  1
  In  In48  1  0.65593966  0.16622286  0.37530797  1
  In  In49  1  0.66090456  0.16686647  0.86019994  1
  In  In50  1  0.67639443  0.50294039  0.37505267  1
  In  In51  1  0.66726162  0.50341953  0.87455161  1
  In  In52  1  0.66313434  0.83563743  0.38921182  1
  In  In53  1  0.67156978  0.84699388  0.86054253  1
  In  In54  1  0.17792350  0.00851991  0.12054406  1
  In  In55  1  0.16438643  0.00060925  0.62030500  1
  In  In56  1  0.17388030  0.34258287  0.11610955  1
  In  In57  1  0.17357844  0.31168607  0.61902594  1
  In  In58  1  0.17422110  0.66190234  0.13373658  1
  In  In59  1  0.14882849  0.67049536  0.62798544  1
  In  In60  1  0.48477529  -0.00272565  0.12339959  1
  In  In61  1  0.51922050  -0.02217642  0.65200375  1
  In  In62  1  0.50081705  0.33341755  0.12177909  1
  In  In63  1  0.50933480  0.32949409  0.62904541  1
  In  In64  1  0.49982926  0.66002254  0.12432011  1
  In  In65  1  0.49858908  0.68506169  0.62792718  1
  In  In66  1  0.84123382  -0.00350486  0.11741230  1
  In  In67  1  0.84731372  -0.01422059  0.64016575  1
  In  In68  1  0.81830567  0.33767738  0.12303744  1
  In  In69  1  0.82351612  0.32613749  0.62693218  1
  In  In70  1  0.84035860  0.67132460  0.11984430  1
  In  In71  1  0.83437356  0.66757554  0.62512492  1
  In  In72  1  -0.00512489  0.33389130  0.75698523  1
  In  In73  1  0.33498385  0.32648776  0.75145216  1
  In  In74  1  0.66295008  0.00173131  0.25675278  1
  In  In75  1  0.83592690  0.16956029  -0.00758965  1
  In  In76  1  0.50252834  0.83381607  -0.00267850  1
  In  In77  1  0.33100092  0.67269800  0.74838768  1
  In  In78  1  0.50343486  0.50149664  0.50433790  1
  In  In79  1  0.49829090  0.16269665  0.50517578  1
  In  In80  1  0.83568434  0.16462433  0.51130762  1
  In  In81  1  0.00461192  -0.00276324  0.25225930  1
  In  In82  1  0.65682300  0.66491536  0.24756220  1
  In  In83  1  0.16606775  0.83256702  -0.00560896  1
  In  In84  1  0.16360843  0.50185863  0.49580402  1
  In  In85  1  0.00360555  0.34103531  0.24548796  1
  Cu  Cu86  1  0.67006254  0.66635668  0.50391544  1
  Cu  Cu87  1  0.50431870  0.17225689  0.24523217  1
  Cu  Cu88  1  0.67676083  0.66862084  -0.00335477  1
  Cu  Cu89  1  0.66644566  -0.01137738  0.51403463  1
  Cu  Cu90  1  0.83010735  0.82772121  0.25055942  1
  Cu  Cu91  1  0.83485637  0.50938257  0.75478611  1
  Cu  Cu92  1  0.83603445  0.17657624  0.24775838  1
  Cu  Cu93  1  0.00025929  0.33527806  0.50036113  1
  Cu  Cu94  1  0.66957712  0.32997960  0.50582843  1
  Cu  Cu95  1  0.66343023  0.00402707  -0.01519140  1
  Cu  Cu96  1  -0.00018052  0.66602781  -0.00399168  1
  Cu  Cu97  1  0.16439311  0.16227793  0.74928192  1
  Cu  Cu98  1  0.82874512  0.50428282  0.25035060  1
  Cu  Cu99  1  0.16390934  0.83823939  0.25821669  1
  Cu  Cu100  1  0.16384487  0.49729966  0.75497724  1
  Cu  Cu101  1  0.83651133  0.82799013  0.74603783  1
  Cu  Cu102  1  0.33607730  -0.00256357  0.50000137  1
  Cu  Cu103  1  0.33695838  0.00638809  -0.00380970  1
  Cu  Cu104  1  0.00008488  -0.01118982  -0.00599311  1
  Cu  Cu105  1  0.66085615  0.34015692  -0.00257805  1
  Cu  Cu106  1  0.17804519  0.16574663  0.24797640  1
  Cu  Cu107  1  0.33246661  0.33236280  0.00717547  1
  Cu  Cu108  1  -0.00692970  0.67334832  0.50180093  1
  Cu  Cu109  1  0.32917437  0.65926671  0.00548180  1
  Cu  Cu110  1  0.32571105  0.67178974  0.49691656  1
  Cu  Cu111  1  0.50758522  0.50371816  0.74959712  1
  Cu  Cu112  1  0.49602388  0.49762488  0.24125225  1
  Cu  Cu113  1  0.16374235  0.50030538  0.24312418  1
  Cu  Cu114  1  0.16203502  0.83973728  0.74427804  1
  Se  Se115  1  0.08551590  0.07022559  0.04675232  1
  Se  Se116  1  0.10550165  0.10445833  0.55260229  1
  Se  Se117  1  0.07239255  0.40331294  0.05148390  1
  Se  Se118  1  0.08060244  0.41400752  0.56436540  1
  Se  Se119  1  0.07964598  0.74529784  0.05934111  1
  Se  Se120  1  0.08216251  0.75337448  0.55202823  1
  Se  Se121  1  0.42185740  0.08730124  0.05049490  1
  Se  Se122  1  0.42113165  0.06427758  0.56599210  1
  Se  Se123  1  0.41728223  0.41988109  0.05544952  1
  Se  Se124  1  0.41495539  0.39914682  0.55439690  1
  Se  Se125  1  0.40608509  0.75022975  0.05947642  1
  Se  Se126  1  0.41752116  0.74857911  0.54836442  1
  Se  Se127  1  0.74323379  0.07800410  0.05363215  1
  Se  Se128  1  0.74136177  0.07752881  0.56917114  1
  Se  Se129  1  0.74848426  0.42165344  0.04854314  1
  Se  Se130  1  0.75560095  0.41579789  0.55351850  1
  Se  Se131  1  0.75574590  0.75442825  0.05097698  1
  Se  Se132  1  0.75268899  0.75209287  0.55591955  1
  Se  Se133  1  0.24918869  0.24340801  0.05543602  1
  Se  Se134  1  0.26668009  0.25432557  0.54767235  1
  Se  Se135  1  0.24345547  0.57922043  0.05799817  1
  Se  Se136  1  0.25360832  0.58984233  0.56158732  1
  Se  Se137  1  0.26440479  0.91493202  0.05523439  1
  Se  Se138  1  0.24488552  0.91561528  0.54928174  1
  Se  Se139  1  0.58215892  0.25063731  0.04945361  1
  Se  Se140  1  0.59872576  0.24251972  0.56454595  1
  Se  Se141  1  0.58312049  0.59359446  0.04796337  1
  Se  Se142  1  0.59092242  0.58799930  0.56712264  1
  Se  Se143  1  0.59294454  0.92767854  0.05681856  1
  Se  Se144  1  0.57809768  0.90878636  0.56440889  1
  Se  Se145  1  0.91758778  0.25022854  0.06437066  1
  Se  Se146  1  0.93068759  0.25394658  0.56732242  1
  Se  Se147  1  0.91496931  0.58368723  0.04992204  1
  Se  Se148  1  0.91495077  0.58308637  0.55295993  1
  Se  Se149  1  0.91363971  0.90975665  0.04666668  1
  Se  Se150  1  0.91819428  0.93188822  0.55457091  1
  Se  Se151  1  0.08887716  0.25534820  0.45031033  1
  Se  Se152  1  0.07841800  0.23656432  0.95744288  1
  Se  Se153  1  0.07476462  0.59520724  0.43823549  1
  Se  Se154  1  0.08854807  0.58335136  0.94721573  1
  Se  Se155  1  0.06592471  0.93131129  0.45018053  1
  Se  Se156  1  0.08105423  0.91729366  0.92819197  1
  Se  Se157  1  0.42028220  0.25173302  0.43607854  1
  Se  Se158  1  0.41412340  0.25377056  0.94750566  1
  Se  Se159  1  0.40636371  0.58402946  0.44235107  1
  Se  Se160  1  0.41753035  0.58141610  0.95154593  1
  Se  Se161  1  0.41748570  0.91214642  0.44597112  1
  Se  Se162  1  0.41945016  0.92846684  0.93658829  1
  Se  Se163  1  0.74863329  0.25112647  0.44142514  1
  Se  Se164  1  0.73968800  0.25767643  0.93659356  1
  Se  Se165  1  0.75051304  0.58012288  0.45018200  1
  Se  Se166  1  0.75590186  0.58072216  0.94407091  1
  Se  Se167  1  0.75227314  0.91196709  0.45674825  1
  Se  Se168  1  0.74921307  0.91618246  0.94018916  1
  Se  Se169  1  0.25878358  0.08684853  0.44616179  1
  Se  Se170  1  0.24393476  0.08488441  0.94779659  1
  Se  Se171  1  0.26170840  0.41456819  0.44229320  1
  Se  Se172  1  0.24605720  0.41607825  0.95518580  1
  Se  Se173  1  0.24258389  0.75529264  0.44444430  1
  Se  Se174  1  0.25990693  0.74012508  0.93765278  1
  Se  Se175  1  0.59274361  0.06783938  0.44678067  1
  Se  Se176  1  0.58102025  0.08905123  0.93510201  1
  Se  Se177  1  0.59082400  0.40807048  0.44262977  1
  Se  Se178  1  0.57859706  0.42571233  0.94442873  1
  Se  Se179  1  0.58096804  0.74412694  0.45086444  1
  Se  Se180  1  0.59349400  0.74762052  0.93569769  1
  Se  Se181  1  0.92426832  0.08192219  0.44393172  1
  Se  Se182  1  0.91869150  0.07076050  0.93470331  1
  Se  Se183  1  0.91549848  0.42008011  0.45174352  1
  Se  Se184  1  0.92520133  0.40351964  0.95338726  1
  Se  Se185  1  0.90744409  0.75383079  0.44715812  1
  Se  Se186  1  0.91849497  0.75295646  0.94418020  1
  Se  Se187  1  0.25783252  0.25340018  0.30062601  1
  Se  Se188  1  0.23561974  0.24793723  0.81260686  1
  Se  Se189  1  0.24700584  0.58421727  0.29820429  1
  Se  Se190  1  0.25211862  0.57369471  0.81193012  1
  Se  Se191  1  0.24818786  0.92287464  0.30842309  1
  Se  Se192  1  0.24767365  0.91772566  0.79941012  1
  Se  Se193  1  0.59086113  0.25105889  0.29988347  1
  Se  Se194  1  0.57336430  0.25518379  0.79938673  1
  Se  Se195  1  0.57020260  0.57395844  0.31095819  1
  Se  Se196  1  0.58711938  0.58843755  0.80338085  1
  Se  Se197  1  0.57704064  0.90339723  0.31001694  1
  Se  Se198  1  0.57229098  0.90998070  0.79467060  1
  Se  Se199  1  0.91830792  0.24869680  0.31138269  1
  Se  Se200  1  0.90405883  0.24183809  0.81295285  1
  Se  Se201  1  0.91277964  0.58712279  0.30251070  1
  Se  Se202  1  0.92398937  0.58486411  0.80913747  1
  Se  Se203  1  0.90875511  0.91072786  0.31052967  1
  Se  Se204  1  0.91734293  0.91914921  0.79640730  1
  Se  Se205  1  0.09704327  0.08721558  0.30895339  1
  Se  Se206  1  0.07512280  0.08172908  0.80015677  1
  Se  Se207  1  0.09097460  0.42492573  0.31379924  1
  Se  Se208  1  0.08913623  0.41796664  0.81833600  1
  Se  Se209  1  0.07568277  0.75346725  0.30475900  1
  Se  Se210  1  0.08474611  0.75023400  0.79724733  1
  Se  Se211  1  0.42669101  0.08547905  0.30087346  1
  Se  Se212  1  0.39287591  0.07740846  0.80428763  1
  Se  Se213  1  0.41463652  0.41365830  0.29684490  1
  Se  Se214  1  0.42203653  0.42439786  0.80780741  1
  Se  Se215  1  0.40608544  0.74409677  0.30371922  1
  Se  Se216  1  0.42399891  0.75453500  0.81052800  1
  Se  Se217  1  0.76255498  0.09249996  0.31130260  1
  Se  Se218  1  0.74512834  0.08265947  0.79503666  1
  Se  Se219  1  0.74804846  0.41691695  0.30177935  1
  Se  Se220  1  0.75161224  0.42209894  0.80434940  1
  Se  Se221  1  0.74563960  0.75324597  0.31103271  1
  Se  Se222  1  0.75309762  0.74894244  0.80315053  1
  Se  Se223  1  0.25912945  0.07900101  0.19536598  1
  Se  Se224  1  0.24686998  0.07948766  0.69493235  1
  Se  Se225  1  0.24840387  0.41323504  0.19544875  1
  Se  Se226  1  0.23793732  0.41694260  0.69203546  1
  Se  Se227  1  0.24561748  0.75400277  0.20204247  1
  Se  Se228  1  0.24487700  0.75979262  0.68409425  1
  Se  Se229  1  0.58481706  0.08952477  0.18602927  1
  Se  Se230  1  0.56453533  0.09490554  0.70881478  1
  Se  Se231  1  0.58534898  0.41692893  0.19171409  1
  Se  Se232  1  0.58643117  0.41637562  0.69662351  1
  Se  Se233  1  0.56891885  0.76284343  0.19224229  1
  Se  Se234  1  0.58492977  0.74469438  0.70282654  1
  Se  Se235  1  0.91206274  0.09071745  0.19138791  1
  Se  Se236  1  0.89191837  0.10672709  0.69430116  1
  Se  Se237  1  0.90996105  0.42741844  0.18696169  1
  Se  Se238  1  0.91245691  0.42635759  0.69209511  1
  Se  Se239  1  0.91578515  0.74684849  0.19813721  1
  Se  Se240  1  0.92292208  0.74873162  0.69142170  1
  Se  Se241  1  0.09123180  0.24215942  0.19043860  1
  Se  Se242  1  0.08123964  0.24345366  0.69132274  1
  Se  Se243  1  0.07622009  0.58402149  0.19509134  1
  Se  Se244  1  0.08332921  0.58563151  0.70484540  1
  Se  Se245  1  0.09140248  0.91061243  0.18543299  1
  Se  Se246  1  0.07817938  0.92163213  0.69000881  1
  Se  Se247  1  0.41789357  0.25292490  0.19253741  1
  Se  Se248  1  0.41733684  0.23814669  0.68720481  1
  Se  Se249  1  0.41271797  0.58651864  0.19425376  1
  Se  Se250  1  0.41891144  0.57417694  0.68881959  1
  Se  Se251  1  0.41914700  0.92535138  0.20411995  1
  Se  Se252  1  0.40674375  0.90759661  0.70050670  1
  Se  Se253  1  0.74722446  0.25655788  0.19924197  1
  Se  Se254  1  0.74022665  0.26845872  0.70494884  1
  Se  Se255  1  0.74892992  0.58031186  0.18563891  1
  Se  Se256  1  0.75107568  0.58863405  0.69775368  1
  Se  Se257  1  0.75524244  0.91394659  0.19128161  1
  Se  Se258  1  0.74656506  0.91254499  0.69882582  1
