# generated using pymatgen
data_In86Cu29Se144
_symmetry_space_group_name_H-M   'P 1'
_cell_length_a   17.63643549
_cell_length_b   17.64203669
_cell_length_c   23.50251869
_cell_angle_alpha   89.98227237
_cell_angle_beta   90.02327583
_cell_angle_gamma   89.99706859
_symmetry_Int_Tables_number   1
_chemical_formula_structural   In86Cu29Se144
_chemical_formula_sum   'In86 Cu29 Se144'
_cell_volume   7312.63479665
_cell_formula_units_Z   1
loop_
 _symmetry_equiv_pos_site_id
 _symmetry_equiv_pos_as_xyz
  1  'x, y, z'
loop_
 _atom_site_type_symbol
 _atom_site_label
 _atom_site_symmetry_multiplicity
 _atom_site_fract_x
 _atom_site_fract_y
 _atom_site_fract_z
 _atom_site_occupancy
  In  In0  1  -0.01446602  0.17590637  0.12485535  1
  In  In1  1  -0.00111053  0.16474386  0.63118684  1
  In  In2  1  -0.00380178  0.50539308  0.11393198  1
  In  In3  1  -0.00146323  0.50693591  0.63052206  1
  In  In4  1  0.00501750  0.83140118  0.12108678  1
  In  In5  1  -0.00052123  0.83299040  0.63844840  1
  In  In6  1  0.34334943  0.15398667  0.12484521  1
  In  In7  1  0.33664148  0.17731942  0.60813844  1
  In  In8  1  0.32897581  0.51008798  0.12884011  1
  In  In9  1  0.32367737  0.50258577  0.61623328  1
  In  In10  1  0.31713025  0.82881397  0.12516900  1
  In  In11  1  0.33579081  0.82547982  0.61647175  1
  In  In12  1  0.66785211  0.16816708  0.12628129  1
  In  In13  1  0.66753260  0.16758432  0.62732109  1
  In  In14  1  0.67898116  0.49816471  0.12719627  1
  In  In15  1  0.66324248  0.49198720  0.62561781  1
  In  In16  1  0.67439199  0.82518593  0.13905309  1
  In  In17  1  0.67106601  0.84333416  0.62259374  1
  In  In18  1  0.17053015  0.00163283  0.37198490  1
  In  In19  1  0.14868958  0.00148187  0.87489867  1
  In  In20  1  0.17919819  0.32646145  0.39482049  1
  In  In21  1  0.15648278  0.34874689  0.87647091  1
  In  In22  1  0.15734882  0.65986641  0.36858434  1
  In  In23  1  0.14868968  0.67587087  0.88757061  1
  In  In24  1  0.50879632  -0.00652293  0.38371652  1
  In  In25  1  0.52352164  -0.00375334  0.87369334  1
  In  In26  1  0.50062830  0.31766588  0.37801229  1
  In  In27  1  0.50316156  0.31670938  0.87603275  1
  In  In28  1  0.50990904  0.67452824  0.36012170  1
  In  In29  1  0.50626553  0.66432418  0.87870010  1
  In  In30  1  0.82874073  -0.00891256  0.36256892  1
  In  In31  1  0.83398951  0.00200484  0.88063629  1
  In  In32  1  0.83702905  0.35026188  0.37440224  1
  In  In33  1  0.83114776  0.32757170  0.87127760  1
  In  In34  1  0.82531183  0.65211839  0.36478553  1
  In  In35  1  0.88141442  0.63333473  0.92618499  1
  In  In36  1  0.01143523  0.16464319  0.37667241  1
  In  In37  1  -0.01326805  0.15499160  0.86566344  1
  In  In38  1  -0.00130612  0.50420952  0.38024866  1
  In  In39  1  0.00630085  0.49554254  0.86682202  1
  In  In40  1  -0.00499488  0.82733652  0.36300490  1
  In  In41  1  -0.00739379  0.83269257  0.88396395  1
  In  In42  1  0.35008357  0.14202927  0.41033978  1
  In  In43  1  0.34363666  0.17399540  0.87466471  1
  In  In44  1  0.31628830  0.49745237  0.37640404  1
  In  In45  1  0.31362881  0.49604145  0.87375439  1
  In  In46  1  0.36672306  0.83199437  0.36846791  1
  In  In47  1  0.32900601  0.81918307  0.87506457  1
  In  In48  1  0.66088350  0.15737844  0.36602208  1
  In  In49  1  0.67381397  0.16660167  0.87657298  1
  In  In50  1  0.68240317  0.50904062  0.36592103  1
  In  In51  1  0.68377449  0.49488674  0.88050543  1
  In  In52  1  0.64308005  0.82197658  0.34841543  1
  In  In53  1  0.67954443  0.84493271  0.87491906  1
  In  In54  1  0.16779319  -0.01683294  0.12258331  1
  In  In55  1  0.15484314  0.00261276  0.62421252  1
  In  In56  1  0.15097280  0.33650011  0.12050582  1
  In  In57  1  0.16070451  0.33171864  0.62311880  1
  In  In58  1  0.15696055  0.66144941  0.12411322  1
  In  In59  1  0.15899872  0.66209959  0.62319081  1
  In  In60  1  0.50208173  0.01330277  0.12700656  1
  In  In61  1  0.50625448  0.01355674  0.61360704  1
  In  In62  1  0.52048923  0.33317872  0.12425015  1
  In  In63  1  0.51546659  0.32812598  0.62570383  1
  In  In64  1  0.49586383  0.67537486  0.14570960  1
  In  In65  1  0.49183162  0.66456913  0.61424607  1
  In  In66  1  0.83562944  0.00335851  0.12599696  1
  In  In67  1  0.83284588  -0.00513620  0.63569647  1
  In  In68  1  0.80761226  0.32705868  0.10222885  1
  In  In69  1  0.82556711  0.34552047  0.63684739  1
  In  In70  1  0.83492287  0.67032004  0.12050433  1
  In  In71  1  0.84543165  0.67418981  0.62704353  1
  In  In72  1  0.17249214  0.83602788  0.49577810  1
  In  In73  1  0.50083955  0.49752624  0.49487916  1
  In  In74  1  0.82641587  0.82703580  0.49452296  1
  In  In75  1  0.33732104  -0.00345693  0.25613823  1
  In  In76  1  0.33017562  0.32969056  0.26301698  1
  In  In77  1  0.33226760  0.00174747  0.73699870  1
  In  In78  1  0.32732014  0.66487499  0.74275223  1
  In  In79  1  0.49518903  0.84109357  0.01329143  1
  In  In80  1  0.67516024  0.67069329  0.75642507  1
  In  In81  1  -0.00596797  0.34270168  0.24980993  1
  In  In82  1  0.83576264  0.17077900  0.50067638  1
  In  In83  1  0.50291181  0.50119523  0.00471244  1
  In  In84  1  0.16982532  0.16737145  -0.00328909  1
  In  In85  1  0.33219503  0.33504787  0.74149215  1
  Cu  Cu86  1  -0.00074898  0.34377922  0.50412982  1
  Cu  Cu87  1  0.66114412  0.67494809  0.00827029  1
  Cu  Cu88  1  0.66834270  0.33014012  0.50187946  1
  Cu  Cu89  1  0.34069129  -0.00186736  0.00054369  1
  Cu  Cu90  1  0.50306528  0.16921905  0.25138379  1
  Cu  Cu91  1  0.66304386  -0.00166145  0.49712321  1
  Cu  Cu92  1  0.83713290  0.50005995  0.24276167  1
  Cu  Cu93  1  0.16305397  0.82266951  0.24528082  1
  Cu  Cu94  1  0.50224250  0.48880527  0.74897221  1
  Cu  Cu95  1  0.33626615  0.33283626  -0.00185258  1
  Cu  Cu96  1  0.50617802  0.49723916  0.24882340  1
  Cu  Cu97  1  0.32057776  0.65972518  0.00174498  1
  Cu  Cu98  1  0.15893800  0.49591163  0.25065154  1
  Cu  Cu99  1  -0.00016326  0.00084179  0.00137732  1
  Cu  Cu100  1  -0.00495390  -0.00229032  0.50250033  1
  Cu  Cu101  1  0.15802636  0.83997602  0.75683488  1
  Cu  Cu102  1  0.83829225  0.83191490  0.76001947  1
  Cu  Cu103  1  0.67212776  0.00992971  0.00172980  1
  Cu  Cu104  1  0.00074682  0.65988139  0.50009768  1
  Cu  Cu105  1  0.33682081  0.67190057  0.49285131  1
  Cu  Cu106  1  0.83145349  0.16341690  0.75274858  1
  Cu  Cu107  1  0.16709737  0.16367531  0.25762067  1
  Cu  Cu108  1  0.16183516  0.17658798  0.74793450  1
  Cu  Cu109  1  0.83752032  0.50434336  0.75956417  1
  Cu  Cu110  1  0.51225107  0.15703621  0.74969346  1
  Cu  Cu111  1  0.84197418  0.83649693  0.24149583  1
  Cu  Cu112  1  -0.00798662  0.33581428  -0.00552002  1
  Cu  Cu113  1  0.83337993  0.17016008  0.24300184  1
  Cu  Cu114  1  0.50783052  0.83253976  0.74604255  1
  Se  Se115  1  0.08127462  0.08276161  0.06167421  1
  Se  Se116  1  0.07333379  0.08468823  0.55519036  1
  Se  Se117  1  0.07823749  0.41647783  0.04724333  1
  Se  Se118  1  0.08103490  0.42476729  0.56007460  1
  Se  Se119  1  0.09357528  0.75534476  0.05405263  1
  Se  Se120  1  0.07311876  0.75365299  0.55584438  1
  Se  Se121  1  0.42317152  0.08397294  0.04899514  1
  Se  Se122  1  0.41159040  0.08164803  0.54783139  1
  Se  Se123  1  0.41079571  0.41092229  0.06466082  1
  Se  Se124  1  0.41841524  0.41106130  0.56262928  1
  Se  Se125  1  0.40797000  0.73587697  0.06045768  1
  Se  Se126  1  0.42165120  0.75437564  0.54412745  1
  Se  Se127  1  0.75584600  0.08946838  0.05759181  1
  Se  Se128  1  0.74998211  0.07174732  0.55747160  1
  Se  Se129  1  0.74252072  0.43103847  0.04302178  1
  Se  Se130  1  0.74822801  0.41358184  0.55658566  1
  Se  Se131  1  0.74713322  0.75868688  0.05755283  1
  Se  Se132  1  0.74150101  0.73954050  0.55955539  1
  Se  Se133  1  0.25734400  0.25408332  0.06337973  1
  Se  Se134  1  0.24923099  0.26442735  0.55130564  1
  Se  Se135  1  0.24164925  0.57492722  0.05578250  1
  Se  Se136  1  0.25210332  0.59753923  0.55162335  1
  Se  Se137  1  0.25393416  0.91571539  0.04901387  1
  Se  Se138  1  0.25494197  0.92771820  0.55936156  1
  Se  Se139  1  0.57989852  0.24091863  0.05474688  1
  Se  Se140  1  0.58714356  0.24355455  0.55264233  1
  Se  Se141  1  0.58001842  0.59802291  0.06820535  1
  Se  Se142  1  0.59205934  0.58713914  0.55449461  1
  Se  Se143  1  0.59587155  0.92683106  0.06411202  1
  Se  Se144  1  0.58266856  0.91474270  0.55253950  1
  Se  Se145  1  0.91305981  0.25102272  0.04866816  1
  Se  Se146  1  0.91854067  0.26187989  0.56377681  1
  Se  Se147  1  0.90743871  0.58381217  0.04606787  1
  Se  Se148  1  0.91485165  0.58480313  0.55686058  1
  Se  Se149  1  0.91867313  0.92005591  0.05792927  1
  Se  Se150  1  0.91761315  0.91418313  0.56041965  1
  Se  Se151  1  0.07411152  0.25350325  0.45063612  1
  Se  Se152  1  0.07401717  0.25034406  0.93764276  1
  Se  Se153  1  0.08899546  0.58176620  0.44771684  1
  Se  Se154  1  0.08531965  0.56939521  0.94353219  1
  Se  Se155  1  0.07013771  0.91677535  0.43898596  1
  Se  Se156  1  0.08350175  0.91758351  0.94926984  1
  Se  Se157  1  0.40774710  0.26369506  0.45110342  1
  Se  Se158  1  0.41991912  0.24658764  0.95125210  1
  Se  Se159  1  0.41465615  0.58884336  0.43310577  1
  Se  Se160  1  0.40593152  0.58559404  0.94074534  1
  Se  Se161  1  0.39607218  0.93653007  0.43978903  1
  Se  Se162  1  0.41546587  0.91861529  0.93491039  1
  Se  Se163  1  0.74732019  0.25497501  0.43612152  1
  Se  Se164  1  0.75781820  0.24547237  0.94490874  1
  Se  Se165  1  0.75716138  0.57826878  0.44425997  1
  Se  Se166  1  0.73710390  0.60019197  0.94447403  1
  Se  Se167  1  0.74029858  0.91947234  0.43554681  1
  Se  Se168  1  0.75214752  0.92033305  0.95203931  1
  Se  Se169  1  0.22484947  0.08948894  0.44869664  1
  Se  Se170  1  0.25974176  0.07513216  0.93627214  1
  Se  Se171  1  0.25172814  0.42334264  0.45637867  1
  Se  Se172  1  0.24754275  0.41283171  0.94970457  1
  Se  Se173  1  0.25596755  0.74827600  0.43028580  1
  Se  Se174  1  0.24700917  0.75198171  0.94958328  1
  Se  Se175  1  0.58541312  0.08974448  0.44634038  1
  Se  Se176  1  0.58544476  0.08555067  0.94599305  1
  Se  Se177  1  0.59508446  0.41088273  0.43607270  1
  Se  Se178  1  0.58572269  0.41114443  0.94148699  1
  Se  Se179  1  0.58650212  0.75097369  0.43387456  1
  Se  Se180  1  0.58319316  0.75533267  0.94580422  1
  Se  Se181  1  0.91607571  0.07387715  0.43876315  1
  Se  Se182  1  0.91898423  0.08638806  0.94853626  1
  Se  Se183  1  0.91473983  0.42324330  0.44965662  1
  Se  Se184  1  0.91552841  0.41623283  0.93489033  1
  Se  Se185  1  0.92206128  0.73945480  0.43786159  1
  Se  Se186  1  0.90294961  0.77162944  0.95829476  1
  Se  Se187  1  0.24803832  0.23372248  0.32120344  1
  Se  Se188  1  0.24645542  0.24802818  0.80917997  1
  Se  Se189  1  0.24519659  0.57855229  0.30136893  1
  Se  Se190  1  0.23719351  0.58920178  0.80934072  1
  Se  Se191  1  0.24459595  0.89975824  0.30869288  1
  Se  Se192  1  0.24992473  0.91630855  0.80916871  1
  Se  Se193  1  0.58672085  0.25427742  0.30197677  1
  Se  Se194  1  0.58770845  0.24525788  0.80415921  1
  Se  Se195  1  0.59157674  0.58260438  0.29820816  1
  Se  Se196  1  0.57902069  0.57259413  0.80897344  1
  Se  Se197  1  0.57716835  0.93343199  0.29899170  1
  Se  Se198  1  0.59165035  0.91156318  0.80015453  1
  Se  Se199  1  0.91151251  0.24463359  0.31048433  1
  Se  Se200  1  0.91704809  0.25038501  0.79969562  1
  Se  Se201  1  0.92118611  0.57585267  0.30181007  1
  Se  Se202  1  0.90828769  0.58958809  0.82082761  1
  Se  Se203  1  0.92341149  0.92071799  0.29657869  1
  Se  Se204  1  0.91869265  0.92028580  0.81167718  1
  Se  Se205  1  0.08066047  0.07748529  0.30379392  1
  Se  Se206  1  0.08454515  0.08594043  0.79929683  1
  Se  Se207  1  0.09181456  0.41203002  0.31650899  1
  Se  Se208  1  0.08560669  0.41331107  0.79593279  1
  Se  Se209  1  0.07706538  0.74101397  0.29798424  1
  Se  Se210  1  0.07890011  0.75664459  0.81160610  1
  Se  Se211  1  0.41913382  0.09544340  0.31450708  1
  Se  Se212  1  0.42378623  0.08120238  0.80643843  1
  Se  Se213  1  0.42579154  0.42406241  0.31385323  1
  Se  Se214  1  0.41878110  0.41877892  0.81267592  1
  Se  Se215  1  0.40992011  0.73794842  0.29364241  1
  Se  Se216  1  0.42738312  0.75094327  0.80362926  1
  Se  Se217  1  0.75301727  0.08560216  0.29911946  1
  Se  Se218  1  0.75071688  0.07889635  0.80733502  1
  Se  Se219  1  0.75492902  0.41599982  0.29729928  1
  Se  Se220  1  0.74988314  0.41595610  0.80245417  1
  Se  Se221  1  0.76318156  0.75927229  0.30435117  1
  Se  Se222  1  0.76564463  0.74750597  0.82130626  1
  Se  Se223  1  0.24385440  0.08511612  0.19307370  1
  Se  Se224  1  0.24354949  0.10083175  0.68544681  1
  Se  Se225  1  0.24060924  0.41265075  0.19378321  1
  Se  Se226  1  0.24050159  0.43093517  0.69205545  1
  Se  Se227  1  0.24677799  0.73875455  0.19400144  1
  Se  Se228  1  0.23793977  0.76609117  0.69081332  1
  Se  Se229  1  0.58612659  0.08661812  0.19860829  1
  Se  Se230  1  0.59009929  0.07404764  0.69261110  1
  Se  Se231  1  0.59127978  0.41834032  0.19540609  1
  Se  Se232  1  0.58989171  0.40906642  0.69943374  1
  Se  Se233  1  0.57945387  0.76086976  0.20717232  1
  Se  Se234  1  0.58009880  0.74543554  0.68658661  1
  Se  Se235  1  0.92061833  0.08593285  0.19622978  1
  Se  Se236  1  0.91628101  0.08121268  0.69869624  1
  Se  Se237  1  0.90591527  0.41537547  0.17859635  1
  Se  Se238  1  0.91676065  0.42314313  0.70048224  1
  Se  Se239  1  0.92104255  0.74887991  0.19020938  1
  Se  Se240  1  0.91822791  0.74786198  0.70490702  1
  Se  Se241  1  0.08859138  0.24408454  0.19664884  1
  Se  Se242  1  0.07708923  0.25732473  0.69551572  1
  Se  Se243  1  0.07655830  0.57403596  0.19296301  1
  Se  Se244  1  0.07425547  0.59931078  0.69664496  1
  Se  Se245  1  0.08456545  0.91398943  0.19567913  1
  Se  Se246  1  0.08089733  0.92495819  0.70004813  1
  Se  Se247  1  0.41890898  0.24841470  0.19330231  1
  Se  Se248  1  0.42659226  0.23661386  0.69178313  1
  Se  Se249  1  0.41447464  0.57750909  0.20213860  1
  Se  Se250  1  0.42420399  0.57057142  0.68937820  1
  Se  Se251  1  0.41710473  0.91279790  0.18517505  1
  Se  Se252  1  0.42611333  0.90771617  0.68505285  1
  Se  Se253  1  0.75312405  0.25675910  0.19093094  1
  Se  Se254  1  0.75008565  0.24667117  0.69665739  1
  Se  Se255  1  0.75406890  0.58901709  0.19363101  1
  Se  Se256  1  0.75699646  0.57800319  0.69242750  1
  Se  Se257  1  0.75361568  0.92258107  0.19733399  1
  Se  Se258  1  0.75242148  0.90685544  0.70116774  1
