# generated using pymatgen
data_In86Cu29Se144
_symmetry_space_group_name_H-M   'P 1'
_cell_length_a   17.58394537
_cell_length_b   17.58263672
_cell_length_c   23.44824028
_cell_angle_alpha   90.00936200
_cell_angle_beta   89.99046561
_cell_angle_gamma   90.00632177
_symmetry_Int_Tables_number   1
_chemical_formula_structural   In86Cu29Se144
_chemical_formula_sum   'In86 Cu29 Se144'
_cell_volume   7249.54200186
_cell_formula_units_Z   1
loop_
 _symmetry_equiv_pos_site_id
 _symmetry_equiv_pos_as_xyz
  1  'x, y, z'
loop_
 _atom_site_type_symbol
 _atom_site_label
 _atom_site_symmetry_multiplicity
 _atom_site_fract_x
 _atom_site_fract_y
 _atom_site_fract_z
 _atom_site_occupancy
  In  In0  1  0.02547093  0.14839907  0.14648132  1
  In  In1  1  -0.00264628  0.16242922  0.61576531  1
  In  In2  1  0.00250557  0.49679718  0.12665780  1
  In  In3  1  -0.00152712  0.50947941  0.61954581  1
  In  In4  1  -0.01161329  0.84612035  0.13509936  1
  In  In5  1  0.00840998  0.82501544  0.61623975  1
  In  In6  1  0.33793690  0.15815975  0.11706043  1
  In  In7  1  0.33991732  0.16676316  0.62018791  1
  In  In8  1  0.33770409  0.50759355  0.11753541  1
  In  In9  1  0.34165911  0.49339552  0.63663918  1
  In  In10  1  0.32590154  0.84444632  0.13511214  1
  In  In11  1  0.33253975  0.82821880  0.61644407  1
  In  In12  1  0.64243879  0.15892195  0.11478886  1
  In  In13  1  0.66554533  0.16993002  0.62533959  1
  In  In14  1  0.65943020  0.48557741  0.10446897  1
  In  In15  1  0.66613456  0.48156939  0.62812911  1
  In  In16  1  0.68174910  0.83985681  0.12092012  1
  In  In17  1  0.66879396  0.85494288  0.62518870  1
  In  In18  1  0.16520679  0.00271964  0.37514673  1
  In  In19  1  0.17361726  0.00893359  0.88638395  1
  In  In20  1  0.15366159  0.33278123  0.37049524  1
  In  In21  1  0.17436230  0.32635863  0.88339545  1
  In  In22  1  0.17560253  0.67718698  0.36394887  1
  In  In23  1  0.16980966  0.65622175  0.88006743  1
  In  In24  1  0.49381905  0.00509651  0.36748730  1
  In  In25  1  0.51247593  0.00794546  0.88187457  1
  In  In26  1  0.48743126  0.32188442  0.37383927  1
  In  In27  1  0.50150709  0.33385152  0.87758379  1
  In  In28  1  0.50447657  0.68080827  0.37294936  1
  In  In29  1  0.48367780  0.66638405  0.87126147  1
  In  In30  1  0.84659570  0.01152251  0.36462839  1
  In  In31  1  0.80764415  0.01159546  0.89393625  1
  In  In32  1  0.83627714  0.32251259  0.38049743  1
  In  In33  1  0.83540981  0.33583419  0.87313833  1
  In  In34  1  0.83486355  0.65560389  0.37365226  1
  In  In35  1  0.83368941  0.66479896  0.88193232  1
  In  In36  1  0.00103065  0.16450101  0.37163880  1
  In  In37  1  -0.00473950  0.17441677  0.88060724  1
  In  In38  1  -0.00968748  0.48940113  0.36239877  1
  In  In39  1  -0.00074558  0.49965575  0.88806595  1
  In  In40  1  0.01631877  0.84815316  0.36385196  1
  In  In41  1  -0.00159905  0.82518881  0.88018975  1
  In  In42  1  0.34329579  0.15120729  0.37881697  1
  In  In43  1  0.32357384  0.17644692  0.88634262  1
  In  In44  1  0.32220525  0.49661009  0.36964724  1
  In  In45  1  0.33675483  0.49798382  0.87949403  1
  In  In46  1  0.33282403  0.83333478  0.37159007  1
  In  In47  1  0.34359491  0.83501728  0.87256156  1
  In  In48  1  0.66797169  0.16070383  0.37584139  1
  In  In49  1  0.65239145  0.15235708  0.87413410  1
  In  In50  1  0.67154880  0.51010782  0.37577612  1
  In  In51  1  0.68109442  0.47942712  0.89084299  1
  In  In52  1  0.64919161  0.84195877  0.38062247  1
  In  In53  1  0.66538854  0.85278506  0.87749906  1
  In  In54  1  0.17152752  0.01635659  0.13106446  1
  In  In55  1  0.17146332  0.00161774  0.61206538  1
  In  In56  1  0.15564347  0.31848898  0.12254129  1
  In  In57  1  0.17925085  0.33236180  0.62728273  1
  In  In58  1  0.17361969  0.66307600  0.13155160  1
  In  In59  1  0.17219254  0.67403404  0.61954578  1
  In  In60  1  0.49768286  0.01231917  0.13586201  1
  In  In61  1  0.51189828  0.01187696  0.61619539  1
  In  In62  1  0.49341337  0.32507544  0.10981080  1
  In  In63  1  0.51204313  0.32023399  0.63638515  1
  In  In64  1  0.50055565  0.66036326  0.12288097  1
  In  In65  1  0.48658205  0.66250362  0.62469661  1
  In  In66  1  0.84108724  -0.00484100  0.13113293  1
  In  In67  1  0.81672956  0.00556119  0.62837824  1
  In  In68  1  0.83446346  0.34232753  0.12150671  1
  In  In69  1  0.82233161  0.32247412  0.61718570  1
  In  In70  1  0.84043093  0.66741766  0.12264647  1
  In  In71  1  0.85009716  0.66565439  0.61958353  1
  In  In72  1  0.83705862  0.83762733  0.49973483  1
  In  In73  1  0.32461917  0.32128324  0.23886515  1
  In  In74  1  0.16248581  0.49698700  0.49650519  1
  In  In75  1  0.66926687  0.66856878  0.24457915  1
  In  In76  1  0.50050235  0.83639123  -0.00212007  1
  In  In77  1  -0.00526930  -0.00071674  0.74852125  1
  In  In78  1  -0.00455786  0.33305568  0.75538346  1
  In  In79  1  0.00504436  0.66581669  0.74339088  1
  In  In80  1  0.66559770  0.32766338  0.24553416  1
  In  In81  1  0.33865733  0.00226104  0.74984534  1
  In  In82  1  0.50254412  0.49364199  0.50264191  1
  In  In83  1  0.15989492  0.84534814  0.01454626  1
  In  In84  1  0.83612087  0.17375152  0.00616585  1
  In  In85  1  0.65912304  0.66182430  0.75028135  1
  Cu  Cu86  1  0.16870280  0.17184987  0.75592421  1
  Cu  Cu87  1  0.49858191  0.83979991  0.25281607  1
  Cu  Cu88  1  0.66550274  0.32896144  0.50337039  1
  Cu  Cu89  1  0.66980396  0.66747756  0.49774478  1
  Cu  Cu90  1  0.83153417  0.49679591  0.75108785  1
  Cu  Cu91  1  0.33449257  0.31666630  0.50307684  1
  Cu  Cu92  1  0.33308787  -0.00903857  0.49370097  1
  Cu  Cu93  1  0.16501259  0.83301755  0.24939431  1
  Cu  Cu94  1  0.49097120  0.50150487  0.24044254  1
  Cu  Cu95  1  0.66306049  0.00627694  0.49835502  1
  Cu  Cu96  1  0.32505600  0.67202913  0.00084821  1
  Cu  Cu97  1  -0.00305988  0.66334680  0.00615949  1
  Cu  Cu98  1  0.33274868  0.33956742  -0.00008582  1
  Cu  Cu99  1  0.50061377  0.83681777  0.75068414  1
  Cu  Cu100  1  0.49811202  0.17102272  0.74906294  1
  Cu  Cu101  1  -0.00718117  0.33102403  0.49181469  1
  Cu  Cu102  1  0.00166264  0.00374545  0.49158952  1
  Cu  Cu103  1  0.83276026  0.50032800  0.24492739  1
  Cu  Cu104  1  0.17532191  0.82989485  0.74290294  1
  Cu  Cu105  1  0.49742226  0.49535074  0.75788207  1
  Cu  Cu106  1  0.66515962  0.66503584  -0.00055590  1
  Cu  Cu107  1  0.82669988  0.84231533  0.75567563  1
  Cu  Cu108  1  0.00278649  0.33115736  0.00585720  1
  Cu  Cu109  1  0.16503499  0.50434781  0.24728629  1
  Cu  Cu110  1  0.00369546  0.66610000  0.49168822  1
  Cu  Cu111  1  0.33533880  0.66449339  0.49577435  1
  Cu  Cu112  1  0.83610909  0.17221885  0.25045045  1
  Cu  Cu113  1  0.82882074  0.83078886  0.25012239  1
  Cu  Cu114  1  0.17967458  0.49776286  0.75843080  1
  Se  Se115  1  0.08295928  0.08371399  0.05853375  1
  Se  Se116  1  0.08504278  0.08554356  0.54831948  1
  Se  Se117  1  0.08730452  0.41641958  0.05623555  1
  Se  Se118  1  0.07423412  0.40476997  0.55850914  1
  Se  Se119  1  0.07391638  0.74559633  0.06772642  1
  Se  Se120  1  0.08935636  0.74637645  0.54526116  1
  Se  Se121  1  0.44481821  0.09830951  0.05450104  1
  Se  Se122  1  0.41166200  0.07629694  0.55122213  1
  Se  Se123  1  0.41903438  0.42382359  0.04933776  1
  Se  Se124  1  0.41286715  0.40320463  0.56173213  1
  Se  Se125  1  0.40603832  0.75193937  0.06112915  1
  Se  Se126  1  0.41998060  0.74645901  0.54913715  1
  Se  Se127  1  0.74891936  0.07810089  0.06232681  1
  Se  Se128  1  0.74747904  0.08686399  0.55342960  1
  Se  Se129  1  0.75507365  0.41018561  0.04415879  1
  Se  Se130  1  0.74908503  0.41826653  0.55050256  1
  Se  Se131  1  0.74931983  0.74348598  0.05520875  1
  Se  Se132  1  0.74603964  0.74768328  0.56239608  1
  Se  Se133  1  0.25622780  0.25340249  0.05718245  1
  Se  Se134  1  0.24336266  0.24161862  0.55531098  1
  Se  Se135  1  0.24402663  0.58576272  0.05278363  1
  Se  Se136  1  0.26215299  0.57849843  0.55738143  1
  Se  Se137  1  0.26337974  0.93409257  0.05865721  1
  Se  Se138  1  0.24838778  0.90934434  0.54849541  1
  Se  Se139  1  0.61633089  0.28212899  0.05830360  1
  Se  Se140  1  0.57803825  0.24751837  0.55414303  1
  Se  Se141  1  0.57671046  0.58376124  0.04835539  1
  Se  Se142  1  0.59263704  0.58720321  0.56221533  1
  Se  Se143  1  0.58419384  0.92266506  0.06264455  1
  Se  Se144  1  0.58309359  0.91609731  0.54851948  1
  Se  Se145  1  0.93314558  0.24828844  0.07037059  1
  Se  Se146  1  0.91406561  0.24810709  0.55060548  1
  Se  Se147  1  0.91481235  0.57487016  0.05610345  1
  Se  Se148  1  0.91927418  0.58319552  0.54410840  1
  Se  Se149  1  0.90611659  0.90685261  0.05674318  1
  Se  Se150  1  0.92469475  0.92947822  0.56183365  1
  Se  Se151  1  0.08128708  0.24933280  0.44343751  1
  Se  Se152  1  0.08331319  0.24840242  0.94884319  1
  Se  Se153  1  0.08071798  0.58441964  0.42995604  1
  Se  Se154  1  0.08415532  0.58517634  0.95199128  1
  Se  Se155  1  0.08616504  0.91431302  0.44680117  1
  Se  Se156  1  0.07336386  0.92485524  0.94408946  1
  Se  Se157  1  0.42133863  0.23910116  0.44945214  1
  Se  Se158  1  0.41756694  0.25358991  0.94915175  1
  Se  Se159  1  0.41436940  0.58094509  0.43677378  1
  Se  Se160  1  0.41175319  0.59042204  0.94870875  1
  Se  Se161  1  0.42037754  0.91422109  0.43851786  1
  Se  Se162  1  0.40710274  0.93055423  0.94321405  1
  Se  Se163  1  0.74641081  0.24598884  0.44640432  1
  Se  Se164  1  0.74700516  0.24669866  0.93529981  1
  Se  Se165  1  0.75400035  0.58254570  0.44933967  1
  Se  Se166  1  0.75371539  0.58125187  0.95012799  1
  Se  Se167  1  0.74911376  0.92742951  0.43885547  1
  Se  Se168  1  0.75356453  0.90342679  0.95528839  1
  Se  Se169  1  0.24945173  0.08080466  0.44692205  1
  Se  Se170  1  0.24726446  0.09144509  0.95600398  1
  Se  Se171  1  0.25820493  0.40193982  0.44359875  1
  Se  Se172  1  0.24630163  0.42214162  0.94826688  1
  Se  Se173  1  0.25205295  0.74700393  0.44242462  1
  Se  Se174  1  0.24864045  0.75886690  0.94339482  1
  Se  Se175  1  0.57710247  0.08310399  0.44176375  1
  Se  Se176  1  0.57877472  0.08950093  0.95828483  1
  Se  Se177  1  0.58978129  0.40665002  0.43594359  1
  Se  Se178  1  0.56814888  0.42836471  0.94725804  1
  Se  Se179  1  0.58120921  0.75014196  0.45134798  1
  Se  Se180  1  0.58745026  0.74329357  0.93556829  1
  Se  Se181  1  0.91382278  0.08781059  0.44459516  1
  Se  Se182  1  0.92376062  0.07636163  0.94711896  1
  Se  Se183  1  0.91330946  0.42100121  0.44213527  1
  Se  Se184  1  0.91697110  0.40822785  0.94843322  1
  Se  Se185  1  0.92366395  0.75127936  0.43439044  1
  Se  Se186  1  0.91688327  0.74664346  0.95018127  1
  Se  Se187  1  0.24919447  0.24354318  0.31516802  1
  Se  Se188  1  0.25344831  0.25371683  0.80673163  1
  Se  Se189  1  0.25331318  0.58405583  0.29862952  1
  Se  Se190  1  0.25763501  0.58753954  0.80875139  1
  Se  Se191  1  0.24621392  0.91580465  0.30595187  1
  Se  Se192  1  0.24147061  0.91474014  0.80863805  1
  Se  Se193  1  0.57372484  0.24039568  0.30563868  1
  Se  Se194  1  0.58148459  0.24828843  0.80774160  1
  Se  Se195  1  0.57415272  0.57627625  0.30350189  1
  Se  Se196  1  0.58076115  0.57339449  0.81751241  1
  Se  Se197  1  0.58586893  0.92210806  0.30230321  1
  Se  Se198  1  0.57824900  0.92260840  0.80502736  1
  Se  Se199  1  0.91882818  0.25462488  0.30470502  1
  Se  Se200  1  0.90331048  0.23462201  0.80397545  1
  Se  Se201  1  0.91504212  0.58548186  0.29746252  1
  Se  Se202  1  0.91563266  0.57757534  0.80752138  1
  Se  Se203  1  0.91644090  0.91497838  0.29973136  1
  Se  Se204  1  0.91142015  0.91467545  0.81624499  1
  Se  Se205  1  0.06977110  0.06804701  0.30614551  1
  Se  Se206  1  0.08744832  0.08847199  0.81087560  1
  Se  Se207  1  0.08351845  0.41569187  0.29644586  1
  Se  Se208  1  0.08753719  0.42433116  0.81304731  1
  Se  Se209  1  0.07902529  0.74620554  0.29803561  1
  Se  Se210  1  0.09352831  0.75449215  0.80597491  1
  Se  Se211  1  0.40403724  0.07682210  0.29665398  1
  Se  Se212  1  0.41984772  0.09299002  0.81395144  1
  Se  Se213  1  0.41725309  0.41717526  0.30178897  1
  Se  Se214  1  0.41192727  0.41175199  0.80812071  1
  Se  Se215  1  0.41739597  0.74945700  0.30138843  1
  Se  Se216  1  0.41320684  0.75247861  0.79747954  1
  Se  Se217  1  0.75087341  0.08769711  0.30186250  1
  Se  Se218  1  0.74525708  0.07537094  0.80919200  1
  Se  Se219  1  0.75295336  0.42182164  0.30768804  1
  Se  Se220  1  0.74893363  0.41536302  0.80444520  1
  Se  Se221  1  0.74873418  0.75689483  0.31512507  1
  Se  Se222  1  0.75095834  0.75211616  0.81004243  1
  Se  Se223  1  0.26462516  0.08910032  0.19754342  1
  Se  Se224  1  0.24080498  0.08709446  0.69220316  1
  Se  Se225  1  0.24390153  0.42433270  0.18457554  1
  Se  Se226  1  0.25432596  0.41100493  0.70161698  1
  Se  Se227  1  0.25251566  0.74983085  0.19969935  1
  Se  Se228  1  0.25777626  0.74571772  0.69177141  1
  Se  Se229  1  0.59549398  0.08277459  0.20064733  1
  Se  Se230  1  0.58115257  0.08654574  0.69543107  1
  Se  Se231  1  0.57485860  0.42062524  0.18637882  1
  Se  Se232  1  0.58277504  0.41526082  0.70344298  1
  Se  Se233  1  0.57721399  0.76124445  0.18811339  1
  Se  Se234  1  0.57858769  0.75770251  0.68724079  1
  Se  Se235  1  0.91720575  0.08059146  0.20219572  1
  Se  Se236  1  0.90757827  0.09427291  0.69221510  1
  Se  Se237  1  0.91724398  0.41403921  0.19598791  1
  Se  Se238  1  0.91361846  0.42281862  0.68739997  1
  Se  Se239  1  0.91286616  0.74771118  0.19823546  1
  Se  Se240  1  0.90935114  0.76645379  0.69374005  1
  Se  Se241  1  0.09045855  0.25244420  0.20711605  1
  Se  Se242  1  0.08498130  0.24397769  0.69201590  1
  Se  Se243  1  0.07921954  0.58660904  0.19559569  1
  Se  Se244  1  0.10120711  0.57129541  0.69044554  1
  Se  Se245  1  0.09024829  0.91991161  0.19281992  1
  Se  Se246  1  0.09133588  0.91096718  0.68788301  1
  Se  Se247  1  0.43146141  0.24215639  0.18979157  1
  Se  Se248  1  0.40912863  0.24886430  0.69648336  1
  Se  Se249  1  0.40989677  0.59076755  0.19347718  1
  Se  Se250  1  0.41976077  0.58283346  0.70298684  1
  Se  Se251  1  0.41517447  0.92334709  0.20008298  1
  Se  Se252  1  0.42362743  0.91467983  0.68497431  1
  Se  Se253  1  0.75590876  0.24177053  0.18442648  1
  Se  Se254  1  0.73843084  0.26228104  0.69347461  1
  Se  Se255  1  0.74495560  0.56930815  0.18288214  1
  Se  Se256  1  0.75985370  0.58216447  0.68836788  1
  Se  Se257  1  0.74841860  0.91853327  0.19958037  1
  Se  Se258  1  0.74322457  0.92553612  0.70398727  1
