# generated using pymatgen
data_In86Cu29Se144
_symmetry_space_group_name_H-M   'P 1'
_cell_length_a   17.58409485
_cell_length_b   17.58035523
_cell_length_c   23.44457313
_cell_angle_alpha   89.98324809
_cell_angle_beta   89.98932566
_cell_angle_gamma   89.97839342
_symmetry_Int_Tables_number   1
_chemical_formula_structural   In86Cu29Se144
_chemical_formula_sum   'In86 Cu29 Se144'
_cell_volume   7247.52858336
_cell_formula_units_Z   1
loop_
 _symmetry_equiv_pos_site_id
 _symmetry_equiv_pos_as_xyz
  1  'x, y, z'
loop_
 _atom_site_type_symbol
 _atom_site_label
 _atom_site_symmetry_multiplicity
 _atom_site_fract_x
 _atom_site_fract_y
 _atom_site_fract_z
 _atom_site_occupancy
  In  In0  1  0.01779191  0.16416690  0.12547845  1
  In  In1  1  0.01685016  0.16343892  0.62708658  1
  In  In2  1  0.00149016  0.50104728  0.12693642  1
  In  In3  1  -0.01154201  0.50405056  0.62546881  1
  In  In4  1  -0.00822475  0.82324096  0.12303774  1
  In  In5  1  0.00094559  0.83474794  0.61251161  1
  In  In6  1  0.32468190  0.17577687  0.13242269  1
  In  In7  1  0.31263716  0.16211222  0.62386731  1
  In  In8  1  0.32852443  0.50173425  0.12288619  1
  In  In9  1  0.34217064  0.51987840  0.62672667  1
  In  In10  1  0.32490305  0.84184285  0.13259215  1
  In  In11  1  0.33402169  0.83171031  0.62722601  1
  In  In12  1  0.66004016  0.16145680  0.13265120  1
  In  In13  1  0.66209401  0.16568638  0.62303067  1
  In  In14  1  0.67912762  0.51223422  0.11650133  1
  In  In15  1  0.67933321  0.50399992  0.62509370  1
  In  In16  1  0.70056136  0.80227549  0.16038258  1
  In  In17  1  0.64886203  0.82040802  0.60356218  1
  In  In18  1  0.17702423  -0.01178311  0.38173759  1
  In  In19  1  0.17307333  -0.00702783  0.88449390  1
  In  In20  1  0.15845004  0.32938743  0.36955586  1
  In  In21  1  0.16276328  0.33821007  0.88078613  1
  In  In22  1  0.17599507  0.67805133  0.36496648  1
  In  In23  1  0.17273587  0.65970373  0.88303208  1
  In  In24  1  0.49253316  -0.00655156  0.37443324  1
  In  In25  1  0.49105344  0.01019993  0.87226560  1
  In  In26  1  0.49744235  0.35031667  0.37205420  1
  In  In27  1  0.50947614  0.33913351  0.87469400  1
  In  In28  1  0.50622239  0.67481403  0.36938917  1
  In  In29  1  0.49460380  0.65450596  0.86345527  1
  In  In30  1  0.81522114  -0.01152815  0.36489986  1
  In  In31  1  0.82306314  -0.01101708  0.88110916  1
  In  In32  1  0.84864818  0.32732385  0.37330948  1
  In  In33  1  0.84819074  0.33530346  0.87388552  1
  In  In34  1  0.82953312  0.67158661  0.37151263  1
  In  In35  1  0.82608258  0.67168241  0.88114823  1
  In  In36  1  -0.00027413  0.17997446  0.37017159  1
  In  In37  1  0.00313053  0.18145192  0.87423453  1
  In  In38  1  -0.00836983  0.49464653  0.36866709  1
  In  In39  1  0.00995763  0.49214270  0.88445551  1
  In  In40  1  0.00698187  0.82652943  0.37474323  1
  In  In41  1  0.00033655  0.83188954  0.88396230  1
  In  In42  1  0.32232601  0.15867121  0.37249306  1
  In  In43  1  0.32967143  0.15482099  0.87217054  1
  In  In44  1  0.33896569  0.50603345  0.36354632  1
  In  In45  1  0.33057551  0.50493246  0.87999370  1
  In  In46  1  0.32994876  0.82955168  0.37500185  1
  In  In47  1  0.32909079  0.82306947  0.87321927  1
  In  In48  1  0.68135060  0.15778709  0.36989330  1
  In  In49  1  0.65526972  0.16035285  0.87525809  1
  In  In50  1  0.66462365  0.51510667  0.37485733  1
  In  In51  1  0.65535633  0.51611372  0.88807901  1
  In  In52  1  0.66761808  0.83096192  0.37588377  1
  In  In53  1  0.68008655  0.82521295  0.87943873  1
  In  In54  1  0.17162389  0.00845365  0.12123166  1
  In  In55  1  0.17592871  0.00508604  0.61765708  1
  In  In56  1  0.16651065  0.33519064  0.12567355  1
  In  In57  1  0.16734800  0.31773715  0.62772117  1
  In  In58  1  0.16496610  0.66624051  0.12535892  1
  In  In59  1  0.17197947  0.67933852  0.62207352  1
  In  In60  1  0.50417700  -0.00627119  0.13548751  1
  In  In61  1  0.49108140  -0.04436558  0.61141498  1
  In  In62  1  0.48463950  0.33422930  0.12441968  1
  In  In63  1  0.50725113  0.34221646  0.62233444  1
  In  In64  1  0.50691835  0.66127231  0.12927780  1
  In  In65  1  0.49126210  0.67987134  0.63900469  1
  In  In66  1  0.83757908  -0.01677458  0.13500756  1
  In  In67  1  0.83179951  -0.00884167  0.61486045  1
  In  In68  1  0.83271447  0.34952006  0.12631175  1
  In  In69  1  0.83796788  0.35156247  0.62204487  1
  In  In70  1  0.84176020  0.66390027  0.13006315  1
  In  In71  1  0.82905395  0.65782465  0.61608281  1
  In  In72  1  0.66681766  0.33252343  0.25009576  1
  In  In73  1  0.49331587  0.16957054  -0.00396582  1
  In  In74  1  0.49509583  0.16598568  0.49889165  1
  In  In75  1  0.00323690  0.66372074  0.75067567  1
  In  In76  1  0.67062266  0.34110633  0.74413681  1
  In  In77  1  0.66205477  -0.00392743  0.74644955  1
  In  In78  1  0.50300579  0.51060895  0.49471530  1
  In  In79  1  0.83461928  0.16587965  -0.00368117  1
  In  In80  1  0.50257260  0.83116088  0.00715745  1
  In  In81  1  0.33073624  0.33904297  0.75465704  1
  In  In82  1  0.83949294  0.16518768  0.49028240  1
  In  In83  1  -0.00041621  -0.00112329  0.25498384  1
  In  In84  1  0.00669054  -0.00041193  0.75201560  1
  In  In85  1  0.16488418  0.50678850  0.50266840  1
  Cu  Cu86  1  -0.00319171  0.66535454  0.49457757  1
  Cu  Cu87  1  0.49017592  0.16341353  0.74114158  1
  Cu  Cu88  1  0.83009668  0.82518113  0.74837800  1
  Cu  Cu89  1  0.49370248  0.16232411  0.25342268  1
  Cu  Cu90  1  0.67121494  -0.01494371  0.01108948  1
  Cu  Cu91  1  0.84054396  0.16611300  0.75031904  1
  Cu  Cu92  1  0.33203854  0.00093284  0.00438645  1
  Cu  Cu93  1  0.83458765  0.50202177  0.75072128  1
  Cu  Cu94  1  0.00281829  0.33095400  0.49523606  1
  Cu  Cu95  1  0.66889674  0.66824743  0.00792390  1
  Cu  Cu96  1  0.32933649  0.66584899  0.00016918  1
  Cu  Cu97  1  0.17001857  0.49873284  0.75784633  1
  Cu  Cu98  1  0.17352003  0.16810359  0.24885799  1
  Cu  Cu99  1  0.00238966  -0.00364202  0.00593348  1
  Cu  Cu100  1  0.49898694  0.83479079  0.74766559  1
  Cu  Cu101  1  0.49561540  0.49809791  0.24342217  1
  Cu  Cu102  1  0.32560824  0.33695792  0.49880520  1
  Cu  Cu103  1  0.49386831  0.83442895  0.25500038  1
  Cu  Cu104  1  0.16586202  0.83225036  0.25025840  1
  Cu  Cu105  1  0.00106506  -0.00330214  0.49460300  1
  Cu  Cu106  1  0.17579880  0.83563853  0.75087120  1
  Cu  Cu107  1  0.66947428  0.66842733  0.49697854  1
  Cu  Cu108  1  0.33224549  -0.00845739  0.49888917  1
  Cu  Cu109  1  0.16414293  0.49977410  0.24633913  1
  Cu  Cu110  1  -0.00270977  0.66614896  0.00442338  1
  Cu  Cu111  1  0.32511925  0.33898954  0.00323303  1
  Cu  Cu112  1  0.66559057  0.33934537  0.00081895  1
  Cu  Cu113  1  0.83537058  0.50500942  0.24873543  1
  Cu  Cu114  1  0.00161069  0.33602190  0.00273677  1
  Se  Se115  1  0.08773694  0.08571528  0.04872450  1
  Se  Se116  1  0.08192558  0.07943385  0.55083483  1
  Se  Se117  1  0.08456927  0.41900542  0.05675084  1
  Se  Se118  1  0.07810562  0.41017829  0.56061954  1
  Se  Se119  1  0.08294922  0.75028147  0.05516645  1
  Se  Se120  1  0.08247547  0.74489106  0.54938541  1
  Se  Se121  1  0.41522321  0.07929513  0.06365570  1
  Se  Se122  1  0.40982767  0.07457371  0.56183577  1
  Se  Se123  1  0.41433448  0.41973307  0.05224234  1
  Se  Se124  1  0.40816779  0.41671350  0.55567079  1
  Se  Se125  1  0.40700656  0.74438882  0.06395877  1
  Se  Se126  1  0.43315151  0.76442228  0.56111344  1
  Se  Se127  1  0.74813558  0.07887890  0.06184047  1
  Se  Se128  1  0.74386938  0.08178215  0.55308321  1
  Se  Se129  1  0.75450303  0.41997140  0.04950567  1
  Se  Se130  1  0.74391882  0.41409575  0.55381898  1
  Se  Se131  1  0.75103388  0.74898278  0.06446208  1
  Se  Se132  1  0.75727322  0.75129517  0.54871153  1
  Se  Se133  1  0.24845983  0.24929777  0.05560164  1
  Se  Se134  1  0.24568868  0.24895553  0.54911165  1
  Se  Se135  1  0.24488945  0.58295959  0.05347451  1
  Se  Se136  1  0.26321156  0.59920917  0.55179593  1
  Se  Se137  1  0.24829389  0.91525656  0.05488059  1
  Se  Se138  1  0.24920803  0.90906946  0.55463606  1
  Se  Se139  1  0.58826058  0.25478252  0.05827867  1
  Se  Se140  1  0.59150064  0.26043816  0.55270019  1
  Se  Se141  1  0.57935142  0.58243161  0.05255637  1
  Se  Se142  1  0.58774923  0.59456676  0.56232978  1
  Se  Se143  1  0.59467394  0.90742093  0.07308685  1
  Se  Se144  1  0.60187539  0.93461098  0.54414250  1
  Se  Se145  1  0.92054020  0.25315975  0.06137034  1
  Se  Se146  1  0.92366960  0.25140718  0.55977602  1
  Se  Se147  1  0.91544246  0.58017630  0.05659906  1
  Se  Se148  1  0.91640778  0.57846947  0.54779784  1
  Se  Se149  1  0.91445094  0.91564682  0.05557616  1
  Se  Se150  1  0.91429395  0.91353002  0.54473547  1
  Se  Se151  1  0.08675219  0.24646274  0.44535300  1
  Se  Se152  1  0.08397277  0.25057451  0.95032166  1
  Se  Se153  1  0.07898211  0.58752672  0.43418625  1
  Se  Se154  1  0.08316150  0.58456981  0.95053512  1
  Se  Se155  1  0.08572179  0.90968306  0.44593558  1
  Se  Se156  1  0.08526949  0.91281442  0.95068242  1
  Se  Se157  1  0.40935522  0.26043311  0.43804890  1
  Se  Se158  1  0.40391556  0.26239591  0.93656993  1
  Se  Se159  1  0.40756092  0.59577546  0.43842405  1
  Se  Se160  1  0.41762036  0.58935519  0.94513058  1
  Se  Se161  1  0.41591112  0.91006461  0.44583069  1
  Se  Se162  1  0.41402492  0.92237437  0.94416211  1
  Se  Se163  1  0.74404908  0.25937784  0.43924716  1
  Se  Se164  1  0.73856380  0.25616419  0.93690773  1
  Se  Se165  1  0.75359314  0.58480580  0.44535806  1
  Se  Se166  1  0.75305307  0.58470954  0.95329878  1
  Se  Se167  1  0.74603945  0.91863524  0.44496800  1
  Se  Se168  1  0.75414835  0.90521175  0.95510105  1
  Se  Se169  1  0.25028113  0.08137489  0.45020639  1
  Se  Se170  1  0.25148167  0.08644036  0.95029008  1
  Se  Se171  1  0.25256566  0.42036313  0.43673468  1
  Se  Se172  1  0.24543695  0.42326337  0.94714253  1
  Se  Se173  1  0.24053761  0.75458477  0.44419240  1
  Se  Se174  1  0.24752543  0.75366817  0.94944112  1
  Se  Se175  1  0.58717299  0.08226218  0.43767508  1
  Se  Se176  1  0.59070066  0.06557536  0.95031905  1
  Se  Se177  1  0.59408651  0.41291773  0.44321391  1
  Se  Se178  1  0.57740489  0.42036539  0.95046016  1
  Se  Se179  1  0.58128589  0.74963282  0.44635098  1
  Se  Se180  1  0.58647103  0.74139436  0.94263337  1
  Se  Se181  1  0.92431175  0.07224315  0.42960131  1
  Se  Se182  1  0.92607596  0.07313180  0.93750636  1
  Se  Se183  1  0.91763470  0.41534895  0.44610013  1
  Se  Se184  1  0.91507998  0.41725937  0.95038097  1
  Se  Se185  1  0.91523565  0.75090124  0.44206507  1
  Se  Se186  1  0.91442400  0.74963564  0.94901049  1
  Se  Se187  1  0.25291244  0.25364366  0.30467970  1
  Se  Se188  1  0.24174283  0.24563231  0.80943264  1
  Se  Se189  1  0.24873974  0.58395560  0.29835058  1
  Se  Se190  1  0.25175038  0.58604299  0.80674963  1
  Se  Se191  1  0.25044498  0.91514820  0.30321061  1
  Se  Se192  1  0.25314624  0.91864903  0.80897971  1
  Se  Se193  1  0.57539962  0.24385163  0.31296320  1
  Se  Se194  1  0.57527548  0.24122146  0.79947515  1
  Se  Se195  1  0.57665797  0.57908558  0.30085527  1
  Se  Se196  1  0.59871174  0.58811304  0.80363393  1
  Se  Se197  1  0.58090225  0.91473192  0.30768457  1
  Se  Se198  1  0.57737786  0.90899214  0.81554476  1
  Se  Se199  1  0.91887731  0.25170947  0.29669046  1
  Se  Se200  1  0.92097754  0.25354202  0.79966241  1
  Se  Se201  1  0.91663482  0.58849541  0.30386307  1
  Se  Se202  1  0.91468466  0.57840233  0.81477054  1
  Se  Se203  1  0.90907707  0.90144060  0.30524033  1
  Se  Se204  1  0.90842977  0.90749074  0.80733704  1
  Se  Se205  1  0.09588549  0.08681427  0.31204674  1
  Se  Se206  1  0.09153084  0.08696697  0.81478320  1
  Se  Se207  1  0.08106542  0.41656883  0.30156134  1
  Se  Se208  1  0.08302239  0.41636989  0.80625893  1
  Se  Se209  1  0.07926545  0.74715903  0.29795871  1
  Se  Se210  1  0.09060493  0.75704173  0.80984285  1
  Se  Se211  1  0.41058832  0.07882811  0.30673283  1
  Se  Se212  1  0.41029453  0.08108428  0.79699991  1
  Se  Se213  1  0.41306372  0.41369468  0.29574968  1
  Se  Se214  1  0.42691104  0.42706915  0.80853074  1
  Se  Se215  1  0.41031354  0.74664194  0.30376832  1
  Se  Se216  1  0.41745630  0.75133603  0.80296647  1
  Se  Se217  1  0.76434141  0.09170465  0.29606232  1
  Se  Se218  1  0.75673392  0.08846285  0.80783075  1
  Se  Se219  1  0.75503171  0.42395205  0.31021401  1
  Se  Se220  1  0.75425358  0.42347240  0.81364836  1
  Se  Se221  1  0.73420504  0.73976341  0.30366209  1
  Se  Se222  1  0.74807896  0.74357771  0.80266770  1
  Se  Se223  1  0.25310472  0.07880056  0.19771657  1
  Se  Se224  1  0.24023127  0.08296637  0.69719036  1
  Se  Se225  1  0.25042346  0.41682135  0.19441326  1
  Se  Se226  1  0.24604705  0.42683865  0.68654031  1
  Se  Se227  1  0.24843715  0.74775780  0.19620729  1
  Se  Se228  1  0.25398198  0.74688412  0.69847273  1
  Se  Se229  1  0.58224445  0.08162967  0.20377133  1
  Se  Se230  1  0.56977820  0.08014750  0.68351208  1
  Se  Se231  1  0.58255034  0.42146877  0.18440218  1
  Se  Se232  1  0.57512089  0.43451688  0.69377755  1
  Se  Se233  1  0.57579972  0.74829849  0.20286298  1
  Se  Se234  1  0.59215363  0.76026254  0.69524050  1
  Se  Se235  1  0.91716657  0.08983331  0.18918134  1
  Se  Se236  1  0.91070096  0.08102572  0.68776225  1
  Se  Se237  1  0.91891503  0.41843251  0.19880375  1
  Se  Se238  1  0.91955133  0.41815777  0.69995186  1
  Se  Se239  1  0.90580976  0.76162153  0.19860569  1
  Se  Se240  1  0.91638296  0.75298204  0.68733499  1
  Se  Se241  1  0.08694619  0.25056179  0.19796408  1
  Se  Se242  1  0.08078447  0.25104685  0.69999622  1
  Se  Se243  1  0.08048960  0.58661124  0.19621447  1
  Se  Se244  1  0.09491867  0.57609956  0.68931356  1
  Se  Se245  1  0.08778084  0.91442503  0.18877416  1
  Se  Se246  1  0.08939828  0.90677662  0.68920498  1
  Se  Se247  1  0.41697836  0.25038991  0.19944551  1
  Se  Se248  1  0.41673776  0.25212212  0.68418935  1
  Se  Se249  1  0.41250567  0.58381075  0.19253619  1
  Se  Se250  1  0.41941850  0.58512020  0.70405451  1
  Se  Se251  1  0.41183648  0.91936333  0.20120931  1
  Se  Se252  1  0.41284412  0.91950216  0.69901071  1
  Se  Se253  1  0.75873873  0.24588987  0.18946521  1
  Se  Se254  1  0.75991074  0.24297880  0.68804604  1
  Se  Se255  1  0.74753898  0.58530972  0.19690025  1
  Se  Se256  1  0.75540836  0.58773959  0.69691549  1
  Se  Se257  1  0.73366621  0.93340584  0.20184297  1
  Se  Se258  1  0.75228034  0.90698616  0.68739503  1
