# generated using pymatgen
data_In86Cu29Se144
_symmetry_space_group_name_H-M   'P 1'
_cell_length_a   17.58594291
_cell_length_b   17.58471324
_cell_length_c   23.45381275
_cell_angle_alpha   89.98096207
_cell_angle_beta   89.97242979
_cell_angle_gamma   89.98447127
_symmetry_Int_Tables_number   1
_chemical_formula_structural   In86Cu29Se144
_chemical_formula_sum   'In86 Cu29 Se144'
_cell_volume   7252.94380857
_cell_formula_units_Z   1
loop_
 _symmetry_equiv_pos_site_id
 _symmetry_equiv_pos_as_xyz
  1  'x, y, z'
loop_
 _atom_site_type_symbol
 _atom_site_label
 _atom_site_symmetry_multiplicity
 _atom_site_fract_x
 _atom_site_fract_y
 _atom_site_fract_z
 _atom_site_occupancy
  In  In0  1  0.00539918  0.16161886  0.11014243  1
  In  In1  1  -0.00465717  0.16038537  0.62181009  1
  In  In2  1  0.01051365  0.50222925  0.12477424  1
  In  In3  1  0.00359644  0.50471567  0.61600709  1
  In  In4  1  -0.01028139  0.82873082  0.11817917  1
  In  In5  1  0.00615776  0.83902484  0.62278604  1
  In  In6  1  0.32100211  0.15675400  0.12127449  1
  In  In7  1  0.31254031  0.16100898  0.62607914  1
  In  In8  1  0.33417069  0.49630859  0.11787123  1
  In  In9  1  0.33507576  0.50472549  0.62175273  1
  In  In10  1  0.33602918  0.85068712  0.12746650  1
  In  In11  1  0.32700911  0.83349911  0.62758965  1
  In  In12  1  0.67452626  0.15511073  0.13750720  1
  In  In13  1  0.68441241  0.16708969  0.62555219  1
  In  In14  1  0.65589284  0.50894937  0.12501980  1
  In  In15  1  0.66024769  0.49540593  0.62129862  1
  In  In16  1  0.69308614  0.83652606  0.12630994  1
  In  In17  1  0.66692938  0.83681306  0.61489314  1
  In  In18  1  0.16379592  -0.00254573  0.37873682  1
  In  In19  1  0.16338688  -0.00251032  0.87649827  1
  In  In20  1  0.16918766  0.32997460  0.38167522  1
  In  In21  1  0.16793302  0.33391097  0.87788020  1
  In  In22  1  0.15688776  0.67639405  0.38090207  1
  In  In23  1  0.17637619  0.66148643  0.87812169  1
  In  In24  1  0.49092924  -0.00791976  0.37167896  1
  In  In25  1  0.49788792  0.00793087  0.87177091  1
  In  In26  1  0.51209350  0.33570354  0.37552338  1
  In  In27  1  0.51273538  0.33317144  0.87071436  1
  In  In28  1  0.50223856  0.66626952  0.38561052  1
  In  In29  1  0.48146296  0.67104322  0.87515584  1
  In  In30  1  0.83061741  0.00410052  0.37997580  1
  In  In31  1  0.85567002  -0.01603105  0.89929839  1
  In  In32  1  0.82855868  0.33831583  0.37946087  1
  In  In33  1  0.82223590  0.32747716  0.87120349  1
  In  In34  1  0.83656072  0.66519783  0.37813866  1
  In  In35  1  0.84547730  0.67835066  0.87402666  1
  In  In36  1  0.00160558  0.15934253  0.38208306  1
  In  In37  1  0.02385794  0.13592185  0.90141574  1
  In  In38  1  -0.00755361  0.50592966  0.38071583  1
  In  In39  1  0.01001988  0.51103556  0.87406384  1
  In  In40  1  0.00207504  0.83019403  0.37793282  1
  In  In41  1  -0.00154656  0.85074547  0.88352317  1
  In  In42  1  0.32490645  0.15452340  0.37523413  1
  In  In43  1  0.32479343  0.14968054  0.86335687  1
  In  In44  1  0.32984993  0.50438747  0.38591133  1
  In  In45  1  0.32027427  0.51382310  0.87799737  1
  In  In46  1  0.32071752  0.84251661  0.38393301  1
  In  In47  1  0.32159590  0.82057332  0.86604094  1
  In  In48  1  0.67350652  0.17904946  0.36921973  1
  In  In49  1  0.67021199  0.17603613  0.87363307  1
  In  In50  1  0.67153147  0.49599111  0.38135844  1
  In  In51  1  0.67010321  0.48599805  0.87498083  1
  In  In52  1  0.66470542  0.83725820  0.37942425  1
  In  In53  1  0.67494236  0.84205542  0.88012492  1
  In  In54  1  0.17151458  0.00452659  0.11525280  1
  In  In55  1  0.16494633  -0.00068104  0.62922786  1
  In  In56  1  0.16582633  0.32998274  0.11372220  1
  In  In57  1  0.16032127  0.32896161  0.61828350  1
  In  In58  1  0.15856450  0.66004550  0.12443603  1
  In  In59  1  0.16998713  0.67009964  0.62340287  1
  In  In60  1  0.49722186  0.00391256  0.13647055  1
  In  In61  1  0.49620313  -0.01559390  0.62194435  1
  In  In62  1  0.50326412  0.34666136  0.12686989  1
  In  In63  1  0.50068080  0.34820103  0.62404218  1
  In  In64  1  0.51493281  0.65767320  0.11897356  1
  In  In65  1  0.49239902  0.66100310  0.61927872  1
  In  In66  1  0.83369193  -0.00720154  0.12005534  1
  In  In67  1  0.83701853  0.00168121  0.61818813  1
  In  In68  1  0.83304430  0.32034985  0.12648431  1
  In  In69  1  0.82770110  0.32533550  0.62277312  1
  In  In70  1  0.83660721  0.69653695  0.12401566  1
  In  In71  1  0.84127400  0.67300887  0.61638625  1
  In  In72  1  0.33235840  0.33167493  0.74819229  1
  In  In73  1  -0.00072692  0.32754014  0.75406821  1
  In  In74  1  0.33517187  0.32702499  0.24746574  1
  In  In75  1  0.33317345  0.66987058  0.25414691  1
  In  In76  1  0.50199665  0.82962524  0.00163443  1
  In  In77  1  0.00350103  0.32711538  0.23985648  1
  In  In78  1  0.83434216  0.50458852  -0.00467194  1
  In  In79  1  0.66695675  0.66770269  0.75646125  1
  In  In80  1  0.67103451  0.67112008  0.24493667  1
  In  In81  1  0.66647485  0.00333003  0.74837181  1
  In  In82  1  0.00572610  0.67303931  0.74286651  1
  In  In83  1  0.49822047  0.16870826  0.49289181  1
  In  In84  1  0.50067412  0.17259053  -0.00579793  1
  In  In85  1  0.00028738  -0.00336102  0.24977390  1
  Cu  Cu86  1  0.50444144  0.49760941  0.25066657  1
  Cu  Cu87  1  0.50174606  0.83720543  0.25385267  1
  Cu  Cu88  1  0.33389428  0.66992849  0.50343531  1
  Cu  Cu89  1  0.00108884  -0.00455890  0.50119074  1
  Cu  Cu90  1  0.16329335  0.83727281  0.75041103  1
  Cu  Cu91  1  0.67008279  0.66661342  0.50016379  1
  Cu  Cu92  1  0.50153632  0.16578379  0.25525466  1
  Cu  Cu93  1  0.00574050  0.67198764  -0.00208782  1
  Cu  Cu94  1  0.32975951  0.33636152  0.50568992  1
  Cu  Cu95  1  0.32958868  -0.00455976  -0.00539348  1
  Cu  Cu96  1  0.33622820  0.33446131  -0.00409584  1
  Cu  Cu97  1  0.15831375  0.49984018  0.24969707  1
  Cu  Cu98  1  0.83125679  0.50231991  0.25794162  1
  Cu  Cu99  1  0.16587283  0.83746836  0.25512285  1
  Cu  Cu100  1  0.66808719  0.00067206  0.49971719  1
  Cu  Cu101  1  0.49860820  0.16786475  0.74964706  1
  Cu  Cu102  1  0.49338599  0.82866132  0.74553532  1
  Cu  Cu103  1  0.83390927  0.16534162  0.25190932  1
  Cu  Cu104  1  0.83831387  0.16010878  0.75130771  1
  Cu  Cu105  1  0.32591277  -0.00223448  0.50149093  1
  Cu  Cu106  1  0.00323161  0.33700224  -0.00100131  1
  Cu  Cu107  1  0.49874726  0.49983276  0.74423092  1
  Cu  Cu108  1  0.67567000  0.00027036  0.00903244  1
  Cu  Cu109  1  0.66443512  0.33427401  0.00052562  1
  Cu  Cu110  1  0.00039660  0.66436273  0.49968212  1
  Cu  Cu111  1  0.32891086  0.66548162  0.00032055  1
  Cu  Cu112  1  0.66889302  0.33571890  0.49918268  1
  Cu  Cu113  1  -0.00307861  0.33122569  0.49970473  1
  Cu  Cu114  1  0.82962540  0.49734467  0.74520987  1
  Se  Se115  1  0.08318501  0.07516239  0.04416738  1
  Se  Se116  1  0.08329324  0.07920991  0.55602875  1
  Se  Se117  1  0.08547379  0.42206520  0.05102364  1
  Se  Se118  1  0.08258118  0.41574273  0.55005208  1
  Se  Se119  1  0.08686095  0.75177223  0.05609448  1
  Se  Se120  1  0.08151280  0.74768281  0.55569385  1
  Se  Se121  1  0.41647125  0.07372053  0.05244227  1
  Se  Se122  1  0.41111949  0.08059431  0.55753580  1
  Se  Se123  1  0.41989833  0.41449936  0.05110839  1
  Se  Se124  1  0.41735827  0.42075111  0.55196267  1
  Se  Se125  1  0.40903502  0.74204303  0.06428700  1
  Se  Se126  1  0.41473476  0.75549463  0.55711184  1
  Se  Se127  1  0.75451060  0.09088688  0.05858125  1
  Se  Se128  1  0.75230029  0.08533627  0.55005998  1
  Se  Se129  1  0.74835679  0.41367222  0.05985063  1
  Se  Se130  1  0.75131567  0.41673349  0.55597798  1
  Se  Se131  1  0.72936002  0.73213335  0.05475553  1
  Se  Se132  1  0.75304911  0.75290915  0.55044469  1
  Se  Se133  1  0.25615552  0.24899393  0.05012473  1
  Se  Se134  1  0.24667061  0.24667212  0.55116506  1
  Se  Se135  1  0.24725233  0.58209411  0.05643104  1
  Se  Se136  1  0.24877122  0.58447986  0.55361413  1
  Se  Se137  1  0.25113156  0.91106976  0.05018588  1
  Se  Se138  1  0.24438578  0.91500741  0.55750053  1
  Se  Se139  1  0.58917395  0.25129649  0.06329714  1
  Se  Se140  1  0.58805072  0.25335466  0.55930194  1
  Se  Se141  1  0.58103140  0.57378159  0.04519007  1
  Se  Se142  1  0.58424056  0.58437587  0.55368508  1
  Se  Se143  1  0.58593344  0.92341541  0.06438044  1
  Se  Se144  1  0.58018591  0.91659836  0.54716362  1
  Se  Se145  1  0.91973457  0.25531498  0.05244853  1
  Se  Se146  1  0.91482181  0.24741911  0.55461521  1
  Se  Se147  1  0.92215082  0.59199981  0.05891691  1
  Se  Se148  1  0.91313997  0.58001402  0.54936626  1
  Se  Se149  1  0.92177589  0.92255597  0.05024423  1
  Se  Se150  1  0.91591377  0.91163682  0.55235269  1
  Se  Se151  1  0.08241927  0.24794517  0.44720608  1
  Se  Se152  1  0.08959580  0.25227573  0.94975229  1
  Se  Se153  1  0.08526556  0.58095978  0.44676746  1
  Se  Se154  1  0.08828087  0.58413221  0.94879033  1
  Se  Se155  1  0.08462744  0.91217860  0.44708241  1
  Se  Se156  1  0.09037243  0.91723398  0.95228668  1
  Se  Se157  1  0.40458342  0.26094860  0.43649753  1
  Se  Se158  1  0.40733142  0.25329865  0.92977495  1
  Se  Se159  1  0.41762018  0.58364696  0.45160460  1
  Se  Se160  1  0.41393137  0.58304418  0.94814653  1
  Se  Se161  1  0.41465635  0.91819239  0.44915081  1
  Se  Se162  1  0.41381133  0.91676036  0.93624530  1
  Se  Se163  1  0.75085848  0.24901811  0.44763064  1
  Se  Se164  1  0.74857829  0.25130203  0.94925943  1
  Se  Se165  1  0.75284041  0.58264635  0.44644279  1
  Se  Se166  1  0.74660423  0.59222426  0.93289813  1
  Se  Se167  1  0.75218232  0.91571142  0.44801181  1
  Se  Se168  1  0.75324347  0.90935402  0.95828629  1
  Se  Se169  1  0.24318088  0.08326661  0.44964424  1
  Se  Se170  1  0.25052302  0.08474884  0.94397508  1
  Se  Se171  1  0.24572189  0.41815817  0.44966115  1
  Se  Se172  1  0.25005914  0.41855572  0.94525730  1
  Se  Se173  1  0.24732136  0.74978418  0.44935562  1
  Se  Se174  1  0.24928428  0.75259660  0.94789284  1
  Se  Se175  1  0.58984066  0.07925054  0.43564746  1
  Se  Se176  1  0.59558878  0.07403137  0.94370321  1
  Se  Se177  1  0.58112473  0.41926878  0.44991721  1
  Se  Se178  1  0.58126666  0.41585222  0.94707295  1
  Se  Se179  1  0.58546287  0.75213702  0.44929635  1
  Se  Se180  1  0.58812780  0.74279927  0.93702017  1
  Se  Se181  1  0.91617407  0.08160926  0.45027455  1
  Se  Se182  1  0.89352469  0.10931255  0.94708323  1
  Se  Se183  1  0.91415388  0.41716230  0.44748427  1
  Se  Se184  1  0.92350930  0.41240493  0.93456439  1
  Se  Se185  1  0.91759777  0.74936334  0.44702609  1
  Se  Se186  1  0.91897373  0.75544478  0.94869433  1
  Se  Se187  1  0.24030714  0.24197296  0.30501532  1
  Se  Se188  1  0.23653719  0.24207746  0.80291504  1
  Se  Se189  1  0.24132097  0.57686714  0.30974831  1
  Se  Se190  1  0.24912005  0.58759039  0.80023652  1
  Se  Se191  1  0.24928601  0.92073150  0.30673079  1
  Se  Se192  1  0.24913787  0.91886062  0.80436789  1
  Se  Se193  1  0.58402939  0.25596023  0.30078732  1
  Se  Se194  1  0.58661688  0.24817794  0.79909160  1
  Se  Se195  1  0.58069521  0.58310614  0.30893992  1
  Se  Se196  1  0.57403409  0.57584894  0.81202808  1
  Se  Se197  1  0.58661086  0.91876423  0.30671112  1
  Se  Se198  1  0.57509559  0.90627087  0.80721079  1
  Se  Se199  1  0.91644061  0.24629686  0.30982388  1
  Se  Se200  1  0.91581383  0.23703659  0.81574273  1
  Se  Se201  1  0.91802203  0.58559503  0.30555102  1
  Se  Se202  1  0.91072838  0.57772287  0.80277480  1
  Se  Se203  1  0.90973375  0.91197762  0.31062190  1
  Se  Se204  1  0.91324321  0.92123362  0.81097614  1
  Se  Se205  1  0.08946360  0.09082045  0.30612194  1
  Se  Se206  1  0.07485544  0.07768951  0.80996303  1
  Se  Se207  1  0.08341586  0.41520957  0.30947537  1
  Se  Se208  1  0.09246691  0.42517964  0.80495297  1
  Se  Se209  1  0.08209270  0.75107027  0.30372342  1
  Se  Se210  1  0.08627967  0.75631994  0.81389265  1
  Se  Se211  1  0.41447841  0.08442141  0.30553440  1
  Se  Se212  1  0.41743564  0.07760580  0.79564594  1
  Se  Se213  1  0.41693273  0.42446562  0.30970984  1
  Se  Se214  1  0.41975603  0.42228457  0.80954277  1
  Se  Se215  1  0.42313182  0.75767639  0.31492896  1
  Se  Se216  1  0.40976446  0.74398460  0.79664541  1
  Se  Se217  1  0.75135332  0.08401800  0.30687790  1
  Se  Se218  1  0.75662138  0.08253122  0.81381430  1
  Se  Se219  1  0.74759375  0.41655017  0.30640159  1
  Se  Se220  1  0.74861693  0.41327835  0.79886022  1
  Se  Se221  1  0.75561324  0.75702964  0.30910636  1
  Se  Se222  1  0.76010521  0.76501674  0.80539157  1
  Se  Se223  1  0.25495940  0.06982632  0.19261890  1
  Se  Se224  1  0.25039462  0.07614313  0.70030635  1
  Se  Se225  1  0.24093352  0.42107317  0.19107589  1
  Se  Se226  1  0.24324824  0.41822398  0.68694344  1
  Se  Se227  1  0.24581405  0.75779099  0.19167660  1
  Se  Se228  1  0.24482908  0.75075123  0.69790681  1
  Se  Se229  1  0.58544945  0.07927903  0.20476553  1
  Se  Se230  1  0.57617669  0.08946030  0.68380400  1
  Se  Se231  1  0.59110955  0.41791172  0.19864399  1
  Se  Se232  1  0.58714082  0.41545664  0.69833632  1
  Se  Se233  1  0.57632393  0.76143285  0.18737105  1
  Se  Se234  1  0.58143806  0.75356059  0.68882734  1
  Se  Se235  1  0.91653225  0.09291231  0.18893654  1
  Se  Se236  1  0.91545673  0.07836549  0.69328506  1
  Se  Se237  1  0.90820307  0.42518146  0.19045505  1
  Se  Se238  1  0.91575671  0.42042925  0.68803984  1
  Se  Se239  1  0.92251742  0.75482911  0.19956181  1
  Se  Se240  1  0.90754738  0.76140273  0.69238434  1
  Se  Se241  1  0.09588714  0.23521362  0.18554208  1
  Se  Se242  1  0.08763845  0.24011691  0.69181623  1
  Se  Se243  1  0.07702784  0.58756604  0.20031564  1
  Se  Se244  1  0.09172128  0.57285130  0.69190836  1
  Se  Se245  1  0.08972903  0.91094273  0.18684441  1
  Se  Se246  1  0.07755613  0.91883128  0.69877868  1
  Se  Se247  1  0.42606129  0.23925611  0.18572834  1
  Se  Se248  1  0.42148879  0.24379984  0.68399906  1
  Se  Se249  1  0.42286467  0.57822950  0.19181745  1
  Se  Se250  1  0.41482009  0.58439574  0.69471654  1
  Se  Se251  1  0.41396711  0.92085288  0.20456146  1
  Se  Se252  1  0.41195466  0.91743148  0.69674587  1
  Se  Se253  1  0.74957398  0.25193871  0.20154305  1
  Se  Se254  1  0.75460455  0.24794724  0.70145054  1
  Se  Se255  1  0.76292651  0.58048324  0.18655191  1
  Se  Se256  1  0.75432458  0.58422597  0.68783531  1
  Se  Se257  1  0.75196006  0.92778762  0.19779861  1
  Se  Se258  1  0.75257446  0.91204928  0.68869684  1
