# generated using pymatgen
data_In86Cu29Se144
_symmetry_space_group_name_H-M   'P 1'
_cell_length_a   17.59565736
_cell_length_b   17.59320752
_cell_length_c   23.44454336
_cell_angle_alpha   89.99534999
_cell_angle_beta   90.00320542
_cell_angle_gamma   90.01686862
_symmetry_Int_Tables_number   1
_chemical_formula_structural   In86Cu29Se144
_chemical_formula_sum   'In86 Cu29 Se144'
_cell_volume   7257.58747516
_cell_formula_units_Z   1
loop_
 _symmetry_equiv_pos_site_id
 _symmetry_equiv_pos_as_xyz
  1  'x, y, z'
loop_
 _atom_site_type_symbol
 _atom_site_label
 _atom_site_symmetry_multiplicity
 _atom_site_fract_x
 _atom_site_fract_y
 _atom_site_fract_z
 _atom_site_occupancy
  In  In0  1  0.00016459  0.16812376  0.12227959  1
  In  In1  1  -0.00419304  0.17329736  0.63331746  1
  In  In2  1  -0.00459953  0.50121764  0.12658352  1
  In  In3  1  -0.00876082  0.50629050  0.63006941  1
  In  In4  1  -0.00790717  0.83228921  0.11883944  1
  In  In5  1  -0.00031767  0.84747329  0.62684385  1
  In  In6  1  0.32630268  0.16444126  0.09227313  1
  In  In7  1  0.33575452  0.17762521  0.63300611  1
  In  In8  1  0.33314473  0.48147069  0.10707324  1
  In  In9  1  0.33673257  0.48509360  0.62749053  1
  In  In10  1  0.33020385  0.84808714  0.11560808  1
  In  In11  1  0.33574728  0.81956674  0.62705050  1
  In  In12  1  0.67208198  0.16358688  0.12566319  1
  In  In13  1  0.67393715  0.14235900  0.63390377  1
  In  In14  1  0.66543931  0.49656805  0.12722939  1
  In  In15  1  0.68318537  0.49240117  0.62820004  1
  In  In16  1  0.68070478  0.82240647  0.13584585  1
  In  In17  1  0.67297217  0.83360945  0.62299864  1
  In  In18  1  0.15628137  0.00353435  0.36816590  1
  In  In19  1  0.11731202  0.04198503  0.93186558  1
  In  In20  1  0.16711621  0.33119758  0.36393379  1
  In  In21  1  0.15076977  0.34351414  0.88257327  1
  In  In22  1  0.16063503  0.67878927  0.36881645  1
  In  In23  1  0.16134535  0.66509601  0.88465430  1
  In  In24  1  0.50402548  -0.00768937  0.37687260  1
  In  In25  1  0.51269292  0.00446673  0.87479732  1
  In  In26  1  0.50026844  0.32935693  0.36718997  1
  In  In27  1  0.49956317  0.33414696  0.89026693  1
  In  In28  1  0.52988901  0.67682973  0.36280371  1
  In  In29  1  0.50031684  0.65762087  0.87643442  1
  In  In30  1  0.83265462  0.00232193  0.37160092  1
  In  In31  1  0.82924834  0.00435830  0.87812912  1
  In  In32  1  0.83418285  0.33169380  0.37334620  1
  In  In33  1  0.84325592  0.32340299  0.88308178  1
  In  In34  1  0.83181254  0.66910084  0.37164254  1
  In  In35  1  0.82477827  0.67626889  0.87807205  1
  In  In36  1  -0.01281200  0.14499807  0.35038297  1
  In  In37  1  -0.01446277  0.16877311  0.87749130  1
  In  In38  1  -0.01777249  0.48531969  0.36193728  1
  In  In39  1  0.00814775  0.48745744  0.88320549  1
  In  In40  1  -0.01544211  0.82200655  0.36213614  1
  In  In41  1  -0.02513076  0.86402022  0.90455767  1
  In  In42  1  0.33203930  0.17569794  0.37032600  1
  In  In43  1  0.33205790  0.16687878  0.89923916  1
  In  In44  1  0.33272787  0.48929800  0.37242292  1
  In  In45  1  0.32584919  0.49569393  0.89338917  1
  In  In46  1  0.33697713  0.84629147  0.37623259  1
  In  In47  1  0.32421112  0.83609189  0.87930444  1
  In  In48  1  0.67651059  0.18074919  0.36072434  1
  In  In49  1  0.67571481  0.16310826  0.88482098  1
  In  In50  1  0.67951969  0.52079353  0.35270108  1
  In  In51  1  0.65950643  0.51046478  0.87972173  1
  In  In52  1  0.67326364  0.83773885  0.37482805  1
  In  In53  1  0.67612776  0.84284527  0.86487466  1
  In  In54  1  0.15409378  -0.01051063  0.10672933  1
  In  In55  1  0.15772164  -0.00574296  0.63394339  1
  In  In56  1  0.14835558  0.31662299  0.11127051  1
  In  In57  1  0.16585018  0.32133026  0.63509218  1
  In  In58  1  0.16001535  0.65412758  0.11692848  1
  In  In59  1  0.16878921  0.67001170  0.62968014  1
  In  In60  1  0.49916450  0.01186291  0.12303395  1
  In  In61  1  0.52794510  -0.00241739  0.63049971  1
  In  In62  1  0.51395454  0.33928751  0.11628651  1
  In  In63  1  0.49144756  0.32995386  0.62630267  1
  In  In64  1  0.51639137  0.65674299  0.13375530  1
  In  In65  1  0.50273862  0.67737497  0.62333809  1
  In  In66  1  0.84277286  -0.00534112  0.11992173  1
  In  In67  1  0.83713584  -0.00185808  0.62376968  1
  In  In68  1  0.83184319  0.33467556  0.12785819  1
  In  In69  1  0.84097055  0.33679259  0.61937866  1
  In  In70  1  0.83239671  0.66633821  0.12525279  1
  In  In71  1  0.82630312  0.65683388  0.62169779  1
  In  In72  1  0.32334865  0.01046732  0.23436670  1
  In  In73  1  0.33239568  -0.00133939  0.76244657  1
  In  In74  1  0.50385136  0.83101620  0.00193538  1
  In  In75  1  0.66681641  0.32981515  0.75874967  1
  In  In76  1  0.32565439  0.33391426  0.76319967  1
  In  In77  1  0.16065397  0.16398235  0.48765858  1
  In  In78  1  0.33342202  0.66507217  0.76539089  1
  In  In79  1  0.16410082  0.83490512  0.50580530  1
  In  In80  1  -0.00150214  0.66734907  0.75457625  1
  In  In81  1  0.51210448  0.16134875  0.51195700  1
  In  In82  1  0.32879385  0.66564285  0.23710437  1
  In  In83  1  0.15603012  0.50727511  0.50936919  1
  In  In84  1  0.51883945  0.51238325  0.47901318  1
  In  In85  1  0.33301103  0.32758431  0.23439429  1
  Cu  Cu86  1  0.66890980  -0.00272313  0.00166878  1
  Cu  Cu87  1  -0.00595084  0.33335071  0.49604892  1
  Cu  Cu88  1  0.34436598  -0.00139173  0.50101724  1
  Cu  Cu89  1  0.83680899  0.49484603  0.75131414  1
  Cu  Cu90  1  0.67555126  0.32743095  0.49757540  1
  Cu  Cu91  1  0.50161633  0.50661230  0.75497603  1
  Cu  Cu92  1  0.67417498  0.33154789  0.00369096  1
  Cu  Cu93  1  0.83239296  0.50272817  0.24436342  1
  Cu  Cu94  1  0.83358996  0.16049195  0.75378449  1
  Cu  Cu95  1  0.67152712  0.67241866  0.49724200  1
  Cu  Cu96  1  0.83428188  0.83904772  0.75303937  1
  Cu  Cu97  1  0.83711880  0.83911463  0.24839824  1
  Cu  Cu98  1  0.83407129  0.16610907  0.24249019  1
  Cu  Cu99  1  -0.00905936  0.66148001  0.49386198  1
  Cu  Cu100  1  0.50773077  0.83909309  0.74614395  1
  Cu  Cu101  1  0.50471817  0.83316758  0.25346538  1
  Cu  Cu102  1  -0.00454983  0.00002263  0.49628528  1
  Cu  Cu103  1  0.34622333  0.66804525  0.49953990  1
  Cu  Cu104  1  0.15656684  0.15807210  0.76512193  1
  Cu  Cu105  1  -0.00889833  0.33765436  0.00556800  1
  Cu  Cu106  1  0.15569837  0.84046078  0.76301522  1
  Cu  Cu107  1  0.49780755  0.16579508  0.24150296  1
  Cu  Cu108  1  0.66908197  0.66603116  0.00579338  1
  Cu  Cu109  1  0.67488267  -0.00078704  0.49872303  1
  Cu  Cu110  1  0.33980669  0.66415491  0.00312106  1
  Cu  Cu111  1  0.16151279  0.50029144  0.24343961  1
  Cu  Cu112  1  0.15455438  0.83953563  0.24040732  1
  Cu  Cu113  1  -0.00280985  0.66274144  0.00197870  1
  Cu  Cu114  1  0.33650474  0.33763138  0.49928953  1
  Se  Se115  1  0.07490105  0.08626667  0.04728915  1
  Se  Se116  1  0.07972429  0.07735460  0.55721021  1
  Se  Se117  1  0.07811802  0.42253627  0.05388448  1
  Se  Se118  1  0.07597786  0.40320443  0.56322029  1
  Se  Se119  1  0.08179092  0.74708028  0.05357329  1
  Se  Se120  1  0.07113042  0.73743723  0.55866115  1
  Se  Se121  1  0.42000275  0.07235031  0.04412671  1
  Se  Se122  1  0.41259347  0.07688561  0.56909331  1
  Se  Se123  1  0.42794747  0.41063471  0.04333347  1
  Se  Se124  1  0.42469597  0.42119862  0.54831616  1
  Se  Se125  1  0.41731467  0.74063444  0.06682087  1
  Se  Se126  1  0.42272621  0.75663338  0.55142948  1
  Se  Se127  1  0.75280410  0.07934762  0.05599025  1
  Se  Se128  1  0.75529409  0.08408583  0.55371649  1
  Se  Se129  1  0.75248700  0.41994266  0.05697585  1
  Se  Se130  1  0.75376586  0.41663099  0.55068862  1
  Se  Se131  1  0.75247092  0.75292123  0.05445527  1
  Se  Se132  1  0.75569299  0.75033932  0.55386769  1
  Se  Se133  1  0.25846611  0.27785052  0.04267389  1
  Se  Se134  1  0.25401060  0.25402217  0.55474361  1
  Se  Se135  1  0.25198642  0.57944924  0.05027669  1
  Se  Se136  1  0.26515694  0.59153187  0.56113470  1
  Se  Se137  1  0.25113194  0.91851290  0.04185997  1
  Se  Se138  1  0.25866864  0.92588758  0.56380346  1
  Se  Se139  1  0.59034051  0.24385973  0.05323194  1
  Se  Se140  1  0.60003805  0.25817948  0.56812928  1
  Se  Se141  1  0.58410396  0.58136942  0.05453488  1
  Se  Se142  1  0.59398091  0.58742807  0.55876267  1
  Se  Se143  1  0.59282885  0.91604724  0.06541906  1
  Se  Se144  1  0.58913271  0.91659946  0.55169931  1
  Se  Se145  1  0.91029103  0.25050042  0.05675172  1
  Se  Se146  1  0.92036810  0.24490355  0.55416971  1
  Se  Se147  1  0.91229075  0.58138410  0.05579296  1
  Se  Se148  1  0.91450920  0.57760052  0.55317083  1
  Se  Se149  1  0.92116728  0.91745560  0.04492309  1
  Se  Se150  1  0.91697551  0.91445592  0.55121948  1
  Se  Se151  1  0.07208407  0.25730866  0.43208060  1
  Se  Se152  1  0.06961764  0.25418411  0.94668770  1
  Se  Se153  1  0.07760750  0.58745784  0.43531827  1
  Se  Se154  1  0.08277810  0.57791212  0.95183414  1
  Se  Se155  1  0.07670671  0.91596461  0.43798516  1
  Se  Se156  1  0.10599817  0.89572689  0.94491066  1
  Se  Se157  1  0.41760535  0.25016572  0.44656926  1
  Se  Se158  1  0.41750439  0.25591503  0.95911466  1
  Se  Se159  1  0.41241050  0.59402343  0.42834488  1
  Se  Se160  1  0.42158881  0.58080986  0.94900280  1
  Se  Se161  1  0.42461119  0.91294294  0.44955286  1
  Se  Se162  1  0.41871650  0.92086439  0.94036709  1
  Se  Se163  1  0.75460718  0.24284927  0.44255662  1
  Se  Se164  1  0.75824087  0.24535737  0.95304724  1
  Se  Se165  1  0.74466710  0.58516708  0.43897724  1
  Se  Se166  1  0.75031801  0.58577303  0.94695812  1
  Se  Se167  1  0.75781271  0.91719600  0.44451928  1
  Se  Se168  1  0.74841426  0.91344029  0.94538671  1
  Se  Se169  1  0.26280933  0.07136716  0.43793833  1
  Se  Se170  1  0.25586248  0.07667666  0.96480505  1
  Se  Se171  1  0.24583381  0.41267112  0.44566963  1
  Se  Se172  1  0.25170549  0.39815501  0.95351882  1
  Se  Se173  1  0.25723401  0.74609848  0.44276568  1
  Se  Se174  1  0.25596200  0.74282808  0.94744997  1
  Se  Se175  1  0.59403728  0.08273920  0.43918692  1
  Se  Se176  1  0.58573275  0.08285567  0.95127731  1
  Se  Se177  1  0.59779904  0.40310715  0.43285428  1
  Se  Se178  1  0.59246697  0.41670805  0.94937952  1
  Se  Se179  1  0.58636572  0.75479910  0.44474647  1
  Se  Se180  1  0.59345075  0.74552039  0.93906387  1
  Se  Se181  1  0.92130368  0.08625173  0.43854620  1
  Se  Se182  1  0.92047919  0.07403723  0.94810378  1
  Se  Se183  1  0.91213672  0.41930018  0.44494556  1
  Se  Se184  1  0.90970157  0.42154549  0.94993426  1
  Se  Se185  1  0.91344432  0.75184747  0.44320444  1
  Se  Se186  1  0.91173370  0.74641911  0.95113767  1
  Se  Se187  1  0.24083812  0.23611053  0.29476759  1
  Se  Se188  1  0.24068008  0.23804767  0.82132434  1
  Se  Se189  1  0.24318410  0.57627201  0.30628609  1
  Se  Se190  1  0.24147836  0.57013460  0.81583043  1
  Se  Se191  1  0.24344098  0.91122463  0.30053761  1
  Se  Se192  1  0.23281866  0.92389400  0.82115031  1
  Se  Se193  1  0.57872461  0.25065649  0.29534513  1
  Se  Se194  1  0.57648773  0.24460306  0.81906237  1
  Se  Se195  1  0.56512438  0.56951095  0.29512418  1
  Se  Se196  1  0.58766377  0.59129058  0.80197867  1
  Se  Se197  1  0.58664521  0.91931063  0.30468682  1
  Se  Se198  1  0.58728043  0.92496391  0.79988286  1
  Se  Se199  1  0.91397212  0.25228155  0.29883071  1
  Se  Se200  1  0.91407288  0.25190372  0.80178422  1
  Se  Se201  1  0.91439770  0.58718605  0.30060913  1
  Se  Se202  1  0.91135487  0.57638789  0.81537641  1
  Se  Se203  1  0.92069173  0.92550728  0.30015532  1
  Se  Se204  1  0.91565389  0.91782955  0.81133899  1
  Se  Se205  1  0.09975129  0.09072473  0.29306940  1
  Se  Se206  1  0.08278396  0.07625503  0.82469960  1
  Se  Se207  1  0.08313388  0.41576412  0.29945338  1
  Se  Se208  1  0.07851564  0.41447764  0.80363058  1
  Se  Se209  1  0.07951515  0.74994203  0.29507189  1
  Se  Se210  1  0.07753583  0.75646868  0.82051267  1
  Se  Se211  1  0.41840329  0.08689304  0.30491503  1
  Se  Se212  1  0.41651089  0.09606750  0.81833202  1
  Se  Se213  1  0.41913852  0.41957208  0.29851517  1
  Se  Se214  1  0.42200825  0.42782617  0.81577095  1
  Se  Se215  1  0.41445754  0.75414745  0.30692691  1
  Se  Se216  1  0.42787790  0.76474666  0.81101628  1
  Se  Se217  1  0.75136178  0.08373296  0.29960529  1
  Se  Se218  1  0.74515082  0.08332643  0.80641735  1
  Se  Se219  1  0.75413781  0.41488528  0.30075536  1
  Se  Se220  1  0.75654641  0.42117512  0.81638269  1
  Se  Se221  1  0.75226112  0.75571671  0.30282681  1
  Se  Se222  1  0.75034666  0.74911462  0.79871203  1
  Se  Se223  1  0.23846253  0.09282386  0.16895867  1
  Se  Se224  1  0.24114133  0.09231362  0.69668453  1
  Se  Se225  1  0.23754252  0.41923307  0.18274741  1
  Se  Se226  1  0.23916153  0.42522826  0.69864014  1
  Se  Se227  1  0.24048838  0.76251424  0.18254179  1
  Se  Se228  1  0.23965657  0.76103863  0.70518452  1
  Se  Se229  1  0.58586879  0.08017253  0.19565391  1
  Se  Se230  1  0.57130183  0.09602501  0.70321511  1
  Se  Se231  1  0.58387598  0.41149519  0.19525152  1
  Se  Se232  1  0.57553256  0.42110645  0.69342102  1
  Se  Se233  1  0.58694940  0.74718706  0.20264320  1
  Se  Se234  1  0.58689152  0.75182419  0.69334090  1
  Se  Se235  1  0.91865458  0.08261605  0.19139032  1
  Se  Se236  1  0.91748206  0.08033045  0.69657504  1
  Se  Se237  1  0.91737838  0.41615645  0.19716876  1
  Se  Se238  1  0.91829104  0.41288899  0.69632690  1
  Se  Se239  1  0.91545813  0.75175943  0.19387025  1
  Se  Se240  1  0.91080784  0.75531921  0.69031688  1
  Se  Se241  1  0.07579806  0.25440885  0.19300080  1
  Se  Se242  1  0.08330187  0.24539333  0.70578729  1
  Se  Se243  1  0.07892087  0.58856009  0.19518272  1
  Se  Se244  1  0.09397997  0.57704240  0.69577708  1
  Se  Se245  1  0.07494294  0.92229522  0.18586652  1
  Se  Se246  1  0.07398140  0.92079239  0.70537669  1
  Se  Se247  1  0.41772490  0.23544800  0.17432921  1
  Se  Se248  1  0.42626398  0.24616348  0.70622463  1
  Se  Se249  1  0.41315598  0.56765511  0.18409772  1
  Se  Se250  1  0.41817798  0.58039183  0.69173630  1
  Se  Se251  1  0.42349710  0.91065213  0.19239389  1
  Se  Se252  1  0.41755660  0.91401721  0.69029460  1
  Se  Se253  1  0.74653792  0.25185341  0.19651738  1
  Se  Se254  1  0.75627584  0.24637178  0.69253258  1
  Se  Se255  1  0.74625210  0.58613850  0.19466702  1
  Se  Se256  1  0.75265725  0.57996465  0.70005967  1
  Se  Se257  1  0.75512856  0.92290308  0.19466353  1
  Se  Se258  1  0.75197537  0.91818617  0.69379472  1
