# generated using pymatgen
data_In86Cu29Se144
_symmetry_space_group_name_H-M   'P 1'
_cell_length_a   17.58692238
_cell_length_b   17.59186265
_cell_length_c   23.45405917
_cell_angle_alpha   90.01033676
_cell_angle_beta   90.00734473
_cell_angle_gamma   90.04965801
_symmetry_Int_Tables_number   1
_chemical_formula_structural   In86Cu29Se144
_chemical_formula_sum   'In86 Cu29 Se144'
_cell_volume   7256.37160270
_cell_formula_units_Z   1
loop_
 _symmetry_equiv_pos_site_id
 _symmetry_equiv_pos_as_xyz
  1  'x, y, z'
loop_
 _atom_site_type_symbol
 _atom_site_label
 _atom_site_symmetry_multiplicity
 _atom_site_fract_x
 _atom_site_fract_y
 _atom_site_fract_z
 _atom_site_occupancy
  In  In0  1  -0.00908958  0.17015652  0.12109552  1
  In  In1  1  0.03716829  0.14193291  0.65801068  1
  In  In2  1  0.01050233  0.50552608  0.11450224  1
  In  In3  1  -0.00204697  0.50106833  0.63624317  1
  In  In4  1  -0.00807760  0.83100422  0.13802135  1
  In  In5  1  0.00475358  0.83481578  0.62560383  1
  In  In6  1  0.33109323  0.16615634  0.13246248  1
  In  In7  1  0.31490993  0.18528140  0.64945164  1
  In  In8  1  0.33086969  0.50341945  0.12357473  1
  In  In9  1  0.34241161  0.49072758  0.63171981  1
  In  In10  1  0.34097457  0.82642007  0.12896648  1
  In  In11  1  0.31799298  0.84361768  0.63009326  1
  In  In12  1  0.67078732  0.15489471  0.12137079  1
  In  In13  1  0.65652184  0.17097875  0.64165651  1
  In  In14  1  0.65813756  0.49282607  0.11534528  1
  In  In15  1  0.64681761  0.49994814  0.62657393  1
  In  In16  1  0.66350714  0.85073742  0.12752013  1
  In  In17  1  0.67370951  0.83916672  0.62379062  1
  In  In18  1  0.16380144  -0.00532399  0.37863758  1
  In  In19  1  0.17169615  0.01240960  0.85767522  1
  In  In20  1  0.17312185  0.31575796  0.38076024  1
  In  In21  1  0.17925674  0.33821752  0.85997096  1
  In  In22  1  0.17818992  0.67526146  0.37187724  1
  In  In23  1  0.15699638  0.65933173  0.86888464  1
  In  In24  1  0.50057297  -0.00206385  0.36734601  1
  In  In25  1  0.49631569  -0.00685234  0.86574991  1
  In  In26  1  0.49190515  0.34841174  0.38170597  1
  In  In27  1  0.50533761  0.33779977  0.86735466  1
  In  In28  1  0.48986959  0.66721783  0.37485279  1
  In  In29  1  0.49046091  0.67491240  0.88557545  1
  In  In30  1  0.83668988  -0.00600534  0.36481133  1
  In  In31  1  0.84209258  0.00886202  0.87102420  1
  In  In32  1  0.83298901  0.33484190  0.37371594  1
  In  In33  1  0.83091285  0.33438166  0.87598075  1
  In  In34  1  0.84131908  0.66302081  0.36579758  1
  In  In35  1  0.83539555  0.65502791  0.87951066  1
  In  In36  1  0.01974013  0.15662674  0.38544055  1
  In  In37  1  -0.00439771  0.16002832  0.86415566  1
  In  In38  1  -0.00647312  0.49916671  0.37065302  1
  In  In39  1  0.00068025  0.49974053  0.87367064  1
  In  In40  1  0.01914314  0.84996211  0.36185908  1
  In  In41  1  0.00863626  0.84154393  0.86906045  1
  In  In42  1  0.32836549  0.15562884  0.36964691  1
  In  In43  1  0.34527687  0.17212932  0.85214025  1
  In  In44  1  0.34173208  0.50241102  0.36685524  1
  In  In45  1  0.32991991  0.50162256  0.87550813  1
  In  In46  1  0.32506368  0.82638839  0.37366697  1
  In  In47  1  0.34102054  0.83840415  0.87170750  1
  In  In48  1  0.67528297  0.15904321  0.37375592  1
  In  In49  1  0.67059100  0.17966936  0.86510764  1
  In  In50  1  0.66010864  0.49711905  0.37594760  1
  In  In51  1  0.67103978  0.49428228  0.88440345  1
  In  In52  1  0.65471332  0.83873493  0.37193816  1
  In  In53  1  0.65610236  0.82652356  0.87821258  1
  In  In54  1  0.16783120  -0.00441505  0.12974112  1
  In  In55  1  0.16975747  0.00321304  0.62269477  1
  In  In56  1  0.16555899  0.34490632  0.12306138  1
  In  In57  1  0.17463821  0.32461794  0.63903855  1
  In  In58  1  0.17632759  0.65933468  0.13146951  1
  In  In59  1  0.15790588  0.67656568  0.62960756  1
  In  In60  1  0.50416803  -0.00108677  0.12799006  1
  In  In61  1  0.48466088  0.01622024  0.64570722  1
  In  In62  1  0.48344660  0.33796741  0.12604965  1
  In  In63  1  0.48096317  0.34854446  0.64317704  1
  In  In64  1  0.48435676  0.65580036  0.11643697  1
  In  In65  1  0.49689744  0.64697094  0.62095656  1
  In  In66  1  0.83110513  0.00280033  0.12693642  1
  In  In67  1  0.83132292  0.00600162  0.62966040  1
  In  In68  1  0.83225547  0.33224613  0.11232175  1
  In  In69  1  0.83832867  0.32333849  0.63578164  1
  In  In70  1  0.84722975  0.66520426  0.12392962  1
  In  In71  1  0.83616631  0.67792411  0.62732483  1
  In  In72  1  0.17056632  0.17072016  -0.01733081  1
  In  In73  1  0.83203772  0.83153420  0.00817031  1
  In  In74  1  0.83166445  0.49973539  0.49458579  1
  In  In75  1  0.65672293  0.32716609  0.24074781  1
  In  In76  1  0.16838527  0.83165094  0.00501153  1
  In  In77  1  0.00247265  0.32948258  0.25301071  1
  In  In78  1  0.17335450  0.50038390  0.50002356  1
  In  In79  1  0.66902023  0.66645128  0.75144323  1
  In  In80  1  0.66383252  0.67092362  0.25028415  1
  In  In81  1  0.50736552  0.17263789  -0.00886092  1
  In  In82  1  0.49719159  0.83277717  0.49768542  1
  In  In83  1  0.83547014  0.83060742  0.50294392  1
  In  In84  1  0.83933771  0.16800420  0.49903291  1
  In  In85  1  0.49178143  0.17278656  0.50949090  1
  Cu  Cu86  1  0.32839587  0.34139330  -0.00296048  1
  Cu  Cu87  1  0.66207835  0.00045144  0.50454993  1
  Cu  Cu88  1  0.16563220  0.83469357  0.25237776  1
  Cu  Cu89  1  0.49630811  0.50329367  0.75633884  1
  Cu  Cu90  1  0.49998192  0.82479606  0.75266990  1
  Cu  Cu91  1  0.82935186  0.17237564  0.75239872  1
  Cu  Cu92  1  0.49819667  0.83861263  0.24790633  1
  Cu  Cu93  1  0.00453238  0.67092176  0.50024908  1
  Cu  Cu94  1  0.66506002  0.33414827  -0.00677282  1
  Cu  Cu95  1  0.16889773  0.50573306  0.74927733  1
  Cu  Cu96  1  0.82951191  0.49881342  0.75879657  1
  Cu  Cu97  1  0.83574424  0.50003015  0.24344462  1
  Cu  Cu98  1  0.16849662  0.83103507  0.74834596  1
  Cu  Cu99  1  -0.00500291  0.33786631  -0.00621728  1
  Cu  Cu100  1  0.16829816  0.15813515  0.25514325  1
  Cu  Cu101  1  0.67136981  0.00283887  0.00063791  1
  Cu  Cu102  1  0.00435104  0.00983532  -0.00553745  1
  Cu  Cu103  1  0.34645382  0.00055839  -0.00659449  1
  Cu  Cu104  1  0.32148630  0.00451276  0.50102155  1
  Cu  Cu105  1  0.33179755  0.66700019  0.49933644  1
  Cu  Cu106  1  0.01145629  0.32526833  0.50962906  1
  Cu  Cu107  1  0.17229286  0.50085294  0.24663339  1
  Cu  Cu108  1  0.32778216  0.66183872  0.00115224  1
  Cu  Cu109  1  0.66030574  0.34267423  0.50632611  1
  Cu  Cu110  1  0.49993977  0.16644193  0.24953695  1
  Cu  Cu111  1  0.84248976  0.83700422  0.74960078  1
  Cu  Cu112  1  0.65946500  0.66442468  0.00064087  1
  Cu  Cu113  1  0.00236966  0.66324219  -0.00090126  1
  Cu  Cu114  1  0.83947543  0.15512302  0.24976730  1
  Se  Se115  1  0.08878945  0.08537621  0.05522727  1
  Se  Se116  1  0.08041179  0.08950625  0.56184807  1
  Se  Se117  1  0.08451294  0.41390479  0.04726294  1
  Se  Se118  1  0.08159359  0.41835064  0.56444641  1
  Se  Se119  1  0.07494947  0.74477037  0.06368924  1
  Se  Se120  1  0.08541922  0.75498537  0.55280226  1
  Se  Se121  1  0.41616995  0.08732356  0.05606299  1
  Se  Se122  1  0.40316722  0.07759689  0.56354324  1
  Se  Se123  1  0.41306019  0.42045834  0.05188596  1
  Se  Se124  1  0.41736140  0.41278162  0.55782296  1
  Se  Se125  1  0.41139353  0.75116665  0.04981426  1
  Se  Se126  1  0.40916011  0.74744699  0.56264265  1
  Se  Se127  1  0.75906289  0.08432931  0.05046404  1
  Se  Se128  1  0.74010527  0.08746031  0.55964298  1
  Se  Se129  1  0.74863658  0.41783435  0.04828123  1
  Se  Se130  1  0.75118881  0.41342810  0.56416712  1
  Se  Se131  1  0.73841943  0.74123264  0.06497841  1
  Se  Se132  1  0.73780879  0.73715549  0.55451890  1
  Se  Se133  1  0.25414529  0.25292770  0.05548747  1
  Se  Se134  1  0.25519054  0.25395865  0.56433987  1
  Se  Se135  1  0.24208990  0.57957634  0.05259856  1
  Se  Se136  1  0.25582294  0.58977645  0.56544363  1
  Se  Se137  1  0.26304372  0.92716122  0.05603585  1
  Se  Se138  1  0.24358642  0.91328912  0.55070106  1
  Se  Se139  1  0.58908933  0.25905192  0.06248172  1
  Se  Se140  1  0.58636034  0.25960283  0.56665221  1
  Se  Se141  1  0.57493455  0.57852404  0.05038601  1
  Se  Se142  1  0.58609238  0.58246711  0.54945444  1
  Se  Se143  1  0.58316979  0.92334875  0.05227638  1
  Se  Se144  1  0.57812273  0.92491245  0.56326862  1
  Se  Se145  1  0.91711609  0.24882500  0.04632787  1
  Se  Se146  1  0.92658259  0.24760158  0.56587230  1
  Se  Se147  1  0.91492924  0.58010612  0.04942358  1
  Se  Se148  1  0.92227928  0.58954933  0.55729378  1
  Se  Se149  1  0.93181261  0.92382506  0.05682071  1
  Se  Se150  1  0.92018507  0.92762196  0.55884362  1
  Se  Se151  1  0.09332060  0.24267520  0.45612694  1
  Se  Se152  1  0.07547651  0.26124169  0.93045781  1
  Se  Se153  1  0.07794005  0.58606328  0.43880200  1
  Se  Se154  1  0.08457394  0.58074452  0.94521594  1
  Se  Se155  1  0.08171673  0.91190320  0.44772952  1
  Se  Se156  1  0.09033463  0.93059169  0.93971988  1
  Se  Se157  1  0.40645933  0.25149402  0.44004501  1
  Se  Se158  1  0.40547432  0.25641894  0.93750352  1
  Se  Se159  1  0.41225673  0.58339241  0.44529037  1
  Se  Se160  1  0.41333922  0.57989840  0.94788812  1
  Se  Se161  1  0.40726931  0.92796457  0.44157370  1
  Se  Se162  1  0.42691614  0.91271189  0.94404050  1
  Se  Se163  1  0.73879015  0.26227127  0.44512972  1
  Se  Se164  1  0.74800936  0.24784681  0.94429664  1
  Se  Se165  1  0.74474760  0.59372764  0.43679298  1
  Se  Se166  1  0.74891665  0.58468080  0.95099786  1
  Se  Se167  1  0.74167561  0.92283006  0.44328484  1
  Se  Se168  1  0.74942464  0.91845647  0.94036659  1
  Se  Se169  1  0.24326087  0.08749432  0.44436100  1
  Se  Se170  1  0.26901842  0.07930174  0.93200916  1
  Se  Se171  1  0.25986257  0.41166869  0.43926895  1
  Se  Se172  1  0.24201587  0.41725095  0.94144122  1
  Se  Se173  1  0.24733272  0.75280116  0.45078826  1
  Se  Se174  1  0.25191949  0.74529263  0.93883328  1
  Se  Se175  1  0.58223607  0.08112163  0.44410576  1
  Se  Se176  1  0.59262381  0.07641107  0.93462096  1
  Se  Se177  1  0.57990032  0.42408804  0.45082491  1
  Se  Se178  1  0.57486187  0.41546975  0.94607582  1
  Se  Se179  1  0.59018169  0.74145008  0.44177366  1
  Se  Se180  1  0.57821721  0.75399479  0.95375039  1
  Se  Se181  1  0.92072281  0.06908970  0.44173583  1
  Se  Se182  1  0.91801916  0.09076908  0.94432381  1
  Se  Se183  1  0.93078656  0.40106827  0.44618596  1
  Se  Se184  1  0.91124008  0.42308085  0.94283459  1
  Se  Se185  1  0.92289446  0.74553047  0.43777134  1
  Se  Se186  1  0.92607211  0.75118983  0.94159413  1
  Se  Se187  1  0.25081980  0.24778487  0.30222371  1
  Se  Se188  1  0.23819441  0.23531250  0.79498816  1
  Se  Se189  1  0.25168486  0.58474352  0.30369968  1
  Se  Se190  1  0.25285016  0.58733026  0.80408772  1
  Se  Se191  1  0.24923788  0.91700955  0.30708640  1
  Se  Se192  1  0.25223295  0.91324481  0.80286302  1
  Se  Se193  1  0.57808373  0.24421473  0.31441148  1
  Se  Se194  1  0.56328232  0.23448969  0.80234315  1
  Se  Se195  1  0.57362221  0.57654802  0.30553012  1
  Se  Se196  1  0.57967961  0.58272337  0.81597808  1
  Se  Se197  1  0.58646738  0.92145223  0.29677224  1
  Se  Se198  1  0.58690500  0.90775625  0.80284822  1
  Se  Se199  1  0.91401213  0.23615752  0.31414322  1
  Se  Se200  1  0.91379081  0.25530088  0.80485670  1
  Se  Se201  1  0.92157882  0.58027274  0.29599895  1
  Se  Se202  1  0.91688632  0.58547491  0.80438677  1
  Se  Se203  1  0.91496844  0.90872748  0.29905062  1
  Se  Se204  1  0.92292222  0.92325600  0.80331640  1
  Se  Se205  1  0.08119514  0.07720641  0.30560208  1
  Se  Se206  1  0.08098052  0.08709609  0.79274015  1
  Se  Se207  1  0.09623709  0.41980622  0.31140753  1
  Se  Se208  1  0.08423873  0.42210385  0.80187176  1
  Se  Se209  1  0.08526451  0.74368854  0.30223667  1
  Se  Se210  1  0.08153661  0.75060363  0.80202348  1
  Se  Se211  1  0.41685995  0.08009632  0.30059007  1
  Se  Se212  1  0.41891193  0.07273570  0.79445805  1
  Se  Se213  1  0.41731302  0.41042777  0.30099005  1
  Se  Se214  1  0.41088655  0.41660574  0.80539252  1
  Se  Se215  1  0.41842034  0.75560715  0.30486665  1
  Se  Se216  1  0.41524863  0.74324132  0.80554846  1
  Se  Se217  1  0.74800449  0.07791607  0.30079785  1
  Se  Se218  1  0.74999196  0.08347862  0.80475332  1
  Se  Se219  1  0.75316552  0.42007733  0.30184844  1
  Se  Se220  1  0.74234994  0.41580887  0.80774713  1
  Se  Se221  1  0.75434280  0.76041325  0.30863579  1
  Se  Se222  1  0.76184603  0.75685413  0.81147862  1
  Se  Se223  1  0.25135031  0.07773759  0.19755141  1
  Se  Se224  1  0.26306012  0.06450971  0.69598132  1
  Se  Se225  1  0.25254960  0.41431969  0.19425202  1
  Se  Se226  1  0.25383916  0.41767632  0.70207636  1
  Se  Se227  1  0.24921675  0.75346211  0.19644347  1
  Se  Se228  1  0.25273230  0.74544180  0.69795294  1
  Se  Se229  1  0.58564177  0.08641303  0.19507239  1
  Se  Se230  1  0.60945934  0.05305212  0.69511154  1
  Se  Se231  1  0.56866371  0.42860427  0.19359204  1
  Se  Se232  1  0.58260673  0.41977848  0.70526027  1
  Se  Se233  1  0.57328977  0.75493106  0.18584719  1
  Se  Se234  1  0.57924813  0.75080508  0.68669673  1
  Se  Se235  1  0.92509422  0.08010186  0.19277739  1
  Se  Se236  1  0.91119076  0.08666728  0.70022164  1
  Se  Se237  1  0.91583479  0.41534468  0.18636613  1
  Se  Se238  1  0.91134809  0.41895211  0.70101745  1
  Se  Se239  1  0.91135311  0.74328045  0.20178420  1
  Se  Se240  1  0.92246673  0.75137839  0.69638738  1
  Se  Se241  1  0.09277907  0.24063247  0.19088564  1
  Se  Se242  1  0.05680774  0.27801986  0.69449432  1
  Se  Se243  1  0.08260884  0.57839051  0.19418351  1
  Se  Se244  1  0.08157918  0.58867463  0.69908136  1
  Se  Se245  1  0.08239271  0.91691420  0.19762363  1
  Se  Se246  1  0.08814594  0.91644940  0.69348380  1
  Se  Se247  1  0.41554688  0.25003383  0.19840203  1
  Se  Se248  1  0.44237156  0.22599838  0.69571753  1
  Se  Se249  1  0.40160891  0.59473969  0.19362812  1
  Se  Se250  1  0.41524741  0.58495572  0.69997747  1
  Se  Se251  1  0.41369972  0.92178066  0.19458938  1
  Se  Se252  1  0.41606233  0.90706964  0.69869139  1
  Se  Se253  1  0.76271199  0.24168289  0.19092970  1
  Se  Se254  1  0.74201553  0.25760410  0.70413819  1
  Se  Se255  1  0.74821088  0.57540688  0.18648939  1
  Se  Se256  1  0.75623460  0.57516107  0.68912829  1
  Se  Se257  1  0.76131683  0.91030882  0.19400099  1
  Se  Se258  1  0.75441023  0.91442592  0.69633646  1
