# generated using pymatgen
data_In86Cu29Se144
_symmetry_space_group_name_H-M   'P 1'
_cell_length_a   17.58691766
_cell_length_b   17.58391365
_cell_length_c   23.45302531
_cell_angle_alpha   90.01447488
_cell_angle_beta   90.02163392
_cell_angle_gamma   90.00707676
_symmetry_Int_Tables_number   1
_chemical_formula_structural   In86Cu29Se144
_chemical_formula_sum   'In86 Cu29 Se144'
_cell_volume   7252.77319987
_cell_formula_units_Z   1
loop_
 _symmetry_equiv_pos_site_id
 _symmetry_equiv_pos_as_xyz
  1  'x, y, z'
loop_
 _atom_site_type_symbol
 _atom_site_label
 _atom_site_symmetry_multiplicity
 _atom_site_fract_x
 _atom_site_fract_y
 _atom_site_fract_z
 _atom_site_occupancy
  In  In0  1  -0.01458202  0.15883710  0.10898772  1
  In  In1  1  0.00050128  0.16522657  0.62775557  1
  In  In2  1  0.01597017  0.49907445  0.12254019  1
  In  In3  1  0.00431453  0.50540689  0.64322825  1
  In  In4  1  0.00637587  0.83307478  0.12284506  1
  In  In5  1  0.00805687  0.82882012  0.62955355  1
  In  In6  1  0.32665782  0.17133713  0.13734580  1
  In  In7  1  0.33628345  0.15893904  0.61245805  1
  In  In8  1  0.32705652  0.49988920  0.13826416  1
  In  In9  1  0.33913686  0.49251731  0.61869555  1
  In  In10  1  0.33175283  0.83490280  0.12943662  1
  In  In11  1  0.34292553  0.85279926  0.60352321  1
  In  In12  1  0.66793912  0.15001590  0.12694086  1
  In  In13  1  0.65876268  0.14566656  0.61309250  1
  In  In14  1  0.67013985  0.50853466  0.12322484  1
  In  In15  1  0.66533544  0.50752979  0.62693298  1
  In  In16  1  0.67442229  0.84706958  0.11960821  1
  In  In17  1  0.65828486  0.84425199  0.63261072  1
  In  In18  1  0.16668404  -0.00093654  0.37818324  1
  In  In19  1  0.15166396  0.01437277  0.88586926  1
  In  In20  1  0.16650234  0.31379293  0.37747113  1
  In  In21  1  0.13024004  0.30850951  0.85576510  1
  In  In22  1  0.17743124  0.68024895  0.36427981  1
  In  In23  1  0.16632488  0.67369236  0.87854723  1
  In  In24  1  0.49782010  -0.00009250  0.37890587  1
  In  In25  1  0.49334066  -0.01391675  0.87140155  1
  In  In26  1  0.49188483  0.33331232  0.38296111  1
  In  In27  1  0.50820424  0.32730152  0.86983560  1
  In  In28  1  0.48277917  0.68047544  0.38418479  1
  In  In29  1  0.51229491  0.67303206  0.86674407  1
  In  In30  1  0.83989477  0.00180997  0.37097275  1
  In  In31  1  0.83661941  -0.00330727  0.87175225  1
  In  In32  1  0.82150940  0.32788286  0.37217120  1
  In  In33  1  0.84814534  0.30904202  0.88471554  1
  In  In34  1  0.84335797  0.66809203  0.36950474  1
  In  In35  1  0.85270680  0.69105949  0.86676077  1
  In  In36  1  0.01621362  0.15613316  0.38753831  1
  In  In37  1  0.00449845  0.15544119  0.87202861  1
  In  In38  1  -0.00554121  0.51183607  0.37327333  1
  In  In39  1  0.00798938  0.50109403  0.86509085  1
  In  In40  1  0.01011230  0.84820935  0.36367411  1
  In  In41  1  -0.00092080  0.83245904  0.87797650  1
  In  In42  1  0.32657983  0.15827129  0.37657106  1
  In  In43  1  0.32710892  0.14926931  0.87685498  1
  In  In44  1  0.33819798  0.50809281  0.36986960  1
  In  In45  1  0.32982070  0.49975197  0.87741375  1
  In  In46  1  0.33335076  0.83669364  0.37521173  1
  In  In47  1  0.32890023  0.84140304  0.88524411  1
  In  In48  1  0.67327604  0.14816882  0.39120349  1
  In  In49  1  0.67987825  0.16815826  0.86972733  1
  In  In50  1  0.66572296  0.49120796  0.38161656  1
  In  In51  1  0.65491867  0.50467262  0.86914605  1
  In  In52  1  0.65244173  0.84304107  0.38161363  1
  In  In53  1  0.66845591  0.83894342  0.87185394  1
  In  In54  1  0.16587610  -0.00076347  0.12705058  1
  In  In55  1  0.16701469  -0.00395837  0.61757558  1
  In  In56  1  0.16945760  0.33285539  0.12528730  1
  In  In57  1  0.16295567  0.32770534  0.63152189  1
  In  In58  1  0.15716103  0.67729758  0.13186965  1
  In  In59  1  0.15702078  0.68087358  0.63029452  1
  In  In60  1  0.50813861  -0.00783036  0.13579201  1
  In  In61  1  0.51631573  0.01164863  0.59213749  1
  In  In62  1  0.49355378  0.31898789  0.13081059  1
  In  In63  1  0.49294456  0.32473328  0.61345410  1
  In  In64  1  0.48671275  0.67148798  0.13148122  1
  In  In65  1  0.50767283  0.67670120  0.61708902  1
  In  In66  1  0.83734218  0.00144913  0.12597153  1
  In  In67  1  0.82587306  0.00973429  0.62968914  1
  In  In68  1  0.85041947  0.31358577  0.12131000  1
  In  In69  1  0.84631265  0.32576346  0.63231465  1
  In  In70  1  0.84247593  0.68814195  0.11331303  1
  In  In71  1  0.83868491  0.66072838  0.63681473  1
  In  In72  1  0.83418534  0.49397517  0.50681892  1
  In  In73  1  0.32328569  0.67162510  0.74901526  1
  In  In74  1  0.32827081  0.33097141  0.73757432  1
  In  In75  1  0.82725308  0.83365701  0.50028193  1
  In  In76  1  0.65836903  0.33405531  0.25627902  1
  In  In77  1  0.33402670  0.00279267  0.74067753  1
  In  In78  1  0.83071304  0.50583104  -0.01245639  1
  In  In79  1  0.50023257  0.15724094  0.00094367  1
  In  In80  1  0.00631433  0.32787611  0.24799449  1
  In  In81  1  0.16891806  0.49607973  -0.00340693  1
  In  In82  1  0.16575936  0.50097379  0.50511848  1
  In  In83  1  0.66527782  0.67645756  0.26164191  1
  In  In84  1  0.49218997  0.50723236  0.00121389  1
  In  In85  1  0.67140834  0.33146289  0.75156748  1
  Cu  Cu86  1  0.33197623  0.67748412  0.00699206  1
  Cu  Cu87  1  0.00597876  0.67410394  0.50281071  1
  Cu  Cu88  1  0.16647222  0.83440094  0.24910210  1
  Cu  Cu89  1  0.83609663  0.16161670  0.25280766  1
  Cu  Cu90  1  -0.00257051  -0.00097591  0.50022005  1
  Cu  Cu91  1  0.16647088  0.15499875  0.25385999  1
  Cu  Cu92  1  0.66420644  0.68346263  -0.00608443  1
  Cu  Cu93  1  0.66472845  0.32539427  0.49975076  1
  Cu  Cu94  1  0.66824017  0.66279518  0.50570088  1
  Cu  Cu95  1  0.49508927  0.83716080  0.25605298  1
  Cu  Cu96  1  -0.00579838  0.32889646  0.50328130  1
  Cu  Cu97  1  0.49616400  0.50189230  0.74592923  1
  Cu  Cu98  1  0.67497899  -0.00110416  -0.00208825  1
  Cu  Cu99  1  0.83534442  0.83442779  0.75018314  1
  Cu  Cu100  1  0.83735992  0.84244708  0.24206214  1
  Cu  Cu101  1  -0.00240892  -0.00527687  -0.00048408  1
  Cu  Cu102  1  0.33146403  0.33312486  0.49828397  1
  Cu  Cu103  1  0.16987318  0.49565603  0.25092282  1
  Cu  Cu104  1  0.82690844  0.50005199  0.75766739  1
  Cu  Cu105  1  0.50532593  0.83328074  0.74644412  1
  Cu  Cu106  1  0.67602949  0.33378181  -0.00012627  1
  Cu  Cu107  1  0.33016220  -0.00364050  0.00661146  1
  Cu  Cu108  1  0.16764458  0.84005752  0.75223666  1
  Cu  Cu109  1  0.33305206  0.66759795  0.49444300  1
  Cu  Cu110  1  0.49485304  0.50050512  0.25738692  1
  Cu  Cu111  1  0.32873550  0.32777175  0.00184404  1
  Cu  Cu112  1  0.84012814  0.51521341  0.24321541  1
  Cu  Cu113  1  0.83899156  0.15985675  0.75186348  1
  Cu  Cu114  1  0.49331949  0.16237849  0.25716366  1
  Se  Se115  1  0.08299744  0.07689528  0.05342965  1
  Se  Se116  1  0.07899610  0.08341595  0.55505982  1
  Se  Se117  1  0.07577153  0.40069461  0.05172291  1
  Se  Se118  1  0.06800527  0.41634491  0.56234825  1
  Se  Se119  1  0.07744776  0.73959687  0.05441768  1
  Se  Se120  1  0.09041825  0.75944025  0.55159602  1
  Se  Se121  1  0.41076007  0.07795826  0.06774145  1
  Se  Se122  1  0.39021146  0.05497874  0.54698291  1
  Se  Se123  1  0.40930548  0.40932914  0.06118257  1
  Se  Se124  1  0.41974125  0.41761036  0.54645648  1
  Se  Se125  1  0.42058915  0.75719443  0.05764419  1
  Se  Se126  1  0.41797232  0.74897241  0.54829296  1
  Se  Se127  1  0.75431967  0.08378531  0.05363191  1
  Se  Se128  1  0.75932946  0.08311218  0.54889529  1
  Se  Se129  1  0.75266577  0.41417067  0.06094501  1
  Se  Se130  1  0.74232155  0.40394080  0.56428634  1
  Se  Se131  1  0.75016866  0.76162023  0.04826943  1
  Se  Se132  1  0.74889721  0.73988219  0.56595509  1
  Se  Se133  1  0.25087103  0.24541701  0.05922702  1
  Se  Se134  1  0.24982396  0.25839094  0.55909910  1
  Se  Se135  1  0.25616139  0.58578657  0.06186068  1
  Se  Se136  1  0.25457346  0.59564175  0.56261319  1
  Se  Se137  1  0.24689036  0.91238456  0.05848819  1
  Se  Se138  1  0.25072211  0.92835815  0.54119480  1
  Se  Se139  1  0.59131595  0.25474172  0.05915423  1
  Se  Se140  1  0.57990676  0.24109711  0.55025436  1
  Se  Se141  1  0.58913377  0.59954389  0.05598167  1
  Se  Se142  1  0.58143732  0.57736783  0.55318590  1
  Se  Se143  1  0.58412087  0.92627637  0.05381991  1
  Se  Se144  1  0.58771113  0.89948635  0.54644423  1
  Se  Se145  1  0.91931080  0.25145883  0.03867023  1
  Se  Se146  1  0.91293691  0.24458485  0.55590350  1
  Se  Se147  1  0.92103587  0.58168003  0.05786465  1
  Se  Se148  1  0.92839136  0.58800275  0.55933254  1
  Se  Se149  1  0.91613746  0.91512329  0.05717307  1
  Se  Se150  1  0.91987387  0.91736201  0.56223382  1
  Se  Se151  1  0.08660001  0.24944656  0.45628944  1
  Se  Se152  1  0.08877922  0.23569788  0.94345414  1
  Se  Se153  1  0.08357610  0.59305949  0.44042234  1
  Se  Se154  1  0.07512307  0.58837745  0.94386392  1
  Se  Se155  1  0.07950702  0.91508312  0.44659224  1
  Se  Se156  1  0.08503868  0.91264188  0.94831634  1
  Se  Se157  1  0.40958439  0.24413734  0.44619497  1
  Se  Se158  1  0.41398082  0.25391060  0.94014552  1
  Se  Se159  1  0.41638163  0.57774569  0.44815913  1
  Se  Se160  1  0.40801684  0.60123310  0.93959175  1
  Se  Se161  1  0.43378287  0.89645418  0.44206661  1
  Se  Se162  1  0.41820087  0.91931922  0.95219037  1
  Se  Se163  1  0.75435783  0.24827164  0.44822896  1
  Se  Se164  1  0.75061922  0.24088164  0.95014247  1
  Se  Se165  1  0.75260556  0.58972922  0.44288203  1
  Se  Se166  1  0.73671360  0.59669188  0.93366372  1
  Se  Se167  1  0.74272731  0.93019797  0.44356316  1
  Se  Se168  1  0.75453946  0.91483320  0.94281979  1
  Se  Se169  1  0.22749542  0.09937937  0.44560351  1
  Se  Se170  1  0.24947782  0.08252503  0.95454548  1
  Se  Se171  1  0.25065072  0.41457214  0.43879796  1
  Se  Se172  1  0.25225847  0.40054036  0.93598233  1
  Se  Se173  1  0.24795059  0.75133281  0.44428188  1
  Se  Se174  1  0.24649233  0.75372144  0.94988165  1
  Se  Se175  1  0.56776350  0.08900222  0.45188427  1
  Se  Se176  1  0.59046682  0.07571079  0.93622475  1
  Se  Se177  1  0.58305255  0.41314871  0.44964289  1
  Se  Se178  1  0.58692703  0.41106579  0.94614113  1
  Se  Se179  1  0.59014614  0.74096747  0.44527603  1
  Se  Se180  1  0.57636857  0.76083279  0.94040428  1
  Se  Se181  1  0.91462666  0.08193775  0.44638022  1
  Se  Se182  1  0.91723715  0.07866073  0.94305298  1
  Se  Se183  1  0.92177055  0.40863458  0.43829953  1
  Se  Se184  1  0.92880447  0.41335992  0.93903458  1
  Se  Se185  1  0.92603685  0.75065249  0.43991540  1
  Se  Se186  1  0.91922294  0.75200304  0.95097197  1
  Se  Se187  1  0.24845593  0.24483309  0.30301786  1
  Se  Se188  1  0.25080686  0.24187460  0.80640054  1
  Se  Se189  1  0.25148954  0.58407839  0.30088001  1
  Se  Se190  1  0.24018138  0.57546680  0.80842667  1
  Se  Se191  1  0.24644454  0.91608993  0.30700613  1
  Se  Se192  1  0.24747185  0.92070038  0.81152236  1
  Se  Se193  1  0.57845496  0.24029373  0.31774210  1
  Se  Se194  1  0.57577727  0.23329513  0.80063576  1
  Se  Se195  1  0.57691558  0.57897253  0.31718284  1
  Se  Se196  1  0.58275829  0.58534436  0.79471971  1
  Se  Se197  1  0.58256312  0.92053706  0.30464114  1
  Se  Se198  1  0.58475936  0.91997933  0.80017578  1
  Se  Se199  1  0.91677021  0.24305450  0.31273409  1
  Se  Se200  1  0.92207422  0.24542864  0.80313086  1
  Se  Se201  1  0.92634414  0.59385406  0.29662890  1
  Se  Se202  1  0.91459550  0.58485306  0.80508661  1
  Se  Se203  1  0.92049412  0.92539761  0.29723700  1
  Se  Se204  1  0.92134386  0.91415343  0.80399142  1
  Se  Se205  1  0.07809715  0.07768876  0.30673805  1
  Se  Se206  1  0.09038848  0.07983904  0.80070270  1
  Se  Se207  1  0.08882910  0.42044502  0.31473153  1
  Se  Se208  1  0.08682047  0.42062449  0.79514005  1
  Se  Se209  1  0.07908680  0.74881305  0.29918635  1
  Se  Se210  1  0.08831851  0.75466941  0.80689200  1
  Se  Se211  1  0.41088797  0.07670288  0.30764063  1
  Se  Se212  1  0.42544500  0.08998442  0.80580317  1
  Se  Se213  1  0.41536312  0.41145222  0.30726306  1
  Se  Se214  1  0.42153941  0.42044975  0.80715039  1
  Se  Se215  1  0.41115980  0.74800873  0.30278287  1
  Se  Se216  1  0.41635267  0.76240436  0.80747591  1
  Se  Se217  1  0.74804481  0.08511702  0.30738940  1
  Se  Se218  1  0.75060536  0.07802056  0.80108366  1
  Se  Se219  1  0.75999699  0.43311378  0.30267493  1
  Se  Se220  1  0.75806172  0.41360148  0.82034142  1
  Se  Se221  1  0.76171541  0.77060253  0.31343092  1
  Se  Se222  1  0.74870509  0.75189793  0.80272660  1
  Se  Se223  1  0.25189765  0.07513698  0.19974494  1
  Se  Se224  1  0.24104673  0.09546820  0.68736815  1
  Se  Se225  1  0.24987659  0.40565042  0.20109708  1
  Se  Se226  1  0.23980604  0.43458603  0.69016074  1
  Se  Se227  1  0.25099892  0.74882380  0.19803432  1
  Se  Se228  1  0.25378833  0.77387357  0.68646795  1
  Se  Se229  1  0.58225763  0.08651935  0.20227265  1
  Se  Se230  1  0.57448365  0.07102922  0.68264298  1
  Se  Se231  1  0.57450794  0.42796877  0.19014930  1
  Se  Se232  1  0.57353631  0.41467314  0.68888769  1
  Se  Se233  1  0.58051054  0.76023728  0.19350970  1
  Se  Se234  1  0.58610910  0.74437405  0.69615233  1
  Se  Se235  1  0.92089536  0.08802411  0.19358813  1
  Se  Se236  1  0.92152598  0.07731011  0.69753599  1
  Se  Se237  1  0.91175757  0.42026500  0.18912060  1
  Se  Se238  1  0.91007613  0.42126312  0.70084155  1
  Se  Se239  1  0.91804962  0.75246799  0.19412453  1
  Se  Se240  1  0.92118814  0.75055151  0.69848181  1
  Se  Se241  1  0.08822462  0.23286306  0.18814427  1
  Se  Se242  1  0.06798309  0.26126914  0.69725190  1
  Se  Se243  1  0.08648015  0.57822756  0.19804061  1
  Se  Se244  1  0.08553486  0.59758553  0.70173582  1
  Se  Se245  1  0.08195116  0.91669819  0.19593439  1
  Se  Se246  1  0.08773659  0.92083838  0.69366287  1
  Se  Se247  1  0.41344461  0.25137527  0.20666394  1
  Se  Se248  1  0.42349106  0.23697894  0.68834797  1
  Se  Se249  1  0.41455236  0.58441522  0.20171936  1
  Se  Se250  1  0.41781499  0.58412321  0.68829067  1
  Se  Se251  1  0.41302716  0.91897249  0.20012221  1
  Se  Se252  1  0.42632434  0.91197355  0.68588152  1
  Se  Se253  1  0.75475851  0.24669647  0.19562633  1
  Se  Se254  1  0.75315246  0.23690848  0.69079737  1
  Se  Se255  1  0.75408964  0.59597777  0.18929015  1
  Se  Se256  1  0.74695632  0.58056439  0.70019769  1
  Se  Se257  1  0.74726487  0.92491974  0.19610500  1
  Se  Se258  1  0.75193197  0.91783115  0.69735596  1
