# generated using pymatgen
data_In86Cu29Se144
_symmetry_space_group_name_H-M   'P 1'
_cell_length_a   17.57413435
_cell_length_b   17.57237209
_cell_length_c   23.43342704
_cell_angle_alpha   90.00109277
_cell_angle_beta   90.01547249
_cell_angle_gamma   90.01564303
_symmetry_Int_Tables_number   1
_chemical_formula_structural   In86Cu29Se144
_chemical_formula_sum   'In86 Cu29 Se144'
_cell_volume   7236.69231337
_cell_formula_units_Z   1
loop_
 _symmetry_equiv_pos_site_id
 _symmetry_equiv_pos_as_xyz
  1  'x, y, z'
loop_
 _atom_site_type_symbol
 _atom_site_label
 _atom_site_symmetry_multiplicity
 _atom_site_fract_x
 _atom_site_fract_y
 _atom_site_fract_z
 _atom_site_occupancy
  In  In0  1  -0.00746603  0.14730443  0.12068790  1
  In  In1  1  0.00607428  0.17414518  0.62824643  1
  In  In2  1  0.00163394  0.50451676  0.12009848  1
  In  In3  1  0.00196438  0.52023728  0.62771893  1
  In  In4  1  0.00285851  0.83104074  0.12317912  1
  In  In5  1  -0.00791478  0.82218335  0.62199903  1
  In  In6  1  0.33356784  0.16741526  0.12304926  1
  In  In7  1  0.33350747  0.15561142  0.62774090  1
  In  In8  1  0.32513689  0.49316266  0.12334420  1
  In  In9  1  0.35565429  0.50045997  0.61313611  1
  In  In10  1  0.33151142  0.84899084  0.12820719  1
  In  In11  1  0.35265780  0.84812776  0.60868593  1
  In  In12  1  0.67163415  0.17621852  0.10713758  1
  In  In13  1  0.65239292  0.17551513  0.63493527  1
  In  In14  1  0.66603311  0.48973616  0.10273610  1
  In  In15  1  0.66422642  0.50149143  0.62977102  1
  In  In16  1  0.67086613  0.81979379  0.11823219  1
  In  In17  1  0.64774544  0.84141061  0.64503386  1
  In  In18  1  0.16903472  -0.00746634  0.36548755  1
  In  In19  1  0.17267352  -0.00165007  0.88137110  1
  In  In20  1  0.16610883  0.31950353  0.36833461  1
  In  In21  1  0.16514216  0.33656521  0.88756611  1
  In  In22  1  0.16814168  0.68768241  0.37582932  1
  In  In23  1  0.16111130  0.67338321  0.87940758  1
  In  In24  1  0.48893880  0.01259126  0.38248897  1
  In  In25  1  0.51209705  0.00727247  0.86130454  1
  In  In26  1  0.48800945  0.34048271  0.38404263  1
  In  In27  1  0.52351383  0.32032137  0.89217715  1
  In  In28  1  0.49419836  0.66538136  0.40639894  1
  In  In29  1  0.50240591  0.65361032  0.87020463  1
  In  In30  1  0.83476003  -0.00741109  0.36735297  1
  In  In31  1  0.82185371  0.00755137  0.88472295  1
  In  In32  1  0.84112669  0.34607640  0.37468935  1
  In  In33  1  0.79974853  0.35200864  0.90640867  1
  In  In34  1  0.82967593  0.65732935  0.37232416  1
  In  In35  1  0.83716028  0.66319411  0.86761765  1
  In  In36  1  0.00954451  0.16518034  0.36639268  1
  In  In37  1  -0.00618643  0.17330589  0.89108720  1
  In  In38  1  -0.01949326  0.50198278  0.37425483  1
  In  In39  1  -0.01156124  0.51514096  0.88144994  1
  In  In40  1  0.00994759  0.84346162  0.36309178  1
  In  In41  1  0.00717305  0.82600491  0.87833676  1
  In  In42  1  0.34378975  0.17297429  0.36198314  1
  In  In43  1  0.34462074  0.16349300  0.88189076  1
  In  In44  1  0.34164966  0.49447424  0.37442448  1
  In  In45  1  0.34279273  0.49730166  0.88248734  1
  In  In46  1  0.32575102  0.83679066  0.38568381  1
  In  In47  1  0.32373014  0.83547940  0.87469481  1
  In  In48  1  0.65388387  0.15832257  0.37570161  1
  In  In49  1  0.66720090  0.16511124  0.87683405  1
  In  In50  1  0.66856392  0.50727368  0.38561448  1
  In  In51  1  0.67167656  0.49596223  0.86767893  1
  In  In52  1  0.66129196  0.82076574  0.38215377  1
  In  In53  1  0.67119258  0.84191536  0.86316849  1
  In  In54  1  0.16985955  -0.00233356  0.12180270  1
  In  In55  1  0.18486831  0.00012341  0.62824433  1
  In  In56  1  0.17722872  0.34126757  0.12256798  1
  In  In57  1  0.17378253  0.33145615  0.62709158  1
  In  In58  1  0.15279475  0.65458520  0.11894766  1
  In  In59  1  0.15269616  0.67600544  0.62790665  1
  In  In60  1  0.48479165  0.00444709  0.12918864  1
  In  In61  1  0.49464649  -0.00192380  0.63033997  1
  In  In62  1  0.49701033  0.32551493  0.11492164  1
  In  In63  1  0.51156723  0.35060373  0.60990145  1
  In  In64  1  0.51066972  0.66209583  0.12464685  1
  In  In65  1  0.51521863  0.67992690  0.60911301  1
  In  In66  1  0.84872464  0.01047091  0.11716469  1
  In  In67  1  0.82795630  -0.01389561  0.62767124  1
  In  In68  1  0.82734460  0.33033299  0.10946716  1
  In  In69  1  0.81222484  0.34141886  0.63406126  1
  In  In70  1  0.84076444  0.67031724  0.11410750  1
  In  In71  1  0.83594134  0.65638570  0.63888957  1
  In  In72  1  0.33250524  0.67071433  0.26002179  1
  In  In73  1  0.17188705  0.50400301  0.49657988  1
  In  In74  1  0.00153653  0.32852048  0.24136283  1
  In  In75  1  0.66641989  0.33057133  0.23641983  1
  In  In76  1  0.82706568  0.17039057  0.49879109  1
  In  In77  1  0.49750859  0.83254960  -0.00168860  1
  In  In78  1  0.67206830  0.00343678  0.24705844  1
  In  In79  1  0.82350903  0.81927509  0.50318893  1
  In  In80  1  0.66698426  0.66128647  0.25447519  1
  In  In81  1  -0.00443326  0.00053401  0.75387211  1
  In  In82  1  -0.01376547  0.34393435  0.76981872  1
  In  In83  1  0.16868287  0.16373123  0.49702550  1
  In  In84  1  0.34017699  0.67603927  0.74231194  1
  In  In85  1  0.33973777  0.33496020  0.74698659  1
  Cu  Cu86  1  0.16611217  0.83717092  0.75377274  1
  Cu  Cu87  1  0.00759795  -0.00402969  0.49026631  1
  Cu  Cu88  1  0.16673541  0.17005225  0.75649574  1
  Cu  Cu89  1  0.66030267  -0.00356431  -0.00695582  1
  Cu  Cu90  1  0.82270232  0.16022296  0.75644345  1
  Cu  Cu91  1  0.01031072  0.32870198  0.00640295  1
  Cu  Cu92  1  0.84429865  0.83512014  0.24167283  1
  Cu  Cu93  1  0.32820535  0.66960815  -0.00145860  1
  Cu  Cu94  1  0.33381670  0.00570843  0.00132404  1
  Cu  Cu95  1  0.65963722  -0.00208753  0.50676560  1
  Cu  Cu96  1  0.49851663  0.49852980  0.25477771  1
  Cu  Cu97  1  0.16714619  0.83220441  0.24585399  1
  Cu  Cu98  1  0.66530420  0.33767048  0.50442123  1
  Cu  Cu99  1  0.33525207  0.33802654  0.00258565  1
  Cu  Cu100  1  0.33714043  -0.00262493  0.50050801  1
  Cu  Cu101  1  0.17315534  0.51081647  0.75196089  1
  Cu  Cu102  1  0.00463921  -0.01125113  0.00064027  1
  Cu  Cu103  1  0.50071507  0.16587698  0.75365197  1
  Cu  Cu104  1  0.51189824  0.49228666  0.75051387  1
  Cu  Cu105  1  0.49847278  0.83954259  0.26048000  1
  Cu  Cu106  1  0.82843909  0.50538109  0.24485225  1
  Cu  Cu107  1  0.83113342  0.82956755  0.75085510  1
  Cu  Cu108  1  0.17226592  0.15648728  0.24430245  1
  Cu  Cu109  1  0.67264743  0.66238617  -0.00814076  1
  Cu  Cu110  1  -0.00177360  0.66521288  -0.00278253  1
  Cu  Cu111  1  -0.00331340  0.67173875  0.50038673  1
  Cu  Cu112  1  -0.00987614  0.34582412  0.50318207  1
  Cu  Cu113  1  0.49676518  0.16968211  0.24579068  1
  Cu  Cu114  1  0.16348240  0.49954460  0.24513569  1
  Se  Se115  1  0.08573878  0.07793061  0.05188417  1
  Se  Se116  1  0.07641049  0.07554898  0.55969499  1
  Se  Se117  1  0.08843992  0.42002725  0.05598388  1
  Se  Se118  1  0.07994073  0.41546888  0.56224599  1
  Se  Se119  1  0.08302581  0.74824438  0.05109950  1
  Se  Se120  1  0.08246279  0.75599127  0.54966363  1
  Se  Se121  1  0.42074488  0.08777054  0.05246012  1
  Se  Se122  1  0.41710764  0.08126579  0.55594771  1
  Se  Se123  1  0.41849949  0.42346121  0.05495910  1
  Se  Se124  1  0.40132663  0.39614963  0.54561967  1
  Se  Se125  1  0.40924047  0.74460226  0.06389618  1
  Se  Se126  1  0.40855643  0.73942454  0.54879025  1
  Se  Se127  1  0.74643429  0.07334445  0.05129107  1
  Se  Se128  1  0.74395671  0.07887348  0.56326947  1
  Se  Se129  1  0.75918201  0.41808212  0.03748502  1
  Se  Se130  1  0.74865832  0.42182361  0.55563086  1
  Se  Se131  1  0.75327636  0.74855638  0.04505044  1
  Se  Se132  1  0.74378521  0.75135449  0.58002508  1
  Se  Se133  1  0.25179815  0.25160281  0.05408956  1
  Se  Se134  1  0.25864334  0.25340044  0.55639560  1
  Se  Se135  1  0.25034885  0.58323732  0.05511814  1
  Se  Se136  1  0.24919914  0.58947645  0.56695652  1
  Se  Se137  1  0.25237854  0.91524767  0.04993757  1
  Se  Se138  1  0.24573160  0.91753697  0.54953662  1
  Se  Se139  1  0.59362773  0.26605193  0.04474104  1
  Se  Se140  1  0.58508759  0.24576517  0.55194436  1
  Se  Se141  1  0.58262611  0.58747053  0.04717706  1
  Se  Se142  1  0.55836398  0.55488023  0.56286365  1
  Se  Se143  1  0.58462788  0.92287413  0.06308384  1
  Se  Se144  1  0.58068473  0.91413057  0.56197428  1
  Se  Se145  1  0.92254805  0.24483161  0.05419949  1
  Se  Se146  1  0.91624412  0.25901482  0.56319078  1
  Se  Se147  1  0.91505269  0.57717240  0.04789728  1
  Se  Se148  1  0.91486051  0.59089582  0.55586239  1
  Se  Se149  1  0.91583126  0.90962746  0.05339368  1
  Se  Se150  1  0.92048375  0.92229457  0.55112135  1
  Se  Se151  1  0.06834412  0.25968684  0.44545603  1
  Se  Se152  1  0.09363540  0.24276367  0.95441195  1
  Se  Se153  1  0.07414267  0.58975551  0.43766534  1
  Se  Se154  1  0.08746914  0.58187907  0.94743006  1
  Se  Se155  1  0.09124763  0.91281076  0.44021468  1
  Se  Se156  1  0.08970251  0.91039261  0.94552347  1
  Se  Se157  1  0.42636824  0.23080428  0.44107832  1
  Se  Se158  1  0.41847529  0.25213858  0.95110343  1
  Se  Se159  1  0.40224634  0.57251265  0.45417895  1
  Se  Se160  1  0.41792915  0.59061534  0.94839186  1
  Se  Se161  1  0.42272764  0.91336732  0.44808768  1
  Se  Se162  1  0.41368237  0.92685000  0.93852849  1
  Se  Se163  1  0.74006551  0.26174991  0.43562783  1
  Se  Se164  1  0.76368382  0.22314718  0.94915491  1
  Se  Se165  1  0.74231701  0.60258364  0.44906280  1
  Se  Se166  1  0.75531142  0.58016740  0.93788576  1
  Se  Se167  1  0.74388299  0.92511097  0.44386518  1
  Se  Se168  1  0.74474512  0.90901215  0.94567899  1
  Se  Se169  1  0.25803202  0.07648035  0.43591765  1
  Se  Se170  1  0.24993426  0.08920824  0.94764104  1
  Se  Se171  1  0.24946036  0.40203353  0.43809482  1
  Se  Se172  1  0.25199690  0.42252349  0.95016864  1
  Se  Se173  1  0.26164818  0.73601244  0.45045617  1
  Se  Se174  1  0.24681582  0.75517620  0.94744360  1
  Se  Se175  1  0.58040002  0.08429576  0.45260536  1
  Se  Se176  1  0.57667382  0.08218140  0.94344373  1
  Se  Se177  1  0.58268790  0.41820388  0.44639736  1
  Se  Se178  1  0.56920897  0.44332892  0.93879222  1
  Se  Se179  1  0.59784950  0.74114572  0.45902721  1
  Se  Se180  1  0.58849083  0.74652364  0.93698663  1
  Se  Se181  1  0.92280278  0.08057507  0.43859193  1
  Se  Se182  1  0.91872558  0.07467572  0.95142738  1
  Se  Se183  1  0.90540649  0.42854887  0.45261542  1
  Se  Se184  1  0.93362265  0.40053250  0.93888443  1
  Se  Se185  1  0.92241340  0.75136242  0.43428489  1
  Se  Se186  1  0.91525145  0.74667615  0.94150994  1
  Se  Se187  1  0.24972730  0.24724536  0.29618928  1
  Se  Se188  1  0.24842022  0.25207574  0.81335582  1
  Se  Se189  1  0.23825288  0.57552397  0.31341687  1
  Se  Se190  1  0.25762398  0.58596343  0.81166074  1
  Se  Se191  1  0.25653636  0.90660295  0.30232948  1
  Se  Se192  1  0.24858808  0.92270738  0.80398458  1
  Se  Se193  1  0.57779569  0.25010525  0.30543821  1
  Se  Se194  1  0.58456459  0.24914872  0.80703556  1
  Se  Se195  1  0.56976069  0.58247067  0.31687329  1
  Se  Se196  1  0.59082878  0.58396397  0.79881407  1
  Se  Se197  1  0.58572821  0.91782153  0.31521932  1
  Se  Se198  1  0.57418574  0.90727059  0.79686818  1
  Se  Se199  1  0.90836671  0.24664397  0.30673737  1
  Se  Se200  1  0.90306651  0.23879623  0.81669869  1
  Se  Se201  1  0.91371174  0.58599034  0.29771022  1
  Se  Se202  1  0.92121254  0.58140334  0.79885596  1
  Se  Se203  1  0.92162394  0.92269226  0.29594168  1
  Se  Se204  1  0.90796127  0.91140738  0.81447778  1
  Se  Se205  1  0.08565987  0.07854736  0.29894411  1
  Se  Se206  1  0.08193453  0.09297983  0.81442896  1
  Se  Se207  1  0.08216189  0.42131462  0.30922567  1
  Se  Se208  1  0.09620531  0.42893154  0.81332407  1
  Se  Se209  1  0.08297945  0.74751730  0.29755526  1
  Se  Se210  1  0.08475895  0.74925527  0.80249110  1
  Se  Se211  1  0.41996466  0.07792363  0.29760888  1
  Se  Se212  1  0.41113392  0.08499122  0.80280319  1
  Se  Se213  1  0.41539393  0.40989829  0.30175842  1
  Se  Se214  1  0.42965996  0.41602037  0.81228644  1
  Se  Se215  1  0.42996962  0.75096692  0.32119615  1
  Se  Se216  1  0.42383805  0.75857833  0.81197079  1
  Se  Se217  1  0.75818187  0.09721344  0.30813117  1
  Se  Se218  1  0.74090130  0.07313372  0.80605229  1
  Se  Se219  1  0.74771981  0.42535410  0.30486755  1
  Se  Se220  1  0.75749026  0.40347576  0.80942011  1
  Se  Se221  1  0.75931553  0.76246742  0.30483841  1
  Se  Se222  1  0.74710709  0.74469430  0.80142557  1
  Se  Se223  1  0.25818535  0.07585116  0.19116793  1
  Se  Se224  1  0.24908750  0.08695542  0.70328629  1
  Se  Se225  1  0.25264055  0.41551599  0.20105592  1
  Se  Se226  1  0.25033812  0.43255639  0.68948157  1
  Se  Se227  1  0.24659708  0.74793853  0.18739209  1
  Se  Se228  1  0.24620183  0.76599686  0.68667899  1
  Se  Se229  1  0.58355968  0.09551179  0.18592126  1
  Se  Se230  1  0.58180206  0.07898767  0.69953572  1
  Se  Se231  1  0.57701051  0.42952305  0.18549978  1
  Se  Se232  1  0.58747710  0.40336145  0.69550005  1
  Se  Se233  1  0.57642096  0.76048156  0.19789909  1
  Se  Se234  1  0.57214627  0.73847570  0.69939285  1
  Se  Se235  1  0.91647873  0.07950981  0.19966879  1
  Se  Se236  1  0.90698096  0.09266018  0.69025335  1
  Se  Se237  1  0.90467170  0.41894959  0.18655850  1
  Se  Se238  1  0.91754484  0.42229840  0.68981057  1
  Se  Se239  1  0.91951031  0.74311573  0.19059477  1
  Se  Se240  1  0.92045068  0.74962056  0.70036516  1
  Se  Se241  1  0.09241056  0.23864187  0.18376133  1
  Se  Se242  1  0.08626431  0.25577357  0.70206913  1
  Se  Se243  1  0.07658500  0.58218623  0.19724804  1
  Se  Se244  1  0.08385221  0.59124344  0.70287688  1
  Se  Se245  1  0.08547852  0.91579262  0.19121365  1
  Se  Se246  1  0.08418858  0.91476831  0.68924794  1
  Se  Se247  1  0.41654345  0.25461992  0.19117536  1
  Se  Se248  1  0.42770024  0.24547930  0.68690163  1
  Se  Se249  1  0.42035323  0.58279242  0.19452802  1
  Se  Se250  1  0.42773915  0.57300781  0.69403420  1
  Se  Se251  1  0.41661916  0.91729833  0.20298674  1
  Se  Se252  1  0.40691990  0.91584944  0.69564195  1
  Se  Se253  1  0.76256818  0.23824393  0.18681367  1
  Se  Se254  1  0.74518181  0.24807180  0.70237556  1
  Se  Se255  1  0.74600559  0.57804575  0.18134909  1
  Se  Se256  1  0.74695682  0.57663382  0.70227740  1
  Se  Se257  1  0.75506564  0.90948969  0.18463189  1
  Se  Se258  1  0.74808701  0.91944637  0.70419523  1
