# generated using pymatgen
data_In86Cu29Se144
_symmetry_space_group_name_H-M   'P 1'
_cell_length_a   17.58687597
_cell_length_b   17.58970708
_cell_length_c   23.44359744
_cell_angle_alpha   90.00074823
_cell_angle_beta   89.98773889
_cell_angle_gamma   89.98863153
_symmetry_Int_Tables_number   1
_chemical_formula_structural   In86Cu29Se144
_chemical_formula_sum   'In86 Cu29 Se144'
_cell_volume   7252.22959541
_cell_formula_units_Z   1
loop_
 _symmetry_equiv_pos_site_id
 _symmetry_equiv_pos_as_xyz
  1  'x, y, z'
loop_
 _atom_site_type_symbol
 _atom_site_label
 _atom_site_symmetry_multiplicity
 _atom_site_fract_x
 _atom_site_fract_y
 _atom_site_fract_z
 _atom_site_occupancy
  In  In0  1  0.01046309  0.17899649  0.11624459  1
  In  In1  1  0.01405332  0.17097939  0.62842708  1
  In  In2  1  -0.00646848  0.50379620  0.13401353  1
  In  In3  1  0.00399357  0.49792807  0.63136492  1
  In  In4  1  -0.00324803  0.81749268  0.12264781  1
  In  In5  1  -0.00233189  0.82192609  0.63363137  1
  In  In6  1  0.34160518  0.17720987  0.11277790  1
  In  In7  1  0.34178123  0.15752439  0.63841177  1
  In  In8  1  0.33374406  0.49889236  0.12029910  1
  In  In9  1  0.32628852  0.50267246  0.63427029  1
  In  In10  1  0.34367884  0.83376524  0.10537714  1
  In  In11  1  0.34488928  0.83116208  0.64194227  1
  In  In12  1  0.66202179  0.16336646  0.11634974  1
  In  In13  1  0.65589427  0.18405092  0.63384962  1
  In  In14  1  0.65587426  0.49362235  0.11148615  1
  In  In15  1  0.66195343  0.50203871  0.63668350  1
  In  In16  1  0.66334613  0.84077878  0.12304389  1
  In  In17  1  0.64659028  0.84770906  0.65467880  1
  In  In18  1  0.17237920  -0.00443910  0.37361956  1
  In  In19  1  0.18046773  -0.01426752  0.88273291  1
  In  In20  1  0.18088693  0.34835773  0.36785915  1
  In  In21  1  0.16240848  0.32886845  0.87314211  1
  In  In22  1  0.14927723  0.65357475  0.37280488  1
  In  In23  1  0.17876589  0.67851210  0.86755425  1
  In  In24  1  0.51829935  0.00930430  0.36675149  1
  In  In25  1  0.50243082  -0.00267933  0.87207464  1
  In  In26  1  0.48670636  0.32216854  0.36537668  1
  In  In27  1  0.50026483  0.33140173  0.87711292  1
  In  In28  1  0.49543841  0.67542082  0.37440860  1
  In  In29  1  0.49364547  0.66118957  0.88501730  1
  In  In30  1  0.82178912  0.01325720  0.36744444  1
  In  In31  1  0.82595060  0.01421383  0.87994594  1
  In  In32  1  0.84012435  0.35034603  0.35135927  1
  In  In33  1  0.83105051  0.33616811  0.88111116  1
  In  In34  1  0.84315637  0.65192748  0.37537040  1
  In  In35  1  0.81752445  0.64699898  0.87654199  1
  In  In36  1  -0.01307912  0.17160004  0.37358750  1
  In  In37  1  -0.00828106  0.17456541  0.88455180  1
  In  In38  1  0.01049020  0.51224677  0.36078166  1
  In  In39  1  -0.00886867  0.49104373  0.87113747  1
  In  In40  1  0.00152757  0.81513369  0.36986866  1
  In  In41  1  0.01258021  0.82985345  0.87618151  1
  In  In42  1  0.33806775  0.18667826  0.37609088  1
  In  In43  1  0.33509357  0.16673340  0.87587834  1
  In  In44  1  0.33096718  0.47991994  0.37888645  1
  In  In45  1  0.35466822  0.51718265  0.86977031  1
  In  In46  1  0.33082488  0.82794617  0.37377650  1
  In  In47  1  0.33850464  0.82587155  0.87625142  1
  In  In48  1  0.66279884  0.16992707  0.36591801  1
  In  In49  1  0.66539371  0.16732560  0.87588588  1
  In  In50  1  0.67918851  0.49894969  0.37091789  1
  In  In51  1  0.66990536  0.50174749  0.88698848  1
  In  In52  1  0.65969518  0.84201042  0.36759161  1
  In  In53  1  0.62780768  0.80589391  0.85547536  1
  In  In54  1  0.16809888  0.00052315  0.11470980  1
  In  In55  1  0.17892877  0.01143912  0.63099737  1
  In  In56  1  0.17428619  0.33411313  0.12744013  1
  In  In57  1  0.15740373  0.33769584  0.63724586  1
  In  In58  1  0.15675496  0.66198954  0.11661619  1
  In  In59  1  0.16848162  0.65763797  0.63164272  1
  In  In60  1  0.50347563  0.00379318  0.11355556  1
  In  In61  1  0.49169719  0.01131026  0.63993517  1
  In  In62  1  0.50122315  0.33240848  0.12068133  1
  In  In63  1  0.50317484  0.32791252  0.63095835  1
  In  In64  1  0.51325199  0.67350333  0.09621371  1
  In  In65  1  0.49644345  0.66996127  0.64539474  1
  In  In66  1  0.81277041  -0.00199694  0.12430398  1
  In  In67  1  0.83140915  -0.01023502  0.62987698  1
  In  In68  1  0.83447967  0.33336058  0.12181747  1
  In  In69  1  0.83228000  0.34154688  0.63269755  1
  In  In70  1  0.84400103  0.66770028  0.12036154  1
  In  In71  1  0.82987614  0.66508700  0.63916593  1
  In  In72  1  0.49481143  0.83892535  0.50897581  1
  In  In73  1  0.82619845  0.16938985  0.49629088  1
  In  In74  1  0.00070568  0.00657307  0.75105897  1
  In  In75  1  0.49968319  0.49490539  0.50425604  1
  In  In76  1  0.66892428  0.66142057  0.23789117  1
  In  In77  1  0.82956841  0.83651328  -0.00353623  1
  In  In78  1  0.34023173  0.00584068  0.22996037  1
  In  In79  1  0.17278373  0.17252325  0.50438469  1
  In  In80  1  0.17271973  0.50254031  -0.00490133  1
  In  In81  1  0.17519387  0.82511795  0.51965640  1
  In  In82  1  0.33792488  0.66626638  0.24324440  1
  In  In83  1  -0.00657607  0.00187263  0.25054057  1
  In  In84  1  0.83768673  0.49561771  0.50289983  1
  In  In85  1  0.82379037  0.82383782  0.49458147  1
  Cu  Cu86  1  0.16647592  0.50086514  0.75678011  1
  Cu  Cu87  1  0.83206206  0.83372289  0.75768165  1
  Cu  Cu88  1  -0.00312177  0.33790062  -0.00014324  1
  Cu  Cu89  1  0.33509210  0.33353845  -0.00243967  1
  Cu  Cu90  1  0.16936980  0.49934791  0.24430614  1
  Cu  Cu91  1  0.65808753  0.01395764  0.50224157  1
  Cu  Cu92  1  0.82863420  0.49836664  0.75677219  1
  Cu  Cu93  1  0.66040982  0.32877031  0.49640745  1
  Cu  Cu94  1  0.16837986  0.16529950  0.75725573  1
  Cu  Cu95  1  0.82566467  0.16787929  0.24204753  1
  Cu  Cu96  1  0.00565662  -0.01830360  0.49675909  1
  Cu  Cu97  1  0.66751089  0.67650221  0.51160172  1
  Cu  Cu98  1  0.66115963  -0.00456064  -0.00781272  1
  Cu  Cu99  1  0.50395689  0.16914186  0.75798871  1
  Cu  Cu100  1  0.32932516  0.00219151  -0.00695627  1
  Cu  Cu101  1  0.66554189  0.32623758  -0.00104691  1
  Cu  Cu102  1  0.50372794  0.50120554  0.24184940  1
  Cu  Cu103  1  0.35072065  0.00875804  0.50391974  1
  Cu  Cu104  1  0.00325253  0.33241845  0.50167951  1
  Cu  Cu105  1  0.49828637  0.16933682  0.23904764  1
  Cu  Cu106  1  0.00004914  0.00362238  -0.00179094  1
  Cu  Cu107  1  0.16843579  0.82898244  0.24300440  1
  Cu  Cu108  1  0.00504814  0.66577804  -0.00363200  1
  Cu  Cu109  1  0.32483749  0.65635779  0.50478899  1
  Cu  Cu110  1  0.50467819  0.49576409  0.75915648  1
  Cu  Cu111  1  0.83296435  0.17722692  0.75812432  1
  Cu  Cu112  1  0.83028151  0.82446042  0.24349232  1
  Cu  Cu113  1  0.17255755  0.82999892  0.75558656  1
  Cu  Cu114  1  0.16256711  0.17819268  0.24808328  1
  Se  Se115  1  0.08563495  0.08683187  0.04994069  1
  Se  Se116  1  0.07820374  0.06985105  0.55646274  1
  Se  Se117  1  0.08160068  0.41812665  0.05909685  1
  Se  Se118  1  0.08181806  0.41367335  0.55967939  1
  Se  Se119  1  0.08471196  0.75401044  0.04768291  1
  Se  Se120  1  0.07130900  0.73483959  0.56062898  1
  Se  Se121  1  0.41456116  0.08308080  0.04781778  1
  Se  Se122  1  0.42657439  0.09144391  0.56036808  1
  Se  Se123  1  0.41626391  0.41621634  0.05258674  1
  Se  Se124  1  0.40964280  0.41147374  0.56578170  1
  Se  Se125  1  0.42138427  0.75316641  0.03526997  1
  Se  Se126  1  0.40851549  0.73673396  0.56262711  1
  Se  Se127  1  0.74478923  0.07739409  0.04715328  1
  Se  Se128  1  0.74489600  0.08207025  0.56496463  1
  Se  Se129  1  0.74919275  0.41068756  0.05048236  1
  Se  Se130  1  0.73608927  0.41107276  0.55873251  1
  Se  Se131  1  0.74467716  0.74517254  0.05840041  1
  Se  Se132  1  0.74133517  0.75736023  0.57374886  1
  Se  Se133  1  0.24607558  0.25473211  0.05032273  1
  Se  Se134  1  0.25468481  0.25212160  0.57426901  1
  Se  Se135  1  0.26160628  0.59724049  0.05275506  1
  Se  Se136  1  0.24317406  0.57466182  0.55810879  1
  Se  Se137  1  0.24820150  0.91596246  0.04762536  1
  Se  Se138  1  0.27085302  0.92615000  0.56400238  1
  Se  Se139  1  0.57616567  0.24523843  0.04932110  1
  Se  Se140  1  0.57940742  0.24974204  0.55315643  1
  Se  Se141  1  0.58773990  0.57748348  0.03658055  1
  Se  Se142  1  0.58340311  0.59324637  0.56439380  1
  Se  Se143  1  0.58082719  0.91155259  0.04785271  1
  Se  Se144  1  0.58968043  0.92644232  0.56549800  1
  Se  Se145  1  0.91459631  0.24855393  0.04992725  1
  Se  Se146  1  0.92101228  0.25381691  0.56036505  1
  Se  Se147  1  0.92719126  0.58329139  0.05371888  1
  Se  Se148  1  0.91781563  0.59027301  0.56478277  1
  Se  Se149  1  0.92079746  0.92346232  0.06224805  1
  Se  Se150  1  0.92100575  0.91104280  0.55781784  1
  Se  Se151  1  0.07993598  0.25264571  0.43827812  1
  Se  Se152  1  0.08298767  0.25454225  0.94930693  1
  Se  Se153  1  0.07778758  0.57378219  0.44624890  1
  Se  Se154  1  0.08203864  0.58772340  0.93274319  1
  Se  Se155  1  0.08811513  0.90477904  0.43913762  1
  Se  Se156  1  0.08175845  0.91642971  0.94859677  1
  Se  Se157  1  0.41864812  0.25652279  0.44966578  1
  Se  Se158  1  0.41779078  0.24737070  0.94686485  1
  Se  Se159  1  0.41110644  0.58897510  0.44169616  1
  Se  Se160  1  0.42034986  0.57346513  0.95721917  1
  Se  Se161  1  0.41500619  0.92461965  0.43658877  1
  Se  Se162  1  0.41558358  0.91973991  0.94231295  1
  Se  Se163  1  0.74917249  0.26400544  0.43214581  1
  Se  Se164  1  0.75199203  0.24451393  0.94662442  1
  Se  Se165  1  0.74158655  0.59338281  0.44923762  1
  Se  Se166  1  0.75551228  0.57650926  0.95957751  1
  Se  Se167  1  0.73832142  0.93149802  0.44278384  1
  Se  Se168  1  0.73809415  0.91415346  0.93117570  1
  Se  Se169  1  0.25954390  0.07679100  0.44324518  1
  Se  Se170  1  0.24509495  0.08946897  0.94545195  1
  Se  Se171  1  0.24899796  0.41050213  0.45270848  1
  Se  Se172  1  0.26037934  0.41477844  0.93374072  1
  Se  Se173  1  0.25011146  0.73986983  0.44261954  1
  Se  Se174  1  0.23750937  0.76325753  0.94411444  1
  Se  Se175  1  0.58224010  0.09541803  0.44270984  1
  Se  Se176  1  0.58002376  0.08424163  0.94308696  1
  Se  Se177  1  0.58707102  0.41443724  0.43538056  1
  Se  Se178  1  0.58221583  0.41174295  0.94811798  1
  Se  Se179  1  0.58965851  0.75084793  0.44600168  1
  Se  Se180  1  0.57603275  0.75433840  0.94937326  1
  Se  Se181  1  0.92234094  0.06851014  0.44354075  1
  Se  Se182  1  0.91176161  0.08626571  0.95153002  1
  Se  Se183  1  0.92031090  0.40545667  0.43867193  1
  Se  Se184  1  0.91326898  0.42280109  0.94982727  1
  Se  Se185  1  0.92645656  0.73483013  0.44804269  1
  Se  Se186  1  0.91850942  0.74260662  0.93797521  1
  Se  Se187  1  0.25286209  0.25314242  0.30122441  1
  Se  Se188  1  0.25245837  0.25115529  0.80628145  1
  Se  Se189  1  0.25119976  0.57702374  0.30790590  1
  Se  Se190  1  0.25487639  0.58460819  0.80435811  1
  Se  Se191  1  0.25035119  0.91247810  0.29843140  1
  Se  Se192  1  0.25674207  0.91453112  0.80544251  1
  Se  Se193  1  0.57923732  0.25188698  0.29724412  1
  Se  Se194  1  0.58831922  0.25530439  0.80647460  1
  Se  Se195  1  0.57552949  0.58197029  0.30874198  1
  Se  Se196  1  0.58220367  0.57884504  0.81721264  1
  Se  Se197  1  0.58188995  0.91812586  0.29607697  1
  Se  Se198  1  0.59521641  0.92914315  0.80201565  1
  Se  Se199  1  0.91509513  0.24539732  0.29579116  1
  Se  Se200  1  0.91873122  0.25658448  0.81007377  1
  Se  Se201  1  0.90444159  0.57086181  0.29867460  1
  Se  Se202  1  0.91438514  0.58446800  0.80610479  1
  Se  Se203  1  0.90580813  0.90628340  0.31082190  1
  Se  Se204  1  0.91522165  0.91683171  0.81472372  1
  Se  Se205  1  0.09114939  0.09168798  0.30965511  1
  Se  Se206  1  0.08724905  0.08557791  0.81883069  1
  Se  Se207  1  0.08626779  0.41561381  0.29925155  1
  Se  Se208  1  0.08158372  0.41442049  0.80500735  1
  Se  Se209  1  0.08762752  0.74504090  0.29771848  1
  Se  Se210  1  0.08071415  0.74775914  0.79980928  1
  Se  Se211  1  0.41786384  0.09160429  0.30409959  1
  Se  Se212  1  0.41704888  0.08415033  0.80601065  1
  Se  Se213  1  0.41977553  0.42409366  0.30140846  1
  Se  Se214  1  0.41553365  0.41184441  0.80661288  1
  Se  Se215  1  0.42707850  0.76526028  0.30118957  1
  Se  Se216  1  0.42343201  0.74486512  0.80936769  1
  Se  Se217  1  0.74107323  0.08471136  0.29394999  1
  Se  Se218  1  0.74998101  0.08757150  0.80326916  1
  Se  Se219  1  0.73733912  0.41673192  0.29257008  1
  Se  Se220  1  0.74653829  0.41801715  0.81248371  1
  Se  Se221  1  0.75395361  0.74714588  0.31123683  1
  Se  Se222  1  0.75256650  0.74958015  0.81186541  1
  Se  Se223  1  0.23893865  0.09783621  0.18509538  1
  Se  Se224  1  0.25457243  0.07959023  0.70898912  1
  Se  Se225  1  0.25801164  0.41921365  0.19441875  1
  Se  Se226  1  0.24782995  0.41572767  0.70312568  1
  Se  Se227  1  0.24954824  0.75526178  0.18057624  1
  Se  Se228  1  0.25082632  0.74608248  0.69735811  1
  Se  Se229  1  0.57963109  0.08217673  0.18895947  1
  Se  Se230  1  0.58821371  0.08827988  0.70131339  1
  Se  Se231  1  0.58489972  0.41602658  0.18993208  1
  Se  Se232  1  0.58317148  0.41272473  0.70050057  1
  Se  Se233  1  0.57287753  0.75019593  0.18528386  1
  Se  Se234  1  0.59154390  0.73690861  0.71097881  1
  Se  Se235  1  0.91092452  0.08723774  0.18322721  1
  Se  Se236  1  0.90755851  0.09668807  0.69067623  1
  Se  Se237  1  0.92604333  0.40167266  0.19256875  1
  Se  Se238  1  0.91561683  0.42090016  0.70038758  1
  Se  Se239  1  0.91978600  0.74285397  0.19850164  1
  Se  Se240  1  0.91555012  0.74888004  0.70572883  1
  Se  Se241  1  0.07955331  0.25889850  0.19395194  1
  Se  Se242  1  0.08058089  0.24760743  0.70673134  1
  Se  Se243  1  0.08696443  0.58743360  0.19573414  1
  Se  Se244  1  0.08158564  0.58292527  0.70207618  1
  Se  Se245  1  0.08520428  0.91383149  0.18914745  1
  Se  Se246  1  0.09389659  0.91252003  0.69238710  1
  Se  Se247  1  0.41214368  0.25411646  0.19113586  1
  Se  Se248  1  0.41951188  0.25019839  0.70265528  1
  Se  Se249  1  0.43223009  0.58608218  0.18051495  1
  Se  Se250  1  0.41740244  0.57462400  0.70389397  1
  Se  Se251  1  0.42788875  0.90525735  0.18289783  1
  Se  Se252  1  0.43452241  0.90758395  0.70455444  1
  Se  Se253  1  0.74486634  0.24705329  0.18507822  1
  Se  Se254  1  0.75064518  0.25722546  0.69930188  1
  Se  Se255  1  0.75581074  0.57240285  0.17925716  1
  Se  Se256  1  0.74401519  0.58390914  0.70504390  1
  Se  Se257  1  0.74556792  0.91211983  0.19906449  1
  Se  Se258  1  0.75269456  0.92367435  0.70756563  1
