# generated using pymatgen
data_In86Cu29Se144
_symmetry_space_group_name_H-M   'P 1'
_cell_length_a   17.57300547
_cell_length_b   17.57320873
_cell_length_c   23.42920136
_cell_angle_alpha   90.01899011
_cell_angle_beta   90.00634463
_cell_angle_gamma   89.99796340
_symmetry_Int_Tables_number   1
_chemical_formula_structural   In86Cu29Se144
_chemical_formula_sum   'In86 Cu29 Se144'
_cell_volume   7235.26712816
_cell_formula_units_Z   1
loop_
 _symmetry_equiv_pos_site_id
 _symmetry_equiv_pos_as_xyz
  1  'x, y, z'
loop_
 _atom_site_type_symbol
 _atom_site_label
 _atom_site_symmetry_multiplicity
 _atom_site_fract_x
 _atom_site_fract_y
 _atom_site_fract_z
 _atom_site_occupancy
  In  In0  1  -0.01183947  0.16229864  0.12666553  1
  In  In1  1  -0.01004820  0.15276726  0.60929192  1
  In  In2  1  0.01678013  0.50511001  0.11241969  1
  In  In3  1  0.01143408  0.51470064  0.63444602  1
  In  In4  1  -0.00648987  0.84270468  0.13130094  1
  In  In5  1  -0.00262109  0.83278948  0.62191105  1
  In  In6  1  0.33401359  0.16664843  0.14089821  1
  In  In7  1  0.33472185  0.16890644  0.61555791  1
  In  In8  1  0.33541628  0.50434895  0.12460333  1
  In  In9  1  0.33127981  0.47893881  0.63106106  1
  In  In10  1  0.34175869  0.82447129  0.13594138  1
  In  In11  1  0.33500804  0.84653027  0.62168691  1
  In  In12  1  0.67446248  0.15753614  0.12781086  1
  In  In13  1  0.66124379  0.15923831  0.61986614  1
  In  In14  1  0.66035732  0.50454205  0.11057028  1
  In  In15  1  0.66442730  0.51651454  0.63003235  1
  In  In16  1  0.67589557  0.83619573  0.11475109  1
  In  In17  1  0.67061043  0.81394910  0.62942512  1
  In  In18  1  0.16191131  -0.01022783  0.37803766  1
  In  In19  1  0.16261434  0.01137892  0.86843937  1
  In  In20  1  0.17213645  0.32032820  0.37558827  1
  In  In21  1  0.17690009  0.33550890  0.87117624  1
  In  In22  1  0.17327962  0.67090465  0.37193784  1
  In  In23  1  0.14903023  0.66277575  0.86927266  1
  In  In24  1  0.51333347  0.00689476  0.36915034  1
  In  In25  1  0.49199203  -0.00468050  0.87740482  1
  In  In26  1  0.48941903  0.34196752  0.37827940  1
  In  In27  1  0.50133504  0.34554126  0.87265246  1
  In  In28  1  0.48833337  0.66592340  0.37329575  1
  In  In29  1  0.50667238  0.66517714  0.88160185  1
  In  In30  1  0.83737645  -0.00242507  0.37686613  1
  In  In31  1  0.83627883  -0.00988031  0.87839787  1
  In  In32  1  0.82447865  0.32245505  0.37251843  1
  In  In33  1  0.83558882  0.33892284  0.88992012  1
  In  In34  1  0.84975063  0.66933059  0.36851966  1
  In  In35  1  0.83146504  0.67096565  0.88219479  1
  In  In36  1  0.02320561  0.13559270  0.40210364  1
  In  In37  1  -0.00307506  0.15251026  0.86753090  1
  In  In38  1  -0.00501323  0.50948316  0.36756344  1
  In  In39  1  -0.01258053  0.50797354  0.88775412  1
  In  In40  1  0.00101522  0.83518933  0.37943114  1
  In  In41  1  -0.01336202  0.82597545  0.86570975  1
  In  In42  1  0.33663446  0.16735874  0.37280797  1
  In  In43  1  0.31870830  0.17004488  0.86823332  1
  In  In44  1  0.34720673  0.50681238  0.36218719  1
  In  In45  1  0.34009979  0.49430164  0.88083679  1
  In  In46  1  0.32383592  0.82147727  0.36978198  1
  In  In47  1  0.34427705  0.83640648  0.88266978  1
  In  In48  1  0.67952172  0.15512160  0.38379801  1
  In  In49  1  0.66968845  0.17981031  0.87259870  1
  In  In50  1  0.65940532  0.49004762  0.37266911  1
  In  In51  1  0.65857849  0.51686182  0.89247771  1
  In  In52  1  0.66605566  0.84781968  0.37367974  1
  In  In53  1  0.67185900  0.82419233  0.88697234  1
  In  In54  1  0.16547106  0.00031020  0.13819993  1
  In  In55  1  0.14712625  -0.01610369  0.60142807  1
  In  In56  1  0.16713097  0.34552070  0.12482047  1
  In  In57  1  0.18403724  0.33138909  0.62612149  1
  In  In58  1  0.17611333  0.66040895  0.13060805  1
  In  In59  1  0.15077379  0.65794998  0.63047426  1
  In  In60  1  0.51010914  -0.00515678  0.13838546  1
  In  In61  1  0.49081346  0.00412665  0.62270546  1
  In  In62  1  0.48875074  0.34309153  0.12941516  1
  In  In63  1  0.48540211  0.32106068  0.62042415  1
  In  In64  1  0.49128598  0.65932187  0.11253479  1
  In  In65  1  0.51752250  0.66885991  0.62590211  1
  In  In66  1  0.83427246  -0.00189143  0.12558090  1
  In  In67  1  0.84881555  0.00096839  0.61339638  1
  In  In68  1  0.84323581  0.32930284  0.11182281  1
  In  In69  1  0.83962936  0.33176521  0.62681336  1
  In  In70  1  0.83607653  0.68230140  0.11281251  1
  In  In71  1  0.82671802  0.67127935  0.63279439  1
  In  In72  1  0.66470377  0.33145938  0.24286806  1
  In  In73  1  0.32947256  0.00375598  0.74243140  1
  In  In74  1  0.50444397  0.16763517  0.00276386  1
  In  In75  1  0.16714919  0.83250718  -0.00153871  1
  In  In76  1  0.50087473  0.83723707  0.49849304  1
  In  In77  1  0.00024216  0.33649142  0.75059053  1
  In  In78  1  0.33478028  0.66641905  0.75687399  1
  In  In79  1  0.16850414  0.49576572  0.50767509  1
  In  In80  1  0.66426223  -0.00608879  0.74356420  1
  In  In81  1  0.66238664  0.34145617  0.75913137  1
  In  In82  1  0.16200496  0.17063099  -0.00008586  1
  In  In83  1  0.00347078  0.32518828  0.24996452  1
  In  In84  1  0.66208776  0.66897534  0.23818258  1
  In  In85  1  0.82698779  0.49568341  0.49920256  1
  Cu  Cu86  1  0.16879490  0.16099463  0.26033378  1
  Cu  Cu87  1  0.33918329  -0.00481590  0.00711875  1
  Cu  Cu88  1  0.33040460  0.66526887  0.49524674  1
  Cu  Cu89  1  0.83215181  0.51487341  0.76114391  1
  Cu  Cu90  1  0.65429890  0.33217135  0.50020221  1
  Cu  Cu91  1  0.16642809  0.83941633  0.74250451  1
  Cu  Cu92  1  0.33039865  0.66024051  0.00428604  1
  Cu  Cu93  1  0.67324875  0.00170641  0.00399421  1
  Cu  Cu94  1  -0.00749880  -0.00539453  -0.00169788  1
  Cu  Cu95  1  0.83161828  0.83628969  0.24677989  1
  Cu  Cu96  1  0.83993642  0.15479030  0.25596310  1
  Cu  Cu97  1  0.67201181  -0.00173728  0.49968567  1
  Cu  Cu98  1  0.66841206  0.33347170  -0.00137369  1
  Cu  Cu99  1  0.49754204  0.50043139  0.75597824  1
  Cu  Cu100  1  0.16208166  0.16508971  0.74016086  1
  Cu  Cu101  1  0.17126619  0.50164926  0.24561594  1
  Cu  Cu102  1  0.84165900  0.83249743  0.75309003  1
  Cu  Cu103  1  0.83231979  0.16280327  0.74343746  1
  Cu  Cu104  1  0.33665412  0.33742057  0.00052584  1
  Cu  Cu105  1  -0.00032467  0.67144851  0.50163564  1
  Cu  Cu106  1  0.67221803  0.66586907  0.50225092  1
  Cu  Cu107  1  0.84116607  0.50369261  0.24088363  1
  Cu  Cu108  1  -0.00083985  0.67150837  -0.00119635  1
  Cu  Cu109  1  0.33125370  0.00333362  0.49321024  1
  Cu  Cu110  1  0.15893994  0.83218981  0.25409686  1
  Cu  Cu111  1  0.49580026  0.83615232  0.25103210  1
  Cu  Cu112  1  -0.00503471  0.32863774  0.50099877  1
  Cu  Cu113  1  0.33590349  0.33305419  0.49777434  1
  Cu  Cu114  1  0.50631886  0.17151021  0.25485710  1
  Se  Se115  1  0.07987464  0.06993497  0.05743478  1
  Se  Se116  1  0.09158873  0.09487631  0.54290765  1
  Se  Se117  1  0.07775050  0.40019364  0.04961101  1
  Se  Se118  1  0.06997782  0.40922703  0.56484012  1
  Se  Se119  1  0.07963651  0.74804502  0.06335215  1
  Se  Se120  1  0.08760843  0.74679952  0.55700631  1
  Se  Se121  1  0.41435994  0.08152767  0.06579283  1
  Se  Se122  1  0.41691259  0.08219466  0.54801161  1
  Se  Se123  1  0.41919191  0.42239472  0.05260751  1
  Se  Se124  1  0.41601281  0.41832166  0.55289084  1
  Se  Se125  1  0.40805083  0.75441441  0.05222689  1
  Se  Se126  1  0.41327522  0.74276431  0.55871302  1
  Se  Se127  1  0.75765559  0.08662045  0.05422722  1
  Se  Se128  1  0.75208409  0.08310855  0.55472178  1
  Se  Se129  1  0.75126516  0.41532221  0.05341956  1
  Se  Se130  1  0.73636697  0.40946001  0.56339740  1
  Se  Se131  1  0.73576477  0.73978226  0.04489911  1
  Se  Se132  1  0.75647101  0.74879524  0.55338885  1
  Se  Se133  1  0.26191780  0.25118338  0.06030150  1
  Se  Se134  1  0.24794458  0.25065335  0.54734157  1
  Se  Se135  1  0.24400612  0.57796161  0.05403562  1
  Se  Se136  1  0.25869337  0.58887300  0.56532836  1
  Se  Se137  1  0.25228880  0.92003374  0.06446979  1
  Se  Se138  1  0.25385609  0.91267024  0.54481636  1
  Se  Se139  1  0.59049815  0.25866750  0.06582429  1
  Se  Se140  1  0.57718461  0.24461508  0.55473043  1
  Se  Se141  1  0.58658692  0.59405513  0.04416635  1
  Se  Se142  1  0.58450712  0.58287897  0.55055644  1
  Se  Se143  1  0.58309304  0.92598182  0.05736430  1
  Se  Se144  1  0.59298589  0.91962277  0.56369985  1
  Se  Se145  1  0.92516120  0.24145767  0.04864388  1
  Se  Se146  1  0.90581901  0.24938040  0.55131868  1
  Se  Se147  1  0.91948299  0.58623671  0.05415784  1
  Se  Se148  1  0.91984755  0.58458424  0.55888171  1
  Se  Se149  1  0.91258625  0.91173921  0.05414954  1
  Se  Se150  1  0.93186727  0.91949568  0.54595061  1
  Se  Se151  1  0.08679056  0.25348384  0.45004777  1
  Se  Se152  1  0.07737159  0.25064192  0.93099095  1
  Se  Se153  1  0.07806986  0.58476128  0.44437526  1
  Se  Se154  1  0.08512474  0.58665920  0.95026054  1
  Se  Se155  1  0.06944637  0.92573828  0.45092522  1
  Se  Se156  1  0.07894443  0.92255736  0.93627206  1
  Se  Se157  1  0.41891874  0.24741048  0.44528764  1
  Se  Se158  1  0.40966816  0.25109960  0.93936112  1
  Se  Se159  1  0.41460106  0.58067786  0.44537100  1
  Se  Se160  1  0.41704841  0.58372279  0.94687513  1
  Se  Se161  1  0.41312163  0.92089986  0.43312488  1
  Se  Se162  1  0.42467503  0.91440428  0.95514147  1
  Se  Se163  1  0.74668520  0.25421536  0.45050937  1
  Se  Se164  1  0.75051277  0.24582633  0.94935495  1
  Se  Se165  1  0.74602034  0.58900426  0.43391085  1
  Se  Se166  1  0.76909526  0.57182386  0.95015786  1
  Se  Se167  1  0.75324361  0.91281067  0.44727753  1
  Se  Se168  1  0.75358911  0.91535906  0.95042119  1
  Se  Se169  1  0.24845176  0.08421479  0.43812331  1
  Se  Se170  1  0.25846784  0.07384668  0.94563250  1
  Se  Se171  1  0.25647021  0.41704792  0.43850453  1
  Se  Se172  1  0.24863574  0.41577313  0.94742508  1
  Se  Se173  1  0.24533939  0.75127165  0.44853247  1
  Se  Se174  1  0.25431068  0.73878048  0.93804852  1
  Se  Se175  1  0.58386737  0.08053347  0.44947745  1
  Se  Se176  1  0.59341764  0.07836498  0.93984376  1
  Se  Se177  1  0.57765913  0.42100576  0.44772584  1
  Se  Se178  1  0.57973393  0.41500886  0.94907281  1
  Se  Se179  1  0.59050575  0.74363505  0.43882009  1
  Se  Se180  1  0.58202799  0.74846925  0.95383859  1
  Se  Se181  1  0.89418893  0.10127614  0.44443220  1
  Se  Se182  1  0.91532313  0.08283362  0.94356218  1
  Se  Se183  1  0.92215611  0.41052965  0.43702573  1
  Se  Se184  1  0.92355559  0.41282470  0.95678653  1
  Se  Se185  1  0.91387473  0.74937386  0.44677600  1
  Se  Se186  1  0.91720597  0.75894531  0.94852502  1
  Se  Se187  1  0.25547006  0.25172178  0.30098675  1
  Se  Se188  1  0.24290955  0.24923123  0.79466832  1
  Se  Se189  1  0.25103674  0.58601519  0.30239923  1
  Se  Se190  1  0.24484847  0.57454430  0.81213886  1
  Se  Se191  1  0.24660924  0.91415281  0.30556252  1
  Se  Se192  1  0.24735730  0.90956543  0.81005942  1
  Se  Se193  1  0.58849524  0.24786603  0.31679576  1
  Se  Se194  1  0.56750127  0.24143063  0.80476606  1
  Se  Se195  1  0.57848677  0.58069670  0.30551373  1
  Se  Se196  1  0.58336395  0.58053230  0.80922308  1
  Se  Se197  1  0.58628738  0.91801185  0.29785049  1
  Se  Se198  1  0.58365916  0.91110764  0.81457985  1
  Se  Se199  1  0.91981256  0.23714896  0.31473963  1
  Se  Se200  1  0.90315369  0.24818813  0.80749702  1
  Se  Se201  1  0.92258861  0.58935305  0.29258913  1
  Se  Se202  1  0.92072876  0.59336462  0.81186951  1
  Se  Se203  1  0.91531504  0.91224826  0.30666120  1
  Se  Se204  1  0.92002723  0.92638258  0.80010296  1
  Se  Se205  1  0.08041606  0.07959707  0.30979654  1
  Se  Se206  1  0.08021114  0.08044997  0.79300421  1
  Se  Se207  1  0.09307345  0.42206782  0.30932362  1
  Se  Se208  1  0.07994910  0.42527816  0.81584953  1
  Se  Se209  1  0.07824171  0.74732505  0.30899857  1
  Se  Se210  1  0.08536356  0.75803756  0.80011934  1
  Se  Se211  1  0.42157889  0.08476306  0.30417420  1
  Se  Se212  1  0.41897849  0.08970610  0.80810295  1
  Se  Se213  1  0.42128407  0.41350309  0.29774981  1
  Se  Se214  1  0.41063194  0.41439246  0.80205869  1
  Se  Se215  1  0.41453966  0.74800039  0.30052271  1
  Se  Se216  1  0.42783676  0.75905571  0.80986493  1
  Se  Se217  1  0.74847279  0.07633538  0.30575191  1
  Se  Se218  1  0.75171268  0.08653426  0.80641206  1
  Se  Se219  1  0.76129939  0.42509139  0.30156827  1
  Se  Se220  1  0.75542330  0.42727585  0.81807559  1
  Se  Se221  1  0.75084530  0.75360879  0.30629570  1
  Se  Se222  1  0.75488612  0.75641331  0.80942817  1
  Se  Se223  1  0.25318431  0.07839961  0.20547871  1
  Se  Se224  1  0.23680825  0.08153763  0.67773949  1
  Se  Se225  1  0.25491293  0.41685096  0.19472681  1
  Se  Se226  1  0.22609782  0.43218468  0.69836755  1
  Se  Se227  1  0.24590487  0.75165198  0.20022661  1
  Se  Se228  1  0.25025503  0.75639013  0.68858212  1
  Se  Se229  1  0.59002763  0.08823107  0.20140487  1
  Se  Se230  1  0.56948293  0.09179351  0.69527956  1
  Se  Se231  1  0.57932696  0.43283170  0.19199521  1
  Se  Se232  1  0.57478528  0.42159645  0.68989452  1
  Se  Se233  1  0.57188838  0.76121641  0.18259516  1
  Se  Se234  1  0.58348692  0.74934024  0.70210807  1
  Se  Se235  1  0.92101275  0.07370452  0.19871169  1
  Se  Se236  1  0.91782278  0.08279273  0.69102327  1
  Se  Se237  1  0.92005089  0.41705121  0.18620257  1
  Se  Se238  1  0.90472602  0.43333527  0.69532576  1
  Se  Se239  1  0.91240009  0.74960131  0.19390452  1
  Se  Se240  1  0.92119532  0.74911880  0.69507060  1
  Se  Se241  1  0.09580453  0.23635964  0.18915365  1
  Se  Se242  1  0.07858385  0.24621794  0.68206433  1
  Se  Se243  1  0.08226756  0.58099548  0.19425016  1
  Se  Se244  1  0.08203999  0.58889794  0.71196351  1
  Se  Se245  1  0.07753627  0.91897429  0.20263336  1
  Se  Se246  1  0.08279174  0.92047355  0.68877974  1
  Se  Se247  1  0.42232286  0.25338839  0.20149395  1
  Se  Se248  1  0.39731037  0.25457062  0.69250007  1
  Se  Se249  1  0.41296690  0.59383726  0.19122413  1
  Se  Se250  1  0.42164947  0.57896853  0.68997644  1
  Se  Se251  1  0.41073281  0.92337217  0.20120336  1
  Se  Se252  1  0.42994588  0.90689635  0.69676459  1
  Se  Se253  1  0.76861061  0.24362660  0.19406827  1
  Se  Se254  1  0.74742185  0.24789120  0.69267904  1
  Se  Se255  1  0.75661690  0.57868571  0.18225582  1
  Se  Se256  1  0.74537233  0.59031321  0.70383393  1
  Se  Se257  1  0.74640703  0.91586936  0.19248629  1
  Se  Se258  1  0.76355942  0.90978283  0.68673451  1
