# generated using pymatgen
data_In86Cu29Se144
_symmetry_space_group_name_H-M   'P 1'
_cell_length_a   17.59261907
_cell_length_b   17.59501862
_cell_length_c   23.44985596
_cell_angle_alpha   89.99376047
_cell_angle_beta   90.00035268
_cell_angle_gamma   89.97575031
_symmetry_Int_Tables_number   1
_chemical_formula_structural   In86Cu29Se144
_chemical_formula_sum   'In86 Cu29 Se144'
_cell_volume   7258.72541489
_cell_formula_units_Z   1
loop_
 _symmetry_equiv_pos_site_id
 _symmetry_equiv_pos_as_xyz
  1  'x, y, z'
loop_
 _atom_site_type_symbol
 _atom_site_label
 _atom_site_symmetry_multiplicity
 _atom_site_fract_x
 _atom_site_fract_y
 _atom_site_fract_z
 _atom_site_occupancy
  In  In0  1  0.00699400  0.17474494  0.12945265  1
  In  In1  1  0.00045157  0.16355996  0.60881067  1
  In  In2  1  0.00384381  0.49633753  0.13113935  1
  In  In3  1  0.00912830  0.49263020  0.64113020  1
  In  In4  1  -0.01513022  0.83251771  0.11704711  1
  In  In5  1  -0.00902499  0.83909703  0.62884453  1
  In  In6  1  0.33760119  0.16486641  0.13621321  1
  In  In7  1  0.32577940  0.17107696  0.62869615  1
  In  In8  1  0.32366108  0.49769518  0.11501687  1
  In  In9  1  0.33401709  0.48755367  0.63707297  1
  In  In10  1  0.34098150  0.84214694  0.12681122  1
  In  In11  1  0.34035824  0.83236318  0.64005485  1
  In  In12  1  0.66890049  0.16761750  0.13412928  1
  In  In13  1  0.68165978  0.15396541  0.62868492  1
  In  In14  1  0.66062027  0.50432275  0.12268880  1
  In  In15  1  0.66122474  0.50301068  0.63023083  1
  In  In16  1  0.67093123  0.83086344  0.12668184  1
  In  In17  1  0.67523516  0.82062935  0.63512109  1
  In  In18  1  0.17087418  0.00898584  0.38165977  1
  In  In19  1  0.16831790  0.00680631  0.86565138  1
  In  In20  1  0.15713193  0.32059948  0.37262329  1
  In  In21  1  0.18504337  0.36359162  0.84848029  1
  In  In22  1  0.15612034  0.67570290  0.37424202  1
  In  In23  1  0.15290737  0.64314235  0.85858444  1
  In  In24  1  0.50189345  -0.00240605  0.36612603  1
  In  In25  1  0.49931572  -0.00906345  0.85659288  1
  In  In26  1  0.50630897  0.34115677  0.37297339  1
  In  In27  1  0.50551247  0.33913506  0.87130944  1
  In  In28  1  0.48923136  0.66445726  0.37767444  1
  In  In29  1  0.48485757  0.65689443  0.86138446  1
  In  In30  1  0.83060242  0.01114798  0.38832906  1
  In  In31  1  0.82462926  -0.01252546  0.86750733  1
  In  In32  1  0.82705177  0.33207959  0.37160129  1
  In  In33  1  0.83675434  0.33640530  0.86420716  1
  In  In34  1  0.84746765  0.65856283  0.37638046  1
  In  In35  1  0.84387188  0.68147466  0.86965359  1
  In  In36  1  -0.02265089  0.18799883  0.40717033  1
  In  In37  1  0.01077617  0.17574484  0.86628501  1
  In  In38  1  -0.01056110  0.49818599  0.36099776  1
  In  In39  1  0.00852592  0.50924960  0.86031533  1
  In  In40  1  -0.00614753  0.81997069  0.37534495  1
  In  In41  1  -0.01301582  0.82143794  0.87068203  1
  In  In42  1  0.32595079  0.16291163  0.37639675  1
  In  In43  1  0.32674912  0.17167860  0.86635452  1
  In  In44  1  0.34914557  0.49967738  0.37936120  1
  In  In45  1  0.33631600  0.50101327  0.87545086  1
  In  In46  1  0.32155749  0.83934073  0.37197153  1
  In  In47  1  0.33969232  0.82865677  0.85993166  1
  In  In48  1  0.67100294  0.17106181  0.37416191  1
  In  In49  1  0.66666206  0.16256800  0.86141133  1
  In  In50  1  0.67024447  0.48464506  0.37640744  1
  In  In51  1  0.65747377  0.49192219  0.87129981  1
  In  In52  1  0.66549601  0.84906885  0.37255964  1
  In  In53  1  0.66887500  0.83794659  0.86446550  1
  In  In54  1  0.16756153  0.01214311  0.12757330  1
  In  In55  1  0.15370966  0.01119799  0.62919898  1
  In  In56  1  0.16136418  0.34309595  0.13408318  1
  In  In57  1  0.16946480  0.33015123  0.62794809  1
  In  In58  1  0.17019476  0.65291128  0.12126531  1
  In  In59  1  0.16560122  0.65887642  0.64581241  1
  In  In60  1  0.49982671  -0.00292969  0.14191241  1
  In  In61  1  0.50833347  -0.01239511  0.64144286  1
  In  In62  1  0.49151098  0.34217809  0.12962152  1
  In  In63  1  0.49419486  0.33875406  0.62776617  1
  In  In64  1  0.51060440  0.66092159  0.11895881  1
  In  In65  1  0.51107433  0.65812849  0.63549077  1
  In  In66  1  0.83106623  -0.01267383  0.12350563  1
  In  In67  1  0.84166014  -0.00549069  0.61345952  1
  In  In68  1  0.83469828  0.33939849  0.14181768  1
  In  In69  1  0.84526511  0.31608047  0.62764438  1
  In  In70  1  0.82858372  0.67484116  0.12232013  1
  In  In71  1  0.83155634  0.67016444  0.63145209  1
  In  In72  1  0.16386118  0.17396569  0.00332327  1
  In  In73  1  0.50340276  0.83279520  0.49950730  1
  In  In74  1  0.50230597  0.16741765  -0.00655118  1
  In  In75  1  0.16493377  0.49629595  0.50680587  1
  In  In76  1  0.83492138  0.16988211  -0.00114287  1
  In  In77  1  0.00085671  0.00812037  0.25595983  1
  In  In78  1  0.16401456  0.83314612  0.50691458  1
  In  In79  1  0.49915440  0.16752251  0.50493829  1
  In  In80  1  0.83521441  0.50387535  0.00004965  1
  In  In81  1  0.33060892  0.66991542  0.24962169  1
  In  In82  1  0.50186854  0.82708851  -0.00324483  1
  In  In83  1  0.66829002  0.66593280  0.24227480  1
  In  In84  1  0.83608181  0.49592070  0.50135891  1
  In  In85  1  0.16407057  0.82500785  -0.00947609  1
  Cu  Cu86  1  0.66849920  -0.00799872  -0.00566342  1
  Cu  Cu87  1  0.83940204  0.15948716  0.74136168  1
  Cu  Cu88  1  0.16879950  0.83595838  0.75128275  1
  Cu  Cu89  1  0.33077922  0.00403386  0.50562805  1
  Cu  Cu90  1  0.83280858  0.16571749  0.25986305  1
  Cu  Cu91  1  0.17005080  0.16970266  0.25439944  1
  Cu  Cu92  1  -0.01113822  -0.00465758  -0.00791018  1
  Cu  Cu93  1  0.82036182  0.50105885  0.74913744  1
  Cu  Cu94  1  0.82870733  0.83550899  0.24779248  1
  Cu  Cu95  1  0.15918166  0.16375282  0.74271420  1
  Cu  Cu96  1  0.50414670  0.17192359  0.25592537  1
  Cu  Cu97  1  0.33772977  -0.00050007  0.00207572  1
  Cu  Cu98  1  0.32774986  0.34325363  0.00003268  1
  Cu  Cu99  1  -0.00260679  0.66574209  0.50295987  1
  Cu  Cu100  1  0.33770756  0.66064167  0.50583354  1
  Cu  Cu101  1  0.33259712  0.65851167  -0.00965358  1
  Cu  Cu102  1  0.66860314  0.66510776  -0.00321395  1
  Cu  Cu103  1  0.66422937  0.33422976  -0.00266884  1
  Cu  Cu104  1  0.67268604  -0.00100901  0.50193581  1
  Cu  Cu105  1  0.49465512  0.17329125  0.74550222  1
  Cu  Cu106  1  0.66681511  0.66552835  0.50975886  1
  Cu  Cu107  1  0.15878408  0.83838965  0.25287881  1
  Cu  Cu108  1  0.17255768  0.49795881  0.24771990  1
  Cu  Cu109  1  0.66947100  0.33127552  0.49830717  1
  Cu  Cu110  1  0.83922575  0.83631663  0.74626805  1
  Cu  Cu111  1  0.50151956  0.49643282  0.24872819  1
  Cu  Cu112  1  0.00807805  0.34116102  0.00187200  1
  Cu  Cu113  1  0.33242412  0.33649488  0.50703577  1
  Cu  Cu114  1  0.49719279  0.49393003  0.75074056  1
  Se  Se115  1  0.06750322  0.07512150  0.05435116  1
  Se  Se116  1  0.08850099  0.07726762  0.54561643  1
  Se  Se117  1  0.08955505  0.42218432  0.05745708  1
  Se  Se118  1  0.06958511  0.40753135  0.55961762  1
  Se  Se119  1  0.07885957  0.74262994  0.05773560  1
  Se  Se120  1  0.08293128  0.73530603  0.56626581  1
  Se  Se121  1  0.41768763  0.07885911  0.06091590  1
  Se  Se122  1  0.41857066  0.07278589  0.56741413  1
  Se  Se123  1  0.41914366  0.41962885  0.05227269  1
  Se  Se124  1  0.41444861  0.42200518  0.55730638  1
  Se  Se125  1  0.40495341  0.73950029  0.05648000  1
  Se  Se126  1  0.41492121  0.74624967  0.56283377  1
  Se  Se127  1  0.74101096  0.07785898  0.05584029  1
  Se  Se128  1  0.75710885  0.08593516  0.54899541  1
  Se  Se129  1  0.74892806  0.40622765  0.05962299  1
  Se  Se130  1  0.74603080  0.40986685  0.56326852  1
  Se  Se131  1  0.74492123  0.75241981  0.05131465  1
  Se  Se132  1  0.75280776  0.74924647  0.55713099  1
  Se  Se133  1  0.25928474  0.25654122  0.06397186  1
  Se  Se134  1  0.24869833  0.25031062  0.55466605  1
  Se  Se135  1  0.24554489  0.58031330  0.04389085  1
  Se  Se136  1  0.25263799  0.58884464  0.56608355  1
  Se  Se137  1  0.24895822  0.92196442  0.05591330  1
  Se  Se138  1  0.25828429  0.91783098  0.56628806  1
  Se  Se139  1  0.58838313  0.25302239  0.05982442  1
  Se  Se140  1  0.59269375  0.25342374  0.56378258  1
  Se  Se141  1  0.58441809  0.57927869  0.04596288  1
  Se  Se142  1  0.58066991  0.58091649  0.55640266  1
  Se  Se143  1  0.58312074  0.92416258  0.05934945  1
  Se  Se144  1  0.59283120  0.91964811  0.56122903  1
  Se  Se145  1  0.92361354  0.26161468  0.05958043  1
  Se  Se146  1  0.91212809  0.24863998  0.54478810  1
  Se  Se147  1  0.92467563  0.58958416  0.06133783  1
  Se  Se148  1  0.92464382  0.58203159  0.56564548  1
  Se  Se149  1  0.90613826  0.91428191  0.04575362  1
  Se  Se150  1  0.91981986  0.90397462  0.54742676  1
  Se  Se151  1  0.09412604  0.24910713  0.45493374  1
  Se  Se152  1  0.08563462  0.26426552  0.93830494  1
  Se  Se153  1  0.07524399  0.58477743  0.44158967  1
  Se  Se154  1  0.08126203  0.57738634  0.94018593  1
  Se  Se155  1  0.07915977  0.91374066  0.43846259  1
  Se  Se156  1  0.07910996  0.92432290  0.93508660  1
  Se  Se157  1  0.41264442  0.25805821  0.44325038  1
  Se  Se158  1  0.40431466  0.25769032  0.94130516  1
  Se  Se159  1  0.42354717  0.58053264  0.45374855  1
  Se  Se160  1  0.42582175  0.57945097  0.94450776  1
  Se  Se161  1  0.40767681  0.92419370  0.44313792  1
  Se  Se162  1  0.41380385  0.92217900  0.93868533  1
  Se  Se163  1  0.75285009  0.24894730  0.44605253  1
  Se  Se164  1  0.74201505  0.25462347  0.93694882  1
  Se  Se165  1  0.74350845  0.58808794  0.44313412  1
  Se  Se166  1  0.74669930  0.58661955  0.93408301  1
  Se  Se167  1  0.75147726  0.91232131  0.44778034  1
  Se  Se168  1  0.75054257  0.90791692  0.94287968  1
  Se  Se169  1  0.24986114  0.08927355  0.45416377  1
  Se  Se170  1  0.25588372  0.08070840  0.94460920  1
  Se  Se171  1  0.25510630  0.41349852  0.44116343  1
  Se  Se172  1  0.24455784  0.41902624  0.94059642  1
  Se  Se173  1  0.25791404  0.74054689  0.44546596  1
  Se  Se174  1  0.25957304  0.74356727  0.93076397  1
  Se  Se175  1  0.58583401  0.07519042  0.44308116  1
  Se  Se176  1  0.58870872  0.07212359  0.93526653  1
  Se  Se177  1  0.58338390  0.41631330  0.45000987  1
  Se  Se178  1  0.57868618  0.41741249  0.94804225  1
  Se  Se179  1  0.59321802  0.74134144  0.43973587  1
  Se  Se180  1  0.58818530  0.74150069  0.93302742  1
  Se  Se181  1  0.93230680  0.06587896  0.45528987  1
  Se  Se182  1  0.91946926  0.08437128  0.93266179  1
  Se  Se183  1  0.92613765  0.41099440  0.43958883  1
  Se  Se184  1  0.92035256  0.41070959  0.94045071  1
  Se  Se185  1  0.91250916  0.74716934  0.45081905  1
  Se  Se186  1  0.91882476  0.74717143  0.94986398  1
  Se  Se187  1  0.25543212  0.25397937  0.30572368  1
  Se  Se188  1  0.24402885  0.24819205  0.79547447  1
  Se  Se189  1  0.24551477  0.57877665  0.31432004  1
  Se  Se190  1  0.27126389  0.59636012  0.80568744  1
  Se  Se191  1  0.23985744  0.92288092  0.30541617  1
  Se  Se192  1  0.25304094  0.92072603  0.80210565  1
  Se  Se193  1  0.58911198  0.25568530  0.30709032  1
  Se  Se194  1  0.58079146  0.25162436  0.80166186  1
  Se  Se195  1  0.57842104  0.58011925  0.30900406  1
  Se  Se196  1  0.58238297  0.57948776  0.80106985  1
  Se  Se197  1  0.58088005  0.91390105  0.29865192  1
  Se  Se198  1  0.60541393  0.93458993  0.79603170  1
  Se  Se199  1  0.91999579  0.24308412  0.31397511  1
  Se  Se200  1  0.91448088  0.24501897  0.79981936  1
  Se  Se201  1  0.92163687  0.59475436  0.29638267  1
  Se  Se202  1  0.90706768  0.58226187  0.80180470  1
  Se  Se203  1  0.90889012  0.91391873  0.31034838  1
  Se  Se204  1  0.92208110  0.91840027  0.80181306  1
  Se  Se205  1  0.08476308  0.09837642  0.31698182  1
  Se  Se206  1  0.07789943  0.08045323  0.79798657  1
  Se  Se207  1  0.09012656  0.41876508  0.30583584  1
  Se  Se208  1  0.05305291  0.38934733  0.80658368  1
  Se  Se209  1  0.07671722  0.74917738  0.29949593  1
  Se  Se210  1  0.08516207  0.75330632  0.80467304  1
  Se  Se211  1  0.41743319  0.08973802  0.30772962  1
  Se  Se212  1  0.41529998  0.08941230  0.80288407  1
  Se  Se213  1  0.41634501  0.41670263  0.30340300  1
  Se  Se214  1  0.41234280  0.41172543  0.80482073  1
  Se  Se215  1  0.42139051  0.76147066  0.30827139  1
  Se  Se216  1  0.44685279  0.77148069  0.79797765  1
  Se  Se217  1  0.75069588  0.07871459  0.30972665  1
  Se  Se218  1  0.75536966  0.08072258  0.79848005  1
  Se  Se219  1  0.76092668  0.42745185  0.30365640  1
  Se  Se220  1  0.74192516  0.41226730  0.80168715  1
  Se  Se221  1  0.75359079  0.75193727  0.31041314  1
  Se  Se222  1  0.75370458  0.75226161  0.79907790  1
  Se  Se223  1  0.24969967  0.08259681  0.20134138  1
  Se  Se224  1  0.24999679  0.08052425  0.69585303  1
  Se  Se225  1  0.26000681  0.41855337  0.19568348  1
  Se  Se226  1  0.22899294  0.42680149  0.69854165  1
  Se  Se227  1  0.23897071  0.76040366  0.18873997  1
  Se  Se228  1  0.25412914  0.74790470  0.70439510  1
  Se  Se229  1  0.58538905  0.08626328  0.20176275  1
  Se  Se230  1  0.58345887  0.09034067  0.69695515  1
  Se  Se231  1  0.58747595  0.41756930  0.19376012  1
  Se  Se232  1  0.58325294  0.41317834  0.69706531  1
  Se  Se233  1  0.56864187  0.75853350  0.19202596  1
  Se  Se234  1  0.56627338  0.76682954  0.69711184  1
  Se  Se235  1  0.90646896  0.09091273  0.18915602  1
  Se  Se236  1  0.92094790  0.08150218  0.68240693  1
  Se  Se237  1  0.93629611  0.40488138  0.20113567  1
  Se  Se238  1  0.90454365  0.41802314  0.69546674  1
  Se  Se239  1  0.91203604  0.75426884  0.19332529  1
  Se  Se240  1  0.92254159  0.74587830  0.69864944  1
  Se  Se241  1  0.08506909  0.25221083  0.20128725  1
  Se  Se242  1  0.07704260  0.24346599  0.68562711  1
  Se  Se243  1  0.08933002  0.58377389  0.19715054  1
  Se  Se244  1  0.07913189  0.58018968  0.71152800  1
  Se  Se245  1  0.08092465  0.91494172  0.18704427  1
  Se  Se246  1  0.08411462  0.91406575  0.69461473  1
  Se  Se247  1  0.42041189  0.25205782  0.19953137  1
  Se  Se248  1  0.40925066  0.25634730  0.69478308  1
  Se  Se249  1  0.42193254  0.57951016  0.18932488  1
  Se  Se250  1  0.41606207  0.58093965  0.69825651  1
  Se  Se251  1  0.40264260  0.92462102  0.20284544  1
  Se  Se252  1  0.40676564  0.92905678  0.70565172  1
  Se  Se253  1  0.75117676  0.24888722  0.20267622  1
  Se  Se254  1  0.75061696  0.24840108  0.69684496  1
  Se  Se255  1  0.76175503  0.57206849  0.18987341  1
  Se  Se256  1  0.74199534  0.58995440  0.69676156  1
  Se  Se257  1  0.74446623  0.91970364  0.19711573  1
  Se  Se258  1  0.75891220  0.91869734  0.68899799  1
