# generated using pymatgen
data_In86Cu29Se144
_symmetry_space_group_name_H-M   'P 1'
_cell_length_a   17.58329985
_cell_length_b   17.58862467
_cell_length_c   23.45059986
_cell_angle_alpha   89.98160749
_cell_angle_beta   89.97869757
_cell_angle_gamma   90.03506997
_symmetry_Int_Tables_number   1
_chemical_formula_structural   In86Cu29Se144
_chemical_formula_sum   'In86 Cu29 Se144'
_cell_volume   7252.47242898
_cell_formula_units_Z   1
loop_
 _symmetry_equiv_pos_site_id
 _symmetry_equiv_pos_as_xyz
  1  'x, y, z'
loop_
 _atom_site_type_symbol
 _atom_site_label
 _atom_site_symmetry_multiplicity
 _atom_site_fract_x
 _atom_site_fract_y
 _atom_site_fract_z
 _atom_site_occupancy
  In  In0  1  0.00746010  0.16476005  0.12588008  1
  In  In1  1  0.01125356  0.17007565  0.63103169  1
  In  In2  1  0.00825046  0.48998847  0.13381229  1
  In  In3  1  -0.00461023  0.49516201  0.61190685  1
  In  In4  1  -0.00025345  0.82963964  0.12606503  1
  In  In5  1  0.00150251  0.82947073  0.60845034  1
  In  In6  1  0.32168782  0.15852763  0.11318019  1
  In  In7  1  0.34387950  0.15550313  0.63299007  1
  In  In8  1  0.32940452  0.49372279  0.11755443  1
  In  In9  1  0.32456590  0.48964921  0.62386172  1
  In  In10  1  0.33136143  0.85248277  0.13073030  1
  In  In11  1  0.32533100  0.85089995  0.62266746  1
  In  In12  1  0.67117023  0.18005276  0.12215633  1
  In  In13  1  0.65734141  0.18387943  0.63786906  1
  In  In14  1  0.65173788  0.50191017  0.12345305  1
  In  In15  1  0.66000337  0.48677470  0.61725883  1
  In  In16  1  0.68570730  0.83058549  0.12179450  1
  In  In17  1  0.67834767  0.83381290  0.62485786  1
  In  In18  1  0.15937035  -0.00058133  0.36369766  1
  In  In19  1  0.17436930  -0.00804999  0.88078317  1
  In  In20  1  0.16229833  0.34337612  0.37646919  1
  In  In21  1  0.16613818  0.32626811  0.87898513  1
  In  In22  1  0.13301096  0.68946073  0.40037175  1
  In  In23  1  0.16163408  0.67154991  0.88521852  1
  In  In24  1  0.49768766  0.01543381  0.37591751  1
  In  In25  1  0.50733637  0.01527750  0.87155602  1
  In  In26  1  0.50198632  0.33218539  0.38221234  1
  In  In27  1  0.50175109  0.32936072  0.87338952  1
  In  In28  1  0.48824622  0.65853057  0.37782636  1
  In  In29  1  0.49047373  0.66531798  0.87941572  1
  In  In30  1  0.84108528  -0.01090714  0.37629334  1
  In  In31  1  0.82513948  0.00608876  0.88043563  1
  In  In32  1  0.84157615  0.34447650  0.36795394  1
  In  In33  1  0.83501104  0.32661080  0.85953135  1
  In  In34  1  0.84709165  0.66121537  0.38170048  1
  In  In35  1  0.84609714  0.66543283  0.87704117  1
  In  In36  1  0.00199057  0.16657426  0.36145975  1
  In  In37  1  -0.00261806  0.17860996  0.88449007  1
  In  In38  1  0.00143316  0.50007166  0.37361828  1
  In  In39  1  0.00990536  0.49134440  0.88033532  1
  In  In40  1  -0.00898288  0.83902549  0.36481670  1
  In  In41  1  0.00036456  0.83852005  0.89315238  1
  In  In42  1  0.34285077  0.17084436  0.37739015  1
  In  In43  1  0.33495442  0.16859563  0.87530395  1
  In  In44  1  0.32566843  0.50322222  0.38570530  1
  In  In45  1  0.34382714  0.48640702  0.87912031  1
  In  In46  1  0.31974700  0.83466952  0.37231003  1
  In  In47  1  0.31853304  0.83728325  0.87576796  1
  In  In48  1  0.64932422  0.17127129  0.37833960  1
  In  In49  1  0.66803859  0.15638758  0.86838816  1
  In  In50  1  0.67714215  0.49552005  0.38089313  1
  In  In51  1  0.67325075  0.48280392  0.87112223  1
  In  In52  1  0.68459624  0.83547329  0.37665258  1
  In  In53  1  0.66215897  0.84966860  0.87616397  1
  In  In54  1  0.16142048  0.00364722  0.11861474  1
  In  In55  1  0.17750609  -0.00472409  0.62222810  1
  In  In56  1  0.15116648  0.32623188  0.10817624  1
  In  In57  1  0.16222561  0.34146208  0.63592157  1
  In  In58  1  0.15370126  0.65375820  0.12258312  1
  In  In59  1  0.15923013  0.66494697  0.61342157  1
  In  In60  1  0.48549405  0.00349824  0.12528025  1
  In  In61  1  0.48727840  0.01618036  0.62805193  1
  In  In62  1  0.50336304  0.33644168  0.11687759  1
  In  In63  1  0.49992759  0.33034143  0.62789549  1
  In  In64  1  0.51126745  0.65669941  0.12052998  1
  In  In65  1  0.51197091  0.66104748  0.62268321  1
  In  In66  1  0.85136206  -0.01159907  0.13099804  1
  In  In67  1  0.83552324  -0.01048423  0.62532845  1
  In  In68  1  0.83131426  0.32897520  0.13373212  1
  In  In69  1  0.82543483  0.33979176  0.63237842  1
  In  In70  1  0.83824568  0.68886680  0.12505589  1
  In  In71  1  0.84219799  0.66829095  0.60870890  1
  In  In72  1  0.67150162  0.66315549  0.74573259  1
  In  In73  1  0.17391166  0.16452349  0.50313468  1
  In  In74  1  -0.00181142  0.00777745  0.75426715  1
  In  In75  1  0.67085996  0.00723785  0.24842141  1
  In  In76  1  0.49921024  0.83140979  0.00453894  1
  In  In77  1  0.82987383  0.50220571  -0.00370555  1
  In  In78  1  0.82617163  0.16835309  0.50803236  1
  In  In79  1  0.00197932  0.66585881  0.74389084  1
  In  In80  1  0.32998795  0.66703499  0.75253667  1
  In  In81  1  0.67166017  0.66211153  0.25029427  1
  In  In82  1  0.49756722  0.82967167  0.49707873  1
  In  In83  1  0.32509941  0.33165677  0.24880712  1
  In  In84  1  0.83922737  0.16194890  0.00310605  1
  In  In85  1  0.32471558  0.66495388  0.25406871  1
  Cu  Cu86  1  0.83009737  0.83910662  0.74987703  1
  Cu  Cu87  1  0.83017820  0.17000149  0.24979644  1
  Cu  Cu88  1  0.66755882  0.33550492  0.50474311  1
  Cu  Cu89  1  0.66093137  0.00035702  0.49984024  1
  Cu  Cu90  1  0.83235054  0.49772099  0.25356742  1
  Cu  Cu91  1  0.16694918  0.16334727  0.23867978  1
  Cu  Cu92  1  -0.00319917  0.66842771  0.00605212  1
  Cu  Cu93  1  0.49414187  0.17479886  0.25200230  1
  Cu  Cu94  1  0.50543859  0.84071660  0.24772755  1
  Cu  Cu95  1  0.15889078  0.50068571  0.25332127  1
  Cu  Cu96  1  0.83537359  0.49397740  0.74163791  1
  Cu  Cu97  1  0.00086699  0.33807523  0.49947399  1
  Cu  Cu98  1  -0.00025954  -0.00540903  0.49129629  1
  Cu  Cu99  1  0.33580477  0.65761651  0.50183766  1
  Cu  Cu100  1  0.66947105  0.00068655  -0.00299106  1
  Cu  Cu101  1  0.16776061  0.49178358  0.75563231  1
  Cu  Cu102  1  0.17310056  0.17079092  0.75309826  1
  Cu  Cu103  1  0.50338753  0.49369544  0.74904767  1
  Cu  Cu104  1  0.66374964  0.33073068  -0.00444236  1
  Cu  Cu105  1  0.49906534  0.84989931  0.75008190  1
  Cu  Cu106  1  0.67177659  0.66185705  0.50043421  1
  Cu  Cu107  1  0.49859020  0.16879248  0.75340999  1
  Cu  Cu108  1  0.32992791  0.66492984  0.00229390  1
  Cu  Cu109  1  0.16336514  0.83879093  0.75059709  1
  Cu  Cu110  1  0.33683792  0.33771116  -0.00695462  1
  Cu  Cu111  1  0.49812200  0.49137803  0.24701252  1
  Cu  Cu112  1  0.33479436  0.00419503  -0.00086654  1
  Cu  Cu113  1  0.34015480  0.32902272  0.50581654  1
  Cu  Cu114  1  0.16051742  0.83479323  0.25034189  1
  Se  Se115  1  0.09375613  0.10019574  0.05135211  1
  Se  Se116  1  0.07396442  0.07342204  0.55689593  1
  Se  Se117  1  0.08384186  0.43153822  0.05059545  1
  Se  Se118  1  0.09196151  0.41214958  0.55386069  1
  Se  Se119  1  0.08616140  0.74987688  0.05535534  1
  Se  Se120  1  0.08726871  0.75064625  0.54304130  1
  Se  Se121  1  0.42170253  0.08747207  0.04870833  1
  Se  Se122  1  0.40305888  0.07725408  0.55125878  1
  Se  Se123  1  0.41940038  0.41954460  0.04996274  1
  Se  Se124  1  0.42028175  0.41676890  0.55872278  1
  Se  Se125  1  0.40658371  0.74432928  0.06689094  1
  Se  Se126  1  0.41035685  0.74209842  0.56365822  1
  Se  Se127  1  0.74828503  0.07255679  0.06531494  1
  Se  Se128  1  0.73674474  0.07776102  0.56629849  1
  Se  Se129  1  0.74375919  0.40813199  0.05852861  1
  Se  Se130  1  0.75858997  0.41751244  0.55215920  1
  Se  Se131  1  0.73352868  0.72801813  0.05414579  1
  Se  Se132  1  0.74985542  0.75341545  0.54987433  1
  Se  Se133  1  0.25371973  0.25655289  0.04863363  1
  Se  Se134  1  0.25587520  0.25489917  0.56769581  1
  Se  Se135  1  0.24565676  0.58099432  0.05419166  1
  Se  Se136  1  0.24952527  0.57760575  0.55496915  1
  Se  Se137  1  0.25295604  0.91977237  0.05313716  1
  Se  Se138  1  0.23839832  0.90863588  0.54701615  1
  Se  Se139  1  0.58231308  0.24623816  0.04969996  1
  Se  Se140  1  0.58409269  0.24999174  0.55601095  1
  Se  Se141  1  0.57964135  0.57578026  0.04621413  1
  Se  Se142  1  0.58484091  0.57913392  0.55015399  1
  Se  Se143  1  0.59062150  0.92461125  0.06364871  1
  Se  Se144  1  0.58255385  0.91837441  0.56170363  1
  Se  Se145  1  0.92126009  0.26062782  0.05987653  1
  Se  Se146  1  0.92562379  0.25593020  0.56145284  1
  Se  Se147  1  0.91751371  0.58383562  0.06407868  1
  Se  Se148  1  0.93922533  0.59878239  0.54716083  1
  Se  Se149  1  0.91071098  0.90362902  0.05517568  1
  Se  Se150  1  0.91342458  0.91797958  0.54854753  1
  Se  Se151  1  0.07608805  0.24907593  0.44239818  1
  Se  Se152  1  0.08657936  0.24857521  0.95302725  1
  Se  Se153  1  0.10358823  0.55822225  0.44117891  1
  Se  Se154  1  0.07627682  0.58578000  0.94867274  1
  Se  Se155  1  0.08260215  0.91687551  0.43491528  1
  Se  Se156  1  0.09721925  0.91070720  0.95251701  1
  Se  Se157  1  0.42174434  0.24685537  0.45103446  1
  Se  Se158  1  0.42022551  0.24936207  0.94485647  1
  Se  Se159  1  0.42198173  0.57389090  0.45254696  1
  Se  Se160  1  0.41258027  0.58258703  0.94814733  1
  Se  Se161  1  0.41043411  0.92075157  0.43799304  1
  Se  Se162  1  0.41595441  0.92137753  0.93932041  1
  Se  Se163  1  0.74585839  0.25771476  0.44010632  1
  Se  Se164  1  0.75050294  0.25210851  0.93944495  1
  Se  Se165  1  0.75764303  0.58068933  0.44766103  1
  Se  Se166  1  0.73994691  0.58994085  0.93435983  1
  Se  Se167  1  0.75119126  0.92253725  0.45015615  1
  Se  Se168  1  0.75290023  0.91356130  0.94931111  1
  Se  Se169  1  0.25302613  0.07645109  0.43608370  1
  Se  Se170  1  0.25172786  0.08586262  0.94455752  1
  Se  Se171  1  0.25343558  0.40586716  0.44963972  1
  Se  Se172  1  0.24616040  0.41939259  0.94483490  1
  Se  Se173  1  0.25904235  0.74157505  0.44406535  1
  Se  Se174  1  0.25027291  0.75257451  0.95016436  1
  Se  Se175  1  0.57783262  0.08702408  0.45199386  1
  Se  Se176  1  0.58799027  0.08727705  0.94726425  1
  Se  Se177  1  0.58605047  0.41818140  0.44734863  1
  Se  Se178  1  0.58311911  0.41667744  0.94265916  1
  Se  Se179  1  0.59251824  0.74045807  0.43685661  1
  Se  Se180  1  0.58833354  0.74655609  0.94040219  1
  Se  Se181  1  0.92140127  0.08834133  0.44184580  1
  Se  Se182  1  0.93000315  0.06916787  0.94663442  1
  Se  Se183  1  0.91656710  0.41830734  0.44502820  1
  Se  Se184  1  0.91418233  0.40464153  0.93939508  1
  Se  Se185  1  0.91338876  0.76423926  0.44109122  1
  Se  Se186  1  0.91174932  0.74950834  0.95238046  1
  Se  Se187  1  0.23752993  0.23961528  0.30990965  1
  Se  Se188  1  0.25484075  0.25499218  0.80663398  1
  Se  Se189  1  0.23639485  0.57920563  0.31559781  1
  Se  Se190  1  0.24203074  0.57916655  0.81526376  1
  Se  Se191  1  0.24968239  0.91748502  0.29809871  1
  Se  Se192  1  0.25056698  0.92042604  0.80013682  1
  Se  Se193  1  0.57833025  0.25627016  0.30480034  1
  Se  Se194  1  0.58722080  0.24833501  0.80529694  1
  Se  Se195  1  0.57457302  0.57468529  0.30845262  1
  Se  Se196  1  0.57749956  0.57987211  0.80861456  1
  Se  Se197  1  0.58338917  0.91516895  0.31312401  1
  Se  Se198  1  0.58688429  0.92759449  0.80267571  1
  Se  Se199  1  0.91658795  0.25417195  0.30007409  1
  Se  Se200  1  0.92167914  0.23764879  0.80214961  1
  Se  Se201  1  0.91673575  0.58137363  0.30442725  1
  Se  Se202  1  0.91431523  0.57151442  0.80489446  1
  Se  Se203  1  0.92288666  0.93443888  0.29673419  1
  Se  Se204  1  0.91504320  0.90850632  0.81317291  1
  Se  Se205  1  0.08040651  0.08223610  0.29287577  1
  Se  Se206  1  0.09311320  0.08981058  0.81474592  1
  Se  Se207  1  0.07745197  0.41022050  0.30205062  1
  Se  Se208  1  0.08217800  0.40937112  0.80718071  1
  Se  Se209  1  0.08362069  0.74853552  0.30655654  1
  Se  Se210  1  0.08295675  0.75848226  0.81014099  1
  Se  Se211  1  0.41312771  0.08692822  0.30210477  1
  Se  Se212  1  0.41303304  0.08311755  0.80334233  1
  Se  Se213  1  0.41305021  0.42163639  0.31048603  1
  Se  Se214  1  0.41859543  0.41225990  0.80240803  1
  Se  Se215  1  0.42516363  0.75753962  0.30642133  1
  Se  Se216  1  0.42283793  0.76331170  0.80813988  1
  Se  Se217  1  0.75437418  0.09397602  0.31642730  1
  Se  Se218  1  0.75875710  0.08120864  0.80235830  1
  Se  Se219  1  0.74345135  0.41545296  0.30227252  1
  Se  Se220  1  0.74984338  0.41225658  0.79401382  1
  Se  Se221  1  0.76354862  0.75182109  0.30634588  1
  Se  Se222  1  0.75565863  0.75385300  0.81042286  1
  Se  Se223  1  0.25234487  0.07899733  0.19016978  1
  Se  Se224  1  0.24509941  0.08162839  0.69604295  1
  Se  Se225  1  0.23725174  0.42266477  0.18994130  1
  Se  Se226  1  0.25704605  0.41318012  0.70385385  1
  Se  Se227  1  0.24186868  0.75455753  0.18876501  1
  Se  Se228  1  0.23866884  0.75281611  0.69011237  1
  Se  Se229  1  0.57564479  0.09457940  0.19047812  1
  Se  Se230  1  0.57982844  0.08509710  0.69728477  1
  Se  Se231  1  0.58218193  0.41071058  0.19398290  1
  Se  Se232  1  0.58843753  0.41237122  0.69589200  1
  Se  Se233  1  0.58072306  0.75701380  0.18998470  1
  Se  Se234  1  0.57572701  0.76100277  0.69410949  1
  Se  Se235  1  0.91443089  0.09167184  0.19374488  1
  Se  Se236  1  0.90883717  0.09119073  0.68973900  1
  Se  Se237  1  0.91525767  0.41402292  0.19895724  1
  Se  Se238  1  0.92691144  0.41710581  0.69066426  1
  Se  Se239  1  0.92469714  0.74699675  0.20020903  1
  Se  Se240  1  0.90992905  0.76005457  0.68840436  1
  Se  Se241  1  0.08625041  0.25630763  0.19282551  1
  Se  Se242  1  0.08447633  0.25210693  0.70349188  1
  Se  Se243  1  0.07619743  0.58692935  0.20213416  1
  Se  Se244  1  0.09369452  0.57210814  0.69077343  1
  Se  Se245  1  0.08481524  0.91841634  0.19049575  1
  Se  Se246  1  0.07868970  0.91189711  0.68887939  1
  Se  Se247  1  0.41442739  0.24654461  0.18518315  1
  Se  Se248  1  0.41565323  0.25084011  0.69821170  1
  Se  Se249  1  0.41846633  0.57700618  0.19149112  1
  Se  Se250  1  0.42363515  0.57921272  0.69256702  1
  Se  Se251  1  0.41647828  0.92512805  0.20331936  1
  Se  Se252  1  0.41061594  0.92259801  0.69447956  1
  Se  Se253  1  0.74157086  0.25269201  0.20196720  1
  Se  Se254  1  0.75945814  0.24683331  0.70018471  1
  Se  Se255  1  0.75763129  0.57442149  0.18588539  1
  Se  Se256  1  0.76111989  0.57920895  0.68151221  1
  Se  Se257  1  0.76042702  0.90669221  0.20106203  1
  Se  Se258  1  0.74601811  0.92129875  0.69858244  1
