# generated using pymatgen
data_In86Cu29Se144
_symmetry_space_group_name_H-M   'P 1'
_cell_length_a   17.58658665
_cell_length_b   17.58099958
_cell_length_c   23.44512365
_cell_angle_alpha   89.96166409
_cell_angle_beta   89.98198366
_cell_angle_gamma   90.03425353
_symmetry_Int_Tables_number   1
_chemical_formula_structural   In86Cu29Se144
_chemical_formula_sum   'In86 Cu29 Se144'
_cell_volume   7248.98917101
_cell_formula_units_Z   1
loop_
 _symmetry_equiv_pos_site_id
 _symmetry_equiv_pos_as_xyz
  1  'x, y, z'
loop_
 _atom_site_type_symbol
 _atom_site_label
 _atom_site_symmetry_multiplicity
 _atom_site_fract_x
 _atom_site_fract_y
 _atom_site_fract_z
 _atom_site_occupancy
  In  In0  1  -0.00246963  0.16937789  0.12378964  1
  In  In1  1  -0.01114159  0.17692946  0.62958912  1
  In  In2  1  0.00761643  0.49280281  0.14370362  1
  In  In3  1  -0.01096053  0.49528133  0.62256519  1
  In  In4  1  -0.00974748  0.84817264  0.13425661  1
  In  In5  1  -0.00526854  0.84905866  0.62672074  1
  In  In6  1  0.32610415  0.15919244  0.11526736  1
  In  In7  1  0.34451742  0.17491493  0.63338904  1
  In  In8  1  0.33224206  0.49454130  0.12010312  1
  In  In9  1  0.34620234  0.49046016  0.64027879  1
  In  In10  1  0.35187431  0.84431927  0.11994991  1
  In  In11  1  0.33366430  0.82085915  0.62729727  1
  In  In12  1  0.65347835  0.15836340  0.10854790  1
  In  In13  1  0.67915317  0.15163216  0.63538142  1
  In  In14  1  0.66032354  0.50748486  0.12031275  1
  In  In15  1  0.66170902  0.49465187  0.62428344  1
  In  In16  1  0.66847280  0.83909370  0.12099465  1
  In  In17  1  0.67892842  0.85511430  0.60939194  1
  In  In18  1  0.16046723  0.00058910  0.35751504  1
  In  In19  1  0.16790064  0.01618698  0.88063116  1
  In  In20  1  0.15515082  0.33918065  0.37082488  1
  In  In21  1  0.15616500  0.32744324  0.86361859  1
  In  In22  1  0.16631876  0.67212744  0.36802992  1
  In  In23  1  0.17864155  0.65323598  0.87340207  1
  In  In24  1  0.49747755  -0.01460229  0.36007813  1
  In  In25  1  0.51062674  -0.00881319  0.88075254  1
  In  In26  1  0.50799966  0.33321408  0.37842886  1
  In  In27  1  0.50475112  0.33438110  0.88197319  1
  In  In28  1  0.50050433  0.66656038  0.37979555  1
  In  In29  1  0.48805752  0.67163960  0.88267429  1
  In  In30  1  0.82942720  -0.00245279  0.37254928  1
  In  In31  1  0.83257591  0.00164904  0.87572009  1
  In  In32  1  0.83388879  0.32228066  0.38459889  1
  In  In33  1  0.81662085  0.30837269  0.86418789  1
  In  In34  1  0.83276837  0.66811119  0.38219600  1
  In  In35  1  0.83948397  0.67414488  0.87928105  1
  In  In36  1  -0.01533601  0.15044433  0.35591760  1
  In  In37  1  -0.00119633  0.16298387  0.87615961  1
  In  In38  1  -0.01231069  0.48602214  0.36602507  1
  In  In39  1  0.01600676  0.48753092  0.87434249  1
  In  In40  1  -0.00967047  0.83159693  0.37025117  1
  In  In41  1  -0.01957857  0.83302648  0.87821221  1
  In  In42  1  0.34586512  0.16222794  0.36906524  1
  In  In43  1  0.32477377  0.17620339  0.88426735  1
  In  In44  1  0.33651243  0.50622903  0.37742682  1
  In  In45  1  0.33972139  0.51000346  0.86373759  1
  In  In46  1  0.33362040  0.83678842  0.37126857  1
  In  In47  1  0.34770943  0.83220822  0.87831683  1
  In  In48  1  0.67878859  0.16083595  0.37595352  1
  In  In49  1  0.67213293  0.16742725  0.88174598  1
  In  In50  1  0.66229596  0.50429178  0.38749491  1
  In  In51  1  0.66243048  0.47933991  0.87434874  1
  In  In52  1  0.65548481  0.85067157  0.38908448  1
  In  In53  1  0.65933069  0.84097500  0.87778522  1
  In  In54  1  0.15619902  0.02452340  0.13977059  1
  In  In55  1  0.15614712  -0.01405751  0.62503491  1
  In  In56  1  0.16183461  0.32187305  0.12466747  1
  In  In57  1  0.16617750  0.34178427  0.64058605  1
  In  In58  1  0.15870936  0.65541740  0.12867903  1
  In  In59  1  0.17487906  0.67624232  0.63038374  1
  In  In60  1  0.50135734  -0.00195609  0.12386899  1
  In  In61  1  0.51434325  0.00284426  0.62297392  1
  In  In62  1  0.50193719  0.33265821  0.10687263  1
  In  In63  1  0.49603647  0.33957683  0.63781649  1
  In  In64  1  0.49794992  0.67605897  0.10956123  1
  In  In65  1  0.50000911  0.66659923  0.62351720  1
  In  In66  1  0.83042402  0.00099599  0.12456843  1
  In  In67  1  0.82938359  0.00900616  0.62133867  1
  In  In68  1  0.84525716  0.33248509  0.12286695  1
  In  In69  1  0.82978789  0.32869852  0.62635540  1
  In  In70  1  0.83494810  0.67869589  0.12584645  1
  In  In71  1  0.83513149  0.66628774  0.61655890  1
  In  In72  1  0.17171299  0.49704084  0.00075963  1
  In  In73  1  0.16971275  0.84093026  0.00334781  1
  In  In74  1  0.83429667  0.49799302  -0.00208620  1
  In  In75  1  0.00575447  0.66055339  0.75186773  1
  In  In76  1  0.50974977  0.16540337  0.50280056  1
  In  In77  1  0.66506177  0.66678598  0.74107530  1
  In  In78  1  0.16591199  0.50199221  0.50181629  1
  In  In79  1  0.67106314  0.32664803  0.24949436  1
  In  In80  1  0.66823083  0.67368066  0.24402876  1
  In  In81  1  0.33102289  0.67116544  0.24950387  1
  In  In82  1  0.16506340  0.16893146  0.49441529  1
  In  In83  1  0.32686482  0.32605210  0.23802346  1
  In  In84  1  0.16469064  0.83253945  0.49075971  1
  In  In85  1  0.33415546  0.00557846  0.75641167  1
  Cu  Cu86  1  0.16658597  0.83504035  0.24582641  1
  Cu  Cu87  1  -0.01256499  0.32807185  0.49850194  1
  Cu  Cu88  1  0.00132840  0.66561631  0.49739983  1
  Cu  Cu89  1  -0.00550644  0.00221187  0.00681091  1
  Cu  Cu90  1  0.50339381  0.83569167  0.75314412  1
  Cu  Cu91  1  0.66441000  0.33677659  0.50669833  1
  Cu  Cu92  1  0.33681614  0.33843796  0.51224462  1
  Cu  Cu93  1  0.33786761  0.00609556  0.00316291  1
  Cu  Cu94  1  0.50611959  0.17180950  0.75715277  1
  Cu  Cu95  1  -0.00118737  0.32437633  -0.00476509  1
  Cu  Cu96  1  0.16257040  0.16115763  0.75297297  1
  Cu  Cu97  1  0.84091506  0.48641986  0.75055845  1
  Cu  Cu98  1  0.83706478  0.16149910  0.75203872  1
  Cu  Cu99  1  0.34654069  0.65791754  0.50465939  1
  Cu  Cu100  1  0.82965536  0.84145722  0.74747560  1
  Cu  Cu101  1  0.83477363  0.16335883  0.24778133  1
  Cu  Cu102  1  0.49613877  0.49795102  0.24855340  1
  Cu  Cu103  1  0.83602622  0.49916932  0.25886683  1
  Cu  Cu104  1  0.33902520  -0.00429821  0.49221217  1
  Cu  Cu105  1  0.67097200  -0.00362532  -0.00119671  1
  Cu  Cu106  1  0.16634957  0.83206421  0.75205477  1
  Cu  Cu107  1  0.50133451  0.15435381  0.24206008  1
  Cu  Cu108  1  0.50536563  0.50080090  0.75316700  1
  Cu  Cu109  1  0.33509511  0.33620410  -0.00379966  1
  Cu  Cu110  1  0.66808079  0.66843478  0.50321737  1
  Cu  Cu111  1  0.66147346  0.66818450  -0.00154255  1
  Cu  Cu112  1  -0.00586292  0.67045082  0.00665990  1
  Cu  Cu113  1  0.83511013  0.83597305  0.25120655  1
  Cu  Cu114  1  -0.01108749  0.00858337  0.49731893  1
  Se  Se115  1  0.08277063  0.08522493  0.05504082  1
  Se  Se116  1  0.07708307  0.07951700  0.55776168  1
  Se  Se117  1  0.07076694  0.41289598  0.05640244  1
  Se  Se118  1  0.07795709  0.40189016  0.55622981  1
  Se  Se119  1  0.07717817  0.75105137  0.06330833  1
  Se  Se120  1  0.07835505  0.74698813  0.55932942  1
  Se  Se121  1  0.42602741  0.08845229  0.05356492  1
  Se  Se122  1  0.40681093  0.07891023  0.55848255  1
  Se  Se123  1  0.41580219  0.42358102  0.04743145  1
  Se  Se124  1  0.42317387  0.42044863  0.56112386  1
  Se  Se125  1  0.41058148  0.75547998  0.04515957  1
  Se  Se126  1  0.42002535  0.75347421  0.55398617  1
  Se  Se127  1  0.75372499  0.08193653  0.05056988  1
  Se  Se128  1  0.73731001  0.07936316  0.55190416  1
  Se  Se129  1  0.74474311  0.41200643  0.06037929  1
  Se  Se130  1  0.75255069  0.41828761  0.55756691  1
  Se  Se131  1  0.74643924  0.74647749  0.05443770  1
  Se  Se132  1  0.75457619  0.75329041  0.55146660  1
  Se  Se133  1  0.25074101  0.25598293  0.05191425  1
  Se  Se134  1  0.25162666  0.25484046  0.56347268  1
  Se  Se135  1  0.25719891  0.59621469  0.05583131  1
  Se  Se136  1  0.25928100  0.58558836  0.56431555  1
  Se  Se137  1  0.25073378  0.93409873  0.06576919  1
  Se  Se138  1  0.25642803  0.91966314  0.55497023  1
  Se  Se139  1  0.59363624  0.25953680  0.04271888  1
  Se  Se140  1  0.58815927  0.25544167  0.56980856  1
  Se  Se141  1  0.57824763  0.58200484  0.04849520  1
  Se  Se142  1  0.58541580  0.58425400  0.55714439  1
  Se  Se143  1  0.58249222  0.91619995  0.05151189  1
  Se  Se144  1  0.57399531  0.91679165  0.54761980  1
  Se  Se145  1  0.91358836  0.24565417  0.04972856  1
  Se  Se146  1  0.90682672  0.24391406  0.55279229  1
  Se  Se147  1  0.92358894  0.58059329  0.06559906  1
  Se  Se148  1  0.91853917  0.58104414  0.55040647  1
  Se  Se149  1  0.91199240  0.91395983  0.05497364  1
  Se  Se150  1  0.91343451  0.92044451  0.55335390  1
  Se  Se151  1  0.06829177  0.25183281  0.43627352  1
  Se  Se152  1  0.08770756  0.24749374  0.94182545  1
  Se  Se153  1  0.07930465  0.58674932  0.43624504  1
  Se  Se154  1  0.07481733  0.59216300  0.94547374  1
  Se  Se155  1  0.07538381  0.93074926  0.43875539  1
  Se  Se156  1  0.07290335  0.92342711  0.94211076  1
  Se  Se157  1  0.40967670  0.25576466  0.44696236  1
  Se  Se158  1  0.42005660  0.24809373  0.94920239  1
  Se  Se159  1  0.42539013  0.57474386  0.44799668  1
  Se  Se160  1  0.41046402  0.57858146  0.94492090  1
  Se  Se161  1  0.42083661  0.91274347  0.44029038  1
  Se  Se162  1  0.41714840  0.91988191  0.94960407  1
  Se  Se163  1  0.74103221  0.24942907  0.45120518  1
  Se  Se164  1  0.75637097  0.24799872  0.95158706  1
  Se  Se165  1  0.75189710  0.58362532  0.45130393  1
  Se  Se166  1  0.74179698  0.58861786  0.93726298  1
  Se  Se167  1  0.76808364  0.90444049  0.44553097  1
  Se  Se168  1  0.75353984  0.91250364  0.94429736  1
  Se  Se169  1  0.25513953  0.07480084  0.43599083  1
  Se  Se170  1  0.24861877  0.08836507  0.95451049  1
  Se  Se171  1  0.25618476  0.40714038  0.44376361  1
  Se  Se172  1  0.25210296  0.41030747  0.93302077  1
  Se  Se173  1  0.26308900  0.73481021  0.44291092  1
  Se  Se174  1  0.25309976  0.74681961  0.94195040  1
  Se  Se175  1  0.58170202  0.07501191  0.43362157  1
  Se  Se176  1  0.58619404  0.08112973  0.94758502  1
  Se  Se177  1  0.57849210  0.41627575  0.45186152  1
  Se  Se178  1  0.58375001  0.41797369  0.95296259  1
  Se  Se179  1  0.58301823  0.74781873  0.44811565  1
  Se  Se180  1  0.58009812  0.75335240  0.94468193  1
  Se  Se181  1  0.91010121  0.08990160  0.43963373  1
  Se  Se182  1  0.91513036  0.08315864  0.94640483  1
  Se  Se183  1  0.91101775  0.41978672  0.44678178  1
  Se  Se184  1  0.91969174  0.40692658  0.93536062  1
  Se  Se185  1  0.91947974  0.75383195  0.44775708  1
  Se  Se186  1  0.90963531  0.75391253  0.95587738  1
  Se  Se187  1  0.24624367  0.24551195  0.31132300  1
  Se  Se188  1  0.25015813  0.24299598  0.80323891  1
  Se  Se189  1  0.24348163  0.57156442  0.30474800  1
  Se  Se190  1  0.24327619  0.57605564  0.79583103  1
  Se  Se191  1  0.25277945  0.91436728  0.30000010  1
  Se  Se192  1  0.24413711  0.91235358  0.81563257  1
  Se  Se193  1  0.57417185  0.23672629  0.30676640  1
  Se  Se194  1  0.58914666  0.25237155  0.81249407  1
  Se  Se195  1  0.58037624  0.57694815  0.30576714  1
  Se  Se196  1  0.58363167  0.58447620  0.81294397  1
  Se  Se197  1  0.59694882  0.91215488  0.30030439  1
  Se  Se198  1  0.58779052  0.92153091  0.80124998  1
  Se  Se199  1  0.90753759  0.25567680  0.30262804  1
  Se  Se200  1  0.92245847  0.24700291  0.80264320  1
  Se  Se201  1  0.91359672  0.59006982  0.30896852  1
  Se  Se202  1  0.91111579  0.57317391  0.81263059  1
  Se  Se203  1  0.91936636  0.92307275  0.30151389  1
  Se  Se204  1  0.91541738  0.91892545  0.80347184  1
  Se  Se205  1  0.09252157  0.09738096  0.29442589  1
  Se  Se206  1  0.08014286  0.07727652  0.80524476  1
  Se  Se207  1  0.08360198  0.42114357  0.29905020  1
  Se  Se208  1  0.08563175  0.41905443  0.79475045  1
  Se  Se209  1  0.08382392  0.75597379  0.30328214  1
  Se  Se210  1  0.08759297  0.75486594  0.81663992  1
  Se  Se211  1  0.41523348  0.07662264  0.29699102  1
  Se  Se212  1  0.42391177  0.09145097  0.81774605  1
  Se  Se213  1  0.41809524  0.41423625  0.30647819  1
  Se  Se214  1  0.42517447  0.41526668  0.80787477  1
  Se  Se215  1  0.42916348  0.75533872  0.30532832  1
  Se  Se216  1  0.41931990  0.75101077  0.80283347  1
  Se  Se217  1  0.74922983  0.08095667  0.30029302  1
  Se  Se218  1  0.74920473  0.08432695  0.80742474  1
  Se  Se219  1  0.74866559  0.42211410  0.31497554  1
  Se  Se220  1  0.74937512  0.41099205  0.80157980  1
  Se  Se221  1  0.75213955  0.75725113  0.31131633  1
  Se  Se222  1  0.75471250  0.75406956  0.80593573  1
  Se  Se223  1  0.25870159  0.09416066  0.19904101  1
  Se  Se224  1  0.24166169  0.08502501  0.68754149  1
  Se  Se225  1  0.23642611  0.42676722  0.18934707  1
  Se  Se226  1  0.25790842  0.41371678  0.70530660  1
  Se  Se227  1  0.24589336  0.75881826  0.18353323  1
  Se  Se228  1  0.25500161  0.75006686  0.70478913  1
  Se  Se229  1  0.59262210  0.07969388  0.19025527  1
  Se  Se230  1  0.57978017  0.08332011  0.70109514  1
  Se  Se231  1  0.57751393  0.41704161  0.19029133  1
  Se  Se232  1  0.59051649  0.41695180  0.70211471  1
  Se  Se233  1  0.57151984  0.75740036  0.18754303  1
  Se  Se234  1  0.58357897  0.76648486  0.68499931  1
  Se  Se235  1  0.91727611  0.08135998  0.19247205  1
  Se  Se236  1  0.91807969  0.07959558  0.69421571  1
  Se  Se237  1  0.91132433  0.41195332  0.20211173  1
  Se  Se238  1  0.92230864  0.40619024  0.69461918  1
  Se  Se239  1  0.91816143  0.74994515  0.19953527  1
  Se  Se240  1  0.91175825  0.75298874  0.69359994  1
  Se  Se241  1  0.07276828  0.25589745  0.19477050  1
  Se  Se242  1  0.08310849  0.24637375  0.69732505  1
  Se  Se243  1  0.07670932  0.59201031  0.20488106  1
  Se  Se244  1  0.09002565  0.57512747  0.68537082  1
  Se  Se245  1  0.08181278  0.92378170  0.19956325  1
  Se  Se246  1  0.08003677  0.91509057  0.70293483  1
  Se  Se247  1  0.42988869  0.24518565  0.18379711  1
  Se  Se248  1  0.41712015  0.25367575  0.70780782  1
  Se  Se249  1  0.42178985  0.58072198  0.18773455  1
  Se  Se250  1  0.42531077  0.58824047  0.69957830  1
  Se  Se251  1  0.41963217  0.92075803  0.19694053  1
  Se  Se252  1  0.41925221  0.91568004  0.69199614  1
  Se  Se253  1  0.75412981  0.23976098  0.18438330  1
  Se  Se254  1  0.75201209  0.24697675  0.69981569  1
  Se  Se255  1  0.75948452  0.57363184  0.19177877  1
  Se  Se256  1  0.76504029  0.57429113  0.69221847  1
  Se  Se257  1  0.75078219  0.91398742  0.19433969  1
  Se  Se258  1  0.74812622  0.92316692  0.69240672  1
