# generated using pymatgen
data_In86Cu29Se144
_symmetry_space_group_name_H-M   'P 1'
_cell_length_a   17.61111957
_cell_length_b   17.61644685
_cell_length_c   23.48035836
_cell_angle_alpha   90.01856168
_cell_angle_beta   90.05738790
_cell_angle_gamma   89.96864760
_symmetry_Int_Tables_number   1
_chemical_formula_structural   In86Cu29Se144
_chemical_formula_sum   'In86 Cu29 Se144'
_cell_volume   7284.66691605
_cell_formula_units_Z   1
loop_
 _symmetry_equiv_pos_site_id
 _symmetry_equiv_pos_as_xyz
  1  'x, y, z'
loop_
 _atom_site_type_symbol
 _atom_site_label
 _atom_site_symmetry_multiplicity
 _atom_site_fract_x
 _atom_site_fract_y
 _atom_site_fract_z
 _atom_site_occupancy
  In  In0  1  -0.02658670  0.19050809  0.14115285  1
  In  In1  1  -0.00975317  0.16245922  0.61675836  1
  In  In2  1  -0.01014286  0.49504144  0.12647228  1
  In  In3  1  0.00538630  0.50330060  0.62612969  1
  In  In4  1  -0.00763172  0.83492904  0.13054934  1
  In  In5  1  -0.00911636  0.83844492  0.63797259  1
  In  In6  1  0.33745950  0.15673920  0.11995469  1
  In  In7  1  0.33793809  0.18068825  0.62334822  1
  In  In8  1  0.34693824  0.50039397  0.12695600  1
  In  In9  1  0.31350247  0.49853201  0.62590514  1
  In  In10  1  0.31962140  0.83463295  0.13029951  1
  In  In11  1  0.34032820  0.82093933  0.61900564  1
  In  In12  1  0.67235433  0.16660262  0.12162372  1
  In  In13  1  0.67218296  0.16383099  0.63169390  1
  In  In14  1  0.66647239  0.50138290  0.11817187  1
  In  In15  1  0.68348697  0.49110151  0.64163520  1
  In  In16  1  0.68834546  0.82418838  0.12051161  1
  In  In17  1  0.67016074  0.83581452  0.63205527  1
  In  In18  1  0.16792057  0.01412075  0.38209800  1
  In  In19  1  0.13794625  0.00171704  0.87316702  1
  In  In20  1  0.15375198  0.34490151  0.38693858  1
  In  In21  1  0.16709219  0.32362994  0.87147724  1
  In  In22  1  0.15063701  0.65201253  0.36865920  1
  In  In23  1  0.15741071  0.67137881  0.87027642  1
  In  In24  1  0.50084742  -0.00688112  0.37393261  1
  In  In25  1  0.52888551  -0.00911335  0.87633095  1
  In  In26  1  0.51103225  0.32428065  0.37084981  1
  In  In27  1  0.50418700  0.33200735  0.87448989  1
  In  In28  1  0.50397682  0.68307535  0.37399652  1
  In  In29  1  0.51344723  0.65013818  0.88521254  1
  In  In30  1  0.84178862  0.00939973  0.36575177  1
  In  In31  1  0.84089677  0.00470571  0.87674860  1
  In  In32  1  0.83265760  0.33414797  0.37401036  1
  In  In33  1  0.82112288  0.35970567  0.89417438  1
  In  In34  1  0.83918008  0.65028652  0.37811737  1
  In  In35  1  0.83078560  0.64927579  0.86919082  1
  In  In36  1  -0.00409332  0.16719115  0.37714542  1
  In  In37  1  -0.00606832  0.16227259  0.87759999  1
  In  In38  1  -0.00619516  0.49982660  0.37551426  1
  In  In39  1  -0.01461975  0.50460524  0.87704578  1
  In  In40  1  -0.00661426  0.82751693  0.36684806  1
  In  In41  1  -0.05362863  0.80788439  0.82870730  1
  In  In42  1  0.32639039  0.15261232  0.38119676  1
  In  In43  1  0.33406320  0.17979816  0.87262945  1
  In  In44  1  0.31586552  0.49313402  0.37362794  1
  In  In45  1  0.34921181  0.50466333  0.87639168  1
  In  In46  1  0.34742422  0.83684200  0.37796899  1
  In  In47  1  0.33050813  0.82575238  0.87098588  1
  In  In48  1  0.67879299  0.17967437  0.36435656  1
  In  In49  1  0.67535349  0.17056259  0.87678243  1
  In  In50  1  0.68927636  0.50113583  0.37409791  1
  In  In51  1  0.66688108  0.49103520  0.87097607  1
  In  In52  1  0.65508261  0.83594384  0.37523482  1
  In  In53  1  0.70809666  0.84410634  0.84314212  1
  In  In54  1  0.16084202  -0.00738613  0.12861757  1
  In  In55  1  0.15220240  -0.00131655  0.61797711  1
  In  In56  1  0.16054441  0.32404851  0.13038629  1
  In  In57  1  0.17037189  0.34421821  0.62030346  1
  In  In58  1  0.15653754  0.66876675  0.13416529  1
  In  In59  1  0.15595676  0.65131885  0.62491849  1
  In  In60  1  0.50825418  0.01646987  0.11553310  1
  In  In61  1  0.51894262  -0.00135390  0.62608400  1
  In  In62  1  0.51622592  0.34245950  0.11867850  1
  In  In63  1  0.50440099  0.32612886  0.63510206  1
  In  In64  1  0.50548032  0.65482480  0.12526022  1
  In  In65  1  0.49967040  0.67562861  0.61791275  1
  In  In66  1  0.83308242  0.00155407  0.12579696  1
  In  In67  1  0.81915771  0.00702261  0.63790955  1
  In  In68  1  0.83607899  0.33036670  0.12044622  1
  In  In69  1  0.83151414  0.32911844  0.62223937  1
  In  In70  1  0.84341688  0.66042476  0.11067634  1
  In  In71  1  0.85160542  0.65339109  0.64983941  1
  In  In72  1  0.50835038  0.82416011  -0.00435747  1
  In  In73  1  0.49692029  0.50321540  0.50234745  1
  In  In74  1  0.16117375  0.49965828  -0.00447679  1
  In  In75  1  0.16934861  0.83305729  0.50066940  1
  In  In76  1  0.82630790  0.83408570  0.50963561  1
  In  In77  1  0.33101235  -0.00202413  0.25597069  1
  In  In78  1  0.33531589  0.00979133  0.74718798  1
  In  In79  1  0.33268082  0.33139582  0.25518167  1
  In  In80  1  0.67433882  0.66696010  0.24624290  1
  In  In81  1  -0.00439382  0.33898180  0.75514263  1
  In  In82  1  0.15683982  0.83662117  0.00750698  1
  In  In83  1  0.33415168  0.66170562  0.74638095  1
  In  In84  1  0.49924054  0.16188011  0.49639774  1
  In  In85  1  0.16113843  0.16533882  -0.00065072  1
  Cu  Cu86  1  0.66929047  -0.00056525  0.50407960  1
  Cu  Cu87  1  0.50773257  0.16498180  0.75425978  1
  Cu  Cu88  1  -0.00513780  0.00548448  0.49724353  1
  Cu  Cu89  1  0.83216133  0.16547757  0.24811308  1
  Cu  Cu90  1  0.67785844  -0.00172750  -0.00624636  1
  Cu  Cu91  1  0.32730209  0.33534796  0.50271725  1
  Cu  Cu92  1  0.15653281  0.16612370  0.25801608  1
  Cu  Cu93  1  0.16151667  0.82693696  0.25119012  1
  Cu  Cu94  1  -0.00553284  0.33088296  0.49959386  1
  Cu  Cu95  1  0.66382469  0.33011049  -0.00083862  1
  Cu  Cu96  1  0.34598417  0.33576069  -0.00101241  1
  Cu  Cu97  1  0.49756908  0.49072628  0.75081508  1
  Cu  Cu98  1  0.16031895  0.50191479  0.25260810  1
  Cu  Cu99  1  0.50358260  0.50609851  0.24526239  1
  Cu  Cu100  1  0.67242396  0.66541500  0.50159318  1
  Cu  Cu101  1  0.83171245  0.17355800  0.75268294  1
  Cu  Cu102  1  0.83039086  0.83179014  0.24457842  1
  Cu  Cu103  1  0.67343553  0.66830689  -0.00655277  1
  Cu  Cu104  1  0.49856444  0.83919070  0.24976578  1
  Cu  Cu105  1  0.33126115  0.66581097  0.49786402  1
  Cu  Cu106  1  0.67277616  0.33591617  0.50036493  1
  Cu  Cu107  1  0.33218625  0.66345290  0.00463159  1
  Cu  Cu108  1  0.16540231  0.84118248  0.74711450  1
  Cu  Cu109  1  0.50393620  0.82945595  0.75092711  1
  Cu  Cu110  1  -0.00131403  0.66158509  0.50443049  1
  Cu  Cu111  1  0.16404457  0.17634624  0.74557163  1
  Cu  Cu112  1  0.34061376  0.00805327  -0.00930118  1
  Cu  Cu113  1  0.50836264  0.17176656  0.24206445  1
  Cu  Cu114  1  -0.00665398  0.00012752  0.00475612  1
  Se  Se115  1  0.07544892  0.07950058  0.06426774  1
  Se  Se116  1  0.08172980  0.08759699  0.54821598  1
  Se  Se117  1  0.08198581  0.40597887  0.05841090  1
  Se  Se118  1  0.07661713  0.41631138  0.55378635  1
  Se  Se119  1  0.06897616  0.73898175  0.05958864  1
  Se  Se120  1  0.07196891  0.75140345  0.56298368  1
  Se  Se121  1  0.42173510  0.09014296  0.04445592  1
  Se  Se122  1  0.41720383  0.07679270  0.56466653  1
  Se  Se123  1  0.42333310  0.42152195  0.05436276  1
  Se  Se124  1  0.41394519  0.40769317  0.56330358  1
  Se  Se125  1  0.40965138  0.74971624  0.06225895  1
  Se  Se126  1  0.41981770  0.75037167  0.54287716  1
  Se  Se127  1  0.75386930  0.08176438  0.05292097  1
  Se  Se128  1  0.74955331  0.08372139  0.55821028  1
  Se  Se129  1  0.74652798  0.41200531  0.05410213  1
  Se  Se130  1  0.74908498  0.42059129  0.55763807  1
  Se  Se131  1  0.76104015  0.74847587  0.04471738  1
  Se  Se132  1  0.75175309  0.73466150  0.56991188  1
  Se  Se133  1  0.25931650  0.25769386  0.05665383  1
  Se  Se134  1  0.24604009  0.24965822  0.55445913  1
  Se  Se135  1  0.24982743  0.58602255  0.06347570  1
  Se  Se136  1  0.24698895  0.58639362  0.55222740  1
  Se  Se137  1  0.26059819  0.93164335  0.05385018  1
  Se  Se138  1  0.25922893  0.92180166  0.56059400  1
  Se  Se139  1  0.58226945  0.24479043  0.05303122  1
  Se  Se140  1  0.58833297  0.25427985  0.55652641  1
  Se  Se141  1  0.58736646  0.58928248  0.04895478  1
  Se  Se142  1  0.59427637  0.58229934  0.56275426  1
  Se  Se143  1  0.59521248  0.91895288  0.05528150  1
  Se  Se144  1  0.58997323  0.91085812  0.55492255  1
  Se  Se145  1  0.91508912  0.24350923  0.05088318  1
  Se  Se146  1  0.90849472  0.24752971  0.54991700  1
  Se  Se147  1  0.91143263  0.56008747  0.04582739  1
  Se  Se148  1  0.91388877  0.58728383  0.56322609  1
  Se  Se149  1  0.91315179  0.91312515  0.05770356  1
  Se  Se150  1  0.91960834  0.92785363  0.56294522  1
  Se  Se151  1  0.08037557  0.24704563  0.44811038  1
  Se  Se152  1  0.07254165  0.26089164  0.94408100  1
  Se  Se153  1  0.07913704  0.57980718  0.44805973  1
  Se  Se154  1  0.07364977  0.59800522  0.94388195  1
  Se  Se155  1  0.07122388  0.91695307  0.44110521  1
  Se  Se156  1  0.06506912  0.91515749  0.94342742  1
  Se  Se157  1  0.40819118  0.25987006  0.43974978  1
  Se  Se158  1  0.42153866  0.24729513  0.94493121  1
  Se  Se159  1  0.41069146  0.58765442  0.43463233  1
  Se  Se160  1  0.41930149  0.58289953  0.95410708  1
  Se  Se161  1  0.41247401  0.92971744  0.44621255  1
  Se  Se162  1  0.41472645  0.91787951  0.93609741  1
  Se  Se163  1  0.75017604  0.25006594  0.44495217  1
  Se  Se164  1  0.75470085  0.25052528  0.94981595  1
  Se  Se165  1  0.75647675  0.57993923  0.45266713  1
  Se  Se166  1  0.74722798  0.57463842  0.94241532  1
  Se  Se167  1  0.74804829  0.92236484  0.43960760  1
  Se  Se168  1  0.75260946  0.91284209  0.93566386  1
  Se  Se169  1  0.25230930  0.07892720  0.45628800  1
  Se  Se170  1  0.24895188  0.07693545  0.93277473  1
  Se  Se171  1  0.24471287  0.42270495  0.45346390  1
  Se  Se172  1  0.25894264  0.40951511  0.94001236  1
  Se  Se173  1  0.25011077  0.74256559  0.43451144  1
  Se  Se174  1  0.25239873  0.74475377  0.94636385  1
  Se  Se175  1  0.59642168  0.07994885  0.43723203  1
  Se  Se176  1  0.59175635  0.08434978  0.94590631  1
  Se  Se177  1  0.58850747  0.41392677  0.44161268  1
  Se  Se178  1  0.58258130  0.41593540  0.94502377  1
  Se  Se179  1  0.58848566  0.74913751  0.44998761  1
  Se  Se180  1  0.60401670  0.75417124  0.92963419  1
  Se  Se181  1  0.90821606  0.08625774  0.44576613  1
  Se  Se182  1  0.91420342  0.08852103  0.95252836  1
  Se  Se183  1  0.91374855  0.41611668  0.44525330  1
  Se  Se184  1  0.91526267  0.43481679  0.95890265  1
  Se  Se185  1  0.91977707  0.74669902  0.44730002  1
  Se  Se186  1  0.90871794  0.75193319  0.92525623  1
  Se  Se187  1  0.24178038  0.24429228  0.31637960  1
  Se  Se188  1  0.25236515  0.25260980  0.79835420  1
  Se  Se189  1  0.24926788  0.58293445  0.30221905  1
  Se  Se190  1  0.24670388  0.57715517  0.81085986  1
  Se  Se191  1  0.23877451  0.90796291  0.31419041  1
  Se  Se192  1  0.24499472  0.91806952  0.80907579  1
  Se  Se193  1  0.59053861  0.25659785  0.29447290  1
  Se  Se194  1  0.58947859  0.25021791  0.80695746  1
  Se  Se195  1  0.58286330  0.58170199  0.31153829  1
  Se  Se196  1  0.57772595  0.57517038  0.80466783  1
  Se  Se197  1  0.58478746  0.92050084  0.30077906  1
  Se  Se198  1  0.59246526  0.91459873  0.79649231  1
  Se  Se199  1  0.91382762  0.24641226  0.30624088  1
  Se  Se200  1  0.90480033  0.25413482  0.81737118  1
  Se  Se201  1  0.92220998  0.58758333  0.30345613  1
  Se  Se202  1  0.92440612  0.58333604  0.79777576  1
  Se  Se203  1  0.91380300  0.91389473  0.30033215  1
  Se  Se204  1  0.94699250  0.95126251  0.80980522  1
  Se  Se205  1  0.07831454  0.07800873  0.30948346  1
  Se  Se206  1  0.08096742  0.09735039  0.80134885  1
  Se  Se207  1  0.08183976  0.41646288  0.30774589  1
  Se  Se208  1  0.08898169  0.42607787  0.81452242  1
  Se  Se209  1  0.07595905  0.74271194  0.30127060  1
  Se  Se210  1  0.08474231  0.75816485  0.80119061  1
  Se  Se211  1  0.42626146  0.09673090  0.30546988  1
  Se  Se212  1  0.42936027  0.08318555  0.81526023  1
  Se  Se213  1  0.42713984  0.42593077  0.31023719  1
  Se  Se214  1  0.41415360  0.41190038  0.80633210  1
  Se  Se215  1  0.41692135  0.75436552  0.30167221  1
  Se  Se216  1  0.42798916  0.74613889  0.81031118  1
  Se  Se217  1  0.74669895  0.08072021  0.29950416  1
  Se  Se218  1  0.75405121  0.08491097  0.80697686  1
  Se  Se219  1  0.74820931  0.41121696  0.30265742  1
  Se  Se220  1  0.75787975  0.41329407  0.80531437  1
  Se  Se221  1  0.75736420  0.75555368  0.31405672  1
  Se  Se222  1  0.73050616  0.71328045  0.79772056  1
  Se  Se223  1  0.24136965  0.09253333  0.19540959  1
  Se  Se224  1  0.24025486  0.09194028  0.68559385  1
  Se  Se225  1  0.24475922  0.42310346  0.19256538  1
  Se  Se226  1  0.24993001  0.41129882  0.69811008  1
  Se  Se227  1  0.24863209  0.74663338  0.19957967  1
  Se  Se228  1  0.24189523  0.75568483  0.68880277  1
  Se  Se229  1  0.58843321  0.08266503  0.19241756  1
  Se  Se230  1  0.58904224  0.08061308  0.70026835  1
  Se  Se231  1  0.58734203  0.42373909  0.19380301  1
  Se  Se232  1  0.58719992  0.41076414  0.70040046  1
  Se  Se233  1  0.57944267  0.75909672  0.18814316  1
  Se  Se234  1  0.58034635  0.74719146  0.69219354  1
  Se  Se235  1  0.91766437  0.07828538  0.19884874  1
  Se  Se236  1  0.91333884  0.09239175  0.69546531  1
  Se  Se237  1  0.93074857  0.39349551  0.19218346  1
  Se  Se238  1  0.90799900  0.42354222  0.69098410  1
  Se  Se239  1  0.90776212  0.74358198  0.19077941  1
  Se  Se240  1  0.90999635  0.76255282  0.70949788  1
  Se  Se241  1  0.07927417  0.25300828  0.20419860  1
  Se  Se242  1  0.07866535  0.25185465  0.68619286  1
  Se  Se243  1  0.07513927  0.57750145  0.19503039  1
  Se  Se244  1  0.07661502  0.58646514  0.70119129  1
  Se  Se245  1  0.08127132  0.91382620  0.19874555  1
  Se  Se246  1  0.08164033  0.92557794  0.69660435  1
  Se  Se247  1  0.41966786  0.24854102  0.18666653  1
  Se  Se248  1  0.41924736  0.24426687  0.70216501  1
  Se  Se249  1  0.41583732  0.58987754  0.19895726  1
  Se  Se250  1  0.42460739  0.57223276  0.68487657  1
  Se  Se251  1  0.42251911  0.91969821  0.18593408  1
  Se  Se252  1  0.42085747  0.90845973  0.69185328  1
  Se  Se253  1  0.75179702  0.24909871  0.19204087  1
  Se  Se254  1  0.74941314  0.25505476  0.69670665  1
  Se  Se255  1  0.76101555  0.57751632  0.18674626  1
  Se  Se256  1  0.73449238  0.60121414  0.70411419  1
  Se  Se257  1  0.74725421  0.91655451  0.19371553  1
  Se  Se258  1  0.75968907  0.90506622  0.70273583  1
