# generated using pymatgen
data_In86Cu29Se144
_symmetry_space_group_name_H-M   'P 1'
_cell_length_a   17.66776336
_cell_length_b   17.68105649
_cell_length_c   23.54612061
_cell_angle_alpha   90.03893707
_cell_angle_beta   89.99389935
_cell_angle_gamma   89.97424471
_symmetry_Int_Tables_number   1
_chemical_formula_structural   In86Cu29Se144
_chemical_formula_sum   'In86 Cu29 Se144'
_cell_volume   7355.44586049
_cell_formula_units_Z   1
loop_
 _symmetry_equiv_pos_site_id
 _symmetry_equiv_pos_as_xyz
  1  'x, y, z'
loop_
 _atom_site_type_symbol
 _atom_site_label
 _atom_site_symmetry_multiplicity
 _atom_site_fract_x
 _atom_site_fract_y
 _atom_site_fract_z
 _atom_site_occupancy
  In  In0  1  0.01837957  0.15598874  0.13639339  1
  In  In1  1  0.01517822  0.15912401  0.62293555  1
  In  In2  1  0.00471959  0.50069263  0.13777839  1
  In  In3  1  0.02383294  0.51366803  0.60955483  1
  In  In4  1  0.00806050  0.82581823  0.13184224  1
  In  In5  1  0.02151271  0.81846760  0.62529721  1
  In  In6  1  0.33325165  0.16242760  0.13031153  1
  In  In7  1  0.31553679  0.18244346  0.63496360  1
  In  In8  1  0.33905662  0.49018397  0.12372251  1
  In  In9  1  0.34084715  0.50602935  0.62866230  1
  In  In10  1  0.34407422  0.84134442  0.11552881  1
  In  In11  1  0.33088954  0.83163891  0.62548055  1
  In  In12  1  0.64203445  0.15861416  0.12707294  1
  In  In13  1  0.65678878  0.16825602  0.62980898  1
  In  In14  1  0.65446289  0.51134585  0.12800497  1
  In  In15  1  0.66076680  0.51948962  0.62947965  1
  In  In16  1  0.65323899  0.83986604  0.13567891  1
  In  In17  1  0.65234869  0.82855371  0.62389465  1
  In  In18  1  0.17388723  0.00171798  0.37179688  1
  In  In19  1  0.17675233  -0.00373943  0.88170369  1
  In  In20  1  0.16820910  0.32942804  0.37637803  1
  In  In21  1  0.16770882  0.32088653  0.87916454  1
  In  In22  1  0.16249693  0.68233350  0.40104554  1
  In  In23  1  0.17993470  0.67307649  0.85781081  1
  In  In24  1  0.47536265  -0.01524565  0.35340972  1
  In  In25  1  0.48023839  0.01548477  0.89033341  1
  In  In26  1  0.48821301  0.34162994  0.37760392  1
  In  In27  1  0.48227850  0.34411075  0.88561274  1
  In  In28  1  0.49834159  0.66283241  0.37849955  1
  In  In29  1  0.49415487  0.66722760  0.87043238  1
  In  In30  1  0.83697548  -0.00482165  0.35814083  1
  In  In31  1  0.81910158  0.00099101  0.88073341  1
  In  In32  1  0.83278677  0.32682932  0.37033058  1
  In  In33  1  0.84110689  0.33826478  0.88140514  1
  In  In34  1  0.83547815  0.67187582  0.36980272  1
  In  In35  1  0.83563096  0.67212317  0.86293945  1
  In  In36  1  0.01086719  0.17397397  0.36038932  1
  In  In37  1  0.00474871  0.17917425  0.88311456  1
  In  In38  1  0.02024267  0.51660752  0.37181532  1
  In  In39  1  -0.00032253  0.50649179  0.87217657  1
  In  In40  1  0.00927897  0.83243355  0.36886782  1
  In  In41  1  0.01566256  0.83485364  0.87318331  1
  In  In42  1  0.32962103  0.15800641  0.36833141  1
  In  In43  1  0.33472019  0.16430042  0.87393981  1
  In  In44  1  0.33085851  0.50065282  0.38710154  1
  In  In45  1  0.33134905  0.50448097  0.86600581  1
  In  In46  1  0.32245052  0.84493354  0.40010686  1
  In  In47  1  0.33023315  0.83287593  0.87320218  1
  In  In48  1  0.66765662  0.16381693  0.36436558  1
  In  In49  1  0.64138637  0.15920261  0.87870741  1
  In  In50  1  0.64608082  0.50348108  0.37819909  1
  In  In51  1  0.65253425  0.50803706  0.87569127  1
  In  In52  1  0.65981856  0.82725373  0.36596654  1
  In  In53  1  0.66231959  0.82413294  0.87454334  1
  In  In54  1  0.17143023  -0.00370543  0.12781311  1
  In  In55  1  0.19587722  0.01515394  0.59909534  1
  In  In56  1  0.19568264  0.31564500  0.14314992  1
  In  In57  1  0.21013165  0.38038080  0.57118282  1
  In  In58  1  0.15904507  0.67194378  0.12747708  1
  In  In59  1  0.16950777  0.66450539  0.62573627  1
  In  In60  1  0.49823052  -0.00365898  0.13203425  1
  In  In61  1  0.48608626  -0.02632222  0.61619623  1
  In  In62  1  0.45778896  0.30613647  0.09533716  1
  In  In63  1  0.48046992  0.32764796  0.62341894  1
  In  In64  1  0.50077565  0.67516728  0.11612752  1
  In  In65  1  0.49880292  0.67354951  0.62834968  1
  In  In66  1  0.83250366  -0.00143794  0.13319057  1
  In  In67  1  0.84167370  0.00060337  0.62311995  1
  In  In68  1  0.83714612  0.34275574  0.13004860  1
  In  In69  1  0.84169485  0.33594559  0.62131583  1
  In  In70  1  0.83386718  0.66377627  0.13218504  1
  In  In71  1  0.83726339  0.66900686  0.63270061  1
  In  In72  1  0.83243338  0.49475719  0.50125678  1
  In  In73  1  0.66076948  0.34113384  0.76077895  1
  In  In74  1  0.82705658  0.15886436  0.47902809  1
  In  In75  1  0.84056998  0.83523424  0.49963643  1
  In  In76  1  0.33032549  0.66823843  0.26202967  1
  In  In77  1  0.00461932  -0.00510461  0.74761026  1
  In  In78  1  0.66064683  0.34068096  0.23852137  1
  In  In79  1  0.01386910  0.34140300  0.73558413  1
  In  In80  1  0.65792308  -0.00259524  0.75893246  1
  In  In81  1  0.48821985  0.15324346  0.48555029  1
  In  In82  1  0.83412952  0.50052446  0.00651937  1
  In  In83  1  0.83015244  0.83387402  0.00239514  1
  In  In84  1  0.17149925  0.49953256  0.00257274  1
  In  In85  1  0.83112697  0.16888042  0.01008234  1
  Cu  Cu86  1  0.64948381  0.33976822  0.50315716  1
  Cu  Cu87  1  0.66400073  0.66770117  -0.00118118  1
  Cu  Cu88  1  0.01002720  0.67417402  -0.00018388  1
  Cu  Cu89  1  0.83682090  0.82470347  0.24800865  1
  Cu  Cu90  1  0.17068307  0.49511617  0.73573984  1
  Cu  Cu91  1  0.49483897  0.50613304  0.25467200  1
  Cu  Cu92  1  0.49731025  0.82660839  0.24470761  1
  Cu  Cu93  1  0.48751192  0.15728863  0.74820712  1
  Cu  Cu94  1  0.83573901  0.49908660  0.25539085  1
  Cu  Cu95  1  0.17319757  0.83164923  0.25715906  1
  Cu  Cu96  1  -0.00471797  0.32031003  0.49561754  1
  Cu  Cu97  1  0.83316074  0.17834740  0.75331596  1
  Cu  Cu98  1  0.16941470  0.83344279  0.74572793  1
  Cu  Cu99  1  0.01634591  0.33150390  0.01169831  1
  Cu  Cu100  1  0.01191672  -0.00336921  0.49148375  1
  Cu  Cu101  1  0.17338184  0.15710512  0.75338645  1
  Cu  Cu102  1  0.66089261  0.66817369  0.49849364  1
  Cu  Cu103  1  0.49292545  0.82884867  0.74909277  1
  Cu  Cu104  1  0.66291409  0.32817083  -0.00285301  1
  Cu  Cu105  1  0.83635626  0.16358441  0.24606063  1
  Cu  Cu106  1  0.00516279  0.00303986  0.00327897  1
  Cu  Cu107  1  0.32669260  0.00067530  0.00393869  1
  Cu  Cu108  1  0.67398832  0.00084005  0.49705358  1
  Cu  Cu109  1  0.16684168  0.50077820  0.25416531  1
  Cu  Cu110  1  0.16752921  0.16390285  0.25099299  1
  Cu  Cu111  1  0.33092915  0.66683873  -0.00966319  1
  Cu  Cu112  1  0.83729672  0.50821027  0.75034163  1
  Cu  Cu113  1  0.49616546  0.50062586  0.74997794  1
  Cu  Cu114  1  0.83069718  0.84038612  0.74895804  1
  Se  Se115  1  0.08922018  0.08188034  0.05802933  1
  Se  Se116  1  0.08666037  0.08499627  0.54561431  1
  Se  Se117  1  0.09094876  0.41353705  0.07137228  1
  Se  Se118  1  0.05804852  0.38043302  0.57523973  1
  Se  Se119  1  0.08877711  0.75731243  0.05390380  1
  Se  Se120  1  0.09890796  0.74952472  0.55041002  1
  Se  Se121  1  0.41221359  0.07550449  0.06178081  1
  Se  Se122  1  0.41614429  0.09090449  0.57078455  1
  Se  Se123  1  0.42146102  0.43067298  0.04586344  1
  Se  Se124  1  0.41858288  0.42221561  0.55710174  1
  Se  Se125  1  0.41330407  0.74849492  0.04659062  1
  Se  Se126  1  0.44747108  0.78417011  0.56650573  1
  Se  Se127  1  0.74168331  0.07592531  0.06345576  1
  Se  Se128  1  0.74584465  0.08296812  0.55916802  1
  Se  Se129  1  0.73888107  0.40888970  0.05910127  1
  Se  Se130  1  0.73533831  0.41080876  0.56302332  1
  Se  Se131  1  0.74340384  0.74267896  0.06271556  1
  Se  Se132  1  0.74668892  0.74484927  0.55696128  1
  Se  Se133  1  0.26447126  0.25703137  0.05971036  1
  Se  Se134  1  0.23423669  0.23613180  0.55418230  1
  Se  Se135  1  0.25797009  0.59432142  0.06109058  1
  Se  Se136  1  0.22847089  0.55527324  0.56445892  1
  Se  Se137  1  0.24522573  0.91319029  0.05365185  1
  Se  Se138  1  0.23743967  0.89218937  0.55186733  1
  Se  Se139  1  0.58171036  0.24798369  0.05283642  1
  Se  Se140  1  0.57781545  0.24620346  0.55608043  1
  Se  Se141  1  0.58035332  0.58391331  0.05011439  1
  Se  Se142  1  0.57899335  0.58900546  0.55601855  1
  Se  Se143  1  0.56878041  0.90383972  0.06261220  1
  Se  Se144  1  0.59176142  0.91911350  0.55041056  1
  Se  Se145  1  0.92812219  0.25476842  0.06688013  1
  Se  Se146  1  0.90927526  0.23783892  0.55287780  1
  Se  Se147  1  0.93154023  0.59087797  0.05926499  1
  Se  Se148  1  0.91850448  0.59416786  0.55460264  1
  Se  Se149  1  0.92376959  0.92219638  0.06054973  1
  Se  Se150  1  0.93491761  0.92399096  0.55828415  1
  Se  Se151  1  0.08110963  0.24313653  0.44148061  1
  Se  Se152  1  0.09143167  0.24589563  0.95584329  1
  Se  Se153  1  0.08707694  0.57915961  0.45567431  1
  Se  Se154  1  0.08557465  0.59094480  0.93895074  1
  Se  Se155  1  0.09099847  0.91249162  0.43828198  1
  Se  Se156  1  0.08294644  0.91947744  0.94623896  1
  Se  Se157  1  0.40002286  0.25664765  0.44208996  1
  Se  Se158  1  0.43455495  0.22873048  0.94021557  1
  Se  Se159  1  0.40768493  0.59566460  0.44977188  1
  Se  Se160  1  0.41202308  0.58224010  0.93811163  1
  Se  Se161  1  0.41718295  0.93827006  0.44644788  1
  Se  Se162  1  0.40532016  0.91499805  0.94740290  1
  Se  Se163  1  0.73077833  0.26304153  0.44074688  1
  Se  Se164  1  0.74610650  0.25190748  0.93811721  1
  Se  Se165  1  0.74407730  0.58767048  0.44104639  1
  Se  Se166  1  0.75180797  0.59243469  0.94010412  1
  Se  Se167  1  0.75187625  0.92099845  0.43566588  1
  Se  Se168  1  0.73298639  0.92126171  0.94763364  1
  Se  Se169  1  0.26461867  0.07092089  0.44154601  1
  Se  Se170  1  0.25092127  0.08728243  0.94737887  1
  Se  Se171  1  0.23933083  0.41603660  0.44947541  1
  Se  Se172  1  0.25715123  0.41181524  0.93942316  1
  Se  Se173  1  0.29072281  0.71717722  0.44843491  1
  Se  Se174  1  0.24370618  0.74765780  0.93966852  1
  Se  Se175  1  0.59414758  0.07422472  0.43443965  1
  Se  Se176  1  0.58674677  0.07144186  0.95294482  1
  Se  Se177  1  0.56955789  0.42245790  0.44907157  1
  Se  Se178  1  0.58647587  0.41516548  0.94337279  1
  Se  Se179  1  0.58398487  0.75183386  0.44129324  1
  Se  Se180  1  0.57922662  0.74517995  0.94286477  1
  Se  Se181  1  0.92791757  0.07139201  0.43014824  1
  Se  Se182  1  0.92029132  0.07838836  0.94353583  1
  Se  Se183  1  0.92054517  0.40692786  0.43913127  1
  Se  Se184  1  0.93582149  0.41125450  0.95084941  1
  Se  Se185  1  0.92665397  0.74360792  0.44085405  1
  Se  Se186  1  0.92212380  0.74571557  0.94056294  1
  Se  Se187  1  0.24808139  0.24832829  0.30491531  1
  Se  Se188  1  0.24872088  0.24725885  0.80615936  1
  Se  Se189  1  0.23804206  0.58118772  0.31888485  1
  Se  Se190  1  0.25061460  0.57867531  0.79219846  1
  Se  Se191  1  0.25925057  0.90752355  0.31172581  1
  Se  Se192  1  0.24519394  0.91601054  0.80509856  1
  Se  Se193  1  0.57898316  0.25867265  0.30894479  1
  Se  Se194  1  0.56826571  0.24175749  0.80542020  1
  Se  Se195  1  0.58054860  0.58928257  0.30351203  1
  Se  Se196  1  0.58088543  0.58501753  0.80104050  1
  Se  Se197  1  0.58097242  0.91320962  0.29794176  1
  Se  Se198  1  0.56579880  0.90997582  0.81496771  1
  Se  Se199  1  0.91417543  0.25085886  0.29893265  1
  Se  Se200  1  0.91965537  0.25597744  0.80667262  1
  Se  Se201  1  0.91854503  0.58241044  0.30793064  1
  Se  Se202  1  0.92495581  0.58876231  0.80084507  1
  Se  Se203  1  0.92325320  0.90757874  0.29847757  1
  Se  Se204  1  0.90695937  0.91649577  0.81311741  1
  Se  Se205  1  0.08528371  0.07549141  0.30065594  1
  Se  Se206  1  0.08299838  0.08980220  0.81258902  1
  Se  Se207  1  0.08539210  0.41595215  0.30835517  1
  Se  Se208  1  0.09539682  0.42391261  0.80833055  1
  Se  Se209  1  0.09930202  0.74230627  0.31113196  1
  Se  Se210  1  0.08264596  0.75251165  0.79805572  1
  Se  Se211  1  0.43577327  0.10566213  0.30170500  1
  Se  Se212  1  0.41003209  0.07348686  0.80440332  1
  Se  Se213  1  0.41023222  0.42828855  0.30953445  1
  Se  Se214  1  0.41567032  0.41431940  0.80259006  1
  Se  Se215  1  0.41969522  0.76265888  0.31572883  1
  Se  Se216  1  0.40846403  0.74743847  0.80289713  1
  Se  Se217  1  0.75031295  0.08203620  0.29692084  1
  Se  Se218  1  0.75209701  0.09803727  0.80942251  1
  Se  Se219  1  0.74658205  0.42381160  0.31125725  1
  Se  Se220  1  0.76272338  0.42947119  0.81354819  1
  Se  Se221  1  0.74874841  0.74601818  0.30122004  1
  Se  Se222  1  0.74808147  0.75565529  0.80072429  1
  Se  Se223  1  0.25035638  0.07930093  0.19846901  1
  Se  Se224  1  0.24860653  0.07404708  0.69271385  1
  Se  Se225  1  0.25648742  0.42555616  0.20102692  1
  Se  Se226  1  0.24561156  0.40999618  0.67905924  1
  Se  Se227  1  0.25139779  0.75574278  0.19147526  1
  Se  Se228  1  0.25142229  0.74642015  0.69528502  1
  Se  Se229  1  0.57250475  0.08368772  0.20355820  1
  Se  Se230  1  0.57080308  0.07923187  0.69054804  1
  Se  Se231  1  0.56175106  0.42552001  0.18684480  1
  Se  Se232  1  0.57698191  0.41979534  0.68993797  1
  Se  Se233  1  0.58018514  0.73930858  0.19629631  1
  Se  Se234  1  0.58637993  0.75021459  0.70120609  1
  Se  Se235  1  0.92243141  0.07821451  0.19717451  1
  Se  Se236  1  0.91084409  0.09508509  0.69541467  1
  Se  Se237  1  0.91869024  0.41630059  0.20234852  1
  Se  Se238  1  0.91387703  0.43230138  0.68678122  1
  Se  Se239  1  0.92292281  0.74216917  0.19718448  1
  Se  Se240  1  0.91694274  0.76357569  0.69257741  1
  Se  Se241  1  0.08568288  0.25463624  0.20110958  1
  Se  Se242  1  0.09968078  0.23867886  0.69031119  1
  Se  Se243  1  0.08802207  0.58784533  0.20091660  1
  Se  Se244  1  0.08123968  0.58322779  0.69528654  1
  Se  Se245  1  0.09163981  0.90991871  0.19761041  1
  Se  Se246  1  0.09891462  0.92046004  0.68382904  1
  Se  Se247  1  0.41235237  0.25952847  0.19138302  1
  Se  Se248  1  0.41123211  0.25189824  0.70145521  1
  Se  Se249  1  0.41676049  0.58706011  0.19131727  1
  Se  Se250  1  0.41821548  0.59016590  0.69829844  1
  Se  Se251  1  0.41004473  0.91234663  0.19814783  1
  Se  Se252  1  0.41030084  0.91488314  0.69933874  1
  Se  Se253  1  0.75296820  0.24174560  0.18555925  1
  Se  Se254  1  0.75230985  0.25443035  0.69281926  1
  Se  Se255  1  0.75259048  0.57450529  0.19539152  1
  Se  Se256  1  0.75061680  0.58911319  0.69926507  1
  Se  Se257  1  0.75268590  0.91028579  0.19787485  1
  Se  Se258  1  0.75180213  0.91929947  0.68941067  1
