# generated using pymatgen
data_In86Cu29Se144
_symmetry_space_group_name_H-M   'P 1'
_cell_length_a   17.57941687
_cell_length_b   17.58243584
_cell_length_c   23.43047250
_cell_angle_alpha   89.98408941
_cell_angle_beta   90.01334853
_cell_angle_gamma   90.01164723
_symmetry_Int_Tables_number   1
_chemical_formula_structural   In86Cu29Se144
_chemical_formula_sum   'In86 Cu29 Se144'
_cell_volume   7242.09996609
_cell_formula_units_Z   1
loop_
 _symmetry_equiv_pos_site_id
 _symmetry_equiv_pos_as_xyz
  1  'x, y, z'
loop_
 _atom_site_type_symbol
 _atom_site_label
 _atom_site_symmetry_multiplicity
 _atom_site_fract_x
 _atom_site_fract_y
 _atom_site_fract_z
 _atom_site_occupancy
  In  In0  1  0.00396202  0.16216038  0.12111615  1
  In  In1  1  0.01444163  0.17292476  0.63103582  1
  In  In2  1  -0.00820795  0.50634574  0.13010015  1
  In  In3  1  -0.01090528  0.50750572  0.63078272  1
  In  In4  1  0.01017364  0.82363749  0.12339565  1
  In  In5  1  -0.01343398  0.83462816  0.62919883  1
  In  In6  1  0.33436326  0.16044512  0.11835440  1
  In  In7  1  0.34105207  0.15785694  0.62940585  1
  In  In8  1  0.33175529  0.48659475  0.12744624  1
  In  In9  1  0.35349895  0.48880930  0.62648067  1
  In  In10  1  0.34184242  0.85267438  0.10933472  1
  In  In11  1  0.34574795  0.84574817  0.62851186  1
  In  In12  1  0.66749012  0.16126021  0.10660846  1
  In  In13  1  0.65302741  0.18116015  0.64169779  1
  In  In14  1  0.67545075  0.50275744  0.11897125  1
  In  In15  1  0.66732429  0.49403382  0.62465034  1
  In  In16  1  0.65252867  0.83819147  0.12055269  1
  In  In17  1  0.66568350  0.83452584  0.64139606  1
  In  In18  1  0.17250819  0.00905092  0.35901678  1
  In  In19  1  0.17253951  -0.01102226  0.89765969  1
  In  In20  1  0.16478381  0.33200748  0.36503864  1
  In  In21  1  0.15847999  0.33139281  0.87287285  1
  In  In22  1  0.16089759  0.67705659  0.37060600  1
  In  In23  1  0.16453473  0.68452675  0.87606157  1
  In  In24  1  0.49428873  0.01464594  0.37481010  1
  In  In25  1  0.50525481  0.00186670  0.88352668  1
  In  In26  1  0.49519054  0.33223594  0.37879135  1
  In  In27  1  0.51047550  0.32817655  0.87645585  1
  In  In28  1  0.49840754  0.65333908  0.37338138  1
  In  In29  1  0.51222915  0.65672445  0.88234743  1
  In  In30  1  0.83438433  -0.00534233  0.36665191  1
  In  In31  1  0.83032112  0.02019061  0.88938480  1
  In  In32  1  0.84480602  0.33823969  0.37377242  1
  In  In33  1  0.83478196  0.33282456  0.87788925  1
  In  In34  1  0.82206931  0.66072813  0.36490256  1
  In  In35  1  0.81719227  0.65469082  0.86761250  1
  In  In36  1  0.00359772  0.17466219  0.35421553  1
  In  In37  1  -0.00685512  0.16944691  0.89128396  1
  In  In38  1  -0.00966132  0.49113052  0.36887234  1
  In  In39  1  -0.01403264  0.48791207  0.86820058  1
  In  In40  1  0.00063586  0.83258638  0.35929358  1
  In  In41  1  0.00882720  0.83422056  0.87841699  1
  In  In42  1  0.33842882  0.16801473  0.36477520  1
  In  In43  1  0.34824347  0.13702124  0.90537303  1
  In  In44  1  0.34614697  0.49055996  0.37890370  1
  In  In45  1  0.34745034  0.50686553  0.87496885  1
  In  In46  1  0.32440190  0.83865320  0.37062619  1
  In  In47  1  0.33187218  0.84987841  0.88805491  1
  In  In48  1  0.65412607  0.15650178  0.37510293  1
  In  In49  1  0.66575595  0.16766062  0.87753570  1
  In  In50  1  0.65840959  0.50548066  0.37902408  1
  In  In51  1  0.66650997  0.49983958  0.87418040  1
  In  In52  1  0.67768752  0.83452595  0.36823728  1
  In  In53  1  0.65659271  0.82136008  0.87104382  1
  In  In54  1  0.16593255  -0.00210819  0.11706414  1
  In  In55  1  0.17720946  0.01419729  0.62863195  1
  In  In56  1  0.17638809  0.32301490  0.13422782  1
  In  In57  1  0.16706131  0.32003337  0.63262455  1
  In  In58  1  0.15608806  0.66817182  0.12489268  1
  In  In59  1  0.16099820  0.66142506  0.62949235  1
  In  In60  1  0.49307765  -0.00492272  0.10420260  1
  In  In61  1  0.49303315  0.01039301  0.64237312  1
  In  In62  1  0.48976550  0.32255891  0.11594328  1
  In  In63  1  0.51187870  0.34483249  0.61048791  1
  In  In64  1  0.50841193  0.67201625  0.12106099  1
  In  In65  1  0.51627521  0.65903554  0.63270800  1
  In  In66  1  0.84164291  0.02072552  0.11012016  1
  In  In67  1  0.82930766  -0.00876828  0.62794500  1
  In  In68  1  0.83752185  0.33083692  0.12090770  1
  In  In69  1  0.82189217  0.34416449  0.63213888  1
  In  In70  1  0.83994679  0.65658620  0.12749138  1
  In  In71  1  0.83828504  0.65895225  0.63359115  1
  In  In72  1  0.83149954  0.17060770  0.50008391  1
  In  In73  1  0.83217255  0.83181902  -0.00101714  1
  In  In74  1  0.33041634  0.67534576  0.74892125  1
  In  In75  1  0.50273603  0.83052341  0.50053411  1
  In  In76  1  0.66874514  0.33092338  0.23722922  1
  In  In77  1  0.32907323  0.66574287  0.25402019  1
  In  In78  1  0.33226487  0.32651050  0.75628395  1
  In  In79  1  0.17720045  0.17221892  0.49044744  1
  In  In80  1  0.16910260  0.49361976  0.49405390  1
  In  In81  1  -0.00318348  0.00532971  0.76012243  1
  In  In82  1  0.16817333  0.83398513  0.50271996  1
  In  In83  1  0.67081290  -0.00021033  0.24272625  1
  In  In84  1  0.82942836  0.83026707  0.49883851  1
  In  In85  1  0.16307259  0.50265712  0.00337475  1
  Cu  Cu86  1  0.16462379  0.84602040  0.75927280  1
  Cu  Cu87  1  0.82915731  0.83396015  0.75571397  1
  Cu  Cu88  1  0.33889717  0.67114911  -0.00159907  1
  Cu  Cu89  1  0.49460366  0.16381349  0.24098104  1
  Cu  Cu90  1  0.16256531  0.49540698  0.24749236  1
  Cu  Cu91  1  0.66859741  0.65946006  0.50288287  1
  Cu  Cu92  1  0.17024899  0.83680273  0.24151227  1
  Cu  Cu93  1  -0.00317269  0.34089239  0.50125187  1
  Cu  Cu94  1  0.50361601  0.49899029  0.25378435  1
  Cu  Cu95  1  0.16348990  0.16163131  0.23847712  1
  Cu  Cu96  1  0.49813976  0.16547382  0.76161111  1
  Cu  Cu97  1  0.67140853  0.33661533  -0.00526692  1
  Cu  Cu98  1  0.83050165  0.50173697  0.24714688  1
  Cu  Cu99  1  0.16041690  0.50354116  0.75133006  1
  Cu  Cu100  1  -0.00266063  0.33592710  0.00274484  1
  Cu  Cu101  1  0.34032873  0.65568054  0.50252754  1
  Cu  Cu102  1  0.65796660  0.00761114  0.50800385  1
  Cu  Cu103  1  -0.00492159  0.66030713  0.00072253  1
  Cu  Cu104  1  0.17046882  0.16472920  0.75992899  1
  Cu  Cu105  1  0.83684864  0.17111609  0.76007468  1
  Cu  Cu106  1  0.83890083  0.83273110  0.24085634  1
  Cu  Cu107  1  0.66506629  0.66222187  -0.00316439  1
  Cu  Cu108  1  0.00667504  0.00622077  0.48796599  1
  Cu  Cu109  1  -0.01087781  0.66114161  0.50026843  1
  Cu  Cu110  1  0.83127558  0.49547569  0.75112735  1
  Cu  Cu111  1  0.49738238  0.84036323  0.23916660  1
  Cu  Cu112  1  0.49296290  0.83851766  0.75910608  1
  Cu  Cu113  1  0.66515398  0.33261666  0.50344455  1
  Cu  Cu114  1  0.33523728  0.34107814  0.00075737  1
  Se  Se115  1  0.10459329  0.10275020  0.05086928  1
  Se  Se116  1  0.08193353  0.08163894  0.55341614  1
  Se  Se117  1  0.08015940  0.41080210  0.06586954  1
  Se  Se118  1  0.08223397  0.41148094  0.56409155  1
  Se  Se119  1  0.08396905  0.74367230  0.04672824  1
  Se  Se120  1  0.06938598  0.74324570  0.55826340  1
  Se  Se121  1  0.42459902  0.09762383  0.04365183  1
  Se  Se122  1  0.41555409  0.07019454  0.56120032  1
  Se  Se123  1  0.41963951  0.42412372  0.05241975  1
  Se  Se124  1  0.41001945  0.40890450  0.54716505  1
  Se  Se125  1  0.42242115  0.75272018  0.05360703  1
  Se  Se126  1  0.41347701  0.73953945  0.56448234  1
  Se  Se127  1  0.74058865  0.06955710  0.04012894  1
  Se  Se128  1  0.74401117  0.08420895  0.56585941  1
  Se  Se129  1  0.75477705  0.41505499  0.05305281  1
  Se  Se130  1  0.75210828  0.41654915  0.55165858  1
  Se  Se131  1  0.74444079  0.74052665  0.06088498  1
  Se  Se132  1  0.74082833  0.74593483  0.56367456  1
  Se  Se133  1  0.25452301  0.25756990  0.05530319  1
  Se  Se134  1  0.26073349  0.25465444  0.56074586  1
  Se  Se135  1  0.25926460  0.59140395  0.06112913  1
  Se  Se136  1  0.25428861  0.58283325  0.56261935  1
  Se  Se137  1  0.23683986  0.90802655  0.04597111  1
  Se  Se138  1  0.25904216  0.92715415  0.55685721  1
  Se  Se139  1  0.58537053  0.25569963  0.04802629  1
  Se  Se140  1  0.58705582  0.24115714  0.55351817  1
  Se  Se141  1  0.58285052  0.58024859  0.05384543  1
  Se  Se142  1  0.58248463  0.57867346  0.55506517  1
  Se  Se143  1  0.58883018  0.91821069  0.04352267  1
  Se  Se144  1  0.58650981  0.91881825  0.56689047  1
  Se  Se145  1  0.91704679  0.24504740  0.05243337  1
  Se  Se146  1  0.92390088  0.25570763  0.56338756  1
  Se  Se147  1  0.91266123  0.57565823  0.05146534  1
  Se  Se148  1  0.90784625  0.57984657  0.55496245  1
  Se  Se149  1  0.92631159  0.91604352  0.05750359  1
  Se  Se150  1  0.92581600  0.92875520  0.55065446  1
  Se  Se151  1  0.07110404  0.25695238  0.43947742  1
  Se  Se152  1  0.08497083  0.25747970  0.95032175  1
  Se  Se153  1  0.07681915  0.58986715  0.43997844  1
  Se  Se154  1  0.07655593  0.58547405  0.93541421  1
  Se  Se155  1  0.08330286  0.91896962  0.43284668  1
  Se  Se156  1  0.07521703  0.91099563  0.95594906  1
  Se  Se157  1  0.42531483  0.23165515  0.43936394  1
  Se  Se158  1  0.41476620  0.25872027  0.94429996  1
  Se  Se159  1  0.42406833  0.57577923  0.44882925  1
  Se  Se160  1  0.42099567  0.58194414  0.95140734  1
  Se  Se161  1  0.41145369  0.91840491  0.44094727  1
  Se  Se162  1  0.42188261  0.92221081  0.95462421  1
  Se  Se163  1  0.74067219  0.25618066  0.43613593  1
  Se  Se164  1  0.75441879  0.24748371  0.94644824  1
  Se  Se165  1  0.75249395  0.58366747  0.44366947  1
  Se  Se166  1  0.75110252  0.57814639  0.94765020  1
  Se  Se167  1  0.73897819  0.93131339  0.44487904  1
  Se  Se168  1  0.74167004  0.91528700  0.93687262  1
  Se  Se169  1  0.25907891  0.07099783  0.43769070  1
  Se  Se170  1  0.22407334  0.10059676  0.95997303  1
  Se  Se171  1  0.25786532  0.39679037  0.44124656  1
  Se  Se172  1  0.25437839  0.41905509  0.93856098  1
  Se  Se173  1  0.26065452  0.73809450  0.44459602  1
  Se  Se174  1  0.25133410  0.75233045  0.94827268  1
  Se  Se175  1  0.57512654  0.08552276  0.45149092  1
  Se  Se176  1  0.57009628  0.10467166  0.94754833  1
  Se  Se177  1  0.58316597  0.41357419  0.44460180  1
  Se  Se178  1  0.58324551  0.41933400  0.94535889  1
  Se  Se179  1  0.59570193  0.74381351  0.43884571  1
  Se  Se180  1  0.58087924  0.75155921  0.95112115  1
  Se  Se181  1  0.92093054  0.08490955  0.43366249  1
  Se  Se182  1  0.92905599  0.07273796  0.95885894  1
  Se  Se183  1  0.91283191  0.42322785  0.44912382  1
  Se  Se184  1  0.91453350  0.41895672  0.94929587  1
  Se  Se185  1  0.92138407  0.74712998  0.43560661  1
  Se  Se186  1  0.91575647  0.73754697  0.93628873  1
  Se  Se187  1  0.24273600  0.24157403  0.30027130  1
  Se  Se188  1  0.25555082  0.23547808  0.82349334  1
  Se  Se189  1  0.24184272  0.57057243  0.31457841  1
  Se  Se190  1  0.24244145  0.58075511  0.81113574  1
  Se  Se191  1  0.25470303  0.91873367  0.29507938  1
  Se  Se192  1  0.24746493  0.92482179  0.81442342  1
  Se  Se193  1  0.57749185  0.24282836  0.30071715  1
  Se  Se194  1  0.58942356  0.25137913  0.80294791  1
  Se  Se195  1  0.58765585  0.58637472  0.30116675  1
  Se  Se196  1  0.58784570  0.58726947  0.80559571  1
  Se  Se197  1  0.57662080  0.91502981  0.30772802  1
  Se  Se198  1  0.58174276  0.91952209  0.80904922  1
  Se  Se199  1  0.90719884  0.25418313  0.29860544  1
  Se  Se200  1  0.92462600  0.24898246  0.81234786  1
  Se  Se201  1  0.91668307  0.58394446  0.30172691  1
  Se  Se202  1  0.91423539  0.58309005  0.80206719  1
  Se  Se203  1  0.91756707  0.91977413  0.29531030  1
  Se  Se204  1  0.90567669  0.91433747  0.81767464  1
  Se  Se205  1  0.07828418  0.07832114  0.29256926  1
  Se  Se206  1  0.08968952  0.08639234  0.82139917  1
  Se  Se207  1  0.07680058  0.41297324  0.30055516  1
  Se  Se208  1  0.08147734  0.41486964  0.80242122  1
  Se  Se209  1  0.08676722  0.74972947  0.29317162  1
  Se  Se210  1  0.08011997  0.75425448  0.80088115  1
  Se  Se211  1  0.41414608  0.07785151  0.29529650  1
  Se  Se212  1  0.41459149  0.08232518  0.81489668  1
  Se  Se213  1  0.41976574  0.41247755  0.30289792  1
  Se  Se214  1  0.42718779  0.42142413  0.80589424  1
  Se  Se215  1  0.42640373  0.75951973  0.30799396  1
  Se  Se216  1  0.41537952  0.75477493  0.81910539  1
  Se  Se217  1  0.75499533  0.09406973  0.30554310  1
  Se  Se218  1  0.75291269  0.08522529  0.80881662  1
  Se  Se219  1  0.74847981  0.42107818  0.30679521  1
  Se  Se220  1  0.75105463  0.41304255  0.80782430  1
  Se  Se221  1  0.75112556  0.75344520  0.29549860  1
  Se  Se222  1  0.74253666  0.74562086  0.80010773  1
  Se  Se223  1  0.25021580  0.07971392  0.18779395  1
  Se  Se224  1  0.25504496  0.08622310  0.70411065  1
  Se  Se225  1  0.25363289  0.41301747  0.20274874  1
  Se  Se226  1  0.24571924  0.42485578  0.69320700  1
  Se  Se227  1  0.25385315  0.75541146  0.18432125  1
  Se  Se228  1  0.23770263  0.76815257  0.68957866  1
  Se  Se229  1  0.57793131  0.08552088  0.18216738  1
  Se  Se230  1  0.58648260  0.08278879  0.70824736  1
  Se  Se231  1  0.57347940  0.42184876  0.18437093  1
  Se  Se232  1  0.58599726  0.40710365  0.69104379  1
  Se  Se233  1  0.58398596  0.75270734  0.19588664  1
  Se  Se234  1  0.57544473  0.75383113  0.70473968  1
  Se  Se235  1  0.91988407  0.08032845  0.19049892  1
  Se  Se236  1  0.91059809  0.09291723  0.69117469  1
  Se  Se237  1  0.91156310  0.41551793  0.19469104  1
  Se  Se238  1  0.91915617  0.41331487  0.69847320  1
  Se  Se239  1  0.92243093  0.74489895  0.19197109  1
  Se  Se240  1  0.91349278  0.75214328  0.70068803  1
  Se  Se241  1  0.07642748  0.25113414  0.19509228  1
  Se  Se242  1  0.08606381  0.24949565  0.70876279  1
  Se  Se243  1  0.08314704  0.58359378  0.19700601  1
  Se  Se244  1  0.07629943  0.58766142  0.69956071  1
  Se  Se245  1  0.08358153  0.91767378  0.18963508  1
  Se  Se246  1  0.08576475  0.91998887  0.69026264  1
  Se  Se247  1  0.41003977  0.24944037  0.19117439  1
  Se  Se248  1  0.42749442  0.24611296  0.69406855  1
  Se  Se249  1  0.42053848  0.57934605  0.19262655  1
  Se  Se250  1  0.42374647  0.57709768  0.70043119  1
  Se  Se251  1  0.41898312  0.92610332  0.18656394  1
  Se  Se252  1  0.40889704  0.92311526  0.70844017  1
  Se  Se253  1  0.75429184  0.23283019  0.18403674  1
  Se  Se254  1  0.75438625  0.25135119  0.70205470  1
  Se  Se255  1  0.74546186  0.58473850  0.19558783  1
  Se  Se256  1  0.74756559  0.57815835  0.69584275  1
  Se  Se257  1  0.76003509  0.91307793  0.18030271  1
  Se  Se258  1  0.74923300  0.92335883  0.70477442  1
