# generated using pymatgen
data_In86Cu29Se144
_symmetry_space_group_name_H-M   'P 1'
_cell_length_a   17.59280422
_cell_length_b   17.59439557
_cell_length_c   23.44965130
_cell_angle_alpha   90.00788244
_cell_angle_beta   89.99585044
_cell_angle_gamma   89.99350953
_symmetry_Int_Tables_number   1
_chemical_formula_structural   In86Cu29Se144
_chemical_formula_sum   'In86 Cu29 Se144'
_cell_volume   7258.48197657
_cell_formula_units_Z   1
loop_
 _symmetry_equiv_pos_site_id
 _symmetry_equiv_pos_as_xyz
  1  'x, y, z'
loop_
 _atom_site_type_symbol
 _atom_site_label
 _atom_site_symmetry_multiplicity
 _atom_site_fract_x
 _atom_site_fract_y
 _atom_site_fract_z
 _atom_site_occupancy
  In  In0  1  0.01060678  0.15630163  0.13004951  1
  In  In1  1  0.00168211  0.16538153  0.63748812  1
  In  In2  1  -0.00439252  0.48621770  0.12732453  1
  In  In3  1  0.00298963  0.49784685  0.62128802  1
  In  In4  1  0.01204032  0.84839425  0.11349870  1
  In  In5  1  0.01123347  0.82217651  0.64032528  1
  In  In6  1  0.33257546  0.16749903  0.12598054  1
  In  In7  1  0.35085811  0.15964413  0.62255206  1
  In  In8  1  0.33501752  0.49572768  0.13776602  1
  In  In9  1  0.31952932  0.50340209  0.62240791  1
  In  In10  1  0.29823454  0.86609637  0.15593049  1
  In  In11  1  0.32844322  0.83514360  0.61353942  1
  In  In12  1  0.66083411  0.16616236  0.13094985  1
  In  In13  1  0.66384014  0.16438558  0.62673647  1
  In  In14  1  0.65848815  0.49971767  0.13015874  1
  In  In15  1  0.66594074  0.47589576  0.61886596  1
  In  In16  1  0.67928078  0.84245132  0.12011747  1
  In  In17  1  0.65908827  0.84680012  0.62807502  1
  In  In18  1  0.16597232  -0.01179702  0.36531454  1
  In  In19  1  0.16587858  0.00263791  0.87835674  1
  In  In20  1  0.17623110  0.33849960  0.37197852  1
  In  In21  1  0.16396176  0.33068413  0.87227883  1
  In  In22  1  0.16740941  0.66705579  0.37677406  1
  In  In23  1  0.16154382  0.68415928  0.87291103  1
  In  In24  1  0.50089445  0.00351902  0.36916454  1
  In  In25  1  0.52111916  0.00825544  0.87462390  1
  In  In26  1  0.49351789  0.31869139  0.36750513  1
  In  In27  1  0.49253558  0.31930244  0.86883353  1
  In  In28  1  0.50104803  0.68545224  0.37824175  1
  In  In29  1  0.48911675  0.67405171  0.87350296  1
  In  In30  1  0.83224082  -0.00249152  0.36679990  1
  In  In31  1  0.82274048  -0.00907376  0.87351879  1
  In  In32  1  0.83397149  0.33732700  0.36756982  1
  In  In33  1  0.83450862  0.33249399  0.86804409  1
  In  In34  1  0.82540434  0.65879419  0.38079568  1
  In  In35  1  0.84914189  0.67241057  0.86833928  1
  In  In36  1  -0.00255140  0.16243460  0.36782553  1
  In  In37  1  0.00886706  0.17342621  0.87099392  1
  In  In38  1  0.00257336  0.49722332  0.38141465  1
  In  In39  1  -0.00355649  0.49830385  0.86541550  1
  In  In40  1  0.00799728  0.84545577  0.37170458  1
  In  In41  1  0.00207779  0.83554560  0.87219822  1
  In  In42  1  0.35154343  0.16793132  0.36088191  1
  In  In43  1  0.32559902  0.17137691  0.88636154  1
  In  In44  1  0.32012148  0.49285483  0.37293552  1
  In  In45  1  0.34655072  0.49734463  0.87424230  1
  In  In46  1  0.33311964  0.83736834  0.36692521  1
  In  In47  1  0.32653869  0.83236374  0.87740346  1
  In  In48  1  0.64419016  0.15002227  0.35506849  1
  In  In49  1  0.65523164  0.15447175  0.87231123  1
  In  In50  1  0.68254534  0.49097431  0.38021618  1
  In  In51  1  0.68010124  0.49384607  0.87051654  1
  In  In52  1  0.65752556  0.83766560  0.37960959  1
  In  In53  1  0.66385658  0.87171499  0.87335616  1
  In  In54  1  0.15894457  0.00299791  0.12227189  1
  In  In55  1  0.16339180  -0.01153347  0.62438158  1
  In  In56  1  0.18153428  0.31692380  0.13754493  1
  In  In57  1  0.15999042  0.33828185  0.62905490  1
  In  In58  1  0.16346645  0.68652328  0.12966406  1
  In  In59  1  0.16332365  0.66296398  0.61861408  1
  In  In60  1  0.49287244  0.01528058  0.13257931  1
  In  In61  1  0.50635941  0.00207997  0.61263903  1
  In  In62  1  0.51501057  0.30780836  0.14937968  1
  In  In63  1  0.50887398  0.31925338  0.63066519  1
  In  In64  1  0.49178318  0.66393425  0.12943525  1
  In  In65  1  0.48574630  0.67398948  0.62124236  1
  In  In66  1  0.84077303  -0.00141032  0.12809800  1
  In  In67  1  0.83360168  0.00271214  0.63241996  1
  In  In68  1  0.83809779  0.33780141  0.13681193  1
  In  In69  1  0.83152514  0.33079987  0.62557703  1
  In  In70  1  0.82321427  0.67535683  0.12311816  1
  In  In71  1  0.85045149  0.66624672  0.62260172  1
  In  In72  1  0.49313705  0.83795547  0.00341615  1
  In  In73  1  0.16737895  0.50027316  -0.00204729  1
  In  In74  1  0.33015794  -0.00119974  0.74909622  1
  In  In75  1  0.17547464  0.16450792  0.49364040  1
  In  In76  1  0.82625703  0.16835706  0.50104975  1
  In  In77  1  0.83658968  0.83218285  0.49801479  1
  In  In78  1  0.83433187  0.50216949  0.00380160  1
  In  In79  1  0.50080785  0.49382240  0.00748497  1
  In  In80  1  0.32687003  0.66537525  0.74893446  1
  In  In81  1  0.00036407  0.66883739  0.25563716  1
  In  In82  1  0.83178428  0.16514634  0.00393102  1
  In  In83  1  0.66490064  0.66347224  0.25354065  1
  In  In84  1  0.67042846  0.66367945  0.74566032  1
  In  In85  1  0.49587899  0.49957308  0.50091823  1
  Cu  Cu86  1  0.66890516  0.66476873  0.50039613  1
  Cu  Cu87  1  -0.00177062  0.67804680  -0.00214836  1
  Cu  Cu88  1  0.00278742  0.33942389  0.49897922  1
  Cu  Cu89  1  0.33909249  0.32504762  0.00664122  1
  Cu  Cu90  1  0.49950791  0.16435402  0.74902976  1
  Cu  Cu91  1  0.83416737  0.16401124  0.75421108  1
  Cu  Cu92  1  0.83656469  0.83664119  0.24740609  1
  Cu  Cu93  1  0.16317025  0.16200540  0.25048124  1
  Cu  Cu94  1  0.83358853  0.16904890  0.24840546  1
  Cu  Cu95  1  0.16191435  0.50160554  0.25541662  1
  Cu  Cu96  1  0.33772947  -0.00410696  0.49315591  1
  Cu  Cu97  1  0.50531541  0.49013942  0.75051647  1
  Cu  Cu98  1  0.50314673  0.83622564  0.25282934  1
  Cu  Cu99  1  0.00732251  0.66413884  0.50234640  1
  Cu  Cu100  1  0.17335687  0.17080088  0.75580150  1
  Cu  Cu101  1  0.32596943  0.67498212  0.00788916  1
  Cu  Cu102  1  0.33589170  0.33088245  0.49483745  1
  Cu  Cu103  1  -0.00133439  0.00020347  -0.00187905  1
  Cu  Cu104  1  0.00204216  -0.00567452  0.50133747  1
  Cu  Cu105  1  0.32812687  0.67549079  0.49510138  1
  Cu  Cu106  1  0.66846602  0.68096717  -0.00442528  1
  Cu  Cu107  1  0.83495977  0.49110494  0.74368272  1
  Cu  Cu108  1  0.16313190  0.49907828  0.74592037  1
  Cu  Cu109  1  0.49643390  0.49785635  0.25907036  1
  Cu  Cu110  1  0.00774328  0.32568663  -0.00062097  1
  Cu  Cu111  1  0.83148327  0.83626299  0.75160504  1
  Cu  Cu112  1  0.65969801  0.32732615  0.00251057  1
  Cu  Cu113  1  0.33034255  -0.00108220  0.00843646  1
  Cu  Cu114  1  0.66747013  0.32235349  0.49798100  1
  Se  Se115  1  0.08193083  0.08641245  0.04895116  1
  Se  Se116  1  0.07825782  0.08422018  0.55709608  1
  Se  Se117  1  0.08649520  0.40587497  0.06091578  1
  Se  Se118  1  0.09026550  0.41804428  0.55188314  1
  Se  Se119  1  0.08896174  0.75423020  0.04898297  1
  Se  Se120  1  0.08111793  0.75551580  0.55589043  1
  Se  Se121  1  0.41468031  0.08594770  0.05495376  1
  Se  Se122  1  0.41946549  0.08291227  0.54460146  1
  Se  Se123  1  0.41541053  0.40510874  0.06886790  1
  Se  Se124  1  0.41144675  0.40746459  0.56262247  1
  Se  Se125  1  0.40560873  0.75368294  0.06763870  1
  Se  Se126  1  0.41623894  0.75511918  0.54620976  1
  Se  Se127  1  0.74234575  0.07641660  0.06225302  1
  Se  Se128  1  0.74269975  0.07035662  0.55718427  1
  Se  Se129  1  0.74041234  0.40970198  0.05952091  1
  Se  Se130  1  0.75403858  0.40586688  0.54779361  1
  Se  Se131  1  0.75568705  0.75903583  0.04791580  1
  Se  Se132  1  0.74712930  0.74534892  0.56310274  1
  Se  Se133  1  0.24568445  0.24644263  0.05381525  1
  Se  Se134  1  0.25761617  0.25287479  0.56055915  1
  Se  Se135  1  0.25346181  0.58450118  0.06494308  1
  Se  Se136  1  0.25032785  0.58680903  0.54824075  1
  Se  Se137  1  0.24699602  0.91347525  0.05870554  1
  Se  Se138  1  0.24703759  0.92207455  0.54742561  1
  Se  Se139  1  0.57862083  0.24856845  0.05980769  1
  Se  Se140  1  0.58319589  0.24380827  0.55347852  1
  Se  Se141  1  0.59284892  0.59771328  0.05639331  1
  Se  Se142  1  0.58807418  0.58742294  0.56335859  1
  Se  Se143  1  0.58159543  0.92714102  0.06302521  1
  Se  Se144  1  0.57975950  0.90602788  0.54859448  1
  Se  Se145  1  0.92284909  0.25603098  0.06269364  1
  Se  Se146  1  0.92915965  0.25040985  0.55747445  1
  Se  Se147  1  0.92757266  0.59346177  0.06136646  1
  Se  Se148  1  0.91961427  0.57995428  0.55015942  1
  Se  Se149  1  0.91269812  0.91905322  0.05071464  1
  Se  Se150  1  0.92311482  0.91741461  0.56389522  1
  Se  Se151  1  0.07739154  0.25292522  0.43918239  1
  Se  Se152  1  0.09203953  0.24599749  0.94605359  1
  Se  Se153  1  0.08843079  0.58205005  0.44611088  1
  Se  Se154  1  0.07202630  0.58768205  0.94011164  1
  Se  Se155  1  0.08903595  0.91791802  0.44641516  1
  Se  Se156  1  0.08270540  0.91636955  0.94453300  1
  Se  Se157  1  0.41601192  0.24440636  0.44388269  1
  Se  Se158  1  0.42323796  0.24679107  0.94970644  1
  Se  Se159  1  0.41015445  0.59014903  0.43825232  1
  Se  Se160  1  0.40976902  0.59326898  0.95094862  1
  Se  Se161  1  0.42027966  0.91504140  0.43684501  1
  Se  Se162  1  0.40903223  0.92910460  0.93818789  1
  Se  Se163  1  0.74238599  0.24711269  0.43094896  1
  Se  Se164  1  0.74563194  0.25600352  0.94051168  1
  Se  Se165  1  0.75262505  0.57683144  0.45456478  1
  Se  Se166  1  0.74694730  0.59304069  0.93989587  1
  Se  Se167  1  0.74634274  0.92667155  0.44400603  1
  Se  Se168  1  0.74674510  0.92359869  0.95339007  1
  Se  Se169  1  0.26077055  0.07686976  0.43009204  1
  Se  Se170  1  0.24769552  0.08045885  0.95065000  1
  Se  Se171  1  0.24740064  0.41595814  0.45075754  1
  Se  Se172  1  0.26544787  0.41030393  0.94482419  1
  Se  Se173  1  0.24839501  0.75913937  0.43962766  1
  Se  Se174  1  0.24599624  0.75256534  0.94836065  1
  Se  Se175  1  0.58033228  0.08671299  0.44037436  1
  Se  Se176  1  0.58217566  0.08844317  0.95330933  1
  Se  Se177  1  0.58391504  0.40719460  0.44176224  1
  Se  Se178  1  0.58844068  0.41198750  0.93901236  1
  Se  Se179  1  0.58625088  0.75253687  0.45293794  1
  Se  Se180  1  0.58471796  0.75445162  0.93574777  1
  Se  Se181  1  0.92066506  0.07496169  0.44343045  1
  Se  Se182  1  0.92049361  0.08236676  0.93751942  1
  Se  Se183  1  0.91273304  0.41328275  0.44458418  1
  Se  Se184  1  0.92484806  0.40923187  0.94411641  1
  Se  Se185  1  0.92910610  0.74268962  0.43751673  1
  Se  Se186  1  0.91391098  0.75696112  0.94365854  1
  Se  Se187  1  0.24673213  0.24357050  0.30579113  1
  Se  Se188  1  0.25775415  0.25276811  0.80826693  1
  Se  Se189  1  0.24764640  0.58549763  0.30548951  1
  Se  Se190  1  0.24062536  0.57422787  0.81383397  1
  Se  Se191  1  0.25819930  0.92184398  0.29470914  1
  Se  Se192  1  0.23852022  0.90692089  0.80516916  1
  Se  Se193  1  0.59260524  0.26363614  0.29781479  1
  Se  Se194  1  0.58633100  0.24716382  0.80196312  1
  Se  Se195  1  0.57811018  0.57708531  0.31938593  1
  Se  Se196  1  0.57607300  0.57698757  0.81151919  1
  Se  Se197  1  0.59053532  0.91766472  0.30289691  1
  Se  Se198  1  0.56954681  0.91521238  0.79759067  1
  Se  Se199  1  0.91784894  0.25022622  0.30248331  1
  Se  Se200  1  0.91996579  0.25040981  0.80267230  1
  Se  Se201  1  0.90824391  0.57713695  0.31015250  1
  Se  Se202  1  0.91292556  0.57908067  0.79733791  1
  Se  Se203  1  0.92115985  0.91808048  0.30113303  1
  Se  Se204  1  0.91470559  0.91919446  0.80558067  1
  Se  Se205  1  0.08049615  0.07708880  0.30284979  1
  Se  Se206  1  0.08940772  0.08463099  0.80518778  1
  Se  Se207  1  0.08159377  0.41663894  0.30900771  1
  Se  Se208  1  0.08369319  0.41427975  0.80301261  1
  Se  Se209  1  0.09636809  0.76223216  0.30353973  1
  Se  Se210  1  0.07057864  0.74283757  0.80133227  1
  Se  Se211  1  0.43381837  0.08825252  0.29154250  1
  Se  Se212  1  0.41677542  0.08894566  0.81202677  1
  Se  Se213  1  0.41071219  0.41366281  0.30841180  1
  Se  Se214  1  0.41623872  0.41175472  0.80236617  1
  Se  Se215  1  0.41945672  0.74930971  0.30090184  1
  Se  Se216  1  0.41901702  0.76358182  0.80158792  1
  Se  Se217  1  0.75188564  0.08113518  0.29864498  1
  Se  Se218  1  0.74753268  0.08126336  0.80518675  1
  Se  Se219  1  0.74753955  0.41808835  0.30025607  1
  Se  Se220  1  0.74968973  0.41021377  0.79714397  1
  Se  Se221  1  0.75821280  0.75766461  0.31028859  1
  Se  Se222  1  0.74723788  0.75731919  0.81214129  1
  Se  Se223  1  0.24495025  0.08354388  0.19160562  1
  Se  Se224  1  0.24310885  0.09209280  0.68693582  1
  Se  Se225  1  0.24618837  0.41697122  0.20322363  1
  Se  Se226  1  0.25103645  0.41751926  0.69582362  1
  Se  Se227  1  0.26583269  0.73479026  0.19760748  1
  Se  Se228  1  0.24249088  0.75709608  0.68823923  1
  Se  Se229  1  0.57370604  0.09475813  0.20376072  1
  Se  Se230  1  0.57733437  0.07986963  0.69191274  1
  Se  Se231  1  0.58145614  0.42108811  0.20204594  1
  Se  Se232  1  0.58891963  0.40824240  0.69746494  1
  Se  Se233  1  0.58347679  0.75758333  0.18916327  1
  Se  Se234  1  0.57325216  0.75229497  0.69265468  1
  Se  Se235  1  0.91861984  0.08332418  0.19754799  1
  Se  Se236  1  0.91840368  0.08020882  0.70213248  1
  Se  Se237  1  0.91816422  0.42050348  0.20432940  1
  Se  Se238  1  0.92169384  0.41150832  0.69008031  1
  Se  Se239  1  0.91615272  0.75681142  0.18747692  1
  Se  Se240  1  0.91234066  0.74739920  0.70168090  1
  Se  Se241  1  0.07910664  0.24979022  0.19978048  1
  Se  Se242  1  0.08721372  0.25141359  0.70036614  1
  Se  Se243  1  0.08686070  0.57836759  0.18923087  1
  Se  Se244  1  0.08379468  0.58332262  0.69106724  1
  Se  Se245  1  0.08829335  0.91141861  0.19257877  1
  Se  Se246  1  0.07410607  0.92960207  0.69819199  1
  Se  Se247  1  0.39142812  0.26596225  0.19675612  1
  Se  Se248  1  0.41397330  0.24778461  0.69782834  1
  Se  Se249  1  0.41876008  0.58241201  0.20282143  1
  Se  Se250  1  0.42359789  0.57245735  0.69259824  1
  Se  Se251  1  0.42137320  0.92055111  0.19999512  1
  Se  Se252  1  0.41660243  0.91534495  0.68298272  1
  Se  Se253  1  0.74928500  0.25058103  0.19527386  1
  Se  Se254  1  0.75354883  0.24290387  0.69293112  1
  Se  Se255  1  0.75936401  0.57695299  0.19327136  1
  Se  Se256  1  0.75494525  0.57129688  0.68270007  1
  Se  Se257  1  0.75070611  0.92019190  0.19682851  1
  Se  Se258  1  0.74788605  0.91828537  0.69794946  1
