# generated using pymatgen
data_In86Cu29Se144
_symmetry_space_group_name_H-M   'P 1'
_cell_length_a   17.56736516
_cell_length_b   17.57146172
_cell_length_c   23.42938567
_cell_angle_alpha   90.01309542
_cell_angle_beta   90.01282946
_cell_angle_gamma   89.99404887
_symmetry_Int_Tables_number   1
_chemical_formula_structural   In86Cu29Se144
_chemical_formula_sum   'In86 Cu29 Se144'
_cell_volume   7232.28274244
_cell_formula_units_Z   1
loop_
 _symmetry_equiv_pos_site_id
 _symmetry_equiv_pos_as_xyz
  1  'x, y, z'
loop_
 _atom_site_type_symbol
 _atom_site_label
 _atom_site_symmetry_multiplicity
 _atom_site_fract_x
 _atom_site_fract_y
 _atom_site_fract_z
 _atom_site_occupancy
  In  In0  1  -0.00032059  0.18294181  0.12542709  1
  In  In1  1  -0.00695104  0.16970823  0.61695496  1
  In  In2  1  0.00069390  0.49567340  0.12306082  1
  In  In3  1  0.00500656  0.49724710  0.62998881  1
  In  In4  1  -0.01285762  0.83441213  0.12367815  1
  In  In5  1  -0.02173304  0.84480389  0.64006181  1
  In  In6  1  0.34082674  0.16567006  0.13137277  1
  In  In7  1  0.33225293  0.18003874  0.62205846  1
  In  In8  1  0.32024790  0.50605815  0.13411422  1
  In  In9  1  0.31887153  0.49711056  0.60789409  1
  In  In10  1  0.33546982  0.81804802  0.12573165  1
  In  In11  1  0.34412059  0.81989152  0.61662269  1
  In  In12  1  0.66160778  0.16190576  0.11996291  1
  In  In13  1  0.67206787  0.13162217  0.63861333  1
  In  In14  1  0.67549440  0.48999332  0.12203419  1
  In  In15  1  0.67363920  0.51418757  0.62549520  1
  In  In16  1  0.67691679  0.83896825  0.11944762  1
  In  In17  1  0.66736277  0.83529397  0.62377658  1
  In  In18  1  0.17375025  0.00441108  0.38086489  1
  In  In19  1  0.15641789  0.00926527  0.87492498  1
  In  In20  1  0.16684382  0.33109830  0.37236148  1
  In  In21  1  0.16794718  0.34534560  0.87979731  1
  In  In22  1  0.14964531  0.66090161  0.36565049  1
  In  In23  1  0.15194434  0.66379888  0.87750545  1
  In  In24  1  0.50261175  -0.01395139  0.37475421  1
  In  In25  1  0.51122247  -0.00669210  0.87926168  1
  In  In26  1  0.49524504  0.35300099  0.37828200  1
  In  In27  1  0.48962577  0.33042042  0.88196309  1
  In  In28  1  0.48622322  0.67603594  0.38597808  1
  In  In29  1  0.51736051  0.67354152  0.87134874  1
  In  In30  1  0.82598160  0.00729837  0.37780182  1
  In  In31  1  0.83165728  -0.00161358  0.87145691  1
  In  In32  1  0.83424927  0.32823564  0.37692039  1
  In  In33  1  0.84512779  0.32049971  0.87922225  1
  In  In34  1  0.85231000  0.66676720  0.37488927  1
  In  In35  1  0.83374163  0.66467786  0.87826024  1
  In  In36  1  -0.00398662  0.17627487  0.38246139  1
  In  In37  1  -0.01303154  0.15358691  0.86239765  1
  In  In38  1  0.00393299  0.50856958  0.37148059  1
  In  In39  1  0.00151045  0.49719756  0.87746236  1
  In  In40  1  -0.00016940  0.81595556  0.37605419  1
  In  In41  1  -0.02897290  0.81226383  0.85178607  1
  In  In42  1  0.31434604  0.17440367  0.37738833  1
  In  In43  1  0.33257642  0.17927083  0.88255711  1
  In  In44  1  0.33076152  0.50287724  0.37226281  1
  In  In45  1  0.32556919  0.48828033  0.88034673  1
  In  In46  1  0.33763357  0.83842931  0.37460409  1
  In  In47  1  0.34322402  0.84093989  0.87896173  1
  In  In48  1  0.68264331  0.16717348  0.37409364  1
  In  In49  1  0.67192151  0.15774265  0.87722205  1
  In  In50  1  0.66270664  0.48876776  0.37766176  1
  In  In51  1  0.67094242  0.52232219  0.87087278  1
  In  In52  1  0.66026756  0.83824433  0.37730181  1
  In  In53  1  0.67126063  0.83047091  0.87368528  1
  In  In54  1  0.16450783  0.00313296  0.12726707  1
  In  In55  1  0.14864195  -0.00160358  0.62047002  1
  In  In56  1  0.13991222  0.34574236  0.14662130  1
  In  In57  1  0.14241264  0.32448784  0.59966427  1
  In  In58  1  0.17938428  0.66030689  0.13389539  1
  In  In59  1  0.16196219  0.64673607  0.61697242  1
  In  In60  1  0.51346285  0.00920598  0.12255909  1
  In  In61  1  0.53133674  -0.00552786  0.63409980  1
  In  In62  1  0.50734892  0.32272152  0.12885437  1
  In  In63  1  0.49111071  0.33152184  0.62462003  1
  In  In64  1  0.48448578  0.66321011  0.12524397  1
  In  In65  1  0.50430848  0.67661702  0.60936356  1
  In  In66  1  0.82469019  -0.01091639  0.11657398  1
  In  In67  1  0.83013357  -0.00112210  0.62417801  1
  In  In68  1  0.84642849  0.34033367  0.11422132  1
  In  In69  1  0.85548525  0.33023129  0.62338165  1
  In  In70  1  0.84166183  0.66604897  0.12124313  1
  In  In71  1  0.82196031  0.68378619  0.63917068  1
  In  In72  1  0.66985082  0.66316074  0.24246970  1
  In  In73  1  0.32894747  0.33654029  0.74614239  1
  In  In74  1  0.16350230  0.82952767  0.50073187  1
  In  In75  1  0.50434810  0.16307797  0.50876721  1
  In  In76  1  0.83663167  0.50249999  0.50067224  1
  In  In77  1  0.67188538  0.33016806  0.75945768  1
  In  In78  1  0.16167578  0.83562634  0.00282579  1
  In  In79  1  0.33007488  0.66237429  0.73614909  1
  In  In80  1  0.33457788  -0.00122701  0.25684780  1
  In  In81  1  0.00046331  -0.00239483  0.25023524  1
  In  In82  1  0.16879088  0.17140657  0.00720866  1
  In  In83  1  0.33043633  0.00217972  0.75371717  1
  In  In84  1  0.50448066  0.50330295  -0.00229137  1
  In  In85  1  0.67332632  0.33279087  0.25315084  1
  Cu  Cu86  1  -0.00929532  0.00449537  0.50181608  1
  Cu  Cu87  1  0.83070629  0.83207916  0.24547819  1
  Cu  Cu88  1  0.67222240  -0.00570083  0.50170019  1
  Cu  Cu89  1  0.66911253  0.32536900  0.50162911  1
  Cu  Cu90  1  0.15954583  0.49824631  0.74906326  1
  Cu  Cu91  1  0.67328630  0.67412283  -0.00167603  1
  Cu  Cu92  1  0.50245465  0.16628584  0.25043103  1
  Cu  Cu93  1  0.66657224  0.00077016  -0.00339940  1
  Cu  Cu94  1  -0.00058763  0.66027070  -0.00208594  1
  Cu  Cu95  1  -0.00995820  -0.00300031  -0.00726539  1
  Cu  Cu96  1  0.83518407  0.16465449  0.24943875  1
  Cu  Cu97  1  0.32939245  0.33812749  0.49488253  1
  Cu  Cu98  1  0.33356448  0.66488311  0.00415002  1
  Cu  Cu99  1  0.34862673  0.00076760  0.00343299  1
  Cu  Cu100  1  0.00149791  0.32891805  -0.00141319  1
  Cu  Cu101  1  -0.00606099  0.67103325  0.50421379  1
  Cu  Cu102  1  0.49265047  0.50803805  0.25445705  1
  Cu  Cu103  1  0.33283184  0.33639176  0.00991906  1
  Cu  Cu104  1  0.50149905  0.83481075  0.25309577  1
  Cu  Cu105  1  0.50311760  0.50525538  0.74300980  1
  Cu  Cu106  1  0.15696010  0.17108897  0.74133569  1
  Cu  Cu107  1  0.66703846  0.67049010  0.50177639  1
  Cu  Cu108  1  0.34156253  0.00119822  0.49932160  1
  Cu  Cu109  1  0.15797198  0.83323356  0.74753687  1
  Cu  Cu110  1  0.84192843  0.50511302  0.75029152  1
  Cu  Cu111  1  0.16431421  0.49652759  0.25282525  1
  Cu  Cu112  1  0.67236913  0.33081213  -0.00238918  1
  Cu  Cu113  1  0.83717025  0.16532042  0.74761017  1
  Cu  Cu114  1  0.50511298  0.83084184  0.74698646  1
  Se  Se115  1  0.07123479  0.07370615  0.05578056  1
  Se  Se116  1  0.08160914  0.08632292  0.54880655  1
  Se  Se117  1  0.08527354  0.40804700  0.05560637  1
  Se  Se118  1  0.09604459  0.44687444  0.55173399  1
  Se  Se119  1  0.07791274  0.74008578  0.06183493  1
  Se  Se120  1  0.07101001  0.75177929  0.56756692  1
  Se  Se121  1  0.42226878  0.09031417  0.05820718  1
  Se  Se122  1  0.41674106  0.07202934  0.56998713  1
  Se  Se123  1  0.41874788  0.41898253  0.06530779  1
  Se  Se124  1  0.41657309  0.41291739  0.55202991  1
  Se  Se125  1  0.42040690  0.75089569  0.04962904  1
  Se  Se126  1  0.40763816  0.73884084  0.54014387  1
  Se  Se127  1  0.74954893  0.08363984  0.05198537  1
  Se  Se128  1  0.75031953  0.08529247  0.55242466  1
  Se  Se129  1  0.75479477  0.41755860  0.04738749  1
  Se  Se130  1  0.74809364  0.40951279  0.56253292  1
  Se  Se131  1  0.75898804  0.75202453  0.05424963  1
  Se  Se132  1  0.75206578  0.75125722  0.55573614  1
  Se  Se133  1  0.25099634  0.26054749  0.07176807  1
  Se  Se134  1  0.25010369  0.24954559  0.54736471  1
  Se  Se135  1  0.24919916  0.58192016  0.05477136  1
  Se  Se136  1  0.26545690  0.60651315  0.54646074  1
  Se  Se137  1  0.26040560  0.92458497  0.06055695  1
  Se  Se138  1  0.25647555  0.92251013  0.56022202  1
  Se  Se139  1  0.58484186  0.25267724  0.05148851  1
  Se  Se140  1  0.59639927  0.24851618  0.57001965  1
  Se  Se141  1  0.59357422  0.59312390  0.06108451  1
  Se  Se142  1  0.58745019  0.57968922  0.55106777  1
  Se  Se143  1  0.58579958  0.91762571  0.05410764  1
  Se  Se144  1  0.58153999  0.91362708  0.55076558  1
  Se  Se145  1  0.91559869  0.24285488  0.04683138  1
  Se  Se146  1  0.92464068  0.25906934  0.54421182  1
  Se  Se147  1  0.91678523  0.57674077  0.05223251  1
  Se  Se148  1  0.91409173  0.59419772  0.56834102  1
  Se  Se149  1  0.91204263  0.91036838  0.04771248  1
  Se  Se150  1  0.91402806  0.91535520  0.55518588  1
  Se  Se151  1  0.09496691  0.24483544  0.44549300  1
  Se  Se152  1  0.07918614  0.24636079  0.93629938  1
  Se  Se153  1  0.07606353  0.59141847  0.44725400  1
  Se  Se154  1  0.08719966  0.57536136  0.95034073  1
  Se  Se155  1  0.07167849  0.92269281  0.44117044  1
  Se  Se156  1  0.07288390  0.91568944  0.93587511  1
  Se  Se157  1  0.41648477  0.25192689  0.44310999  1
  Se  Se158  1  0.41470942  0.25168132  0.95717810  1
  Se  Se159  1  0.43765863  0.55760353  0.43783989  1
  Se  Se160  1  0.41233883  0.59174731  0.93540350  1
  Se  Se161  1  0.42031976  0.91332399  0.44855059  1
  Se  Se162  1  0.42676003  0.91324684  0.95062342  1
  Se  Se163  1  0.75553312  0.24660004  0.44928013  1
  Se  Se164  1  0.75271481  0.24477155  0.94449187  1
  Se  Se165  1  0.74485702  0.59102595  0.43808649  1
  Se  Se166  1  0.75260567  0.58206589  0.95071961  1
  Se  Se167  1  0.75288362  0.91292192  0.44441961  1
  Se  Se168  1  0.75027424  0.91770454  0.94287269  1
  Se  Se169  1  0.25282644  0.08407890  0.45273628  1
  Se  Se170  1  0.25803451  0.07499520  0.94629544  1
  Se  Se171  1  0.24660921  0.42016786  0.44111287  1
  Se  Se172  1  0.24737951  0.41732714  0.95677849  1
  Se  Se173  1  0.24554772  0.74623461  0.43255757  1
  Se  Se174  1  0.25468062  0.74534782  0.94031141  1
  Se  Se175  1  0.59099882  0.07770169  0.44144745  1
  Se  Se176  1  0.58059964  0.08738334  0.94805282  1
  Se  Se177  1  0.58633445  0.41308446  0.45367111  1
  Se  Se178  1  0.59511425  0.41385350  0.93564015  1
  Se  Se179  1  0.58283766  0.75311250  0.44728707  1
  Se  Se180  1  0.58449063  0.75414934  0.94764668  1
  Se  Se181  1  0.91061824  0.08785979  0.44577769  1
  Se  Se182  1  0.91095994  0.08689340  0.94235017  1
  Se  Se183  1  0.92589866  0.41391481  0.44162321  1
  Se  Se184  1  0.91786892  0.41401788  0.94618964  1
  Se  Se185  1  0.91073535  0.75512041  0.45230717  1
  Se  Se186  1  0.92122288  0.74973068  0.94473419  1
  Se  Se187  1  0.25253222  0.25467815  0.30021954  1
  Se  Se188  1  0.23796620  0.24367344  0.80699806  1
  Se  Se189  1  0.24637679  0.58434513  0.30330170  1
  Se  Se190  1  0.24667139  0.57588392  0.80706339  1
  Se  Se191  1  0.23578843  0.90803074  0.30761957  1
  Se  Se192  1  0.23921175  0.90691899  0.81129458  1
  Se  Se193  1  0.57777917  0.24842033  0.31543063  1
  Se  Se194  1  0.57325364  0.24531752  0.81421598  1
  Se  Se195  1  0.58156844  0.58252523  0.31113699  1
  Se  Se196  1  0.58451023  0.58924565  0.79597056  1
  Se  Se197  1  0.58884277  0.91933478  0.30003407  1
  Se  Se198  1  0.58407124  0.91279037  0.80455426  1
  Se  Se199  1  0.91451142  0.24789374  0.30506641  1
  Se  Se200  1  0.91973230  0.25400284  0.79720510  1
  Se  Se201  1  0.92158517  0.58776694  0.30037050  1
  Se  Se202  1  0.92247184  0.58462602  0.80963595  1
  Se  Se203  1  0.90890970  0.90968693  0.31078350  1
  Se  Se204  1  0.92860457  0.93439803  0.80234518  1
  Se  Se205  1  0.08543817  0.08637702  0.31352265  1
  Se  Se206  1  0.08289579  0.08170988  0.79656751  1
  Se  Se207  1  0.07893469  0.41484814  0.30554958  1
  Se  Se208  1  0.08262307  0.41271891  0.80569156  1
  Se  Se209  1  0.07382278  0.74912350  0.29724515  1
  Se  Se210  1  0.08346297  0.74298978  0.80074537  1
  Se  Se211  1  0.42348613  0.09235232  0.31681150  1
  Se  Se212  1  0.41586099  0.08816173  0.81828164  1
  Se  Se213  1  0.41218291  0.41585894  0.30115369  1
  Se  Se214  1  0.42488524  0.42752763  0.80602919  1
  Se  Se215  1  0.41755694  0.75262345  0.30551693  1
  Se  Se216  1  0.41730381  0.75224721  0.80300024  1
  Se  Se217  1  0.74908563  0.08117252  0.29927769  1
  Se  Se218  1  0.75072486  0.08508336  0.80116786  1
  Se  Se219  1  0.76392078  0.42827873  0.30735191  1
  Se  Se220  1  0.76235626  0.42560817  0.81384040  1
  Se  Se221  1  0.75304670  0.75198968  0.30900615  1
  Se  Se222  1  0.74613605  0.73884729  0.80822569  1
  Se  Se223  1  0.24270008  0.08916170  0.19773350  1
  Se  Se224  1  0.24343906  0.09010596  0.68702036  1
  Se  Se225  1  0.25076623  0.41183373  0.20162783  1
  Se  Se226  1  0.23766281  0.42034598  0.68498459  1
  Se  Se227  1  0.25078326  0.75490078  0.19969248  1
  Se  Se228  1  0.23780375  0.75872412  0.68383431  1
  Se  Se229  1  0.58887563  0.08584153  0.19919219  1
  Se  Se230  1  0.56935117  0.09140794  0.71024592  1
  Se  Se231  1  0.57746863  0.42732977  0.19625002  1
  Se  Se232  1  0.58398488  0.41681247  0.69067990  1
  Se  Se233  1  0.57616131  0.75583006  0.18714592  1
  Se  Se234  1  0.58081331  0.74646965  0.68827173  1
  Se  Se235  1  0.91076469  0.08332450  0.18580829  1
  Se  Se236  1  0.91781372  0.08477347  0.68883699  1
  Se  Se237  1  0.93052703  0.40003736  0.19090308  1
  Se  Se238  1  0.92019856  0.41659840  0.69877888  1
  Se  Se239  1  0.91591286  0.74790193  0.19636554  1
  Se  Se240  1  0.91237195  0.75232290  0.70957046  1
  Se  Se241  1  0.08907290  0.23058658  0.20300919  1
  Se  Se242  1  0.07980049  0.25509124  0.68518676  1
  Se  Se243  1  0.08535789  0.57779565  0.19291404  1
  Se  Se244  1  0.08111118  0.58898637  0.69868063  1
  Se  Se245  1  0.08997705  0.90524780  0.19023141  1
  Se  Se246  1  0.07865465  0.92322117  0.69842635  1
  Se  Se247  1  0.41982347  0.25202102  0.20051898  1
  Se  Se248  1  0.42529153  0.23848962  0.70021847  1
  Se  Se249  1  0.40804520  0.58912168  0.20051480  1
  Se  Se250  1  0.42094030  0.57335684  0.67797481  1
  Se  Se251  1  0.42297627  0.91586703  0.18960885  1
  Se  Se252  1  0.41796281  0.91006880  0.69067401  1
  Se  Se253  1  0.75713678  0.24640334  0.18653641  1
  Se  Se254  1  0.75509177  0.24698585  0.68839832  1
  Se  Se255  1  0.76348373  0.56920224  0.19111148  1
  Se  Se256  1  0.74986703  0.58445988  0.70300845  1
  Se  Se257  1  0.74797912  0.91911961  0.19641022  1
  Se  Se258  1  0.72790037  0.93725264  0.68993729  1
