# generated using pymatgen
data_In86Cu29Se144
_symmetry_space_group_name_H-M   'P 1'
_cell_length_a   17.57606576
_cell_length_b   17.57942862
_cell_length_c   23.43731389
_cell_angle_alpha   90.02648935
_cell_angle_beta   90.02241882
_cell_angle_gamma   89.99330189
_symmetry_Int_Tables_number   1
_chemical_formula_structural   In86Cu29Se144
_chemical_formula_sum   'In86 Cu29 Se144'
_cell_volume   7241.59408730
_cell_formula_units_Z   1
loop_
 _symmetry_equiv_pos_site_id
 _symmetry_equiv_pos_as_xyz
  1  'x, y, z'
loop_
 _atom_site_type_symbol
 _atom_site_label
 _atom_site_symmetry_multiplicity
 _atom_site_fract_x
 _atom_site_fract_y
 _atom_site_fract_z
 _atom_site_occupancy
  In  In0  1  0.00355100  0.15776622  0.12278291  1
  In  In1  1  -0.00874023  0.16901107  0.62306147  1
  In  In2  1  0.01010955  0.51251241  0.11207983  1
  In  In3  1  -0.02199903  0.47557822  0.60260257  1
  In  In4  1  -0.01572891  0.82819428  0.12023839  1
  In  In5  1  -0.00482838  0.85047145  0.63032398  1
  In  In6  1  0.33711071  0.17321102  0.12614127  1
  In  In7  1  0.32960850  0.17706770  0.61439769  1
  In  In8  1  0.32719656  0.50996819  0.13644418  1
  In  In9  1  0.31654948  0.49234086  0.61446559  1
  In  In10  1  0.33907612  0.81819744  0.12472557  1
  In  In11  1  0.34310943  0.82405580  0.62204683  1
  In  In12  1  0.66284171  0.17943886  0.12134260  1
  In  In13  1  0.66912438  0.16362632  0.62669129  1
  In  In14  1  0.68607383  0.50415507  0.12223444  1
  In  In15  1  0.67727390  0.48888262  0.63315358  1
  In  In16  1  0.65824510  0.82728061  0.11266150  1
  In  In17  1  0.66508138  0.82931285  0.62665414  1
  In  In18  1  0.17481414  0.00666063  0.37880295  1
  In  In19  1  0.16917103  0.01737885  0.87030590  1
  In  In20  1  0.17710853  0.33485375  0.38596764  1
  In  In21  1  0.15663376  0.34071703  0.88001750  1
  In  In22  1  0.15979945  0.65586253  0.36614852  1
  In  In23  1  0.15239538  0.65751930  0.88418124  1
  In  In24  1  0.50036231  -0.00066964  0.38681990  1
  In  In25  1  0.53802453  -0.02193618  0.90401392  1
  In  In26  1  0.47308107  0.33730313  0.37976824  1
  In  In27  1  0.49724259  0.32259460  0.87327958  1
  In  In28  1  0.51321168  0.66744029  0.36166062  1
  In  In29  1  0.51823529  0.67236847  0.87185651  1
  In  In30  1  0.82767587  0.00457798  0.38368829  1
  In  In31  1  0.81971377  -0.01181801  0.86460606  1
  In  In32  1  0.83997230  0.33289194  0.38973881  1
  In  In33  1  0.84252378  0.33976148  0.86476766  1
  In  In34  1  0.83035400  0.66651898  0.37751601  1
  In  In35  1  0.83182070  0.67862112  0.88707667  1
  In  In36  1  0.00025964  0.18030125  0.39001588  1
  In  In37  1  0.00066576  0.17552558  0.86565208  1
  In  In38  1  -0.00924994  0.50570646  0.38698936  1
  In  In39  1  0.00462429  0.49771401  0.88380397  1
  In  In40  1  -0.00086915  0.81833430  0.37448385  1
  In  In41  1  -0.02567989  0.83246250  0.87797198  1
  In  In42  1  0.32060765  0.18411345  0.39507704  1
  In  In43  1  0.33668105  0.16579571  0.88014690  1
  In  In44  1  0.32990130  0.48823934  0.35525573  1
  In  In45  1  0.32216719  0.49283934  0.87765257  1
  In  In46  1  0.35036579  0.83375208  0.37454539  1
  In  In47  1  0.34935617  0.84095900  0.87741678  1
  In  In48  1  0.66724756  0.16456000  0.38465557  1
  In  In49  1  0.65927378  0.15943389  0.86626961  1
  In  In50  1  0.66224767  0.51299011  0.37377379  1
  In  In51  1  0.67708261  0.50980463  0.86397043  1
  In  In52  1  0.67471091  0.82647714  0.38296851  1
  In  In53  1  0.67322252  0.83584746  0.87588860  1
  In  In54  1  0.15665935  0.00833147  0.11925322  1
  In  In55  1  0.14941460  0.00692818  0.63001421  1
  In  In56  1  0.17088173  0.33967725  0.12429509  1
  In  In57  1  0.13673631  0.30850538  0.59067806  1
  In  In58  1  0.17353240  0.65582326  0.13081837  1
  In  In59  1  0.16516500  0.64815913  0.62190129  1
  In  In60  1  0.50774099  0.00412458  0.11340976  1
  In  In61  1  0.50559242  0.00259519  0.62419084  1
  In  In62  1  0.49451922  0.32199672  0.12740163  1
  In  In63  1  0.50909812  0.33326705  0.62557443  1
  In  In64  1  0.49421857  0.67098722  0.13223657  1
  In  In65  1  0.50758929  0.67785505  0.62146909  1
  In  In66  1  0.84062918  -0.00201701  0.11812437  1
  In  In67  1  0.83205479  0.00012560  0.62539285  1
  In  In68  1  0.82235207  0.34352061  0.12579071  1
  In  In69  1  0.83263994  0.32754916  0.62293283  1
  In  In70  1  0.83428894  0.66351501  0.12874253  1
  In  In71  1  0.82126162  0.65645253  0.61909119  1
  In  In72  1  0.33464933  -0.00204556  0.25343707  1
  In  In73  1  0.49687289  0.50004144  0.49341996  1
  In  In74  1  0.66708747  -0.00217813  0.24898836  1
  In  In75  1  0.66282035  0.33964746  0.25218165  1
  In  In76  1  0.33793788  0.66147634  0.75171235  1
  In  In77  1  0.33327506  0.33462480  0.74496992  1
  In  In78  1  -0.00313689  -0.00268958  0.24507708  1
  In  In79  1  -0.00355386  0.33629485  0.26032518  1
  In  In80  1  0.49713480  0.50093974  0.00168777  1
  In  In81  1  0.34331722  0.00417363  0.74647365  1
  In  In82  1  0.16947496  0.83411545  0.00082511  1
  In  In83  1  0.16337826  0.83428188  0.50331346  1
  In  In84  1  0.82840050  0.16469556  -0.00466035  1
  In  In85  1  -0.00401412  0.66924784  0.75790791  1
  Cu  Cu86  1  0.32172210  0.33204817  0.00201052  1
  Cu  Cu87  1  0.33297026  0.00177285  0.50294492  1
  Cu  Cu88  1  0.82960985  0.82654261  0.25126688  1
  Cu  Cu89  1  -0.00512603  0.67172886  0.49804018  1
  Cu  Cu90  1  0.66378626  0.33460045  -0.00334060  1
  Cu  Cu91  1  -0.00383086  0.32846453  -0.00511924  1
  Cu  Cu92  1  0.33622819  0.00667593  -0.00172072  1
  Cu  Cu93  1  0.15071194  0.49196127  0.74895879  1
  Cu  Cu94  1  0.16920913  0.83375432  0.74860633  1
  Cu  Cu95  1  0.15884394  0.17655457  0.74631250  1
  Cu  Cu96  1  0.00063591  0.00196365  -0.00599666  1
  Cu  Cu97  1  -0.00533348  0.00340917  0.50438049  1
  Cu  Cu98  1  0.82788265  0.83432975  0.74908421  1
  Cu  Cu99  1  0.50350669  0.82942098  0.24765811  1
  Cu  Cu100  1  0.66626660  0.66575716  0.49783708  1
  Cu  Cu101  1  0.51034078  0.15855664  0.75349118  1
  Cu  Cu102  1  0.66736653  0.33037343  0.50534160  1
  Cu  Cu103  1  0.83496648  0.49833644  0.74548825  1
  Cu  Cu104  1  0.16342502  0.49970935  0.24762198  1
  Cu  Cu105  1  0.16545144  0.82159091  0.24760897  1
  Cu  Cu106  1  0.83752575  0.50652678  0.25379452  1
  Cu  Cu107  1  0.66960088  -0.00273973  0.50812174  1
  Cu  Cu108  1  0.33737060  0.66511142  0.00618145  1
  Cu  Cu109  1  0.83264919  0.16589205  0.74449199  1
  Cu  Cu110  1  0.34004987  0.67248862  0.49156717  1
  Cu  Cu111  1  0.50223188  0.50540082  0.74341168  1
  Cu  Cu112  1  0.67313837  0.67175238  -0.00111660  1
  Cu  Cu113  1  0.16685574  0.17223621  0.25978382  1
  Cu  Cu114  1  0.49163651  0.16938056  0.25582555  1
  Se  Se115  1  0.08285277  0.08827818  0.04495371  1
  Se  Se116  1  0.08108224  0.08671482  0.55404358  1
  Se  Se117  1  0.07871879  0.40745816  0.05399990  1
  Se  Se118  1  0.11014663  0.44745448  0.56119055  1
  Se  Se119  1  0.08480715  0.74419796  0.06257226  1
  Se  Se120  1  0.07321957  0.74522693  0.56509181  1
  Se  Se121  1  0.41584907  0.09012960  0.05565935  1
  Se  Se122  1  0.41613491  0.08290598  0.55827557  1
  Se  Se123  1  0.40580054  0.41207801  0.06145299  1
  Se  Se124  1  0.41324484  0.40651497  0.55592672  1
  Se  Se125  1  0.42599765  0.74934868  0.05175552  1
  Se  Se126  1  0.42346054  0.75083209  0.54756952  1
  Se  Se127  1  0.73908495  0.07807635  0.05805052  1
  Se  Se128  1  0.75386195  0.08598044  0.55520424  1
  Se  Se129  1  0.75074535  0.41678948  0.04649621  1
  Se  Se130  1  0.75106422  0.41733932  0.55451371  1
  Se  Se131  1  0.75881212  0.75018612  0.05547983  1
  Se  Se132  1  0.74747346  0.75007506  0.55313993  1
  Se  Se133  1  0.24425828  0.24525994  0.05791902  1
  Se  Se134  1  0.25973165  0.26150726  0.54290586  1
  Se  Se135  1  0.25326260  0.58016197  0.05558608  1
  Se  Se136  1  0.25604693  0.59181634  0.54571940  1
  Se  Se137  1  0.26068208  0.92499715  0.06299113  1
  Se  Se138  1  0.25246507  0.92380718  0.56633957  1
  Se  Se139  1  0.57880353  0.25496286  0.05045865  1
  Se  Se140  1  0.58397170  0.24624393  0.55683547  1
  Se  Se141  1  0.59093101  0.59050388  0.05848080  1
  Se  Se142  1  0.59000374  0.57997207  0.55880744  1
  Se  Se143  1  0.59041336  0.92347752  0.04722989  1
  Se  Se144  1  0.58248601  0.91293090  0.55637093  1
  Se  Se145  1  0.91668477  0.25392165  0.06100880  1
  Se  Se146  1  0.92505737  0.26130754  0.55202177  1
  Se  Se147  1  0.89181124  0.56156274  0.06062179  1
  Se  Se148  1  0.91102749  0.58535179  0.54842423  1
  Se  Se149  1  0.91861727  0.91713545  0.04632429  1
  Se  Se150  1  0.91303807  0.91508989  0.55340124  1
  Se  Se151  1  0.08956599  0.25800073  0.45392161  1
  Se  Se152  1  0.08076742  0.24484252  0.94365507  1
  Se  Se153  1  0.08381043  0.59088164  0.44738729  1
  Se  Se154  1  0.08591881  0.57389277  0.95690040  1
  Se  Se155  1  0.07383616  0.92403716  0.44026051  1
  Se  Se156  1  0.08300498  0.92112351  0.93460174  1
  Se  Se157  1  0.43891978  0.23097613  0.44927001  1
  Se  Se158  1  0.41147217  0.25664561  0.94814783  1
  Se  Se159  1  0.41404879  0.58998217  0.42946481  1
  Se  Se160  1  0.41134191  0.59062347  0.93550123  1
  Se  Se161  1  0.41503431  0.91509653  0.45264693  1
  Se  Se162  1  0.42069325  0.91590075  0.95483362  1
  Se  Se163  1  0.75154605  0.24735412  0.45148458  1
  Se  Se164  1  0.74519787  0.25809065  0.93350840  1
  Se  Se165  1  0.75003966  0.57979872  0.44712607  1
  Se  Se166  1  0.74796586  0.58196167  0.94452762  1
  Se  Se167  1  0.75095679  0.91555939  0.45024243  1
  Se  Se168  1  0.76328918  0.90933943  0.94574508  1
  Se  Se169  1  0.24415229  0.08485002  0.45523263  1
  Se  Se170  1  0.24849036  0.08642605  0.94763724  1
  Se  Se171  1  0.26964014  0.42325019  0.44140734  1
  Se  Se172  1  0.24149366  0.41954358  0.95065961  1
  Se  Se173  1  0.25002842  0.75025186  0.43604685  1
  Se  Se174  1  0.26066560  0.74347815  0.93892323  1
  Se  Se175  1  0.58665909  0.07996083  0.45260117  1
  Se  Se176  1  0.57574822  0.10620059  0.94752097  1
  Se  Se177  1  0.59103185  0.40676520  0.43769848  1
  Se  Se178  1  0.58576764  0.41735765  0.93529930  1
  Se  Se179  1  0.57952751  0.74500345  0.44302355  1
  Se  Se180  1  0.58703173  0.75342573  0.94706097  1
  Se  Se181  1  0.91477040  0.08752035  0.44854384  1
  Se  Se182  1  0.91826712  0.07907450  0.93231975  1
  Se  Se183  1  0.93086738  0.40759947  0.45524903  1
  Se  Se184  1  0.91177900  0.41370041  0.94530109  1
  Se  Se185  1  0.90963041  0.75492511  0.44749547  1
  Se  Se186  1  0.94401870  0.72773105  0.94895074  1
  Se  Se187  1  0.25326441  0.25278621  0.31101138  1
  Se  Se188  1  0.24437785  0.24784190  0.80930365  1
  Se  Se189  1  0.25096067  0.58582359  0.29622804  1
  Se  Se190  1  0.23382871  0.57514962  0.80581071  1
  Se  Se191  1  0.23986201  0.90464056  0.30947134  1
  Se  Se192  1  0.25031871  0.91275105  0.80848639  1
  Se  Se193  1  0.57835886  0.24594453  0.31379290  1
  Se  Se194  1  0.58541456  0.25573530  0.80060658  1
  Se  Se195  1  0.58859660  0.57858061  0.29400102  1
  Se  Se196  1  0.58546897  0.58696394  0.79758757  1
  Se  Se197  1  0.57696821  0.91138519  0.31128656  1
  Se  Se198  1  0.58731167  0.92196792  0.81150690  1
  Se  Se199  1  0.90632078  0.24029075  0.31243877  1
  Se  Se200  1  0.91748999  0.25233578  0.79452312  1
  Se  Se201  1  0.92044673  0.58648245  0.31036544  1
  Se  Se202  1  0.90716375  0.57574493  0.81432454  1
  Se  Se203  1  0.90761383  0.91188248  0.31013982  1
  Se  Se204  1  0.91753868  0.91625270  0.79859514  1
  Se  Se205  1  0.08237251  0.08840344  0.31208815  1
  Se  Se206  1  0.08158274  0.08630836  0.79829997  1
  Se  Se207  1  0.09031358  0.42493751  0.31623312  1
  Se  Se208  1  0.07115701  0.41186072  0.80672830  1
  Se  Se209  1  0.07735656  0.74388499  0.30011745  1
  Se  Se210  1  0.09127913  0.76042141  0.81483986  1
  Se  Se211  1  0.41665851  0.08767136  0.31775029  1
  Se  Se212  1  0.42813089  0.08394330  0.81560368  1
  Se  Se213  1  0.43998110  0.42702133  0.29800298  1
  Se  Se214  1  0.42201668  0.42844572  0.80670030  1
  Se  Se215  1  0.41660310  0.74892466  0.29992881  1
  Se  Se216  1  0.42796543  0.75811205  0.80361302  1
  Se  Se217  1  0.75404726  0.09069181  0.30767211  1
  Se  Se218  1  0.74880509  0.08348853  0.79908166  1
  Se  Se219  1  0.76197330  0.42054583  0.31373843  1
  Se  Se220  1  0.74913392  0.41450427  0.79828410  1
  Se  Se221  1  0.74548961  0.74678002  0.30628610  1
  Se  Se222  1  0.75502201  0.74779464  0.80792639  1
  Se  Se223  1  0.23882008  0.08700621  0.19617711  1
  Se  Se224  1  0.24632233  0.09581500  0.69110093  1
  Se  Se225  1  0.24948696  0.41355008  0.19963308  1
  Se  Se226  1  0.23526667  0.41686003  0.68933212  1
  Se  Se227  1  0.25572328  0.74475857  0.19622756  1
  Se  Se228  1  0.24241982  0.74972203  0.68955588  1
  Se  Se229  1  0.57413548  0.09484342  0.19377656  1
  Se  Se230  1  0.58981938  0.07664131  0.69678763  1
  Se  Se231  1  0.58286580  0.42249159  0.18149700  1
  Se  Se232  1  0.58428253  0.41306971  0.69893525  1
  Se  Se233  1  0.59037255  0.75194520  0.19306837  1
  Se  Se234  1  0.58901494  0.74232358  0.69712361  1
  Se  Se235  1  0.90404323  0.09360178  0.19310445  1
  Se  Se236  1  0.91836204  0.08106022  0.69431186  1
  Se  Se237  1  0.91424376  0.42397819  0.19285161  1
  Se  Se238  1  0.91678045  0.41480617  0.69151384  1
  Se  Se239  1  0.91808064  0.74828162  0.19808202  1
  Se  Se240  1  0.90879692  0.75204727  0.68946103  1
  Se  Se241  1  0.08426446  0.24505638  0.19557809  1
  Se  Se242  1  0.08230339  0.25673013  0.68575959  1
  Se  Se243  1  0.07730425  0.58190861  0.19590090  1
  Se  Se244  1  0.07257272  0.57629215  0.69117392  1
  Se  Se245  1  0.09071947  0.90578707  0.18697960  1
  Se  Se246  1  0.08186853  0.92005859  0.70348079  1
  Se  Se247  1  0.40928200  0.25314511  0.20264430  1
  Se  Se248  1  0.42573105  0.23688132  0.69363289  1
  Se  Se249  1  0.42445721  0.57916121  0.19889569  1
  Se  Se250  1  0.41605924  0.57380381  0.68083586  1
  Se  Se251  1  0.42693166  0.91540139  0.18871360  1
  Se  Se252  1  0.42767472  0.90373983  0.69307505  1
  Se  Se253  1  0.75555432  0.24465749  0.19568208  1
  Se  Se254  1  0.74782069  0.25195762  0.69506841  1
  Se  Se255  1  0.74914984  0.58564791  0.20156944  1
  Se  Se256  1  0.74857184  0.58560707  0.69928300  1
  Se  Se257  1  0.75737662  0.90993891  0.18798398  1
  Se  Se258  1  0.74757910  0.91749377  0.69349546  1
