# generated using pymatgen
data_In86Cu29Se144
_symmetry_space_group_name_H-M   'P 1'
_cell_length_a   17.58573195
_cell_length_b   17.58948015
_cell_length_c   23.45469936
_cell_angle_alpha   90.01004569
_cell_angle_beta   90.01795022
_cell_angle_gamma   89.99203664
_symmetry_Int_Tables_number   1
_chemical_formula_structural   In86Cu29Se144
_chemical_formula_sum   'In86 Cu29 Se144'
_cell_volume   7255.09814348
_cell_formula_units_Z   1
loop_
 _symmetry_equiv_pos_site_id
 _symmetry_equiv_pos_as_xyz
  1  'x, y, z'
loop_
 _atom_site_type_symbol
 _atom_site_label
 _atom_site_symmetry_multiplicity
 _atom_site_fract_x
 _atom_site_fract_y
 _atom_site_fract_z
 _atom_site_occupancy
  In  In0  1  0.00829932  0.14692559  0.12988715  1
  In  In1  1  -0.01269411  0.16089942  0.62460721  1
  In  In2  1  0.00803854  0.50411831  0.12233220  1
  In  In3  1  -0.00746770  0.51795685  0.62341400  1
  In  In4  1  -0.00207394  0.83672002  0.13846409  1
  In  In5  1  0.01212865  0.83604506  0.60883826  1
  In  In6  1  0.33955152  0.16485408  0.12108467  1
  In  In7  1  0.32868006  0.15351846  0.62037021  1
  In  In8  1  0.33851298  0.50471333  0.12724716  1
  In  In9  1  0.35257932  0.50784262  0.62878119  1
  In  In10  1  0.33622739  0.84198327  0.13800957  1
  In  In11  1  0.33535143  0.83423482  0.62086008  1
  In  In12  1  0.65888933  0.16995403  0.12433448  1
  In  In13  1  0.65430608  0.17701825  0.63176661  1
  In  In14  1  0.65797906  0.49442344  0.11285244  1
  In  In15  1  0.66935904  0.49475480  0.63210203  1
  In  In16  1  0.67446683  0.83667160  0.12893538  1
  In  In17  1  0.66436104  0.83475737  0.62368699  1
  In  In18  1  0.16084171  -0.01346197  0.36900351  1
  In  In19  1  0.17419566  0.00569326  0.87043917  1
  In  In20  1  0.17998155  0.32541314  0.37013680  1
  In  In21  1  0.17573189  0.32540773  0.88853850  1
  In  In22  1  0.17838329  0.67667012  0.36855491  1
  In  In23  1  0.16944849  0.65436752  0.87776518  1
  In  In24  1  0.50125704  -0.00244955  0.37509065  1
  In  In25  1  0.49936370  0.00166031  0.87192023  1
  In  In26  1  0.47973432  0.32528917  0.37553509  1
  In  In27  1  0.50412014  0.32646897  0.87705245  1
  In  In28  1  0.49810207  0.67702068  0.37020381  1
  In  In29  1  0.49059349  0.65606146  0.86094815  1
  In  In30  1  0.81834690  -0.01330354  0.36771114  1
  In  In31  1  0.82821841  -0.00706951  0.86483066  1
  In  In32  1  0.83898700  0.34011162  0.37926057  1
  In  In33  1  0.82864044  0.34679320  0.87563096  1
  In  In34  1  0.84164549  0.66590359  0.38768675  1
  In  In35  1  0.82032037  0.66153181  0.87105342  1
  In  In36  1  0.00788165  0.16520761  0.36959406  1
  In  In37  1  0.01021955  0.16086639  0.87851506  1
  In  In38  1  -0.01336150  0.50577147  0.37511364  1
  In  In39  1  0.00539863  0.49513909  0.88570638  1
  In  In40  1  0.00056107  0.83024857  0.38132031  1
  In  In41  1  -0.01103809  0.83522499  0.87183923  1
  In  In42  1  0.34819801  0.17245804  0.36820401  1
  In  In43  1  0.33908216  0.15512145  0.88720033  1
  In  In44  1  0.33523831  0.49572306  0.36139501  1
  In  In45  1  0.33317919  0.50268964  0.88090090  1
  In  In46  1  0.33725084  0.83117864  0.37147692  1
  In  In47  1  0.33764016  0.83617718  0.86762870  1
  In  In48  1  0.66465276  0.13854922  0.37194521  1
  In  In49  1  0.65405271  0.15587301  0.86663726  1
  In  In50  1  0.66616328  0.51379799  0.37661889  1
  In  In51  1  0.66205671  0.49962752  0.87225644  1
  In  In52  1  0.65473887  0.84436945  0.38827302  1
  In  In53  1  0.66001285  0.82784423  0.86023487  1
  In  In54  1  0.16870597  0.00074113  0.12697971  1
  In  In55  1  0.17868787  -0.01055068  0.62942066  1
  In  In56  1  0.18221606  0.34347577  0.11896880  1
  In  In57  1  0.16901120  0.32505883  0.62557469  1
  In  In58  1  0.17600487  0.65592099  0.13321961  1
  In  In59  1  0.16506877  0.68154955  0.62241078  1
  In  In60  1  0.48508225  0.01940127  0.14135812  1
  In  In61  1  0.49759408  -0.00014970  0.62257975  1
  In  In62  1  0.49544915  0.32801080  0.11960312  1
  In  In63  1  0.51297308  0.34230979  0.62265643  1
  In  In64  1  0.49946860  0.65690135  0.12831582  1
  In  In65  1  0.48845661  0.67393254  0.63293262  1
  In  In66  1  0.83519006  0.00576282  0.14404574  1
  In  In67  1  0.83862145  -0.00892202  0.62756660  1
  In  In68  1  0.82316181  0.33981847  0.12166664  1
  In  In69  1  0.81583797  0.33224727  0.62496586  1
  In  In70  1  0.84206675  0.66793354  0.12859254  1
  In  In71  1  0.83041946  0.65906688  0.61145686  1
  In  In72  1  -0.00018101  0.67309273  0.74788201  1
  In  In73  1  0.50219194  0.50323660  0.50062667  1
  In  In74  1  0.83161390  0.82879598  -0.00096146  1
  In  In75  1  0.83392764  0.16896917  0.00413984  1
  In  In76  1  0.00520390  0.33204201  0.25220871  1
  In  In77  1  0.66267407  0.32867238  0.24067647  1
  In  In78  1  0.16665661  0.83287484  0.01233576  1
  In  In79  1  0.49924815  0.83525937  -0.00058000  1
  In  In80  1  0.66161878  0.67278223  0.25457118  1
  In  In81  1  0.82845771  0.16528933  0.49700318  1
  In  In82  1  0.16861946  0.50519070  0.48916545  1
  In  In83  1  0.33917282  0.32737050  0.75773486  1
  In  In84  1  -0.00537728  0.33226455  0.76243830  1
  In  In85  1  0.17198057  0.16311596  0.49321449  1
  Cu  Cu86  1  0.17800394  0.16516210  0.24738845  1
  Cu  Cu87  1  0.82909983  0.50616267  0.25078677  1
  Cu  Cu88  1  0.16092329  0.15446371  0.75146102  1
  Cu  Cu89  1  0.33473496  0.33683660  0.00262007  1
  Cu  Cu90  1  0.33098688  0.67229231  0.49867345  1
  Cu  Cu91  1  0.49759459  0.83895227  0.74374418  1
  Cu  Cu92  1  0.16363056  0.84035960  0.25346900  1
  Cu  Cu93  1  0.83397534  0.83719080  0.74143266  1
  Cu  Cu94  1  0.00102199  -0.00424438  0.00387911  1
  Cu  Cu95  1  0.00019062  0.34826411  0.50030785  1
  Cu  Cu96  1  0.82679652  0.16095463  0.74631246  1
  Cu  Cu97  1  0.66608726  0.33550529  0.50230408  1
  Cu  Cu98  1  0.17983178  0.50059299  0.75458627  1
  Cu  Cu99  1  0.16907288  0.83783116  0.74377191  1
  Cu  Cu100  1  0.65959858  0.00266298  -0.00276305  1
  Cu  Cu101  1  0.33610569  -0.00725386  0.49761241  1
  Cu  Cu102  1  0.16524041  0.50404616  0.24417208  1
  Cu  Cu103  1  0.33238755  0.66380233  0.00140926  1
  Cu  Cu104  1  0.00021471  0.65478569  0.00592447  1
  Cu  Cu105  1  0.50408900  0.16217862  0.24853398  1
  Cu  Cu106  1  0.66261573  0.65538579  -0.00688767  1
  Cu  Cu107  1  0.66500532  0.33561695  -0.00323878  1
  Cu  Cu108  1  0.66044008  0.00098959  0.50375776  1
  Cu  Cu109  1  0.82953562  0.50072445  0.74806490  1
  Cu  Cu110  1  0.66754621  0.67109190  0.50088725  1
  Cu  Cu111  1  0.49381977  0.16340341  0.75027914  1
  Cu  Cu112  1  0.00195525  0.00079724  0.49781038  1
  Cu  Cu113  1  0.00325656  0.33267406  0.00280046  1
  Cu  Cu114  1  0.83501976  0.83291717  0.25984375  1
  Se  Se115  1  0.08767527  0.07905856  0.05242619  1
  Se  Se116  1  0.08096950  0.08059571  0.55926295  1
  Se  Se117  1  0.08646790  0.41807020  0.05462153  1
  Se  Se118  1  0.08364349  0.41884317  0.56280394  1
  Se  Se119  1  0.07179119  0.74193008  0.06641233  1
  Se  Se120  1  0.07875264  0.73620787  0.54579917  1
  Se  Se121  1  0.42693541  0.08386561  0.05448028  1
  Se  Se122  1  0.41516808  0.08072704  0.54999519  1
  Se  Se123  1  0.41768709  0.42088021  0.05564869  1
  Se  Se124  1  0.40905933  0.40992839  0.55552137  1
  Se  Se125  1  0.40861103  0.74759774  0.06150719  1
  Se  Se126  1  0.41937640  0.74946911  0.55307243  1
  Se  Se127  1  0.74764330  0.07133125  0.06054863  1
  Se  Se128  1  0.74242209  0.08248298  0.56408171  1
  Se  Se129  1  0.75099784  0.41913439  0.04691075  1
  Se  Se130  1  0.74790150  0.42125199  0.55358136  1
  Se  Se131  1  0.73930501  0.73626001  0.05661198  1
  Se  Se132  1  0.75011299  0.75618841  0.55283044  1
  Se  Se133  1  0.25313681  0.24849628  0.05337855  1
  Se  Se134  1  0.25856284  0.25711649  0.55289228  1
  Se  Se135  1  0.24917144  0.58113371  0.05550268  1
  Se  Se136  1  0.25790854  0.58599566  0.55919307  1
  Se  Se137  1  0.26539181  0.92482878  0.05841755  1
  Se  Se138  1  0.24806702  0.91344727  0.55063476  1
  Se  Se139  1  0.58484739  0.25010886  0.05106089  1
  Se  Se140  1  0.58177937  0.25073777  0.55217103  1
  Se  Se141  1  0.57395977  0.58273266  0.04998376  1
  Se  Se142  1  0.58836663  0.59160970  0.56342577  1
  Se  Se143  1  0.58854393  0.92168926  0.06194248  1
  Se  Se144  1  0.57801845  0.91394771  0.55409732  1
  Se  Se145  1  0.92728891  0.25388028  0.06644991  1
  Se  Se146  1  0.92043247  0.26122526  0.55588605  1
  Se  Se147  1  0.91021710  0.57760668  0.05764165  1
  Se  Se148  1  0.92513665  0.58951793  0.54442126  1
  Se  Se149  1  0.91586183  0.92085997  0.06307732  1
  Se  Se150  1  0.91616361  0.91976766  0.55066749  1
  Se  Se151  1  0.07656319  0.26318832  0.44193503  1
  Se  Se152  1  0.08237005  0.24540734  0.95037624  1
  Se  Se153  1  0.07800546  0.59562957  0.43455601  1
  Se  Se154  1  0.08925183  0.57957811  0.95164224  1
  Se  Se155  1  0.08762636  0.91591977  0.44832050  1
  Se  Se156  1  0.07754318  0.91407349  0.94235721  1
  Se  Se157  1  0.41466535  0.24265074  0.45104119  1
  Se  Se158  1  0.41581854  0.25267170  0.94689446  1
  Se  Se159  1  0.40770445  0.58702194  0.43901300  1
  Se  Se160  1  0.42031877  0.58899159  0.94496245  1
  Se  Se161  1  0.42023965  0.91105107  0.44309332  1
  Se  Se162  1  0.40581594  0.92496376  0.94284720  1
  Se  Se163  1  0.73828028  0.25449809  0.43604959  1
  Se  Se164  1  0.74330898  0.24991657  0.93811199  1
  Se  Se165  1  0.74895658  0.58300153  0.45030079  1
  Se  Se166  1  0.75280915  0.57562558  0.94404615  1
  Se  Se167  1  0.74992071  0.92151373  0.45243178  1
  Se  Se168  1  0.73816515  0.91712405  0.93948955  1
  Se  Se169  1  0.25888735  0.07286192  0.43341090  1
  Se  Se170  1  0.23443750  0.09000526  0.94736446  1
  Se  Se171  1  0.26271464  0.40925062  0.44079505  1
  Se  Se172  1  0.25045865  0.42130694  0.95031561  1
  Se  Se173  1  0.24981737  0.75616830  0.44489904  1
  Se  Se174  1  0.25467362  0.74882923  0.94293255  1
  Se  Se175  1  0.57775882  0.08338159  0.44961796  1
  Se  Se176  1  0.57690983  0.08525790  0.94486614  1
  Se  Se177  1  0.58676944  0.41091534  0.43667369  1
  Se  Se178  1  0.58089006  0.41817372  0.94342695  1
  Se  Se179  1  0.57728873  0.74617124  0.44772719  1
  Se  Se180  1  0.58668687  0.74503005  0.93749158  1
  Se  Se181  1  0.92209653  0.07949160  0.43724997  1
  Se  Se182  1  0.91528829  0.07008121  0.94251974  1
  Se  Se183  1  0.91074742  0.42662322  0.45038432  1
  Se  Se184  1  0.91741165  0.41214816  0.94918262  1
  Se  Se185  1  0.90714564  0.76436895  0.45148612  1
  Se  Se186  1  0.92426933  0.73493334  0.94229131  1
  Se  Se187  1  0.26070754  0.25100473  0.29805312  1
  Se  Se188  1  0.24093731  0.23793475  0.81038850  1
  Se  Se189  1  0.24931496  0.58393153  0.30039428  1
  Se  Se190  1  0.25889782  0.58736742  0.80604441  1
  Se  Se191  1  0.25672484  0.91882960  0.30207936  1
  Se  Se192  1  0.25046331  0.91810532  0.80208576  1
  Se  Se193  1  0.58203329  0.24325693  0.31115649  1
  Se  Se194  1  0.57900598  0.24880288  0.80055134  1
  Se  Se195  1  0.56976871  0.57320028  0.30422721  1
  Se  Se196  1  0.60764081  0.60634710  0.80744216  1
  Se  Se197  1  0.59672713  0.92534679  0.30901527  1
  Se  Se198  1  0.57989391  0.92130035  0.80013760  1
  Se  Se199  1  0.90784044  0.24610970  0.30857711  1
  Se  Se200  1  0.90290547  0.23601752  0.81530419  1
  Se  Se201  1  0.90922196  0.58979114  0.30505453  1
  Se  Se202  1  0.91866270  0.57282697  0.80869402  1
  Se  Se203  1  0.92286438  0.91673076  0.30933884  1
  Se  Se204  1  0.91859259  0.91676683  0.79729937  1
  Se  Se205  1  0.09240662  0.08651350  0.30247525  1
  Se  Se206  1  0.07450541  0.07388196  0.80362939  1
  Se  Se207  1  0.09170027  0.42602066  0.31260343  1
  Se  Se208  1  0.09791015  0.41951638  0.81250760  1
  Se  Se209  1  0.08265853  0.75429949  0.30637508  1
  Se  Se210  1  0.09402587  0.75816149  0.81049421  1
  Se  Se211  1  0.42021386  0.07894436  0.30201030  1
  Se  Se212  1  0.41019834  0.08379492  0.80596676  1
  Se  Se213  1  0.41902567  0.40911097  0.29906944  1
  Se  Se214  1  0.42551271  0.42441589  0.81095758  1
  Se  Se215  1  0.40344215  0.73681480  0.30035627  1
  Se  Se216  1  0.41625741  0.75328829  0.79851397  1
  Se  Se217  1  0.76317351  0.09010995  0.30125103  1
  Se  Se218  1  0.74363194  0.07753375  0.80051594  1
  Se  Se219  1  0.74994673  0.42141697  0.30723548  1
  Se  Se220  1  0.74685225  0.41685333  0.80121058  1
  Se  Se221  1  0.75132866  0.75501037  0.31932160  1
  Se  Se222  1  0.75732192  0.75203070  0.79869249  1
  Se  Se223  1  0.25820995  0.08135771  0.19210319  1
  Se  Se224  1  0.25151315  0.08144570  0.69742732  1
  Se  Se225  1  0.25293265  0.42034387  0.19624697  1
  Se  Se226  1  0.25080533  0.41737589  0.69131552  1
  Se  Se227  1  0.24232041  0.75773296  0.19568700  1
  Se  Se228  1  0.25232421  0.75204997  0.69308805  1
  Se  Se229  1  0.59533758  0.08262805  0.19933404  1
  Se  Se230  1  0.57855434  0.08235886  0.69472915  1
  Se  Se231  1  0.57305770  0.42547550  0.18970858  1
  Se  Se232  1  0.57826035  0.42164863  0.69901978  1
  Se  Se233  1  0.57487409  0.76029943  0.19128627  1
  Se  Se234  1  0.58310752  0.75311466  0.69484979  1
  Se  Se235  1  0.92597359  0.08407318  0.20581914  1
  Se  Se236  1  0.91575603  0.07985243  0.69783987  1
  Se  Se237  1  0.91004267  0.42195219  0.19360776  1
  Se  Se238  1  0.91453670  0.41978983  0.69086711  1
  Se  Se239  1  0.91407848  0.74945703  0.20262370  1
  Se  Se240  1  0.91407033  0.75625162  0.68173217  1
  Se  Se241  1  0.09551906  0.24791118  0.18849521  1
  Se  Se242  1  0.08233599  0.24211676  0.69548630  1
  Se  Se243  1  0.07545548  0.58751058  0.19861559  1
  Se  Se244  1  0.09507027  0.57713368  0.69467915  1
  Se  Se245  1  0.08295009  0.92545338  0.19866692  1
  Se  Se246  1  0.07945628  0.91316633  0.68966366  1
  Se  Se247  1  0.42226064  0.24594185  0.19352883  1
  Se  Se248  1  0.41931520  0.24414296  0.68552658  1
  Se  Se249  1  0.40288998  0.59995403  0.19816694  1
  Se  Se250  1  0.42367663  0.58161619  0.70462508  1
  Se  Se251  1  0.42874271  0.91342224  0.20333923  1
  Se  Se252  1  0.41109781  0.92083446  0.69203018  1
  Se  Se253  1  0.76359904  0.23921509  0.19094415  1
  Se  Se254  1  0.74585430  0.25240689  0.70012491  1
  Se  Se255  1  0.74457992  0.57849634  0.18850737  1
  Se  Se256  1  0.75583605  0.58779397  0.69110187  1
  Se  Se257  1  0.75171539  0.91321395  0.20322715  1
  Se  Se258  1  0.74431370  0.92041245  0.69438232  1
