# generated using pymatgen
data_In86Cu29Se144
_symmetry_space_group_name_H-M   'P 1'
_cell_length_a   17.56828641
_cell_length_b   17.56539188
_cell_length_c   23.42342525
_cell_angle_alpha   89.99224278
_cell_angle_beta   89.95086504
_cell_angle_gamma   90.00120739
_symmetry_Int_Tables_number   1
_chemical_formula_structural   In86Cu29Se144
_chemical_formula_sum   'In86 Cu29 Se144'
_cell_volume   7228.32191492
_cell_formula_units_Z   1
loop_
 _symmetry_equiv_pos_site_id
 _symmetry_equiv_pos_as_xyz
  1  'x, y, z'
loop_
 _atom_site_type_symbol
 _atom_site_label
 _atom_site_symmetry_multiplicity
 _atom_site_fract_x
 _atom_site_fract_y
 _atom_site_fract_z
 _atom_site_occupancy
  In  In0  1  0.00945434  0.17174621  0.12864321  1
  In  In1  1  -0.00104355  0.16309114  0.61866831  1
  In  In2  1  0.00312654  0.49876054  0.13221606  1
  In  In3  1  -0.00898240  0.51456742  0.62247747  1
  In  In4  1  -0.01380398  0.83471245  0.12496271  1
  In  In5  1  0.00900447  0.84714604  0.61565317  1
  In  In6  1  0.34238868  0.15375356  0.13147163  1
  In  In7  1  0.31848337  0.15083587  0.61926576  1
  In  In8  1  0.31424613  0.49802144  0.11683387  1
  In  In9  1  0.34332564  0.50494851  0.62608335  1
  In  In10  1  0.34841248  0.82600717  0.11986122  1
  In  In11  1  0.32526273  0.83742822  0.63148486  1
  In  In12  1  0.65237133  0.17343998  0.12892372  1
  In  In13  1  0.67274887  0.15687871  0.63168424  1
  In  In14  1  0.65977435  0.48630600  0.12222935  1
  In  In15  1  0.66683551  0.50254487  0.62810666  1
  In  In16  1  0.66642914  0.83701954  0.11798684  1
  In  In17  1  0.66784481  0.83013008  0.62723081  1
  In  In18  1  0.17482814  -0.00667592  0.38286278  1
  In  In19  1  0.17110889  -0.00367890  0.84627587  1
  In  In20  1  0.15721797  0.32308864  0.36904422  1
  In  In21  1  0.18530770  0.34584062  0.88337168  1
  In  In22  1  0.16567357  0.68700450  0.37736211  1
  In  In23  1  0.16315247  0.66077399  0.87511016  1
  In  In24  1  0.49473606  -0.00644527  0.37360595  1
  In  In25  1  0.50340796  -0.00062761  0.86913211  1
  In  In26  1  0.50061857  0.32771975  0.36121645  1
  In  In27  1  0.49886039  0.31788981  0.88704927  1
  In  In28  1  0.50741211  0.67208791  0.37749583  1
  In  In29  1  0.51085319  0.67834210  0.86367126  1
  In  In30  1  0.82460613  0.00886572  0.38507049  1
  In  In31  1  0.81758945  -0.01341005  0.86051119  1
  In  In32  1  0.83376900  0.32982368  0.37421929  1
  In  In33  1  0.82827265  0.34083108  0.87575322  1
  In  In34  1  0.83204433  0.65619607  0.38335151  1
  In  In35  1  0.83809121  0.68710416  0.87716558  1
  In  In36  1  -0.00717895  0.17256009  0.38116341  1
  In  In37  1  0.01108429  0.15695366  0.87137186  1
  In  In38  1  -0.00949238  0.49209932  0.36877374  1
  In  In39  1  0.01353092  0.51849664  0.88329747  1
  In  In40  1  0.00155863  0.82818015  0.37851336  1
  In  In41  1  -0.00618325  0.83125926  0.86978511  1
  In  In42  1  0.32638841  0.15594890  0.37001823  1
  In  In43  1  0.33883560  0.16851822  0.87695147  1
  In  In44  1  0.34671294  0.49795965  0.37122736  1
  In  In45  1  0.32232607  0.49773817  0.88380805  1
  In  In46  1  0.32684407  0.84238132  0.38498387  1
  In  In47  1  0.34966295  0.84235429  0.85847457  1
  In  In48  1  0.67646095  0.16989868  0.37079153  1
  In  In49  1  0.65906794  0.15777099  0.86836029  1
  In  In50  1  0.67743972  0.49791981  0.37457844  1
  In  In51  1  0.66091701  0.49542612  0.86840043  1
  In  In52  1  0.65763233  0.84164980  0.38470007  1
  In  In53  1  0.66462477  0.83846453  0.86882596  1
  In  In54  1  0.17051435  0.01332551  0.12532592  1
  In  In55  1  0.16661733  -0.00129798  0.63431793  1
  In  In56  1  0.15881132  0.33921732  0.13538582  1
  In  In57  1  0.17528514  0.32314080  0.61938082  1
  In  In58  1  0.16807689  0.65097424  0.11845553  1
  In  In59  1  0.15951076  0.69290736  0.63278560  1
  In  In60  1  0.49840679  -0.00081798  0.12137642  1
  In  In61  1  0.51798130  -0.03161351  0.65433312  1
  In  In62  1  0.51071287  0.31412172  0.12884881  1
  In  In63  1  0.50289894  0.34214025  0.62846931  1
  In  In64  1  0.48413055  0.67624710  0.11384825  1
  In  In65  1  0.47479866  0.69974151  0.65682637  1
  In  In66  1  0.82714430  -0.02101129  0.12067952  1
  In  In67  1  0.83638651  0.00193443  0.62113006  1
  In  In68  1  0.83221438  0.33422459  0.13350436  1
  In  In69  1  0.82371510  0.32527890  0.61476121  1
  In  In70  1  0.83295732  0.68005169  0.12576246  1
  In  In71  1  0.82667432  0.66251705  0.61782395  1
  In  In72  1  -0.00430117  0.00538179  0.25184998  1
  In  In73  1  0.16221810  0.50194818  0.50044016  1
  In  In74  1  0.50914297  0.50759691  0.50291690  1
  In  In75  1  0.17507636  0.17024844  -0.00215225  1
  In  In76  1  -0.00081913  0.67070661  0.75394635  1
  In  In77  1  0.83305115  0.50522223  0.00867287  1
  In  In78  1  0.49694369  0.50265380  0.00045945  1
  In  In79  1  0.82774985  0.16259167  -0.00101746  1
  In  In80  1  0.33051969  0.66671642  0.24315042  1
  In  In81  1  0.33843070  0.32940749  0.76097108  1
  In  In82  1  -0.00343413  0.32902493  0.74467763  1
  In  In83  1  0.17116728  0.83194210  -0.00769926  1
  In  In84  1  0.49782035  0.15601740  0.50564221  1
  In  In85  1  0.66804898  0.66275394  0.24674965  1
  Cu  Cu86  1  -0.00498503  -0.00712742  -0.00773070  1
  Cu  Cu87  1  0.82953973  0.83039271  0.25147479  1
  Cu  Cu88  1  0.67167143  0.33149474  0.49947407  1
  Cu  Cu89  1  0.83169324  0.16867955  0.74133661  1
  Cu  Cu90  1  0.66975342  0.67254226  -0.00703354  1
  Cu  Cu91  1  0.49951094  0.48854106  0.24327530  1
  Cu  Cu92  1  0.16983804  0.49427799  0.75496500  1
  Cu  Cu93  1  -0.00796218  0.66999698  0.49936518  1
  Cu  Cu94  1  0.82460763  0.50144097  0.74923365  1
  Cu  Cu95  1  0.33799236  -0.00715642  0.50751824  1
  Cu  Cu96  1  0.66000036  -0.00342130  -0.00777276  1
  Cu  Cu97  1  -0.00325519  0.33283501  0.49362786  1
  Cu  Cu98  1  0.66689876  -0.00162465  0.50926548  1
  Cu  Cu99  1  0.83488792  0.83581059  0.74386977  1
  Cu  Cu100  1  0.65833791  0.67339912  0.50656992  1
  Cu  Cu101  1  0.83782602  0.49565585  0.25367361  1
  Cu  Cu102  1  0.33180518  0.67788729  0.51035944  1
  Cu  Cu103  1  0.83210869  0.16259349  0.25460687  1
  Cu  Cu104  1  0.17141190  0.16883842  0.25114467  1
  Cu  Cu105  1  0.32913803  0.32546781  0.49327967  1
  Cu  Cu106  1  0.16488726  0.50290544  0.25049702  1
  Cu  Cu107  1  0.49578067  0.17107893  0.75204702  1
  Cu  Cu108  1  0.00344361  -0.00262895  0.50091515  1
  Cu  Cu109  1  0.33914335  -0.00051701  -0.00534875  1
  Cu  Cu110  1  0.50808513  0.50117589  0.75274870  1
  Cu  Cu111  1  0.50341155  0.15656448  0.24962448  1
  Cu  Cu112  1  0.00686283  0.34193175  0.00649805  1
  Cu  Cu113  1  0.49627241  0.83900090  0.24967041  1
  Cu  Cu114  1  0.16642961  0.83838907  0.25519212  1
  Se  Se115  1  0.07233733  0.07731425  0.05161639  1
  Se  Se116  1  0.08755429  0.07715956  0.55717405  1
  Se  Se117  1  0.08901069  0.42336473  0.05983818  1
  Se  Se118  1  0.07283873  0.40971522  0.56122255  1
  Se  Se119  1  0.08312054  0.75235401  0.06145273  1
  Se  Se120  1  0.08152682  0.74942418  0.54985432  1
  Se  Se121  1  0.41720394  0.08468322  0.05104764  1
  Se  Se122  1  0.42328776  0.06229773  0.57162703  1
  Se  Se123  1  0.41963745  0.41224580  0.06797571  1
  Se  Se124  1  0.40929679  0.40870291  0.55150120  1
  Se  Se125  1  0.42024322  0.76032001  0.03845958  1
  Se  Se126  1  0.41750870  0.75710915  0.56428806  1
  Se  Se127  1  0.73934340  0.07160305  0.05876514  1
  Se  Se128  1  0.75134645  0.08835284  0.55358123  1
  Se  Se129  1  0.74472631  0.40026655  0.05377923  1
  Se  Se130  1  0.74553652  0.42254184  0.55394018  1
  Se  Se131  1  0.75184265  0.75247159  0.05143688  1
  Se  Se132  1  0.75029336  0.75506824  0.55248995  1
  Se  Se133  1  0.25131991  0.25020765  0.07146002  1
  Se  Se134  1  0.24940001  0.24071024  0.54652315  1
  Se  Se135  1  0.28418163  0.61654802  0.05671453  1
  Se  Se136  1  0.25030533  0.59034768  0.56366178  1
  Se  Se137  1  0.25474153  0.92589947  0.05748224  1
  Se  Se138  1  0.24515549  0.91695656  0.55906502  1
  Se  Se139  1  0.58266037  0.24373610  0.04860126  1
  Se  Se140  1  0.58747729  0.25482241  0.55974577  1
  Se  Se141  1  0.59409961  0.59429664  0.05882884  1
  Se  Se142  1  0.57733831  0.60079811  0.57168497  1
  Se  Se143  1  0.57828038  0.91422487  0.05050611  1
  Se  Se144  1  0.58062172  0.91680746  0.56140902  1
  Se  Se145  1  0.92336056  0.25538365  0.05773314  1
  Se  Se146  1  0.91714729  0.24912690  0.55124016  1
  Se  Se147  1  0.92683801  0.59474681  0.06249330  1
  Se  Se148  1  0.90938169  0.58060668  0.54622893  1
  Se  Se149  1  0.91357885  0.91042247  0.04668946  1
  Se  Se150  1  0.91283905  0.91596645  0.54950326  1
  Se  Se151  1  0.08634856  0.24813195  0.44814826  1
  Se  Se152  1  0.07766818  0.25997292  0.94036983  1
  Se  Se153  1  0.07534120  0.59096942  0.43755448  1
  Se  Se154  1  0.09985144  0.58256095  0.95603611  1
  Se  Se155  1  0.08434864  0.91233532  0.44603665  1
  Se  Se156  1  0.08628440  0.92759646  0.93140383  1
  Se  Se157  1  0.41796774  0.24934504  0.43837022  1
  Se  Se158  1  0.39057033  0.26498289  0.94940378  1
  Se  Se159  1  0.40707772  0.59576735  0.44668876  1
  Se  Se160  1  0.42042244  0.59275984  0.93335720  1
  Se  Se161  1  0.42266608  0.91417860  0.45065219  1
  Se  Se162  1  0.41966663  0.91663187  0.93920493  1
  Se  Se163  1  0.75321099  0.24679522  0.44595448  1
  Se  Se164  1  0.74107865  0.25273810  0.93879248  1
  Se  Se165  1  0.73660999  0.58549328  0.45111240  1
  Se  Se166  1  0.74816748  0.58662740  0.93740673  1
  Se  Se167  1  0.74905887  0.91654968  0.45150831  1
  Se  Se168  1  0.74994858  0.91533866  0.94269077  1
  Se  Se169  1  0.25914613  0.07795825  0.44997886  1
  Se  Se170  1  0.24824461  0.06863574  0.93504086  1
  Se  Se171  1  0.25422476  0.41506741  0.43768118  1
  Se  Se172  1  0.25607231  0.41751096  0.96164490  1
  Se  Se173  1  0.24708836  0.75577722  0.45336247  1
  Se  Se174  1  0.26230264  0.75300015  0.92751241  1
  Se  Se175  1  0.59177653  0.07650701  0.44137348  1
  Se  Se176  1  0.57822111  0.08517384  0.94364156  1
  Se  Se177  1  0.58508760  0.40627063  0.43953130  1
  Se  Se178  1  0.59208189  0.41096425  0.94592019  1
  Se  Se179  1  0.57485299  0.75522815  0.45201903  1
  Se  Se180  1  0.58553120  0.75446118  0.94095040  1
  Se  Se181  1  0.91896712  0.08298762  0.44960972  1
  Se  Se182  1  0.91463097  0.07500007  0.93423034  1
  Se  Se183  1  0.91205528  0.41799219  0.44431434  1
  Se  Se184  1  0.92539668  0.41695729  0.94326625  1
  Se  Se185  1  0.90895258  0.75292505  0.44527409  1
  Se  Se186  1  0.93689516  0.74193452  0.94566020  1
  Se  Se187  1  0.25526226  0.25268192  0.30434444  1
  Se  Se188  1  0.23548416  0.24287805  0.81078291  1
  Se  Se189  1  0.24407613  0.58201009  0.31329828  1
  Se  Se190  1  0.25041080  0.57841871  0.80808901  1
  Se  Se191  1  0.25358084  0.91782543  0.30643599  1
  Se  Se192  1  0.26545530  0.91895297  0.78593096  1
  Se  Se193  1  0.58838169  0.24325436  0.29993006  1
  Se  Se194  1  0.57812098  0.25374822  0.80647245  1
  Se  Se195  1  0.57363430  0.57176203  0.30661901  1
  Se  Se196  1  0.59377564  0.58850547  0.79955830  1
  Se  Se197  1  0.58377811  0.91443980  0.30532029  1
  Se  Se198  1  0.59202600  0.92687374  0.79850155  1
  Se  Se199  1  0.91760756  0.24738301  0.30401328  1
  Se  Se200  1  0.90824698  0.24199627  0.81051306  1
  Se  Se201  1  0.91312414  0.58775343  0.30552616  1
  Se  Se202  1  0.90902365  0.57483949  0.81169065  1
  Se  Se203  1  0.90785680  0.91388300  0.31164434  1
  Se  Se204  1  0.91937142  0.91660021  0.79862305  1
  Se  Se205  1  0.09030242  0.08788625  0.31346123  1
  Se  Se206  1  0.07342532  0.07843180  0.79323509  1
  Se  Se207  1  0.08284387  0.41665644  0.30361398  1
  Se  Se208  1  0.08404282  0.41825847  0.81233925  1
  Se  Se209  1  0.08028627  0.75241549  0.30162846  1
  Se  Se210  1  0.09732790  0.76081363  0.80436512  1
  Se  Se211  1  0.41619179  0.07766758  0.30399905  1
  Se  Se212  1  0.41472414  0.08669178  0.80548014  1
  Se  Se213  1  0.41176050  0.41078786  0.29736601  1
  Se  Se214  1  0.42770201  0.42373186  0.81721639  1
  Se  Se215  1  0.41817950  0.75417414  0.30909725  1
  Se  Se216  1  0.42671690  0.75200195  0.79114625  1
  Se  Se217  1  0.74913346  0.07505462  0.30347012  1
  Se  Se218  1  0.74861313  0.08663938  0.79761314  1
  Se  Se219  1  0.75009748  0.41266230  0.30340849  1
  Se  Se220  1  0.74678735  0.41214845  0.80139950  1
  Se  Se221  1  0.74853531  0.75184172  0.31334564  1
  Se  Se222  1  0.75460957  0.75407936  0.80241777  1
  Se  Se223  1  0.25183724  0.07933480  0.20195367  1
  Se  Se224  1  0.24642258  0.08899457  0.70091117  1
  Se  Se225  1  0.25115282  0.42117523  0.19892955  1
  Se  Se226  1  0.24884688  0.41694504  0.69190997  1
  Se  Se227  1  0.24065144  0.76053071  0.18694890  1
  Se  Se228  1  0.26764169  0.73129576  0.69821847  1
  Se  Se229  1  0.58506280  0.07392646  0.19393056  1
  Se  Se230  1  0.58138194  0.08692000  0.70077763  1
  Se  Se231  1  0.58931369  0.40557778  0.19712431  1
  Se  Se232  1  0.58772309  0.41596569  0.69853700  1
  Se  Se233  1  0.57206872  0.75167475  0.19036610  1
  Se  Se234  1  0.59189033  0.75580743  0.70526266  1
  Se  Se235  1  0.90535079  0.08695667  0.18419426  1
  Se  Se236  1  0.91794847  0.08580863  0.69175677  1
  Se  Se237  1  0.92127380  0.41263129  0.19909047  1
  Se  Se238  1  0.90706266  0.42437125  0.68850409  1
  Se  Se239  1  0.91734643  0.74988515  0.20072537  1
  Se  Se240  1  0.91497590  0.75299846  0.68460363  1
  Se  Se241  1  0.08057440  0.25071288  0.20404331  1
  Se  Se242  1  0.09338055  0.24220092  0.69102969  1
  Se  Se243  1  0.08483765  0.58903078  0.19772182  1
  Se  Se244  1  0.09086671  0.57575106  0.69347590  1
  Se  Se245  1  0.08694468  0.91575676  0.19024347  1
  Se  Se246  1  0.08456011  0.90658567  0.69697425  1
  Se  Se247  1  0.41945239  0.24357949  0.19924458  1
  Se  Se248  1  0.41652801  0.24521288  0.68633618  1
  Se  Se249  1  0.42408296  0.57585812  0.18639974  1
  Se  Se250  1  0.41518665  0.57818726  0.70380879  1
  Se  Se251  1  0.41281174  0.91693181  0.19213443  1
  Se  Se252  1  0.39287029  0.93075945  0.70412107  1
  Se  Se253  1  0.75065201  0.24321634  0.19535555  1
  Se  Se254  1  0.74693783  0.25646138  0.69434485  1
  Se  Se255  1  0.75850517  0.57018475  0.18695708  1
  Se  Se256  1  0.74898053  0.59001852  0.69539805  1
  Se  Se257  1  0.74454583  0.90968779  0.19654501  1
  Se  Se258  1  0.75272285  0.92088649  0.69085304  1
