# generated using pymatgen
data_In86Cu29Se144
_symmetry_space_group_name_H-M   'P 1'
_cell_length_a   17.69855005
_cell_length_b   17.69730039
_cell_length_c   23.54998631
_cell_angle_alpha   90.00932789
_cell_angle_beta   89.94731341
_cell_angle_gamma   90.03746617
_symmetry_Int_Tables_number   1
_chemical_formula_structural   In86Cu29Se144
_chemical_formula_sum   'In86 Cu29 Se144'
_cell_volume   7376.24082882
_cell_formula_units_Z   1
loop_
 _symmetry_equiv_pos_site_id
 _symmetry_equiv_pos_as_xyz
  1  'x, y, z'
loop_
 _atom_site_type_symbol
 _atom_site_label
 _atom_site_symmetry_multiplicity
 _atom_site_fract_x
 _atom_site_fract_y
 _atom_site_fract_z
 _atom_site_occupancy
  In  In0  1  -0.00010904  0.15306880  0.12863175  1
  In  In1  1  -0.00118872  0.15306220  0.60860422  1
  In  In2  1  0.00698346  0.50839771  0.11948652  1
  In  In3  1  -0.01094307  0.50654973  0.62448308  1
  In  In4  1  -0.00386767  0.83502172  0.12856529  1
  In  In5  1  0.00129036  0.85097320  0.60657540  1
  In  In6  1  0.33407096  0.17725443  0.12445317  1
  In  In7  1  0.32120363  0.14828996  0.59915136  1
  In  In8  1  0.33014062  0.49775546  0.11382758  1
  In  In9  1  0.34501119  0.50320741  0.63485965  1
  In  In10  1  0.33489482  0.83397552  0.11683893  1
  In  In11  1  0.33593118  0.83642051  0.62991285  1
  In  In12  1  0.66749137  0.16269516  0.14159683  1
  In  In13  1  0.66435059  0.17848195  0.61239358  1
  In  In14  1  0.66937643  0.49488815  0.12336206  1
  In  In15  1  0.67213941  0.49097479  0.62832302  1
  In  In16  1  0.66669103  0.82974913  0.12856866  1
  In  In17  1  0.65578682  0.83491765  0.61000210  1
  In  In18  1  0.15303465  0.01154009  0.39600982  1
  In  In19  1  0.17528673  -0.00988553  0.88265363  1
  In  In20  1  0.16833179  0.32440211  0.37928139  1
  In  In21  1  0.16853421  0.33186929  0.88028188  1
  In  In22  1  0.16799553  0.68093710  0.36744801  1
  In  In23  1  0.16875456  0.66681706  0.88209452  1
  In  In24  1  0.51383795  -0.01026861  0.38949414  1
  In  In25  1  0.49147405  -0.00417172  0.87140015  1
  In  In26  1  0.53964567  0.26530085  0.43201156  1
  In  In27  1  0.51575577  0.33191935  0.87148159  1
  In  In28  1  0.51036216  0.66208271  0.37222072  1
  In  In29  1  0.49016063  0.67925227  0.88357119  1
  In  In30  1  0.82964603  -0.00773232  0.38070562  1
  In  In31  1  0.82141618  -0.00271459  0.87561340  1
  In  In32  1  0.81307753  0.34739663  0.39345346  1
  In  In33  1  0.83065149  0.34302234  0.87149948  1
  In  In34  1  0.83294988  0.66551360  0.36846881  1
  In  In35  1  0.83151777  0.66624600  0.88297561  1
  In  In36  1  -0.00388104  0.15373441  0.38209949  1
  In  In37  1  0.00289771  0.17782089  0.87192084  1
  In  In38  1  -0.01203184  0.49662872  0.36804092  1
  In  In39  1  -0.00619845  0.50579953  0.88509118  1
  In  In40  1  0.00044384  0.83471947  0.37054082  1
  In  In41  1  -0.00250441  0.83334813  0.88359292  1
  In  In42  1  0.34106339  0.15653378  0.40162535  1
  In  In43  1  0.33510094  0.14986792  0.86855059  1
  In  In44  1  0.33957563  0.49039279  0.37390499  1
  In  In45  1  0.32455529  0.51330766  0.88334412  1
  In  In46  1  0.32375129  0.84934928  0.39578701  1
  In  In47  1  0.33637799  0.83383805  0.87448116  1
  In  In48  1  0.68223491  0.15822506  0.37504939  1
  In  In49  1  0.65672405  0.16518813  0.86594563  1
  In  In50  1  0.66749346  0.50981466  0.36513230  1
  In  In51  1  0.67292634  0.49150928  0.88586972  1
  In  In52  1  0.66765260  0.83073968  0.37488235  1
  In  In53  1  0.67092475  0.82977134  0.88427061  1
  In  In54  1  0.15942106  -0.01068023  0.11829763  1
  In  In55  1  0.17733556  0.00147781  0.61163341  1
  In  In56  1  0.16783725  0.33369376  0.11711517  1
  In  In57  1  0.17901623  0.32300204  0.62412211  1
  In  In58  1  0.16280793  0.66739603  0.12063159  1
  In  In59  1  0.16752053  0.68850025  0.63260133  1
  In  In60  1  0.51724819  0.00062927  0.13103665  1
  In  In61  1  0.47537247  -0.02249464  0.57053875  1
  In  In62  1  0.49772298  0.33872719  0.12599311  1
  In  In63  1  0.49664357  0.34052040  0.62527379  1
  In  In64  1  0.51040917  0.67144022  0.12238656  1
  In  In65  1  0.49219064  0.67188643  0.63298656  1
  In  In66  1  0.84173206  -0.00625447  0.13729058  1
  In  In67  1  0.81766221  0.00240272  0.59655539  1
  In  In68  1  0.82038331  0.33000204  0.12943162  1
  In  In69  1  0.82587682  0.33473654  0.61500125  1
  In  In70  1  0.83353296  0.66576775  0.12724716  1
  In  In71  1  0.82975015  0.66992772  0.61581345  1
  In  In72  1  0.66330914  0.66987344  0.74950550  1
  In  In73  1  0.33187371  0.00260493  0.25582516  1
  In  In74  1  0.50230289  0.50124019  0.50845850  1
  In  In75  1  0.83626585  0.16280333  0.00534399  1
  In  In76  1  0.49744603  0.16436903  -0.00451085  1
  In  In77  1  0.65739149  0.00050290  0.73290326  1
  In  In78  1  0.34098488  0.67162909  0.24966225  1
  In  In79  1  0.34075463  0.32919153  0.26390948  1
  In  In80  1  0.15284983  0.51766077  0.50790273  1
  In  In81  1  0.34138063  0.33445309  0.75204097  1
  In  In82  1  -0.00277663  0.32683800  0.25697496  1
  In  In83  1  -0.00243451  0.66964217  0.75429642  1
  In  In84  1  0.00014293  0.00512109  0.74135611  1
  In  In85  1  -0.00214818  0.33092505  0.73883242  1
  Cu  Cu86  1  0.66836871  0.32747343  0.00157630  1
  Cu  Cu87  1  0.51019340  0.49902393  0.24282208  1
  Cu  Cu88  1  0.00318546  0.33347003  0.49558199  1
  Cu  Cu89  1  0.17814446  0.84117738  0.75194513  1
  Cu  Cu90  1  0.67005335  -0.01020599  0.00492912  1
  Cu  Cu91  1  0.15985914  0.84046675  0.25029775  1
  Cu  Cu92  1  0.33314128  0.66950000  -0.00058638  1
  Cu  Cu93  1  0.66832743  0.66347399  0.49312006  1
  Cu  Cu94  1  -0.00016389  0.00053223  0.00582783  1
  Cu  Cu95  1  0.33122202  0.33363443  -0.00323681  1
  Cu  Cu96  1  0.16242332  0.50242599  0.76099782  1
  Cu  Cu97  1  0.66617099  0.66169112  0.00609180  1
  Cu  Cu98  1  0.82877468  0.83171567  0.25175813  1
  Cu  Cu99  1  0.49693331  0.83332632  0.25673808  1
  Cu  Cu100  1  -0.01187409  0.67101066  0.49386429  1
  Cu  Cu101  1  0.17478337  0.15226130  0.74166764  1
  Cu  Cu102  1  0.82305161  0.17031213  0.73255214  1
  Cu  Cu103  1  0.00391451  0.33438149  -0.00095116  1
  Cu  Cu104  1  0.16329726  0.15736697  0.25453464  1
  Cu  Cu105  1  0.33769982  0.66893585  0.50634905  1
  Cu  Cu106  1  0.49996880  0.16712155  0.74049473  1
  Cu  Cu107  1  -0.00353771  0.67308219  0.00476472  1
  Cu  Cu108  1  0.50451346  0.51017894  0.75520260  1
  Cu  Cu109  1  0.16959303  0.50069759  0.24093819  1
  Cu  Cu110  1  0.83377630  0.49825875  0.24902987  1
  Cu  Cu111  1  0.33363677  0.00018353  -0.00355484  1
  Cu  Cu112  1  0.50898184  0.16850913  0.26894305  1
  Cu  Cu113  1  0.83450946  0.16605693  0.25716916  1
  Cu  Cu114  1  0.83709009  0.83610303  0.74170018  1
  Se  Se115  1  0.08445044  0.08568522  0.05450651  1
  Se  Se116  1  0.07521440  0.06172755  0.54744455  1
  Se  Se117  1  0.08528115  0.41907042  0.05293781  1
  Se  Se118  1  0.07696592  0.40984207  0.56435965  1
  Se  Se119  1  0.08041779  0.75570419  0.05751893  1
  Se  Se120  1  0.07193571  0.73837313  0.55844738  1
  Se  Se121  1  0.41294239  0.07568166  0.06200245  1
  Se  Se122  1  0.44036603  0.11437535  0.54203441  1
  Se  Se123  1  0.41643817  0.41059747  0.05225665  1
  Se  Se124  1  0.39791256  0.41224796  0.55637707  1
  Se  Se125  1  0.41883125  0.74687226  0.05550388  1
  Se  Se126  1  0.41963142  0.75133257  0.55904132  1
  Se  Se127  1  0.74324081  0.07706202  0.06500721  1
  Se  Se128  1  0.76032125  0.11590962  0.54233844  1
  Se  Se129  1  0.75221848  0.41051356  0.05352876  1
  Se  Se130  1  0.74939130  0.42626893  0.55041208  1
  Se  Se131  1  0.74754543  0.74670257  0.05927327  1
  Se  Se132  1  0.74519366  0.75016094  0.54923362  1
  Se  Se133  1  0.25176711  0.24872271  0.05145969  1
  Se  Se134  1  0.24643610  0.25152108  0.54547896  1
  Se  Se135  1  0.24776832  0.58716388  0.05263684  1
  Se  Se136  1  0.25700320  0.59290753  0.56859987  1
  Se  Se137  1  0.25107931  0.91700838  0.05126772  1
  Se  Se138  1  0.22617741  0.88005970  0.56432660  1
  Se  Se139  1  0.58974047  0.24528842  0.06151199  1
  Se  Se140  1  0.58477082  0.27653975  0.55091736  1
  Se  Se141  1  0.58245293  0.57700506  0.05708808  1
  Se  Se142  1  0.59155289  0.59540863  0.56536157  1
  Se  Se143  1  0.58248459  0.91292423  0.05836686  1
  Se  Se144  1  0.61439564  0.94197234  0.54107434  1
  Se  Se145  1  0.92586266  0.25650110  0.06350573  1
  Se  Se146  1  0.92240113  0.25574740  0.55509661  1
  Se  Se147  1  0.91569218  0.58498363  0.05528686  1
  Se  Se148  1  0.91331742  0.58377747  0.55058572  1
  Se  Se149  1  0.91465326  0.92045793  0.05892771  1
  Se  Se150  1  0.90189830  0.91014420  0.54114797  1
  Se  Se151  1  0.08076711  0.24589566  0.44408194  1
  Se  Se152  1  0.08381847  0.24803021  0.94637107  1
  Se  Se153  1  0.07213777  0.59433174  0.43324505  1
  Se  Se154  1  0.07831828  0.59020423  0.94814532  1
  Se  Se155  1  0.10669806  0.88544045  0.43682600  1
  Se  Se156  1  0.08029134  0.91892677  0.94785553  1
  Se  Se157  1  0.39581032  0.28987464  0.41522518  1
  Se  Se158  1  0.40935573  0.25494827  0.93362030  1
  Se  Se159  1  0.41075882  0.58895867  0.44285121  1
  Se  Se160  1  0.41796138  0.58453941  0.94954310  1
  Se  Se161  1  0.42100806  0.91999669  0.45888107  1
  Se  Se162  1  0.41866227  0.91715395  0.94580522  1
  Se  Se163  1  0.77011669  0.22862052  0.44897314  1
  Se  Se164  1  0.74391966  0.24450835  0.93982300  1
  Se  Se165  1  0.75046751  0.58266177  0.43884423  1
  Se  Se166  1  0.75069193  0.58223925  0.95013426  1
  Se  Se167  1  0.72439990  0.93053821  0.44570375  1
  Se  Se168  1  0.75662933  0.91295172  0.95052399  1
  Se  Se169  1  0.25889004  0.06645165  0.45982945  1
  Se  Se170  1  0.25183981  0.08615435  0.94557809  1
  Se  Se171  1  0.23861055  0.42858021  0.44387104  1
  Se  Se172  1  0.24712148  0.41882675  0.94626285  1
  Se  Se173  1  0.25165149  0.73997798  0.44631796  1
  Se  Se174  1  0.25214958  0.75407183  0.94494895  1
  Se  Se175  1  0.57283291  0.10552589  0.44221552  1
  Se  Se176  1  0.59360434  0.07136838  0.94203794  1
  Se  Se177  1  0.57802412  0.42737834  0.43273407  1
  Se  Se178  1  0.58225997  0.40921258  0.95033622  1
  Se  Se179  1  0.58218278  0.74662106  0.44371818  1
  Se  Se180  1  0.58758026  0.74712340  0.95003803  1
  Se  Se181  1  0.92784147  0.05806462  0.44754617  1
  Se  Se182  1  0.92402133  0.07714118  0.93818844  1
  Se  Se183  1  0.92066430  0.42019176  0.44650807  1
  Se  Se184  1  0.91543520  0.41036941  0.94557040  1
  Se  Se185  1  0.91104891  0.75294071  0.43677517  1
  Se  Se186  1  0.91205954  0.75268449  0.94892782  1
  Se  Se187  1  0.24770263  0.23127637  0.31319320  1
  Se  Se188  1  0.24296811  0.24132688  0.80432051  1
  Se  Se189  1  0.24913804  0.57594831  0.30581370  1
  Se  Se190  1  0.24662106  0.58802727  0.80825356  1
  Se  Se191  1  0.24209212  0.91347919  0.31362106  1
  Se  Se192  1  0.25787200  0.92485753  0.80623872  1
  Se  Se193  1  0.58642811  0.25180273  0.32488056  1
  Se  Se194  1  0.58194054  0.24834826  0.79516263  1
  Se  Se195  1  0.58516819  0.59067761  0.29441036  1
  Se  Se196  1  0.58322565  0.58385532  0.81884558  1
  Se  Se197  1  0.58098870  0.91645189  0.30848207  1
  Se  Se198  1  0.58953203  0.91418624  0.81092223  1
  Se  Se199  1  0.90682548  0.24757600  0.32107671  1
  Se  Se200  1  0.90530473  0.24032452  0.79962399  1
  Se  Se201  1  0.91773744  0.58381880  0.29810529  1
  Se  Se202  1  0.90640401  0.57700029  0.80915869  1
  Se  Se203  1  0.91060283  0.91495553  0.30594009  1
  Se  Se204  1  0.91168351  0.91532323  0.80595275  1
  Se  Se205  1  0.08407958  0.07760639  0.31180558  1
  Se  Se206  1  0.09021373  0.08640834  0.80804192  1
  Se  Se207  1  0.09624433  0.42054841  0.30719961  1
  Se  Se208  1  0.08016928  0.41683299  0.81128255  1
  Se  Se209  1  0.07914726  0.74945398  0.29735555  1
  Se  Se210  1  0.09022806  0.76374379  0.80934397  1
  Se  Se211  1  0.42196209  0.08501009  0.32039232  1
  Se  Se212  1  0.42346056  0.08202764  0.79757131  1
  Se  Se213  1  0.43717868  0.42277280  0.30861058  1
  Se  Se214  1  0.42297713  0.42786582  0.81498536  1
  Se  Se215  1  0.41434780  0.76215061  0.31980226  1
  Se  Se216  1  0.42339582  0.75638290  0.80686950  1
  Se  Se217  1  0.75492759  0.07338307  0.30376036  1
  Se  Se218  1  0.75336624  0.08649719  0.79879433  1
  Se  Se219  1  0.75405511  0.41617989  0.30595342  1
  Se  Se220  1  0.73446366  0.40821650  0.80785596  1
  Se  Se221  1  0.74499737  0.74793162  0.30343630  1
  Se  Se222  1  0.76113729  0.75940879  0.80655772  1
  Se  Se223  1  0.24597386  0.08782912  0.18910893  1
  Se  Se224  1  0.25841481  0.07717018  0.68436926  1
  Se  Se225  1  0.25256721  0.41379306  0.19177803  1
  Se  Se226  1  0.24086575  0.42342051  0.69715140  1
  Se  Se227  1  0.24595271  0.76150676  0.19281174  1
  Se  Se228  1  0.25919474  0.75167349  0.70387897  1
  Se  Se229  1  0.58173472  0.08272903  0.20841097  1
  Se  Se230  1  0.57429670  0.09227742  0.67471266  1
  Se  Se231  1  0.58900172  0.40862626  0.19332774  1
  Se  Se232  1  0.57461930  0.42470715  0.69509672  1
  Se  Se233  1  0.57757004  0.75308967  0.19878296  1
  Se  Se234  1  0.57917245  0.76668900  0.69351168  1
  Se  Se235  1  0.91875231  0.08495678  0.20354177  1
  Se  Se236  1  0.90118299  0.08296577  0.67981817  1
  Se  Se237  1  0.91697721  0.41746303  0.19006719  1
  Se  Se238  1  0.90307921  0.42525008  0.69279779  1
  Se  Se239  1  0.91320262  0.75150038  0.19572438  1
  Se  Se240  1  0.91827029  0.75686214  0.68435383  1
  Se  Se241  1  0.09230286  0.24470369  0.19382723  1
  Se  Se242  1  0.08957694  0.23246638  0.68681277  1
  Se  Se243  1  0.08591285  0.58546459  0.19322187  1
  Se  Se244  1  0.08817492  0.57857725  0.69387964  1
  Se  Se245  1  0.07893716  0.92297641  0.19552980  1
  Se  Se246  1  0.08847116  0.90860828  0.68988920  1
  Se  Se247  1  0.42997780  0.23808598  0.19951096  1
  Se  Se248  1  0.41178690  0.24230372  0.68344535  1
  Se  Se249  1  0.41918870  0.57369318  0.18755657  1
  Se  Se250  1  0.41625566  0.58947031  0.70547203  1
  Se  Se251  1  0.41999291  0.91241361  0.19351750  1
  Se  Se252  1  0.43616741  0.93009555  0.66957187  1
  Se  Se253  1  0.75064523  0.24963106  0.20504477  1
  Se  Se254  1  0.74208127  0.25845251  0.68697810  1
  Se  Se255  1  0.75084039  0.57772925  0.19245138  1
  Se  Se256  1  0.75768001  0.58401469  0.69273671  1
  Se  Se257  1  0.74651492  0.91550161  0.19745654  1
  Se  Se258  1  0.75739188  0.91204630  0.68005642  1
