# generated using pymatgen
data_In86Cu29Se144
_symmetry_space_group_name_H-M   'P 1'
_cell_length_a   17.58395010
_cell_length_b   17.59030472
_cell_length_c   23.45133850
_cell_angle_alpha   90.01109238
_cell_angle_beta   90.00548432
_cell_angle_gamma   90.01132033
_symmetry_Int_Tables_number   1
_chemical_formula_structural   In86Cu29Se144
_chemical_formula_sum   'In86 Cu29 Se144'
_cell_volume   7253.66379268
_cell_formula_units_Z   1
loop_
 _symmetry_equiv_pos_site_id
 _symmetry_equiv_pos_as_xyz
  1  'x, y, z'
loop_
 _atom_site_type_symbol
 _atom_site_label
 _atom_site_symmetry_multiplicity
 _atom_site_fract_x
 _atom_site_fract_y
 _atom_site_fract_z
 _atom_site_occupancy
  In  In0  1  0.00129761  0.17918365  0.12067454  1
  In  In1  1  -0.01050400  0.18389028  0.62868845  1
  In  In2  1  -0.00006473  0.49831253  0.11993033  1
  In  In3  1  -0.01290208  0.50278365  0.62286978  1
  In  In4  1  -0.01219381  0.83555314  0.13026820  1
  In  In5  1  0.00546788  0.82046335  0.62051408  1
  In  In6  1  0.34986375  0.16599617  0.12583635  1
  In  In7  1  0.34325481  0.17248748  0.62868600  1
  In  In8  1  0.32760869  0.50339793  0.12689170  1
  In  In9  1  0.33545418  0.49593980  0.63785083  1
  In  In10  1  0.33764228  0.81690502  0.12636646  1
  In  In11  1  0.32844527  0.82117331  0.61682418  1
  In  In12  1  0.66978635  0.16456088  0.12375098  1
  In  In13  1  0.67385603  0.16914536  0.63333113  1
  In  In14  1  0.66794094  0.48417277  0.12227400  1
  In  In15  1  0.67695150  0.49285061  0.63405259  1
  In  In16  1  0.67279919  0.84185066  0.12043429  1
  In  In17  1  0.65823774  0.83790924  0.62960674  1
  In  In18  1  0.16181606  -0.00747801  0.37621024  1
  In  In19  1  0.16309620  -0.00440635  0.87263615  1
  In  In20  1  0.16498771  0.33988719  0.36764511  1
  In  In21  1  0.16915308  0.34671095  0.86898446  1
  In  In22  1  0.17260166  0.68023465  0.36039960  1
  In  In23  1  0.16155075  0.64666884  0.87027173  1
  In  In24  1  0.50173897  -0.00618031  0.37279375  1
  In  In25  1  0.51297589  -0.00827995  0.88390055  1
  In  In26  1  0.50660490  0.33924784  0.36623930  1
  In  In27  1  0.49741981  0.32811828  0.87544432  1
  In  In28  1  0.50388584  0.68050885  0.37552303  1
  In  In29  1  0.50315434  0.67066529  0.86927221  1
  In  In30  1  0.83206444  0.01976779  0.37580648  1
  In  In31  1  0.81221197  0.01748330  0.89175891  1
  In  In32  1  0.83062235  0.33222377  0.37219052  1
  In  In33  1  0.83305227  0.33467078  0.87206528  1
  In  In34  1  0.83046046  0.64209210  0.37507635  1
  In  In35  1  0.82646712  0.67568583  0.88202549  1
  In  In36  1  -0.02031866  0.16699498  0.37438352  1
  In  In37  1  -0.04402193  0.17987878  0.88356444  1
  In  In38  1  -0.00801208  0.49166711  0.36702428  1
  In  In39  1  0.00623306  0.48934071  0.88116692  1
  In  In40  1  0.01168643  0.83396538  0.37367828  1
  In  In41  1  -0.00501384  0.82781419  0.88235237  1
  In  In42  1  0.33731878  0.17288083  0.36876669  1
  In  In43  1  0.33623785  0.18213203  0.88167236  1
  In  In44  1  0.32738612  0.49931475  0.36787892  1
  In  In45  1  0.32173900  0.49372627  0.86695539  1
  In  In46  1  0.34072784  0.82758131  0.37516418  1
  In  In47  1  0.34646792  0.83351642  0.87635492  1
  In  In48  1  0.67998012  0.18599117  0.35518735  1
  In  In49  1  0.67144159  0.16611527  0.87221906  1
  In  In50  1  0.68030565  0.49525911  0.38007437  1
  In  In51  1  0.67699202  0.50944562  0.87133821  1
  In  In52  1  0.65066606  0.82826065  0.37630921  1
  In  In53  1  0.66301916  0.83371115  0.87383665  1
  In  In54  1  0.15525604  -0.00342116  0.12622360  1
  In  In55  1  0.17661656  -0.00565260  0.62085137  1
  In  In56  1  0.15450841  0.34307279  0.12986173  1
  In  In57  1  0.16150766  0.34179631  0.63859636  1
  In  In58  1  0.17952785  0.65776352  0.13139930  1
  In  In59  1  0.16206139  0.67078822  0.62327121  1
  In  In60  1  0.51859794  0.01628933  0.11405946  1
  In  In61  1  0.51508461  0.00163905  0.62542491  1
  In  In62  1  0.51648512  0.31331081  0.14169759  1
  In  In63  1  0.50340788  0.33191465  0.63590427  1
  In  In64  1  0.48592182  0.66571730  0.12421762  1
  In  In65  1  0.49316688  0.67069611  0.62993042  1
  In  In66  1  0.82563186  -0.01321873  0.11680358  1
  In  In67  1  0.81577647  0.00317319  0.63053407  1
  In  In68  1  0.83458384  0.33254083  0.11918839  1
  In  In69  1  0.82695542  0.33887961  0.62580042  1
  In  In70  1  0.84103710  0.67258753  0.11887059  1
  In  In71  1  0.83518086  0.65097818  0.62379685  1
  In  In72  1  0.34163944  0.00717852  0.74655520  1
  In  In73  1  -0.00285793  -0.00000537  0.24830413  1
  In  In74  1  0.16822178  0.82546750  0.00729536  1
  In  In75  1  0.33922121  -0.00122916  0.24993817  1
  In  In76  1  0.50002374  0.49754298  0.00210952  1
  In  In77  1  0.51174135  0.50092764  0.49926959  1
  In  In78  1  0.00217759  0.65771788  0.74601976  1
  In  In79  1  0.16680648  0.17373848  -0.00070242  1
  In  In80  1  0.83274229  0.83386983  0.50339168  1
  In  In81  1  -0.00690032  0.00503057  0.75758533  1
  In  In82  1  0.16367188  0.16298086  0.49559142  1
  In  In83  1  0.50950845  0.16377559  0.50524198  1
  In  In84  1  0.16237304  0.50534598  0.50218774  1
  In  In85  1  0.66581017  0.66105365  0.25480833  1
  Cu  Cu86  1  0.66526995  0.00165750  0.50152851  1
  Cu  Cu87  1  -0.01588963  0.33360549  0.49726844  1
  Cu  Cu88  1  0.83622438  0.49320633  0.24578031  1
  Cu  Cu89  1  0.66463000  0.67241874  -0.00456101  1
  Cu  Cu90  1  0.49347965  0.49811889  0.24600099  1
  Cu  Cu91  1  0.50475653  0.50187190  0.75340133  1
  Cu  Cu92  1  0.00417585  0.66756473  0.49504038  1
  Cu  Cu93  1  -0.00272547  0.66029127  0.00017132  1
  Cu  Cu94  1  0.66483798  -0.00020726  -0.00073859  1
  Cu  Cu95  1  0.50111371  0.83181587  0.75244226  1
  Cu  Cu96  1  -0.00073442  0.00054562  0.49781537  1
  Cu  Cu97  1  0.33705328  0.67145786  0.49732309  1
  Cu  Cu98  1  0.16159695  0.17361292  0.75813774  1
  Cu  Cu99  1  0.33572017  0.32912593  0.50485721  1
  Cu  Cu100  1  0.33720965  -0.01502634  0.49687829  1
  Cu  Cu101  1  0.16079438  0.50109955  0.24695821  1
  Cu  Cu102  1  0.49912017  0.83420700  0.24893037  1
  Cu  Cu103  1  0.16841022  0.82988513  0.74386324  1
  Cu  Cu104  1  -0.00545098  0.33555790  -0.00141212  1
  Cu  Cu105  1  0.67180357  0.32706954  -0.00010213  1
  Cu  Cu106  1  0.83151097  0.17186802  0.24536414  1
  Cu  Cu107  1  0.34004220  0.00083880  0.00201207  1
  Cu  Cu108  1  0.50353530  0.17090114  0.75372564  1
  Cu  Cu109  1  0.82393235  0.83212354  0.75366827  1
  Cu  Cu110  1  0.33736060  0.33834125  0.00146103  1
  Cu  Cu111  1  0.82811243  0.83416386  0.24652669  1
  Cu  Cu112  1  0.16871387  0.17238180  0.24907233  1
  Cu  Cu113  1  0.83602251  0.49645351  0.75129057  1
  Cu  Cu114  1  0.33151616  0.66216568  0.00091780  1
  Se  Se115  1  0.07631315  0.07838483  0.05452276  1
  Se  Se116  1  0.07577067  0.08002070  0.56336153  1
  Se  Se117  1  0.08397186  0.41562781  0.04955268  1
  Se  Se118  1  0.07430788  0.40619644  0.55635573  1
  Se  Se119  1  0.07514577  0.73855367  0.06534590  1
  Se  Se120  1  0.08931176  0.74988494  0.54664244  1
  Se  Se121  1  0.42271960  0.09005023  0.04874511  1
  Se  Se122  1  0.40824148  0.07219609  0.55821271  1
  Se  Se123  1  0.41903661  0.40887855  0.06790857  1
  Se  Se124  1  0.41592322  0.41278071  0.56084211  1
  Se  Se125  1  0.41728059  0.74842638  0.04786371  1
  Se  Se126  1  0.42400627  0.75054829  0.55070747  1
  Se  Se127  1  0.75044467  0.08150548  0.05270197  1
  Se  Se128  1  0.74516559  0.08572427  0.55614545  1
  Se  Se129  1  0.75318991  0.41672344  0.04838833  1
  Se  Se130  1  0.76203188  0.43423689  0.55603016  1
  Se  Se131  1  0.74909973  0.75085851  0.05422013  1
  Se  Se132  1  0.74660987  0.74601779  0.56493668  1
  Se  Se133  1  0.25574928  0.25830393  0.06324387  1
  Se  Se134  1  0.24941776  0.25254725  0.56118977  1
  Se  Se135  1  0.24723787  0.57901665  0.05184623  1
  Se  Se136  1  0.26305657  0.58710746  0.55959549  1
  Se  Se137  1  0.25885476  0.92386094  0.06238081  1
  Se  Se138  1  0.24734513  0.90884984  0.54948257  1
  Se  Se139  1  0.58494849  0.25058151  0.05574974  1
  Se  Se140  1  0.59263580  0.26077729  0.56188635  1
  Se  Se141  1  0.59075699  0.59101294  0.06126097  1
  Se  Se142  1  0.58960935  0.58632015  0.56815993  1
  Se  Se143  1  0.58121181  0.91248841  0.05060504  1
  Se  Se144  1  0.58292551  0.91542902  0.55169106  1
  Se  Se145  1  0.91358576  0.24662272  0.04776217  1
  Se  Se146  1  0.90607302  0.25067423  0.55374569  1
  Se  Se147  1  0.91132625  0.57759567  0.05198444  1
  Se  Se148  1  0.91925166  0.58483161  0.54679917  1
  Se  Se149  1  0.92452469  0.91690046  0.05404260  1
  Se  Se150  1  0.92226496  0.92493140  0.56508292  1
  Se  Se151  1  0.07413570  0.25896555  0.43946150  1
  Se  Se152  1  0.07616833  0.25711192  0.93582144  1
  Se  Se153  1  0.08056181  0.58684821  0.43214765  1
  Se  Se154  1  0.08470666  0.57944366  0.94907908  1
  Se  Se155  1  0.08393087  0.91516837  0.44983569  1
  Se  Se156  1  0.08190301  0.91897531  0.94674685  1
  Se  Se157  1  0.41764312  0.25487344  0.44361742  1
  Se  Se158  1  0.42287898  0.25241424  0.95392390  1
  Se  Se159  1  0.41163266  0.58383061  0.43962521  1
  Se  Se160  1  0.41208037  0.58387508  0.93832062  1
  Se  Se161  1  0.42555377  0.90923736  0.44336974  1
  Se  Se162  1  0.42009977  0.91436371  0.94927160  1
  Se  Se163  1  0.75512291  0.24059068  0.43883845  1
  Se  Se164  1  0.75480730  0.24776556  0.94271472  1
  Se  Se165  1  0.73180564  0.59836192  0.44780776  1
  Se  Se166  1  0.74971641  0.58467427  0.94961757  1
  Se  Se167  1  0.74634080  0.92327731  0.43917788  1
  Se  Se168  1  0.74586196  0.90983219  0.94797566  1
  Se  Se169  1  0.26281012  0.07406534  0.43874485  1
  Se  Se170  1  0.25647875  0.07504985  0.94087775  1
  Se  Se171  1  0.25501682  0.40975353  0.44605136  1
  Se  Se172  1  0.25207829  0.41628427  0.94619973  1
  Se  Se173  1  0.25032413  0.74746333  0.44093735  1
  Se  Se174  1  0.25261410  0.74248408  0.93761861  1
  Se  Se175  1  0.59251699  0.08205236  0.43595493  1
  Se  Se176  1  0.58647309  0.08888869  0.94582586  1
  Se  Se177  1  0.59578600  0.40079415  0.44485401  1
  Se  Se178  1  0.59321418  0.41284704  0.94083376  1
  Se  Se179  1  0.58840919  0.74255806  0.45106773  1
  Se  Se180  1  0.57775013  0.75161937  0.94362299  1
  Se  Se181  1  0.91335550  0.08787236  0.45319697  1
  Se  Se182  1  0.93010454  0.06554461  0.94665916  1
  Se  Se183  1  0.90901662  0.42141212  0.44190451  1
  Se  Se184  1  0.90978917  0.41879582  0.94587009  1
  Se  Se185  1  0.91792418  0.74581840  0.43746495  1
  Se  Se186  1  0.91459374  0.74962316  0.95319755  1
  Se  Se187  1  0.25095179  0.25413758  0.30381979  1
  Se  Se188  1  0.25195370  0.25164186  0.80850309  1
  Se  Se189  1  0.24814028  0.58281467  0.29941167  1
  Se  Se190  1  0.25510550  0.58940976  0.79916857  1
  Se  Se191  1  0.24568726  0.90991725  0.30693442  1
  Se  Se192  1  0.24802729  0.91214573  0.80318676  1
  Se  Se193  1  0.57570366  0.25057586  0.29653829  1
  Se  Se194  1  0.58718743  0.25398223  0.80662882  1
  Se  Se195  1  0.57363433  0.57140808  0.31351026  1
  Se  Se196  1  0.58823057  0.58738265  0.80387152  1
  Se  Se197  1  0.58482280  0.91484162  0.30136587  1
  Se  Se198  1  0.58267273  0.91918546  0.80330769  1
  Se  Se199  1  0.91602095  0.25322067  0.29976872  1
  Se  Se200  1  0.92296903  0.26375469  0.80006118  1
  Se  Se201  1  0.91580471  0.58145806  0.29782219  1
  Se  Se202  1  0.91144173  0.58085556  0.81381241  1
  Se  Se203  1  0.90621140  0.91332989  0.31239373  1
  Se  Se204  1  0.90785948  0.90766446  0.81330848  1
  Se  Se205  1  0.08823241  0.09241475  0.31051081  1
  Se  Se206  1  0.08121131  0.09661447  0.81831090  1
  Se  Se207  1  0.07847137  0.41389946  0.29804504  1
  Se  Se208  1  0.08612197  0.42835346  0.80172351  1
  Se  Se209  1  0.06859253  0.74438010  0.29941603  1
  Se  Se210  1  0.08675620  0.75590991  0.80751356  1
  Se  Se211  1  0.43040599  0.09297271  0.30412136  1
  Se  Se212  1  0.42443382  0.09018642  0.81562298  1
  Se  Se213  1  0.41198643  0.41529113  0.30279021  1
  Se  Se214  1  0.42169491  0.41804589  0.80766729  1
  Se  Se215  1  0.41818502  0.74792219  0.30071994  1
  Se  Se216  1  0.41317758  0.74957951  0.80131268  1
  Se  Se217  1  0.75169607  0.08188930  0.29623270  1
  Se  Se218  1  0.75369397  0.08068161  0.80499159  1
  Se  Se219  1  0.74911999  0.41705022  0.30188980  1
  Se  Se220  1  0.74750037  0.41669805  0.80324758  1
  Se  Se221  1  0.75627915  0.75351492  0.31319503  1
  Se  Se222  1  0.74418985  0.74524139  0.80612860  1
  Se  Se223  1  0.24250721  0.08752806  0.18936749  1
  Se  Se224  1  0.23850625  0.09545427  0.69350852  1
  Se  Se225  1  0.24729472  0.41782537  0.19574726  1
  Se  Se226  1  0.26299769  0.40249249  0.70124660  1
  Se  Se227  1  0.25006201  0.75212554  0.19781939  1
  Se  Se228  1  0.25083152  0.74569501  0.69259114  1
  Se  Se229  1  0.58670036  0.08471961  0.19443669  1
  Se  Se230  1  0.58330615  0.08655341  0.69843149  1
  Se  Se231  1  0.58640992  0.41878442  0.19990005  1
  Se  Se232  1  0.58681603  0.41631699  0.70135266  1
  Se  Se233  1  0.58051355  0.75094017  0.18949732  1
  Se  Se234  1  0.58314165  0.74825069  0.69805845  1
  Se  Se235  1  0.91122030  0.08865778  0.18544643  1
  Se  Se236  1  0.90578667  0.09158541  0.69450110  1
  Se  Se237  1  0.91918588  0.41276398  0.18945074  1
  Se  Se238  1  0.91916244  0.41655639  0.69542478  1
  Se  Se239  1  0.91203357  0.74760996  0.19900116  1
  Se  Se240  1  0.90870531  0.75635265  0.69294651  1
  Se  Se241  1  0.07967369  0.25046825  0.19707068  1
  Se  Se242  1  0.07868227  0.25131405  0.70015653  1
  Se  Se243  1  0.07945002  0.58249477  0.19101272  1
  Se  Se244  1  0.09476869  0.56794691  0.68838364  1
  Se  Se245  1  0.09178201  0.90297438  0.19899002  1
  Se  Se246  1  0.08488901  0.91428856  0.69140941  1
  Se  Se247  1  0.40502361  0.25707453  0.19983589  1
  Se  Se248  1  0.41513045  0.25212689  0.70319535  1
  Se  Se249  1  0.41136840  0.58523311  0.19733251  1
  Se  Se250  1  0.41863094  0.58385888  0.70068815  1
  Se  Se251  1  0.42677823  0.91518083  0.18341195  1
  Se  Se252  1  0.42210446  0.90926865  0.68705726  1
  Se  Se253  1  0.74985082  0.25509992  0.19043489  1
  Se  Se254  1  0.74861095  0.25910000  0.69866360  1
  Se  Se255  1  0.75396528  0.57755405  0.18814286  1
  Se  Se256  1  0.75415183  0.58541935  0.70157835  1
  Se  Se257  1  0.74663702  0.92022261  0.19677641  1
  Se  Se258  1  0.74265932  0.91696294  0.70038127  1
