# generated using pymatgen
data_In86Cu29Se144
_symmetry_space_group_name_H-M   'P 1'
_cell_length_a   17.58508253
_cell_length_b   17.58566277
_cell_length_c   23.44706087
_cell_angle_alpha   90.01354229
_cell_angle_beta   89.99812613
_cell_angle_gamma   90.03214879
_symmetry_Int_Tables_number   1
_chemical_formula_structural   In86Cu29Se144
_chemical_formula_sum   'In86 Cu29 Se144'
_cell_volume   7250.89275490
_cell_formula_units_Z   1
loop_
 _symmetry_equiv_pos_site_id
 _symmetry_equiv_pos_as_xyz
  1  'x, y, z'
loop_
 _atom_site_type_symbol
 _atom_site_label
 _atom_site_symmetry_multiplicity
 _atom_site_fract_x
 _atom_site_fract_y
 _atom_site_fract_z
 _atom_site_occupancy
  In  In0  1  -0.01770884  0.18035359  0.13675274  1
  In  In1  1  -0.00969817  0.15697469  0.61217788  1
  In  In2  1  -0.01007049  0.50075148  0.13410720  1
  In  In3  1  -0.00066888  0.49750309  0.62334187  1
  In  In4  1  -0.00568569  0.84784094  0.13392367  1
  In  In5  1  0.01445137  0.85665428  0.59865354  1
  In  In6  1  0.34499705  0.15777987  0.13598604  1
  In  In7  1  0.33177276  0.17924738  0.62149972  1
  In  In8  1  0.32460283  0.50037417  0.12732051  1
  In  In9  1  0.33859966  0.48144843  0.62832874  1
  In  In10  1  0.35592787  0.83839061  0.12795662  1
  In  In11  1  0.33715393  0.83480542  0.61663645  1
  In  In12  1  0.67109270  0.16460497  0.12493590  1
  In  In13  1  0.67651608  0.17183419  0.62544417  1
  In  In14  1  0.67346128  0.48312279  0.13088189  1
  In  In15  1  0.65725828  0.51243345  0.64006520  1
  In  In16  1  0.67053583  0.83732990  0.12509056  1
  In  In17  1  0.66415417  0.83069696  0.61670529  1
  In  In18  1  0.16114746  -0.00427947  0.37939785  1
  In  In19  1  0.16010493  0.02229024  0.86777068  1
  In  In20  1  0.15331724  0.32085399  0.36930831  1
  In  In21  1  0.17538932  0.31525481  0.87333416  1
  In  In22  1  0.15953361  0.67896642  0.37795343  1
  In  In23  1  0.16245163  0.67590398  0.87323865  1
  In  In24  1  0.48905138  -0.01619464  0.35879053  1
  In  In25  1  0.50643213  -0.00395322  0.88818125  1
  In  In26  1  0.50564038  0.33685372  0.36892898  1
  In  In27  1  0.49317191  0.33200121  0.87040891  1
  In  In28  1  0.49182534  0.66984265  0.38308114  1
  In  In29  1  0.51674084  0.65742292  0.87783650  1
  In  In30  1  0.83470916  0.00332569  0.37570187  1
  In  In31  1  0.83741699  -0.00647668  0.87978735  1
  In  In32  1  0.82051959  0.32285274  0.36482474  1
  In  In33  1  0.82745035  0.34518147  0.89219996  1
  In  In34  1  0.84916225  0.66201693  0.36799871  1
  In  In35  1  0.82132593  0.67592718  0.88393272  1
  In  In36  1  -0.00599098  0.15699432  0.37963829  1
  In  In37  1  0.00337058  0.15886639  0.87646567  1
  In  In38  1  -0.01738253  0.49076417  0.35453468  1
  In  In39  1  -0.01291467  0.48876287  0.88171256  1
  In  In40  1  -0.00107341  0.83779879  0.37423496  1
  In  In41  1  -0.01663583  0.83871660  0.87358540  1
  In  In42  1  0.32066003  0.15539825  0.36847287  1
  In  In43  1  0.33201487  0.17962281  0.87612957  1
  In  In44  1  0.34568062  0.50351920  0.37733424  1
  In  In45  1  0.35303663  0.48463958  0.87511568  1
  In  In46  1  0.32482211  0.83613249  0.37935586  1
  In  In47  1  0.33503811  0.84616211  0.87824469  1
  In  In48  1  0.67507922  0.16882693  0.37172410  1
  In  In49  1  0.65884727  0.17391026  0.88495759  1
  In  In50  1  0.66632140  0.48548111  0.37010398  1
  In  In51  1  0.66732715  0.50864007  0.87120014  1
  In  In52  1  0.65538073  0.84320033  0.37479975  1
  In  In53  1  0.67272777  0.82683579  0.88139635  1
  In  In54  1  0.16349742  0.00880139  0.13689365  1
  In  In55  1  0.16072968  0.00066335  0.61079875  1
  In  In56  1  0.16832081  0.33072587  0.13575981  1
  In  In57  1  0.17676341  0.33130196  0.62337458  1
  In  In58  1  0.16470697  0.65949270  0.12730969  1
  In  In59  1  0.15773006  0.67345678  0.62179431  1
  In  In60  1  0.50156234  0.00121616  0.13041403  1
  In  In61  1  0.51106274  -0.00570054  0.61918331  1
  In  In62  1  0.51592805  0.32242369  0.13480846  1
  In  In63  1  0.49726190  0.34250068  0.63477552  1
  In  In64  1  0.49843531  0.68553186  0.11998210  1
  In  In65  1  0.51095507  0.67216903  0.62047666  1
  In  In66  1  0.83403972  -0.00042861  0.12649657  1
  In  In67  1  0.84403411  0.01155858  0.60589006  1
  In  In68  1  0.83890050  0.32643752  0.12317897  1
  In  In69  1  0.83049135  0.32457739  0.62574571  1
  In  In70  1  0.83905926  0.67533081  0.12178257  1
  In  In71  1  0.81966510  0.67162684  0.62639406  1
  In  In72  1  0.67142687  0.00291134  0.74707991  1
  In  In73  1  0.16299495  0.16919325  0.00010000  1
  In  In74  1  0.16258633  0.49964034  0.00846224  1
  In  In75  1  0.49929276  0.16248693  0.49517589  1
  In  In76  1  0.50459221  0.50035325  0.00205259  1
  In  In77  1  0.32752396  0.66855635  0.25108755  1
  In  In78  1  0.82921664  0.50105718  0.49759364  1
  In  In79  1  -0.00951952  0.66841495  0.73870377  1
  In  In80  1  0.16667132  0.83695168  -0.00101236  1
  In  In81  1  0.32901682  0.00603052  0.74615134  1
  In  In82  1  0.33995521  0.66198476  0.75218831  1
  In  In83  1  -0.00002201  0.32740244  0.75037459  1
  In  In84  1  0.16898044  0.50538800  0.49891826  1
  In  In85  1  0.66855518  0.66833660  0.24400123  1
  Cu  Cu86  1  0.50726759  0.17062196  0.25062572  1
  Cu  Cu87  1  0.83312090  0.16812553  0.74840001  1
  Cu  Cu88  1  0.66367868  0.66693212  0.49922943  1
  Cu  Cu89  1  0.83396665  0.83675608  0.24976597  1
  Cu  Cu90  1  0.34304021  0.66429357  0.50193432  1
  Cu  Cu91  1  -0.00604195  0.66864486  0.00244838  1
  Cu  Cu92  1  0.49590614  0.17184933  0.75530634  1
  Cu  Cu93  1  -0.00666993  -0.00007194  0.00236001  1
  Cu  Cu94  1  0.34110612  -0.00017216  0.00842658  1
  Cu  Cu95  1  0.67142980  0.66676738  0.00197447  1
  Cu  Cu96  1  0.33375558  0.33244842  0.49967461  1
  Cu  Cu97  1  0.15732819  0.84116886  0.73786181  1
  Cu  Cu98  1  0.33180194  -0.00424956  0.49144100  1
  Cu  Cu99  1  0.66871739  -0.00017784  0.00737543  1
  Cu  Cu100  1  0.66957122  0.32793913  0.00585503  1
  Cu  Cu101  1  -0.00427755  0.32304014  0.49432214  1
  Cu  Cu102  1  0.82662065  0.50101857  0.75929860  1
  Cu  Cu103  1  0.83348362  0.16094210  0.24907383  1
  Cu  Cu104  1  0.00132521  0.67065588  0.49326920  1
  Cu  Cu105  1  0.49898349  0.49932703  0.25004442  1
  Cu  Cu106  1  0.50893190  0.82732660  0.74807379  1
  Cu  Cu107  1  0.66573582  0.33406275  0.49609484  1
  Cu  Cu108  1  0.83419526  0.83917576  0.74829866  1
  Cu  Cu109  1  0.34019338  0.33097089  0.00218501  1
  Cu  Cu110  1  0.16485218  0.83885253  0.25661723  1
  Cu  Cu111  1  0.16697229  0.16546588  0.25822507  1
  Cu  Cu112  1  0.16352652  0.49576396  0.24866518  1
  Cu  Cu113  1  0.17577016  0.49157153  0.75307352  1
  Cu  Cu114  1  0.66661943  -0.00248782  0.49452784  1
  Se  Se115  1  0.07571271  0.07912277  0.06104593  1
  Se  Se116  1  0.07160024  0.07609786  0.54332861  1
  Se  Se117  1  0.07755949  0.40697733  0.06542491  1
  Se  Se118  1  0.07490053  0.40726193  0.55351737  1
  Se  Se119  1  0.07739103  0.74787065  0.06081864  1
  Se  Se120  1  0.09014260  0.75043057  0.54429538  1
  Se  Se121  1  0.42256321  0.08768759  0.05805001  1
  Se  Se122  1  0.40816419  0.07325853  0.55846106  1
  Se  Se123  1  0.41636842  0.41103428  0.06516130  1
  Se  Se124  1  0.42052247  0.41071235  0.55322551  1
  Se  Se125  1  0.40581955  0.74789637  0.05053500  1
  Se  Se126  1  0.42453955  0.75208856  0.55287627  1
  Se  Se127  1  0.75550705  0.08362596  0.05550388  1
  Se  Se128  1  0.74088556  0.08720860  0.54942557  1
  Se  Se129  1  0.75326316  0.41384470  0.05513122  1
  Se  Se130  1  0.74182387  0.41469436  0.56095820  1
  Se  Se131  1  0.75136139  0.75435523  0.05481032  1
  Se  Se132  1  0.75080506  0.74949508  0.54866197  1
  Se  Se133  1  0.25844182  0.25215088  0.06281195  1
  Se  Se134  1  0.24619886  0.24862871  0.54724039  1
  Se  Se135  1  0.26126775  0.59594647  0.05383023  1
  Se  Se136  1  0.26086955  0.58831804  0.56526420  1
  Se  Se137  1  0.25070435  0.92594431  0.06429514  1
  Se  Se138  1  0.25117547  0.91381094  0.55025517  1
  Se  Se139  1  0.58256224  0.24556971  0.05564317  1
  Se  Se140  1  0.58430071  0.25431915  0.55756539  1
  Se  Se141  1  0.59350707  0.58882639  0.06596530  1
  Se  Se142  1  0.58882960  0.57887663  0.55530375  1
  Se  Se143  1  0.58191835  0.91739560  0.05862139  1
  Se  Se144  1  0.58204700  0.91294397  0.54583953  1
  Se  Se145  1  0.91549080  0.24051071  0.05200218  1
  Se  Se146  1  0.90713452  0.24999810  0.55070054  1
  Se  Se147  1  0.91784292  0.58189008  0.05746953  1
  Se  Se148  1  0.92362671  0.59282166  0.55762348  1
  Se  Se149  1  0.91403594  0.91309592  0.05506605  1
  Se  Se150  1  0.89707689  0.90207961  0.54450546  1
  Se  Se151  1  0.08372951  0.24202664  0.44578469  1
  Se  Se152  1  0.07235106  0.26277696  0.94410775  1
  Se  Se153  1  0.07016872  0.57823264  0.43430389  1
  Se  Se154  1  0.07579885  0.59134884  0.94152439  1
  Se  Se155  1  0.09227033  0.90032680  0.44622629  1
  Se  Se156  1  0.07877871  0.92933615  0.93759545  1
  Se  Se157  1  0.40975414  0.25251798  0.43542221  1
  Se  Se158  1  0.42150627  0.24923154  0.94667278  1
  Se  Se159  1  0.42440596  0.57577120  0.45322028  1
  Se  Se160  1  0.41070114  0.58847653  0.94298521  1
  Se  Se161  1  0.42064003  0.91457939  0.44265963  1
  Se  Se162  1  0.41913776  0.91313505  0.95323684  1
  Se  Se163  1  0.75081742  0.25021992  0.44633549  1
  Se  Se164  1  0.75314213  0.24443490  0.95229584  1
  Se  Se165  1  0.74226246  0.59062414  0.43444802  1
  Se  Se166  1  0.74924376  0.57873738  0.94792066  1
  Se  Se167  1  0.74974936  0.91462177  0.44145050  1
  Se  Se168  1  0.74861740  0.91757827  0.94777743  1
  Se  Se169  1  0.24640776  0.08329302  0.44658734  1
  Se  Se170  1  0.25948875  0.07569433  0.94431605  1
  Se  Se171  1  0.25224805  0.41126368  0.43782830  1
  Se  Se172  1  0.25494057  0.40914834  0.94456535  1
  Se  Se173  1  0.25522761  0.74150744  0.44784573  1
  Se  Se174  1  0.25811578  0.74420743  0.94152495  1
  Se  Se175  1  0.58405370  0.07379589  0.43248555  1
  Se  Se176  1  0.58462749  0.08362526  0.95375033  1
  Se  Se177  1  0.58135781  0.41671749  0.44469743  1
  Se  Se178  1  0.59049134  0.40827535  0.94214736  1
  Se  Se179  1  0.58287507  0.75188408  0.44477931  1
  Se  Se180  1  0.58447905  0.74767275  0.94903463  1
  Se  Se181  1  0.91277548  0.07915227  0.45118404  1
  Se  Se182  1  0.91546034  0.08485796  0.94596866  1
  Se  Se183  1  0.91806883  0.41019835  0.43802061  1
  Se  Se184  1  0.91870571  0.41744023  0.96018448  1
  Se  Se185  1  0.91395582  0.74964952  0.44143079  1
  Se  Se186  1  0.91493392  0.75464422  0.94754636  1
  Se  Se187  1  0.25338584  0.25538522  0.30353740  1
  Se  Se188  1  0.24663328  0.23731365  0.79898091  1
  Se  Se189  1  0.23964262  0.57626484  0.31302261  1
  Se  Se190  1  0.24691208  0.57561240  0.81523203  1
  Se  Se191  1  0.25115315  0.92063066  0.30753602  1
  Se  Se192  1  0.23740328  0.91266248  0.80573933  1
  Se  Se193  1  0.59140208  0.25322897  0.30426030  1
  Se  Se194  1  0.58503646  0.24889162  0.80769712  1
  Se  Se195  1  0.57562612  0.58387026  0.30983726  1
  Se  Se196  1  0.57700303  0.57669411  0.80039042  1
  Se  Se197  1  0.59089309  0.92020317  0.29517139  1
  Se  Se198  1  0.58210089  0.91343475  0.80899762  1
  Se  Se199  1  0.91639109  0.24144492  0.30687367  1
  Se  Se200  1  0.90661676  0.24855432  0.81430633  1
  Se  Se201  1  0.91975039  0.58957512  0.28978105  1
  Se  Se202  1  0.91285951  0.58378959  0.81209517  1
  Se  Se203  1  0.91660054  0.91974663  0.30469170  1
  Se  Se204  1  0.91666485  0.92506334  0.79976616  1
  Se  Se205  1  0.08252094  0.08092112  0.30922500  1
  Se  Se206  1  0.07826037  0.09351088  0.79607709  1
  Se  Se207  1  0.08017953  0.40920439  0.29882087  1
  Se  Se208  1  0.08898152  0.42005542  0.81350680  1
  Se  Se209  1  0.07987871  0.75070230  0.30301237  1
  Se  Se210  1  0.08171050  0.75987470  0.80133160  1
  Se  Se211  1  0.41994167  0.08984263  0.30241020  1
  Se  Se212  1  0.42473966  0.08199126  0.81321250  1
  Se  Se213  1  0.41447016  0.41805684  0.30365744  1
  Se  Se214  1  0.42112313  0.41459947  0.79607637  1
  Se  Se215  1  0.41958933  0.75663680  0.30836360  1
  Se  Se216  1  0.42418952  0.75791764  0.81216495  1
  Se  Se217  1  0.74886231  0.07896543  0.30297194  1
  Se  Se218  1  0.75401249  0.09088317  0.81280677  1
  Se  Se219  1  0.76428525  0.42947494  0.30195148  1
  Se  Se220  1  0.75047011  0.41251555  0.81237352  1
  Se  Se221  1  0.75443778  0.75514905  0.30981359  1
  Se  Se222  1  0.75447873  0.75595458  0.80475843  1
  Se  Se223  1  0.25263770  0.08515977  0.20358405  1
  Se  Se224  1  0.24083482  0.09009581  0.68367060  1
  Se  Se225  1  0.25463687  0.41638362  0.20029979  1
  Se  Se226  1  0.25385749  0.40658653  0.69946966  1
  Se  Se227  1  0.24181078  0.76242908  0.18942371  1
  Se  Se228  1  0.24697367  0.75597131  0.69194712  1
  Se  Se229  1  0.58784917  0.08525843  0.19637756  1
  Se  Se230  1  0.57337058  0.09375826  0.69117916  1
  Se  Se231  1  0.58765092  0.41449351  0.20400826  1
  Se  Se232  1  0.60499667  0.39835820  0.69579735  1
  Se  Se233  1  0.57246060  0.76390660  0.19688272  1
  Se  Se234  1  0.59313686  0.74890818  0.69372474  1
  Se  Se235  1  0.91939419  0.07590314  0.19898628  1
  Se  Se236  1  0.90920307  0.08556969  0.68921962  1
  Se  Se237  1  0.92373905  0.40016228  0.19619265  1
  Se  Se238  1  0.90728723  0.42640847  0.69488219  1
  Se  Se239  1  0.91716415  0.75267212  0.19667312  1
  Se  Se240  1  0.91412681  0.76805886  0.68021121  1
  Se  Se241  1  0.08510234  0.24519051  0.20035631  1
  Se  Se242  1  0.08107925  0.24436909  0.68152661  1
  Se  Se243  1  0.08288007  0.58313548  0.19736989  1
  Se  Se244  1  0.09497335  0.57166895  0.69404750  1
  Se  Se245  1  0.08132310  0.92308553  0.20310338  1
  Se  Se246  1  0.07730479  0.92402449  0.68499938  1
  Se  Se247  1  0.41816386  0.25416968  0.20064631  1
  Se  Se248  1  0.41439263  0.24934244  0.69597741  1
  Se  Se249  1  0.42472706  0.58319846  0.18921512  1
  Se  Se250  1  0.42572143  0.57787694  0.68747129  1
  Se  Se251  1  0.40757543  0.93209179  0.20036774  1
  Se  Se252  1  0.42652128  0.91088821  0.69289868  1
  Se  Se253  1  0.75281186  0.24740029  0.19464684  1
  Se  Se254  1  0.74744870  0.25381740  0.70111671  1
  Se  Se255  1  0.76084978  0.57783527  0.18974547  1
  Se  Se256  1  0.75238845  0.58958086  0.70299054  1
  Se  Se257  1  0.74954153  0.91830463  0.19650231  1
  Se  Se258  1  0.75689186  0.91702449  0.68306478  1
