# generated using pymatgen
data_In86Cu29Se144
_symmetry_space_group_name_H-M   'P 1'
_cell_length_a   17.56655398
_cell_length_b   17.56954529
_cell_length_c   23.42323301
_cell_angle_alpha   90.00366586
_cell_angle_beta   89.99580344
_cell_angle_gamma   90.00391639
_symmetry_Int_Tables_number   1
_chemical_formula_structural   In86Cu29Se144
_chemical_formula_sum   'In86 Cu29 Se144'
_cell_volume   7229.26146056
_cell_formula_units_Z   1
loop_
 _symmetry_equiv_pos_site_id
 _symmetry_equiv_pos_as_xyz
  1  'x, y, z'
loop_
 _atom_site_type_symbol
 _atom_site_label
 _atom_site_symmetry_multiplicity
 _atom_site_fract_x
 _atom_site_fract_y
 _atom_site_fract_z
 _atom_site_occupancy
  In  In0  1  0.00908631  0.14922750  0.14163670  1
  In  In1  1  -0.00623844  0.16391526  0.62771356  1
  In  In2  1  0.00103987  0.50178020  0.13822240  1
  In  In3  1  0.01189371  0.48892773  0.62255271  1
  In  In4  1  0.00251873  0.83347053  0.12504442  1
  In  In5  1  0.01996861  0.82554067  0.62641013  1
  In  In6  1  0.33459785  0.16938455  0.12380883  1
  In  In7  1  0.33639691  0.16281167  0.62243697  1
  In  In8  1  0.34587619  0.48802492  0.13327530  1
  In  In9  1  0.33599898  0.49641875  0.62606321  1
  In  In10  1  0.32033991  0.84142776  0.13339712  1
  In  In11  1  0.32202863  0.84683577  0.62719938  1
  In  In12  1  0.66110033  0.18185770  0.13519519  1
  In  In13  1  0.65597114  0.18433404  0.62906293  1
  In  In14  1  0.65066544  0.50512969  0.12538955  1
  In  In15  1  0.63954142  0.48102970  0.60966188  1
  In  In16  1  0.66777350  0.81284750  0.12268010  1
  In  In17  1  0.66829288  0.82895012  0.62571301  1
  In  In18  1  0.16762456  -0.00274891  0.37144888  1
  In  In19  1  0.16750521  0.00379325  0.87419694  1
  In  In20  1  0.18185357  0.34721471  0.36735002  1
  In  In21  1  0.16759516  0.31892163  0.87757083  1
  In  In22  1  0.17794462  0.66880690  0.38034700  1
  In  In23  1  0.18295043  0.66552176  0.88059751  1
  In  In24  1  0.49441078  0.02019585  0.37220636  1
  In  In25  1  0.50263383  0.01229310  0.87855014  1
  In  In26  1  0.50121687  0.33814580  0.38098625  1
  In  In27  1  0.49726195  0.33250315  0.87404883  1
  In  In28  1  0.47818862  0.64597889  0.36285546  1
  In  In29  1  0.48578425  0.67211687  0.88086712  1
  In  In30  1  0.84565340  -0.00608174  0.36285795  1
  In  In31  1  0.83500502  -0.01174956  0.88364569  1
  In  In32  1  0.82442694  0.32166288  0.36010021  1
  In  In33  1  0.82584334  0.34780373  0.87692837  1
  In  In34  1  0.83416945  0.67655747  0.35415085  1
  In  In35  1  0.84244296  0.67182232  0.88243099  1
  In  In36  1  -0.00202189  0.16292434  0.35818064  1
  In  In37  1  0.02050291  0.16859626  0.87872766  1
  In  In38  1  0.00983055  0.51130522  0.36382292  1
  In  In39  1  -0.00568642  0.49850189  0.87769061  1
  In  In40  1  0.01199629  0.84446298  0.36070120  1
  In  In41  1  -0.00443551  0.84567850  0.88310026  1
  In  In42  1  0.37122281  0.19668953  0.34103397  1
  In  In43  1  0.33526104  0.16806559  0.87403034  1
  In  In44  1  0.33640037  0.50227514  0.38782815  1
  In  In45  1  0.34152112  0.50920375  0.87028349  1
  In  In46  1  0.32034478  0.82020466  0.37017995  1
  In  In47  1  0.32211673  0.82704910  0.87497300  1
  In  In48  1  0.64939060  0.17798524  0.37684677  1
  In  In49  1  0.64819024  0.17180882  0.88110737  1
  In  In50  1  0.64550217  0.48349806  0.37021272  1
  In  In51  1  0.66600703  0.48200056  0.87281811  1
  In  In52  1  0.67869938  0.83196922  0.36326728  1
  In  In53  1  0.66839547  0.84081264  0.88590696  1
  In  In54  1  0.16883998  -0.00194622  0.12244207  1
  In  In55  1  0.17081017  -0.00607143  0.62829577  1
  In  In56  1  0.18375618  0.32111043  0.13446619  1
  In  In57  1  0.17934056  0.35225691  0.61038774  1
  In  In58  1  0.15696553  0.67529202  0.13397865  1
  In  In59  1  0.19257514  0.67795893  0.60229202  1
  In  In60  1  0.48350521  0.00492516  0.12935009  1
  In  In61  1  0.48128079  -0.00402229  0.62345689  1
  In  In62  1  0.49364380  0.33142185  0.12709995  1
  In  In63  1  0.49692049  0.33366539  0.62159830  1
  In  In64  1  0.50999723  0.65196493  0.13221305  1
  In  In65  1  0.48596481  0.64032843  0.61228478  1
  In  In66  1  0.85267463  -0.00312004  0.13575780  1
  In  In67  1  0.84198404  0.01380547  0.62857045  1
  In  In68  1  0.82355711  0.32586114  0.14628489  1
  In  In69  1  0.83217810  0.31739017  0.62306533  1
  In  In70  1  0.82325604  0.68429152  0.14172566  1
  In  In71  1  0.83057936  0.67038054  0.62052317  1
  In  In72  1  0.65712617  0.66463192  0.74862949  1
  In  In73  1  0.66486920  0.00608352  0.24630210  1
  In  In74  1  0.66409500  0.00383776  0.76396553  1
  In  In75  1  0.82749112  0.16667758  0.48597264  1
  In  In76  1  0.49612561  0.83053449  0.49539127  1
  In  In77  1  0.82452509  0.50934751  0.01028601  1
  In  In78  1  0.83505222  0.16648125  0.01380561  1
  In  In79  1  0.00846674  0.32505893  0.74780428  1
  In  In80  1  0.17069414  0.50209329  0.00142645  1
  In  In81  1  0.83798357  0.50235879  0.49390691  1
  In  In82  1  0.49805441  0.83083265  0.00538466  1
  In  In83  1  0.17582732  0.16981723  0.49380100  1
  In  In84  1  0.84251465  0.83681873  0.48327982  1
  In  In85  1  0.00767423  0.66421321  0.75609478  1
  Cu  Cu86  1  0.81651419  0.49534332  0.74382430  1
  Cu  Cu87  1  0.49832848  0.49582832  0.25362685  1
  Cu  Cu88  1  0.17299916  0.49980842  0.25649260  1
  Cu  Cu89  1  0.49597619  0.17019721  0.75101950  1
  Cu  Cu90  1  0.66966351  0.00152188  0.00820641  1
  Cu  Cu91  1  0.33524051  0.66476823  0.00802063  1
  Cu  Cu92  1  0.82944107  0.49947540  0.25151261  1
  Cu  Cu93  1  0.32897229  0.00436645  0.00115822  1
  Cu  Cu94  1  0.66805072  0.66519519  0.48052093  1
  Cu  Cu95  1  0.49615341  0.49203444  0.74451737  1
  Cu  Cu96  1  0.49985639  0.83168928  0.24663535  1
  Cu  Cu97  1  0.48510270  0.82532635  0.75015855  1
  Cu  Cu98  1  0.32842806  0.00391353  0.49602707  1
  Cu  Cu99  1  0.33921647  0.33071795  0.00310159  1
  Cu  Cu100  1  0.01608654  0.66324485  0.49273035  1
  Cu  Cu101  1  0.17294726  0.16402414  0.74929223  1
  Cu  Cu102  1  0.16787106  0.83831362  0.74718452  1
  Cu  Cu103  1  0.00388128  0.32993616  0.01278134  1
  Cu  Cu104  1  0.17540121  0.50061523  0.74467835  1
  Cu  Cu105  1  -0.00051117  0.68000776  0.00761761  1
  Cu  Cu106  1  0.00123837  0.33375487  0.48352608  1
  Cu  Cu107  1  0.00707467  0.00215611  0.00606382  1
  Cu  Cu108  1  0.65869820  0.01149943  0.49712233  1
  Cu  Cu109  1  0.83775740  0.83867368  0.75787202  1
  Cu  Cu110  1  0.16613723  0.15754045  0.24687932  1
  Cu  Cu111  1  0.16669122  0.83188316  0.24919297  1
  Cu  Cu112  1  0.65653385  0.33304503  0.00403970  1
  Cu  Cu113  1  0.00937011  -0.00928784  0.49875740  1
  Cu  Cu114  1  0.83675209  0.16608540  0.75349203  1
  Se  Se115  1  0.08544349  0.08987712  0.05823810  1
  Se  Se116  1  0.08000098  0.08212422  0.55648797  1
  Se  Se117  1  0.08565228  0.41500559  0.06744750  1
  Se  Se118  1  0.07916564  0.41430863  0.54253626  1
  Se  Se119  1  0.09376169  0.75718012  0.05469498  1
  Se  Se120  1  0.09004463  0.75461411  0.54585124  1
  Se  Se121  1  0.41615925  0.08553432  0.05191698  1
  Se  Se122  1  0.41601705  0.08240367  0.54914924  1
  Se  Se123  1  0.42019608  0.41899024  0.05292550  1
  Se  Se124  1  0.44177142  0.44346684  0.55911633  1
  Se  Se125  1  0.41132108  0.74608678  0.07033597  1
  Se  Se126  1  0.40662534  0.74958774  0.56087032  1
  Se  Se127  1  0.74444890  0.07804769  0.07389047  1
  Se  Se128  1  0.74561986  0.08293054  0.55965495  1
  Se  Se129  1  0.74508521  0.40423077  0.06449056  1
  Se  Se130  1  0.75222593  0.40776761  0.55514452  1
  Se  Se131  1  0.75561953  0.74083308  0.05360382  1
  Se  Se132  1  0.74488425  0.74848069  0.54499202  1
  Se  Se133  1  0.24970571  0.24927412  0.05152331  1
  Se  Se134  1  0.26757704  0.26132871  0.55045371  1
  Se  Se135  1  0.25486025  0.58523224  0.06956722  1
  Se  Se136  1  0.23086495  0.55152360  0.55837263  1
  Se  Se137  1  0.25123182  0.91475579  0.05220899  1
  Se  Se138  1  0.24517219  0.92096307  0.54941637  1
  Se  Se139  1  0.57806048  0.24616818  0.05776070  1
  Se  Se140  1  0.57780290  0.24830985  0.55235646  1
  Se  Se141  1  0.58229390  0.58671990  0.04998130  1
  Se  Se142  1  0.59259055  0.59146772  0.54556942  1
  Se  Se143  1  0.58676512  0.92209215  0.06735975  1
  Se  Se144  1  0.58968808  0.92202077  0.55823834  1
  Se  Se145  1  0.92204954  0.25574054  0.07484782  1
  Se  Se146  1  0.92725415  0.25226388  0.54779611  1
  Se  Se147  1  0.92630344  0.59025521  0.06437617  1
  Se  Se148  1  0.93110862  0.59175070  0.55676674  1
  Se  Se149  1  0.92032346  0.91986839  0.05626992  1
  Se  Se150  1  0.92217037  0.91871858  0.56022242  1
  Se  Se151  1  0.08021793  0.24884689  0.42863172  1
  Se  Se152  1  0.08638095  0.25140093  0.95559401  1
  Se  Se153  1  0.09348093  0.57338597  0.44208822  1
  Se  Se154  1  0.07254791  0.59420290  0.94451450  1
  Se  Se155  1  0.08876022  0.91043340  0.44210633  1
  Se  Se156  1  0.08835127  0.92168569  0.94723310  1
  Se  Se157  1  0.41899551  0.23895271  0.43848651  1
  Se  Se158  1  0.41918773  0.24770336  0.94455977  1
  Se  Se159  1  0.41694664  0.59354179  0.45271737  1
  Se  Se160  1  0.41335534  0.58221840  0.95085968  1
  Se  Se161  1  0.40904765  0.92214178  0.43473474  1
  Se  Se162  1  0.41179166  0.92157416  0.94155747  1
  Se  Se163  1  0.73583387  0.26851930  0.44389836  1
  Se  Se164  1  0.74635880  0.25576317  0.94712131  1
  Se  Se165  1  0.75326475  0.58653386  0.42518619  1
  Se  Se166  1  0.74133072  0.58674665  0.93593243  1
  Se  Se167  1  0.74162035  0.93256718  0.43742252  1
  Se  Se168  1  0.75195258  0.91575320  0.95759895  1
  Se  Se169  1  0.26145185  0.08600578  0.42919364  1
  Se  Se170  1  0.24912999  0.08794591  0.94295927  1
  Se  Se171  1  0.25028583  0.41235782  0.44999342  1
  Se  Se172  1  0.25801588  0.41087257  0.94019895  1
  Se  Se173  1  0.25213714  0.75310902  0.45301881  1
  Se  Se174  1  0.25317814  0.74906486  0.95479378  1
  Se  Se175  1  0.57271111  0.09397699  0.44889596  1
  Se  Se176  1  0.58522557  0.08146883  0.95454320  1
  Se  Se177  1  0.57448353  0.42467367  0.45425726  1
  Se  Se178  1  0.57887676  0.41594942  0.94624389  1
  Se  Se179  1  0.58558836  0.74953113  0.42747535  1
  Se  Se180  1  0.59024814  0.74090548  0.94593842  1
  Se  Se181  1  0.92825733  0.07280378  0.43935635  1
  Se  Se182  1  0.92393041  0.08330224  0.94563579  1
  Se  Se183  1  0.91761041  0.41152003  0.42618716  1
  Se  Se184  1  0.92196146  0.41050629  0.95350699  1
  Se  Se185  1  0.93071761  0.73873184  0.43166392  1
  Se  Se186  1  0.91497298  0.75944695  0.95171483  1
  Se  Se187  1  0.24369664  0.24631961  0.29993250  1
  Se  Se188  1  0.25141837  0.25053158  0.80315169  1
  Se  Se189  1  0.25624597  0.58069396  0.31175556  1
  Se  Se190  1  0.25059087  0.58634430  0.80283421  1
  Se  Se191  1  0.25111375  0.91514869  0.30195779  1
  Se  Se192  1  0.25015628  0.91802269  0.80596706  1
  Se  Se193  1  0.57523668  0.25649665  0.30390546  1
  Se  Se194  1  0.58267147  0.25124684  0.80316350  1
  Se  Se195  1  0.58567649  0.58426743  0.30209800  1
  Se  Se196  1  0.57125440  0.57433606  0.81112128  1
  Se  Se197  1  0.57468254  0.91572242  0.30886424  1
  Se  Se198  1  0.57043124  0.90218716  0.81100377  1
  Se  Se199  1  0.91474349  0.24702974  0.29441941  1
  Se  Se200  1  0.91401362  0.24899018  0.81685664  1
  Se  Se201  1  0.91964366  0.58505630  0.29540813  1
  Se  Se202  1  0.90082836  0.57218301  0.80482445  1
  Se  Se203  1  0.90514596  0.89729238  0.29539628  1
  Se  Se204  1  0.92056870  0.92464148  0.80672305  1
  Se  Se205  1  0.08211738  0.07182344  0.29841029  1
  Se  Se206  1  0.08476224  0.08564654  0.80182332  1
  Se  Se207  1  0.08242339  0.41272006  0.30079957  1
  Se  Se208  1  0.09131229  0.42509970  0.80925317  1
  Se  Se209  1  0.09182592  0.74375301  0.30645830  1
  Se  Se210  1  0.09294049  0.75900576  0.81480876  1
  Se  Se211  1  0.40648067  0.06957334  0.29300557  1
  Se  Se212  1  0.41841529  0.08257393  0.80508698  1
  Se  Se213  1  0.41474587  0.42135479  0.31289726  1
  Se  Se214  1  0.41321014  0.41418613  0.80467604  1
  Se  Se215  1  0.41452240  0.75049285  0.30104370  1
  Se  Se216  1  0.40469907  0.74268535  0.80568825  1
  Se  Se217  1  0.74878298  0.08968115  0.31626802  1
  Se  Se218  1  0.75783226  0.09437723  0.82118634  1
  Se  Se219  1  0.74236710  0.41726319  0.30195070  1
  Se  Se220  1  0.74163965  0.40542744  0.79656068  1
  Se  Se221  1  0.74704311  0.75314245  0.28716414  1
  Se  Se222  1  0.75162182  0.75531709  0.81064359  1
  Se  Se223  1  0.25244365  0.08105077  0.19069524  1
  Se  Se224  1  0.25383942  0.08125847  0.69217087  1
  Se  Se225  1  0.25438862  0.41585818  0.20138059  1
  Se  Se226  1  0.25405121  0.40992086  0.69556338  1
  Se  Se227  1  0.25317480  0.74476490  0.20089514  1
  Se  Se228  1  0.24446494  0.75090550  0.69111081  1
  Se  Se229  1  0.56512714  0.09553847  0.19659001  1
  Se  Se230  1  0.57646947  0.08264275  0.69305401  1
  Se  Se231  1  0.57920769  0.41527982  0.19485648  1
  Se  Se232  1  0.58454435  0.41000087  0.69631337  1
  Se  Se233  1  0.58446283  0.74596148  0.19885295  1
  Se  Se234  1  0.56639405  0.75193577  0.68560815  1
  Se  Se235  1  0.90547589  0.09266285  0.20780115  1
  Se  Se236  1  0.92375124  0.08280440  0.70472874  1
  Se  Se237  1  0.91612435  0.41500444  0.20174443  1
  Se  Se238  1  0.91099281  0.41784801  0.69077701  1
  Se  Se239  1  0.94066775  0.73482600  0.19368539  1
  Se  Se240  1  0.91156122  0.75435709  0.69477236  1
  Se  Se241  1  0.08520792  0.25104090  0.19891314  1
  Se  Se242  1  0.10030738  0.24491052  0.68113148  1
  Se  Se243  1  0.08836266  0.58279317  0.20374713  1
  Se  Se244  1  0.09195124  0.58182550  0.68745055  1
  Se  Se245  1  0.08659533  0.91703738  0.19361056  1
  Se  Se246  1  0.07906978  0.92040529  0.69791529  1
  Se  Se247  1  0.39906042  0.26300726  0.19508459  1
  Se  Se248  1  0.41555399  0.24924690  0.69124318  1
  Se  Se249  1  0.41652759  0.58277911  0.20109504  1
  Se  Se250  1  0.41397204  0.58307905  0.69803838  1
  Se  Se251  1  0.41328611  0.91643533  0.19971717  1
  Se  Se252  1  0.40949649  0.91839688  0.70011590  1
  Se  Se253  1  0.73655409  0.25006485  0.21382900  1
  Se  Se254  1  0.75309178  0.24607281  0.69938340  1
  Se  Se255  1  0.74681231  0.57755619  0.19234936  1
  Se  Se256  1  0.74354663  0.57745843  0.68093673  1
  Se  Se257  1  0.74954581  0.91054764  0.18777492  1
  Se  Se258  1  0.75351553  0.91635962  0.69649256  1
