# generated using pymatgen
data_In86Cu29Se144
_symmetry_space_group_name_H-M   'P 1'
_cell_length_a   17.58211243
_cell_length_b   17.58498916
_cell_length_c   23.44281684
_cell_angle_alpha   89.98822603
_cell_angle_beta   90.00268125
_cell_angle_gamma   89.98936100
_symmetry_Int_Tables_number   1
_chemical_formula_structural   In86Cu29Se144
_chemical_formula_sum   'In86 Cu29 Se144'
_cell_volume   7248.07928007
_cell_formula_units_Z   1
loop_
 _symmetry_equiv_pos_site_id
 _symmetry_equiv_pos_as_xyz
  1  'x, y, z'
loop_
 _atom_site_type_symbol
 _atom_site_label
 _atom_site_symmetry_multiplicity
 _atom_site_fract_x
 _atom_site_fract_y
 _atom_site_fract_z
 _atom_site_occupancy
  In  In0  1  0.01387245  0.16277394  0.12015258  1
  In  In1  1  -0.00972331  0.15078847  0.60331266  1
  In  In2  1  0.00163510  0.49631065  0.12564131  1
  In  In3  1  0.00898515  0.50175252  0.63039851  1
  In  In4  1  -0.01569018  0.82935508  0.12233139  1
  In  In5  1  -0.01791370  0.83578166  0.62687585  1
  In  In6  1  0.33998863  0.17738701  0.12353699  1
  In  In7  1  0.35047634  0.18087723  0.61477913  1
  In  In8  1  0.33349286  0.49606563  0.12611209  1
  In  In9  1  0.32756842  0.48262349  0.62789901  1
  In  In10  1  0.33425802  0.82033660  0.12855054  1
  In  In11  1  0.35149806  0.83744684  0.62523443  1
  In  In12  1  0.66101659  0.17850624  0.12986736  1
  In  In13  1  0.66345887  0.17039788  0.63508197  1
  In  In14  1  0.64910301  0.47364414  0.10567243  1
  In  In15  1  0.65079606  0.48853950  0.61944109  1
  In  In16  1  0.67440575  0.84533463  0.11661073  1
  In  In17  1  0.68201344  0.83241981  0.62535965  1
  In  In18  1  0.16363232  0.01055934  0.37815712  1
  In  In19  1  0.17386761  0.00802938  0.87893478  1
  In  In20  1  0.16375127  0.33238304  0.36459351  1
  In  In21  1  0.17582534  0.32804125  0.88146824  1
  In  In22  1  0.16658378  0.66474175  0.36897942  1
  In  In23  1  0.15125610  0.66467222  0.87673357  1
  In  In24  1  0.51874979  0.00240591  0.37127772  1
  In  In25  1  0.52101700  0.00036934  0.89331241  1
  In  In26  1  0.50176741  0.33320175  0.37425920  1
  In  In27  1  0.50283940  0.33611479  0.87658442  1
  In  In28  1  0.48629039  0.65698368  0.37189341  1
  In  In29  1  0.51230809  0.65951082  0.88548851  1
  In  In30  1  0.82028045  0.02037013  0.38898688  1
  In  In31  1  0.79469606  0.01084556  0.88748230  1
  In  In32  1  0.82119416  0.31784756  0.36269500  1
  In  In33  1  0.83409733  0.33954629  0.87179324  1
  In  In34  1  0.84551531  0.66561422  0.37403017  1
  In  In35  1  0.83905427  0.66472334  0.88221334  1
  In  In36  1  -0.01374479  0.17521614  0.38281821  1
  In  In37  1  -0.00325841  0.17775159  0.87840098  1
  In  In38  1  0.00120388  0.50306266  0.36308423  1
  In  In39  1  -0.01104676  0.51091882  0.88394935  1
  In  In40  1  -0.00201212  0.82766183  0.37303259  1
  In  In41  1  -0.00175784  0.82553097  0.87366898  1
  In  In42  1  0.32506138  0.17990414  0.37657888  1
  In  In43  1  0.32983746  0.18082259  0.87811295  1
  In  In44  1  0.34861536  0.50724581  0.36720574  1
  In  In45  1  0.34872603  0.48295548  0.88560353  1
  In  In46  1  0.33589271  0.82123769  0.36935040  1
  In  In47  1  0.34420198  0.84602854  0.88042662  1
  In  In48  1  0.66782701  0.17068473  0.37634317  1
  In  In49  1  0.66452703  0.16262172  0.87095793  1
  In  In50  1  0.66012288  0.47921644  0.37129551  1
  In  In51  1  0.67796923  0.48893449  0.88979784  1
  In  In52  1  0.66575278  0.85150137  0.37203348  1
  In  In53  1  0.66616819  0.84319842  0.89110812  1
  In  In54  1  0.15260854  0.00889521  0.11595235  1
  In  In55  1  0.15451968  0.00756410  0.62046507  1
  In  In56  1  0.16737173  0.33382434  0.12495847  1
  In  In57  1  0.17694365  0.33209218  0.62550409  1
  In  In58  1  0.18018923  0.65185482  0.13419887  1
  In  In59  1  0.16368018  0.65063991  0.62871422  1
  In  In60  1  0.51985642  0.01940921  0.11215361  1
  In  In61  1  0.50419591  0.02109826  0.62630545  1
  In  In62  1  0.49880900  0.32631087  0.12598539  1
  In  In63  1  0.49877403  0.32592960  0.63267461  1
  In  In64  1  0.49218877  0.65525078  0.11869841  1
  In  In65  1  0.51081918  0.66641965  0.62006440  1
  In  In66  1  0.83216028  -0.01194738  0.11910619  1
  In  In67  1  0.82765060  -0.00477716  0.62480897  1
  In  In68  1  0.82218340  0.34299558  0.12854933  1
  In  In69  1  0.82208746  0.31868666  0.62048638  1
  In  In70  1  0.84074073  0.66556204  0.12563393  1
  In  In71  1  0.83031066  0.68052059  0.62389909  1
  In  In72  1  0.33174667  0.01334758  0.75713927  1
  In  In73  1  0.16473762  0.83610238  0.49302739  1
  In  In74  1  0.16891624  0.83408702  0.00083833  1
  In  In75  1  0.82857202  0.49148622  0.49942869  1
  In  In76  1  0.33371746  0.66146405  0.75330581  1
  In  In77  1  0.66934280  0.66408797  0.23837831  1
  In  In78  1  0.50315002  0.83270823  0.49241547  1
  In  In79  1  0.83223460  0.17188500  -0.00111311  1
  In  In80  1  0.67039656  0.66412848  0.74788290  1
  In  In81  1  -0.00975523  -0.00027282  0.74850525  1
  In  In82  1  0.17373824  0.49714032  0.49980729  1
  In  In83  1  0.33424002  -0.00397982  0.25019273  1
  In  In84  1  -0.00123747  0.33339767  0.74739660  1
  In  In85  1  -0.00696343  -0.00240852  0.24587109  1
  Cu  Cu86  1  0.67042910  0.66493355  0.49873581  1
  Cu  Cu87  1  0.16258691  0.49983287  0.75718783  1
  Cu  Cu88  1  0.33805679  0.00763742  -0.00047419  1
  Cu  Cu89  1  0.83105081  0.16693355  0.25437299  1
  Cu  Cu90  1  0.16589589  0.17150173  0.24769591  1
  Cu  Cu91  1  0.66743802  0.00523524  0.50291792  1
  Cu  Cu92  1  0.16473125  0.82267545  0.75112220  1
  Cu  Cu93  1  0.83211696  0.50394110  0.75578849  1
  Cu  Cu94  1  0.00414983  0.33795607  0.00022375  1
  Cu  Cu95  1  0.00422218  0.66273088  0.00465122  1
  Cu  Cu96  1  0.33035489  0.66289874  0.00397469  1
  Cu  Cu97  1  0.34250221  0.33389607  0.49939538  1
  Cu  Cu98  1  0.67367705  0.67088819  0.00579417  1
  Cu  Cu99  1  -0.00156450  0.33104484  0.49009185  1
  Cu  Cu100  1  0.50750654  0.84231330  0.76269860  1
  Cu  Cu101  1  0.33402914  0.33387997  0.00453512  1
  Cu  Cu102  1  0.16043375  0.82364781  0.24970370  1
  Cu  Cu103  1  0.50122077  0.17061284  0.75391850  1
  Cu  Cu104  1  0.83323637  0.49782520  0.24516673  1
  Cu  Cu105  1  0.50295354  0.16923278  0.24938048  1
  Cu  Cu106  1  0.33154110  0.00210976  0.49707469  1
  Cu  Cu107  1  0.83034217  0.83453502  0.24697214  1
  Cu  Cu108  1  0.16478108  0.17093412  0.74617687  1
  Cu  Cu109  1  0.83226441  0.83432422  0.75274398  1
  Cu  Cu110  1  0.49977152  0.49334875  0.24210832  1
  Cu  Cu111  1  0.16660552  0.49681550  0.24553787  1
  Cu  Cu112  1  0.49854727  0.49187808  0.75193120  1
  Cu  Cu113  1  0.50046186  0.83311910  0.24795004  1
  Cu  Cu114  1  -0.00309017  0.67254565  0.50100309  1
  Se  Se115  1  0.08117531  0.08626084  0.04131086  1
  Se  Se116  1  0.09633796  0.09047527  0.54301157  1
  Se  Se117  1  0.08779480  0.41916623  0.05485414  1
  Se  Se118  1  0.07504500  0.40787068  0.55605386  1
  Se  Se119  1  0.08637964  0.74225480  0.06516436  1
  Se  Se120  1  0.08216285  0.74542394  0.56228716  1
  Se  Se121  1  0.41809451  0.09245565  0.05393720  1
  Se  Se122  1  0.41890051  0.08219363  0.54906059  1
  Se  Se123  1  0.41888862  0.41559754  0.05797837  1
  Se  Se124  1  0.41963243  0.41314398  0.56055899  1
  Se  Se125  1  0.41440168  0.74889850  0.05300034  1
  Se  Se126  1  0.41227458  0.74196766  0.55268225  1
  Se  Se127  1  0.74486114  0.08429459  0.06205164  1
  Se  Se128  1  0.74441590  0.08596819  0.56317829  1
  Se  Se129  1  0.75694254  0.41436100  0.04599024  1
  Se  Se130  1  0.73269797  0.39988497  0.55013458  1
  Se  Se131  1  0.75899642  0.75166217  0.05814709  1
  Se  Se132  1  0.75164695  0.75280391  0.54778440  1
  Se  Se133  1  0.24797749  0.24876129  0.05482180  1
  Se  Se134  1  0.25193708  0.25338943  0.55092277  1
  Se  Se135  1  0.24885206  0.57716249  0.05463969  1
  Se  Se136  1  0.26312875  0.58841179  0.55971567  1
  Se  Se137  1  0.25972820  0.92523375  0.06179569  1
  Se  Se138  1  0.25850631  0.92065910  0.55992189  1
  Se  Se139  1  0.57624431  0.24317805  0.05420922  1
  Se  Se140  1  0.56019026  0.22507613  0.56669760  1
  Se  Se141  1  0.58484736  0.58452237  0.05069755  1
  Se  Se142  1  0.58470682  0.58255888  0.54881538  1
  Se  Se143  1  0.57775076  0.91268787  0.05096648  1
  Se  Se144  1  0.58621659  0.91991752  0.56138347  1
  Se  Se145  1  0.92303350  0.25874842  0.06163554  1
  Se  Se146  1  0.91413068  0.25451394  0.54853801  1
  Se  Se147  1  0.91829591  0.57965316  0.05586032  1
  Se  Se148  1  0.92108466  0.58510549  0.55925867  1
  Se  Se149  1  0.93321202  0.92901353  0.05340231  1
  Se  Se150  1  0.92267848  0.92734178  0.55646160  1
  Se  Se151  1  0.08866310  0.25282910  0.43949791  1
  Se  Se152  1  0.08433528  0.25031463  0.94774399  1
  Se  Se153  1  0.07577352  0.58768772  0.44344911  1
  Se  Se154  1  0.08676150  0.57868137  0.95173659  1
  Se  Se155  1  0.06975994  0.92719031  0.44090900  1
  Se  Se156  1  0.08054359  0.92148402  0.93885693  1
  Se  Se157  1  0.42021849  0.24721519  0.44416478  1
  Se  Se158  1  0.41786458  0.25460975  0.94718430  1
  Se  Se159  1  0.41842527  0.57820039  0.44804572  1
  Se  Se160  1  0.41662490  0.58429637  0.94812484  1
  Se  Se161  1  0.40956267  0.92396401  0.43363582  1
  Se  Se162  1  0.42327658  0.91987370  0.95324227  1
  Se  Se163  1  0.76004373  0.24394853  0.44413127  1
  Se  Se164  1  0.74290146  0.26116600  0.93958156  1
  Se  Se165  1  0.74486456  0.58399820  0.43477990  1
  Se  Se166  1  0.75454186  0.58531214  0.95085301  1
  Se  Se167  1  0.74705207  0.91762875  0.44926586  1
  Se  Se168  1  0.76599238  0.90412355  0.95796910  1
  Se  Se169  1  0.25059556  0.08773067  0.44469638  1
  Se  Se170  1  0.25307474  0.08986261  0.94718972  1
  Se  Se171  1  0.25953069  0.40991477  0.43654622  1
  Se  Se172  1  0.24870576  0.41750950  0.95122130  1
  Se  Se173  1  0.25712401  0.73808646  0.44373319  1
  Se  Se174  1  0.25804191  0.74407462  0.93762663  1
  Se  Se175  1  0.58460262  0.08531975  0.44679572  1
  Se  Se176  1  0.58840054  0.10101067  0.95419534  1
  Se  Se177  1  0.57697758  0.41766642  0.44676261  1
  Se  Se178  1  0.56473207  0.43531866  0.94511355  1
  Se  Se179  1  0.59229395  0.74155021  0.43194239  1
  Se  Se180  1  0.58482848  0.75056692  0.95278512  1
  Se  Se181  1  0.92152099  0.08264287  0.45189058  1
  Se  Se182  1  0.91704422  0.07768624  0.93710017  1
  Se  Se183  1  0.91936061  0.41307266  0.43182202  1
  Se  Se184  1  0.91481807  0.41426265  0.94630494  1
  Se  Se185  1  0.91385461  0.75361478  0.44706474  1
  Se  Se186  1  0.92384462  0.74813040  0.94999427  1
  Se  Se187  1  0.25351160  0.25340148  0.29734482  1
  Se  Se188  1  0.24677975  0.25169004  0.80215160  1
  Se  Se189  1  0.24827671  0.57828280  0.30391343  1
  Se  Se190  1  0.24775824  0.57494487  0.81768932  1
  Se  Se191  1  0.23648558  0.90831366  0.31046187  1
  Se  Se192  1  0.24271774  0.90757953  0.80771792  1
  Se  Se193  1  0.58621731  0.25133368  0.30497576  1
  Se  Se194  1  0.58476565  0.25450455  0.80632320  1
  Se  Se195  1  0.57999672  0.57638681  0.30273748  1
  Se  Se196  1  0.58087584  0.57459851  0.80744446  1
  Se  Se197  1  0.58593102  0.91963067  0.29451714  1
  Se  Se198  1  0.59200022  0.92223452  0.81474650  1
  Se  Se199  1  0.92302260  0.24930683  0.29949579  1
  Se  Se200  1  0.90650815  0.24116743  0.80293177  1
  Se  Se201  1  0.91386771  0.58501712  0.29719516  1
  Se  Se202  1  0.91627037  0.58734642  0.80562443  1
  Se  Se203  1  0.90393530  0.91648713  0.31211191  1
  Se  Se204  1  0.90489391  0.91733691  0.81624107  1
  Se  Se205  1  0.08239001  0.09079029  0.30500376  1
  Se  Se206  1  0.08735918  0.09020044  0.80656492  1
  Se  Se207  1  0.07981580  0.41482159  0.29734039  1
  Se  Se208  1  0.08143178  0.41865248  0.81626465  1
  Se  Se209  1  0.07597125  0.74337743  0.30361385  1
  Se  Se210  1  0.07721068  0.74392285  0.80160553  1
  Se  Se211  1  0.42124782  0.08866226  0.31032273  1
  Se  Se212  1  0.42794921  0.08912717  0.81991709  1
  Se  Se213  1  0.41906616  0.41259043  0.30099215  1
  Se  Se214  1  0.41259504  0.40964690  0.80313891  1
  Se  Se215  1  0.41921752  0.74622292  0.29807378  1
  Se  Se216  1  0.42616119  0.75377767  0.81295228  1
  Se  Se217  1  0.74699637  0.08247652  0.30570404  1
  Se  Se218  1  0.75486356  0.08895199  0.80189569  1
  Se  Se219  1  0.74908253  0.41477060  0.29800696  1
  Se  Se220  1  0.74648182  0.42135354  0.80526479  1
  Se  Se221  1  0.75099450  0.75251763  0.30799407  1
  Se  Se222  1  0.75108792  0.75421272  0.81392230  1
  Se  Se223  1  0.24218197  0.08443886  0.18985633  1
  Se  Se224  1  0.24708755  0.09221191  0.68578664  1
  Se  Se225  1  0.25204890  0.41270014  0.19567700  1
  Se  Se226  1  0.24322676  0.41540390  0.70286428  1
  Se  Se227  1  0.25303369  0.74552649  0.20164372  1
  Se  Se228  1  0.25043370  0.75497221  0.68771883  1
  Se  Se229  1  0.58614600  0.08429327  0.19786178  1
  Se  Se230  1  0.58407800  0.08137039  0.70586322  1
  Se  Se231  1  0.58667500  0.40996202  0.19326767  1
  Se  Se232  1  0.58508405  0.41145450  0.69899031  1
  Se  Se233  1  0.57755371  0.75568750  0.18251011  1
  Se  Se234  1  0.57680165  0.76191026  0.69416785  1
  Se  Se235  1  0.90751045  0.09219153  0.18630041  1
  Se  Se236  1  0.90909122  0.09542793  0.68902950  1
  Se  Se237  1  0.91866697  0.41281996  0.19504741  1
  Se  Se238  1  0.90578095  0.42337022  0.68811157  1
  Se  Se239  1  0.91596794  0.74909799  0.19985883  1
  Se  Se240  1  0.91366752  0.74829079  0.70028114  1
  Se  Se241  1  0.08046724  0.25085461  0.19323916  1
  Se  Se242  1  0.08003354  0.24080676  0.68224686  1
  Se  Se243  1  0.08014026  0.58264617  0.19698258  1
  Se  Se244  1  0.08022442  0.58433938  0.70497611  1
  Se  Se245  1  0.08963525  0.90826207  0.18823949  1
  Se  Se246  1  0.08914040  0.90904070  0.69216754  1
  Se  Se247  1  0.41473937  0.25144244  0.20073646  1
  Se  Se248  1  0.40935257  0.24781781  0.70229980  1
  Se  Se249  1  0.41512345  0.58239237  0.19580838  1
  Se  Se250  1  0.42611051  0.57795876  0.68997341  1
  Se  Se251  1  0.42494101  0.91610255  0.18531263  1
  Se  Se252  1  0.42646932  0.91979487  0.70040606  1
  Se  Se253  1  0.75038137  0.25243069  0.19894022  1
  Se  Se254  1  0.74577566  0.25806759  0.70070421  1
  Se  Se255  1  0.74933680  0.56643971  0.17979266  1
  Se  Se256  1  0.75517864  0.57330381  0.68363820  1
  Se  Se257  1  0.74903584  0.91944071  0.19542724  1
  Se  Se258  1  0.74851677  0.91740166  0.70006065  1
