# generated using pymatgen
data_In86Cu29Se144
_symmetry_space_group_name_H-M   'P 1'
_cell_length_a   17.59977808
_cell_length_b   17.59588685
_cell_length_c   23.46208943
_cell_angle_alpha   90.00383323
_cell_angle_beta   89.99030815
_cell_angle_gamma   89.99079550
_symmetry_Int_Tables_number   1
_chemical_formula_structural   In86Cu29Se144
_chemical_formula_sum   'In86 Cu29 Se144'
_cell_volume   7265.82653780
_cell_formula_units_Z   1
loop_
 _symmetry_equiv_pos_site_id
 _symmetry_equiv_pos_as_xyz
  1  'x, y, z'
loop_
 _atom_site_type_symbol
 _atom_site_label
 _atom_site_symmetry_multiplicity
 _atom_site_fract_x
 _atom_site_fract_y
 _atom_site_fract_z
 _atom_site_occupancy
  In  In0  1  0.00725639  0.16875904  0.12104109  1
  In  In1  1  -0.00680938  0.17497869  0.64229153  1
  In  In2  1  -0.01236517  0.48852874  0.11077146  1
  In  In3  1  -0.01083945  0.48601113  0.62023267  1
  In  In4  1  -0.00148707  0.82945672  0.12385085  1
  In  In5  1  0.01492855  0.84933814  0.61299779  1
  In  In6  1  0.32156855  0.16137855  0.12533681  1
  In  In7  1  0.33155291  0.15458674  0.63952928  1
  In  In8  1  0.32991945  0.50382633  0.12206390  1
  In  In9  1  0.31945448  0.49693082  0.62388145  1
  In  In10  1  0.32957520  0.85027291  0.12866010  1
  In  In11  1  0.34396699  0.83957832  0.61644385  1
  In  In12  1  0.66841645  0.15030106  0.12228225  1
  In  In13  1  0.67032171  0.16779326  0.62951859  1
  In  In14  1  0.67459780  0.48417886  0.11761941  1
  In  In15  1  0.68059548  0.48116763  0.64213175  1
  In  In16  1  0.67438633  0.84472328  0.12755651  1
  In  In17  1  0.66601726  0.83472029  0.62244692  1
  In  In18  1  0.15849422  -0.01110725  0.37907016  1
  In  In19  1  0.16521085  0.00400303  0.87247754  1
  In  In20  1  0.15962863  0.33973454  0.38064332  1
  In  In21  1  0.16822438  0.33017470  0.86986282  1
  In  In22  1  0.15894750  0.66875068  0.38169865  1
  In  In23  1  0.16057793  0.67387930  0.88252683  1
  In  In24  1  0.50209652  0.00086058  0.37992426  1
  In  In25  1  0.50719914  0.01008377  0.86850034  1
  In  In26  1  0.48699522  0.32869034  0.38355672  1
  In  In27  1  0.48734824  0.33501904  0.85975709  1
  In  In28  1  0.50859666  0.67497704  0.37799220  1
  In  In29  1  0.50921238  0.65581256  0.86647088  1
  In  In30  1  0.82458083  0.02012100  0.39610450  1
  In  In31  1  0.85989412  0.04638544  0.81963057  1
  In  In32  1  0.84446929  0.32166593  0.38538971  1
  In  In33  1  0.84538629  0.32684306  0.87099597  1
  In  In34  1  0.83476442  0.66884136  0.38523018  1
  In  In35  1  0.81910511  0.66343688  0.86854194  1
  In  In36  1  -0.03591930  0.16408608  0.37198003  1
  In  In37  1  0.00397523  0.16733577  0.86771557  1
  In  In38  1  0.00431321  0.49033726  0.38116231  1
  In  In39  1  0.01520308  0.48760880  0.88073890  1
  In  In40  1  -0.00606159  0.84977579  0.39675687  1
  In  In41  1  -0.00631520  0.85466360  0.87621557  1
  In  In42  1  0.34612262  0.16748004  0.38217473  1
  In  In43  1  0.31752123  0.15307749  0.85453846  1
  In  In44  1  0.31836240  0.48625756  0.38118040  1
  In  In45  1  0.32417879  0.47953690  0.86311364  1
  In  In46  1  0.32837682  0.84503269  0.37976718  1
  In  In47  1  0.31724675  0.83544407  0.87774897  1
  In  In48  1  0.67749888  0.15588525  0.38688946  1
  In  In49  1  0.69910464  0.18954706  0.84335370  1
  In  In50  1  0.67002587  0.50930387  0.37845086  1
  In  In51  1  0.66885292  0.50170437  0.86155998  1
  In  In52  1  0.64905229  0.85852428  0.39667086  1
  In  In53  1  0.67713210  0.83686721  0.86508669  1
  In  In54  1  0.17306028  0.01376743  0.11802288  1
  In  In55  1  0.17338113  0.00009482  0.63838446  1
  In  In56  1  0.15431948  0.31767772  0.11148784  1
  In  In57  1  0.15368009  0.33116618  0.64259571  1
  In  In58  1  0.16568491  0.66377829  0.11624764  1
  In  In59  1  0.17329836  0.66568557  0.61988213  1
  In  In60  1  0.50099630  -0.00603257  0.13518022  1
  In  In61  1  0.49891432  0.00017506  0.62526583  1
  In  In62  1  0.50050725  0.32934495  0.12127604  1
  In  In63  1  0.51478652  0.32246244  0.63658366  1
  In  In64  1  0.51370554  0.67145488  0.12490689  1
  In  In65  1  0.50240727  0.67966349  0.61763309  1
  In  In66  1  0.83117680  -0.00095975  0.12370638  1
  In  In67  1  0.83386140  -0.00083950  0.62655106  1
  In  In68  1  0.84075612  0.33529007  0.11741450  1
  In  In69  1  0.82878098  0.32577707  0.63318378  1
  In  In70  1  0.83861222  0.66853302  0.12128871  1
  In  In71  1  0.82877064  0.65870783  0.62010131  1
  In  In72  1  0.15750107  0.16724505  0.50987366  1
  In  In73  1  0.00114676  0.00163999  0.25172606  1
  In  In74  1  0.00187093  0.66760463  0.24807052  1
  In  In75  1  0.50299464  0.50095095  0.50279520  1
  In  In76  1  0.67206711  0.68250229  0.24486103  1
  In  In77  1  0.49505961  0.83246856  0.00530552  1
  In  In78  1  0.49428606  0.49190896  -0.01894992  1
  In  In79  1  0.33629119  0.67021681  0.74765724  1
  In  In80  1  0.32864367  0.67314881  0.26453978  1
  In  In81  1  0.50208112  0.16780852  -0.00416281  1
  In  In82  1  0.83444283  0.83531198  -0.00069545  1
  In  In83  1  0.67299829  0.32720226  0.25329698  1
  In  In84  1  0.32923764  0.32759294  0.24882284  1
  In  In85  1  -0.00538883  0.66888737  0.74540799  1
  Cu  Cu86  1  0.83249933  0.83281921  0.74172997  1
  Cu  Cu87  1  0.49910887  0.16306533  0.74551482  1
  Cu  Cu88  1  0.67736236  0.00470093  -0.00899616  1
  Cu  Cu89  1  0.49794550  0.83569064  0.74317769  1
  Cu  Cu90  1  0.16331632  0.84284949  0.74967199  1
  Cu  Cu91  1  0.50603076  0.15767652  0.25796752  1
  Cu  Cu92  1  0.67226486  0.66318882  0.50280090  1
  Cu  Cu93  1  0.66519608  0.00429942  0.51024056  1
  Cu  Cu94  1  0.33127188  0.32875497  0.50692997  1
  Cu  Cu95  1  0.32881766  0.00268387  -0.00277645  1
  Cu  Cu96  1  0.00313903  0.66099761  0.50449679  1
  Cu  Cu97  1  0.84021266  0.49740906  0.24666581  1
  Cu  Cu98  1  0.16545500  0.83482270  0.25604625  1
  Cu  Cu99  1  0.66240038  0.65801234  -0.00897016  1
  Cu  Cu100  1  0.84337634  0.48956794  0.75088995  1
  Cu  Cu101  1  0.68450191  0.32734938  -0.01215093  1
  Cu  Cu102  1  0.82299736  0.84688306  0.25912659  1
  Cu  Cu103  1  0.15371411  0.48842089  0.24856624  1
  Cu  Cu104  1  0.32251459  0.33021915  -0.01023526  1
  Cu  Cu105  1  0.32580672  0.66254918  -0.00112623  1
  Cu  Cu106  1  0.49529598  0.50638711  0.24784783  1
  Cu  Cu107  1  -0.00215147  0.32973305  0.50958954  1
  Cu  Cu108  1  0.00235945  0.32589976  -0.00652199  1
  Cu  Cu109  1  0.33058924  0.00285798  0.50587059  1
  Cu  Cu110  1  0.16146853  0.49800943  0.75058450  1
  Cu  Cu111  1  0.16511842  0.16341252  0.24765322  1
  Cu  Cu112  1  0.32986585  0.66667276  0.49900699  1
  Cu  Cu113  1  0.67215831  0.33087166  0.51034257  1
  Cu  Cu114  1  -0.00471850  0.66383400  -0.00070209  1
  Se  Se115  1  0.08748941  0.08847619  0.05058340  1
  Se  Se116  1  0.07475900  0.08018387  0.57443277  1
  Se  Se117  1  0.08314080  0.41456080  0.04668891  1
  Se  Se118  1  0.08867562  0.40856324  0.56105722  1
  Se  Se119  1  0.07663312  0.74710250  0.05382612  1
  Se  Se120  1  0.08771035  0.74671334  0.55340095  1
  Se  Se121  1  0.41634259  0.07448982  0.05889930  1
  Se  Se122  1  0.41097959  0.08693906  0.56088727  1
  Se  Se123  1  0.40696650  0.40567044  0.05235240  1
  Se  Se124  1  0.41651424  0.40959995  0.56337369  1
  Se  Se125  1  0.40473834  0.73796010  0.06302730  1
  Se  Se126  1  0.41720202  0.75165386  0.54537728  1
  Se  Se127  1  0.75803586  0.08395817  0.05003636  1
  Se  Se128  1  0.75270067  0.08758804  0.55850038  1
  Se  Se129  1  0.75872616  0.41585129  0.04463345  1
  Se  Se130  1  0.75551098  0.41589694  0.56062714  1
  Se  Se131  1  0.73538529  0.74202930  0.05552294  1
  Se  Se132  1  0.75184946  0.75086093  0.55481457  1
  Se  Se133  1  0.25257877  0.24320156  0.04995656  1
  Se  Se134  1  0.25079067  0.25284789  0.57027549  1
  Se  Se135  1  0.24542515  0.57458348  0.05021936  1
  Se  Se136  1  0.24827106  0.57959728  0.54886406  1
  Se  Se137  1  0.24930404  0.91758306  0.05268710  1
  Se  Se138  1  0.24569028  0.92146570  0.56015504  1
  Se  Se139  1  0.59846291  0.25962127  0.05353330  1
  Se  Se140  1  0.58389861  0.24750559  0.55741656  1
  Se  Se141  1  0.58374898  0.57729229  0.05257141  1
  Se  Se142  1  0.59625003  0.58133015  0.56501006  1
  Se  Se143  1  0.59375025  0.92923483  0.05297701  1
  Se  Se144  1  0.57847413  0.91598875  0.55449243  1
  Se  Se145  1  0.91963074  0.24675611  0.05140938  1
  Se  Se146  1  0.91546702  0.24635344  0.56342387  1
  Se  Se147  1  0.90680066  0.58264881  0.04877492  1
  Se  Se148  1  0.91623303  0.57766515  0.55336757  1
  Se  Se149  1  0.92887912  0.92564839  0.05534843  1
  Se  Se150  1  0.91080532  0.91591825  0.55525044  1
  Se  Se151  1  0.07041455  0.24997185  0.44231670  1
  Se  Se152  1  0.08767682  0.24634942  0.93890970  1
  Se  Se153  1  0.08434381  0.57803069  0.44785723  1
  Se  Se154  1  0.08338137  0.58378996  0.94798262  1
  Se  Se155  1  0.09435535  0.91511374  0.45925535  1
  Se  Se156  1  0.09492782  0.91121037  0.94098077  1
  Se  Se157  1  0.41869040  0.24613828  0.45863879  1
  Se  Se158  1  0.40914737  0.25138871  0.93438771  1
  Se  Se159  1  0.40933356  0.58562456  0.43664335  1
  Se  Se160  1  0.40248807  0.59072158  0.93205945  1
  Se  Se161  1  0.41423776  0.92174324  0.44955960  1
  Se  Se162  1  0.41422202  0.92404129  0.94007943  1
  Se  Se163  1  0.75348616  0.24857343  0.45288180  1
  Se  Se164  1  0.76079646  0.23742948  0.93696568  1
  Se  Se165  1  0.75493200  0.57856779  0.45090323  1
  Se  Se166  1  0.74696776  0.57650535  0.93989475  1
  Se  Se167  1  0.75345141  0.92048538  0.45854525  1
  Se  Se168  1  0.75612328  0.92393681  0.93312001  1
  Se  Se169  1  0.25043032  0.08306560  0.44505404  1
  Se  Se170  1  0.25248789  0.08786363  0.94070630  1
  Se  Se171  1  0.24375658  0.40991325  0.45610802  1
  Se  Se172  1  0.24240275  0.42164514  0.94309824  1
  Se  Se173  1  0.24982172  0.75058536  0.44301745  1
  Se  Se174  1  0.24458905  0.75423868  0.95172083  1
  Se  Se175  1  0.58204915  0.08447879  0.45174898  1
  Se  Se176  1  0.59770242  0.08920119  0.93490320  1
  Se  Se177  1  0.59375833  0.40651510  0.44263365  1
  Se  Se178  1  0.59325330  0.40101310  0.93175664  1
  Se  Se179  1  0.58494868  0.74747736  0.45352322  1
  Se  Se180  1  0.58573970  0.74849368  0.93896876  1
  Se  Se181  1  0.94447319  0.06496321  0.45030043  1
  Se  Se182  1  0.91941489  0.06650120  0.91879999  1
  Se  Se183  1  0.91804969  0.41449888  0.45184250  1
  Se  Se184  1  0.91942302  0.41278540  0.94375019  1
  Se  Se185  1  0.91912230  0.74771967  0.45368147  1
  Se  Se186  1  0.91771705  0.74218011  0.93514149  1
  Se  Se187  1  0.24224055  0.24137280  0.31403287  1
  Se  Se188  1  0.28478635  0.28266756  0.81077489  1
  Se  Se189  1  0.23408722  0.56950939  0.30786956  1
  Se  Se190  1  0.23787602  0.58587523  0.80725976  1
  Se  Se191  1  0.24696215  0.92153498  0.30566394  1
  Se  Se192  1  0.25191596  0.91985018  0.80310020  1
  Se  Se193  1  0.57758317  0.24602240  0.31658634  1
  Se  Se194  1  0.57676372  0.24912611  0.80007599  1
  Se  Se195  1  0.58103754  0.58316468  0.30304241  1
  Se  Se196  1  0.59764501  0.59482842  0.79391518  1
  Se  Se197  1  0.59085861  0.92426207  0.31102106  1
  Se  Se198  1  0.57786151  0.91114432  0.80497174  1
  Se  Se199  1  0.91306681  0.26108276  0.30037497  1
  Se  Se200  1  0.90970839  0.23572904  0.79795093  1
  Se  Se201  1  0.91245710  0.57980446  0.30978770  1
  Se  Se202  1  0.91880301  0.57430378  0.81148983  1
  Se  Se203  1  0.91216277  0.91751351  0.31645620  1
  Se  Se204  1  0.92003504  0.91342525  0.79198565  1
  Se  Se205  1  0.08554960  0.09368616  0.31520654  1
  Se  Se206  1  0.10746010  0.10187369  0.79777470  1
  Se  Se207  1  0.07490560  0.40742293  0.30512544  1
  Se  Se208  1  0.08046665  0.41056906  0.80065111  1
  Se  Se209  1  0.07845322  0.76218438  0.31452265  1
  Se  Se210  1  0.08502530  0.75711855  0.80647776  1
  Se  Se211  1  0.41544831  0.08200066  0.30968566  1
  Se  Se212  1  0.41661363  0.07582291  0.79655903  1
  Se  Se213  1  0.41976745  0.42468827  0.30807025  1
  Se  Se214  1  0.44218446  0.45366328  0.80288813  1
  Se  Se215  1  0.42742709  0.76381565  0.31151160  1
  Se  Se216  1  0.42202005  0.76003411  0.81187015  1
  Se  Se217  1  0.76467236  0.09238217  0.31248957  1
  Se  Se218  1  0.71449669  0.05353110  0.80525586  1
  Se  Se219  1  0.75609102  0.42604073  0.31005854  1
  Se  Se220  1  0.75659035  0.41014186  0.80409191  1
  Se  Se221  1  0.75079127  0.76036101  0.31911390  1
  Se  Se222  1  0.75029772  0.74780996  0.79468344  1
  Se  Se223  1  0.25103792  0.07871487  0.19968325  1
  Se  Se224  1  0.23617195  0.09293490  0.71147545  1
  Se  Se225  1  0.24114710  0.41692578  0.18696890  1
  Se  Se226  1  0.25017613  0.41659547  0.70054087  1
  Se  Se227  1  0.23916399  0.75092568  0.19382698  1
  Se  Se228  1  0.24428415  0.76161937  0.69051395  1
  Se  Se229  1  0.58735499  0.08068789  0.19812222  1
  Se  Se230  1  0.58443789  0.07965152  0.69414416  1
  Se  Se231  1  0.57579253  0.42217076  0.19233399  1
  Se  Se232  1  0.57139737  0.42722673  0.70173909  1
  Se  Se233  1  0.57156921  0.77269758  0.19409089  1
  Se  Se234  1  0.58187860  0.75171418  0.69283058  1
  Se  Se235  1  0.91379455  0.09005568  0.19032285  1
  Se  Se236  1  0.89690487  0.09154970  0.70130490  1
  Se  Se237  1  0.91982314  0.41455933  0.19170778  1
  Se  Se238  1  0.92459286  0.40413697  0.69836345  1
  Se  Se239  1  0.90113349  0.76375993  0.19818503  1
  Se  Se240  1  0.91498022  0.75797006  0.67978632  1
  Se  Se241  1  0.08587918  0.24980518  0.19473652  1
  Se  Se242  1  0.09749050  0.22865123  0.71063543  1
  Se  Se243  1  0.08335588  0.57303375  0.18625302  1
  Se  Se244  1  0.08588715  0.57791969  0.68723036  1
  Se  Se245  1  0.08931178  0.91119777  0.18996101  1
  Se  Se246  1  0.07453872  0.92139055  0.69921293  1
  Se  Se247  1  0.42783663  0.23693393  0.19320267  1
  Se  Se248  1  0.41411846  0.25102923  0.69830082  1
  Se  Se249  1  0.41733452  0.58922514  0.19114999  1
  Se  Se250  1  0.41812706  0.58460426  0.68117423  1
  Se  Se251  1  0.41298212  0.91760306  0.20096531  1
  Se  Se252  1  0.41149519  0.91885104  0.69454423  1
  Se  Se253  1  0.75430727  0.24408980  0.18493953  1
  Se  Se254  1  0.73232525  0.26105313  0.70229280  1
  Se  Se255  1  0.75531453  0.57621063  0.18934415  1
  Se  Se256  1  0.76314236  0.57809398  0.69955096  1
  Se  Se257  1  0.74716088  0.92857919  0.19947392  1
  Se  Se258  1  0.74539478  0.91698869  0.69354895  1
