# generated using pymatgen
data_In86Cu29Se144
_symmetry_space_group_name_H-M   'P 1'
_cell_length_a   17.57536413
_cell_length_b   17.57991197
_cell_length_c   23.44012107
_cell_angle_alpha   89.96933934
_cell_angle_beta   89.97746001
_cell_angle_gamma   90.00775068
_symmetry_Int_Tables_number   1
_chemical_formula_structural   In86Cu29Se144
_chemical_formula_sum   'In86 Cu29 Se144'
_cell_volume   7242.37116763
_cell_formula_units_Z   1
loop_
 _symmetry_equiv_pos_site_id
 _symmetry_equiv_pos_as_xyz
  1  'x, y, z'
loop_
 _atom_site_type_symbol
 _atom_site_label
 _atom_site_symmetry_multiplicity
 _atom_site_fract_x
 _atom_site_fract_y
 _atom_site_fract_z
 _atom_site_occupancy
  In  In0  1  -0.00410623  0.16481448  0.12146398  1
  In  In1  1  -0.01317727  0.17438057  0.63424817  1
  In  In2  1  0.00291881  0.51397052  0.12350575  1
  In  In3  1  -0.01223676  0.49955153  0.62468845  1
  In  In4  1  -0.01993776  0.82524515  0.10717271  1
  In  In5  1  -0.00041517  0.84035613  0.62953101  1
  In  In6  1  0.32449585  0.15680179  0.12652434  1
  In  In7  1  0.32692025  0.16585047  0.62632132  1
  In  In8  1  0.35351437  0.51183742  0.12612112  1
  In  In9  1  0.34989628  0.49764868  0.62231344  1
  In  In10  1  0.33857809  0.82943109  0.12474201  1
  In  In11  1  0.34101801  0.82283204  0.63328392  1
  In  In12  1  0.66690838  0.17083068  0.13625850  1
  In  In13  1  0.66599601  0.15448529  0.62207056  1
  In  In14  1  0.66480343  0.50350359  0.13154279  1
  In  In15  1  0.67364216  0.50350340  0.61416352  1
  In  In16  1  0.66633675  0.83268179  0.12433250  1
  In  In17  1  0.66577432  0.83019046  0.62340635  1
  In  In18  1  0.16888486  -0.01258107  0.37187046  1
  In  In19  1  0.15783272  -0.01325595  0.87028429  1
  In  In20  1  0.16550562  0.33780640  0.37502099  1
  In  In21  1  0.14845852  0.34548093  0.87100460  1
  In  In22  1  0.16757589  0.66970166  0.36465956  1
  In  In23  1  0.18637099  0.66466793  0.87355161  1
  In  In24  1  0.49680613  -0.01100980  0.37029336  1
  In  In25  1  0.49089391  -0.01134301  0.86586350  1
  In  In26  1  0.51371441  0.33690911  0.37759345  1
  In  In27  1  0.51223404  0.34313478  0.87661120  1
  In  In28  1  0.50568624  0.66625575  0.37153802  1
  In  In29  1  0.50332581  0.66979983  0.87775023  1
  In  In30  1  0.82108524  0.00767823  0.38199396  1
  In  In31  1  0.83053237  -0.00721004  0.86734956  1
  In  In32  1  0.78652713  0.37014728  0.42569693  1
  In  In33  1  0.84679556  0.33844671  0.87342626  1
  In  In34  1  0.82850330  0.67004210  0.37255713  1
  In  In35  1  0.82269499  0.67756780  0.88031696  1
  In  In36  1  -0.01215611  0.16993570  0.38296523  1
  In  In37  1  0.00175785  0.16719976  0.86676320  1
  In  In38  1  -0.02819979  0.49753696  0.37657640  1
  In  In39  1  -0.00610052  0.48685215  0.87148934  1
  In  In40  1  -0.00158901  0.82023059  0.37247059  1
  In  In41  1  -0.00728157  0.84638677  0.88818582  1
  In  In42  1  0.34673788  0.16022696  0.37469573  1
  In  In43  1  0.34548533  0.16237153  0.87115295  1
  In  In44  1  0.33743743  0.51448975  0.37329387  1
  In  In45  1  0.33181356  0.52627345  0.87311020  1
  In  In46  1  0.34426639  0.83705249  0.37073140  1
  In  In47  1  0.33817767  0.83128523  0.87808399  1
  In  In48  1  0.67669736  0.17668779  0.36890572  1
  In  In49  1  0.68230018  0.16320764  0.87003350  1
  In  In50  1  0.66219911  0.51164378  0.37116994  1
  In  In51  1  0.65937059  0.51416952  0.88434247  1
  In  In52  1  0.66546661  0.83110283  0.37214676  1
  In  In53  1  0.66727562  0.83085268  0.87404359  1
  In  In54  1  0.17800300  -0.00248150  0.12085810  1
  In  In55  1  0.16745028  -0.00493793  0.63871802  1
  In  In56  1  0.16095020  0.34166344  0.12516624  1
  In  In57  1  0.16562597  0.32552229  0.62720830  1
  In  In58  1  0.15850125  0.67781070  0.12885955  1
  In  In59  1  0.16804731  0.67637990  0.63206643  1
  In  In60  1  0.51426353  -0.01433403  0.13098967  1
  In  In61  1  0.51176013  -0.01377276  0.63101580  1
  In  In62  1  0.50412977  0.35313558  0.13011704  1
  In  In63  1  0.49989536  0.35100089  0.61135429  1
  In  In64  1  0.50025255  0.66516681  0.13027414  1
  In  In65  1  0.50189766  0.66900869  0.62367927  1
  In  In66  1  0.83035344  -0.01094841  0.12294531  1
  In  In67  1  0.83172448  -0.00509899  0.62498142  1
  In  In68  1  0.81731261  0.33332346  0.12875298  1
  In  In69  1  0.84632615  0.34223923  0.60788800  1
  In  In70  1  0.83134721  0.66701372  0.12727577  1
  In  In71  1  0.82127321  0.65377532  0.61641159  1
  In  In72  1  0.00055275  0.66660292  0.75463120  1
  In  In73  1  0.50699827  0.16930461  0.49621310  1
  In  In74  1  0.50334040  0.16445003  -0.00256008  1
  In  In75  1  0.67222700  0.32888292  0.74280672  1
  In  In76  1  0.83369397  0.16943592  -0.00408948  1
  In  In77  1  -0.00042780  -0.00857335  0.24365069  1
  In  In78  1  0.34173967  0.33167719  0.25784546  1
  In  In79  1  0.16179123  0.50536457  -0.00227475  1
  In  In80  1  0.16551641  0.16080303  -0.01012498  1
  In  In81  1  0.33229257  0.33273504  0.74490859  1
  In  In82  1  0.16540852  0.83277207  0.50735923  1
  In  In83  1  0.16470975  0.16739053  0.51136504  1
  In  In84  1  0.16598017  0.50266615  0.50189172  1
  In  In85  1  -0.00847418  0.33308822  0.25330228  1
  Cu  Cu86  1  -0.00500819  0.66747431  -0.00074497  1
  Cu  Cu87  1  0.49870623  0.50992313  0.75059550  1
  Cu  Cu88  1  0.83821719  0.15881187  0.74668308  1
  Cu  Cu89  1  -0.01242045  0.65880218  0.49584338  1
  Cu  Cu90  1  0.33848348  0.00254633  0.49928364  1
  Cu  Cu91  1  0.16595002  0.15348089  0.24897986  1
  Cu  Cu92  1  0.82961141  0.82985449  0.75022659  1
  Cu  Cu93  1  0.34094502  0.67105974  0.00192390  1
  Cu  Cu94  1  0.17291085  0.83211586  0.24580604  1
  Cu  Cu95  1  0.82669393  0.16939470  0.25758181  1
  Cu  Cu96  1  0.66881835  -0.00619333  -0.00315957  1
  Cu  Cu97  1  0.66481780  0.34908307  0.00495166  1
  Cu  Cu98  1  0.34102943  -0.01317909  0.00003999  1
  Cu  Cu99  1  0.50142326  0.15970837  0.74420656  1
  Cu  Cu100  1  0.83008485  0.83098771  0.24622791  1
  Cu  Cu101  1  0.82486627  0.49853596  0.74412050  1
  Cu  Cu102  1  0.66248613  0.67061261  0.49596751  1
  Cu  Cu103  1  0.50149768  0.82843171  0.75188621  1
  Cu  Cu104  1  0.49821828  0.15861590  0.25098453  1
  Cu  Cu105  1  0.66937281  0.66795669  0.00604827  1
  Cu  Cu106  1  -0.01001822  -0.00228770  0.50614727  1
  Cu  Cu107  1  0.16789663  0.16262863  0.75040792  1
  Cu  Cu108  1  0.34286419  0.67241672  0.49948296  1
  Cu  Cu109  1  0.66709857  -0.00804241  0.50003565  1
  Cu  Cu110  1  0.50077747  0.82901677  0.24895461  1
  Cu  Cu111  1  0.17215690  0.83204359  0.75719402  1
  Cu  Cu112  1  0.82924313  0.50493298  0.25823100  1
  Cu  Cu113  1  0.32965407  0.34251043  0.00338687  1
  Cu  Cu114  1  0.17128836  0.50411129  0.24713294  1
  Se  Se115  1  0.07760053  0.07579044  0.05598124  1
  Se  Se116  1  0.07699743  0.07101798  0.56647045  1
  Se  Se117  1  0.07019391  0.41065479  0.05403980  1
  Se  Se118  1  0.07786654  0.40946158  0.55939283  1
  Se  Se119  1  0.08316852  0.74915018  0.05030003  1
  Se  Se120  1  0.06888909  0.73673909  0.55810468  1
  Se  Se121  1  0.41543367  0.07484354  0.05959915  1
  Se  Se122  1  0.41813197  0.08059212  0.56119183  1
  Se  Se123  1  0.41869122  0.42020697  0.05432231  1
  Se  Se124  1  0.41578096  0.42492618  0.54210761  1
  Se  Se125  1  0.42584637  0.75080361  0.05641487  1
  Se  Se126  1  0.42117394  0.75739937  0.55466414  1
  Se  Se127  1  0.73879664  0.08393818  0.05712303  1
  Se  Se128  1  0.74989701  0.07600265  0.55281333  1
  Se  Se129  1  0.75189175  0.42565123  0.05871714  1
  Se  Se130  1  0.74615560  0.41214192  0.54584001  1
  Se  Se131  1  0.75410613  0.75337779  0.05644852  1
  Se  Se132  1  0.74855737  0.74925700  0.55212156  1
  Se  Se133  1  0.25127095  0.25600076  0.05736388  1
  Se  Se134  1  0.26532378  0.26414952  0.55438717  1
  Se  Se135  1  0.25452336  0.59002510  0.06008085  1
  Se  Se136  1  0.25578057  0.59751250  0.55924800  1
  Se  Se137  1  0.25327264  0.90910503  0.05307655  1
  Se  Se138  1  0.25889122  0.92449072  0.56250931  1
  Se  Se139  1  0.58875418  0.25670087  0.05967259  1
  Se  Se140  1  0.59551221  0.25874443  0.55748802  1
  Se  Se141  1  0.58502493  0.58480931  0.05941208  1
  Se  Se142  1  0.58207015  0.58592664  0.55258893  1
  Se  Se143  1  0.58416977  0.91303827  0.05082519  1
  Se  Se144  1  0.58068984  0.91078001  0.55188539  1
  Se  Se145  1  0.91838540  0.26141127  0.05968014  1
  Se  Se146  1  0.91986164  0.23993842  0.55086308  1
  Se  Se147  1  0.91371226  0.58504142  0.05449514  1
  Se  Se148  1  0.90825521  0.57261216  0.54907489  1
  Se  Se149  1  0.91980227  0.93322618  0.04860319  1
  Se  Se150  1  0.91234003  0.90666119  0.55601150  1
  Se  Se151  1  0.08092258  0.25666072  0.44512934  1
  Se  Se152  1  0.07116786  0.25868403  0.94366258  1
  Se  Se153  1  0.07762349  0.58879206  0.43606197  1
  Se  Se154  1  0.07384315  0.59278708  0.93397282  1
  Se  Se155  1  0.07372159  0.92168909  0.44506994  1
  Se  Se156  1  0.09164058  0.91630011  0.95144870  1
  Se  Se157  1  0.41019311  0.26025720  0.44154755  1
  Se  Se158  1  0.41051107  0.26202621  0.94247342  1
  Se  Se159  1  0.42201155  0.58732303  0.44530173  1
  Se  Se160  1  0.42060918  0.58438606  0.94840710  1
  Se  Se161  1  0.41752755  0.91546648  0.44708481  1
  Se  Se162  1  0.42859877  0.90944404  0.94659806  1
  Se  Se163  1  0.75307152  0.23122616  0.45218666  1
  Se  Se164  1  0.73887954  0.26522632  0.94169128  1
  Se  Se165  1  0.74882576  0.58831065  0.44389443  1
  Se  Se166  1  0.75315993  0.58538917  0.95092649  1
  Se  Se167  1  0.75027018  0.90907872  0.44497647  1
  Se  Se168  1  0.75362938  0.91453998  0.94212544  1
  Se  Se169  1  0.25125737  0.07794068  0.44277020  1
  Se  Se170  1  0.26547057  0.07220723  0.93926099  1
  Se  Se171  1  0.25813372  0.41613350  0.43955080  1
  Se  Se172  1  0.25339789  0.41542914  0.93645159  1
  Se  Se173  1  0.25262236  0.74695295  0.44153160  1
  Se  Se174  1  0.25351152  0.74952999  0.94841714  1
  Se  Se175  1  0.58985073  0.07389531  0.43672739  1
  Se  Se176  1  0.59200844  0.07663207  0.93499868  1
  Se  Se177  1  0.59320028  0.42004193  0.44392413  1
  Se  Se178  1  0.57713973  0.42713403  0.95181731  1
  Se  Se179  1  0.57925333  0.75452334  0.44323919  1
  Se  Se180  1  0.58840175  0.74939260  0.94704692  1
  Se  Se181  1  0.91220240  0.08144423  0.45019391  1
  Se  Se182  1  0.92109924  0.07907739  0.93659658  1
  Se  Se183  1  0.92740117  0.40260029  0.45052881  1
  Se  Se184  1  0.91163500  0.42267560  0.94795866  1
  Se  Se185  1  0.91222431  0.75130957  0.44488553  1
  Se  Se186  1  0.91088380  0.75362336  0.94902581  1
  Se  Se187  1  0.24172997  0.23767094  0.30976048  1
  Se  Se188  1  0.24361101  0.24622253  0.81246863  1
  Se  Se189  1  0.25467931  0.58733072  0.29974052  1
  Se  Se190  1  0.23911326  0.57350487  0.79726760  1
  Se  Se191  1  0.25365971  0.91426952  0.30192296  1
  Se  Se192  1  0.25785618  0.91705815  0.80757929  1
  Se  Se193  1  0.57734207  0.24594358  0.30440945  1
  Se  Se194  1  0.57741224  0.24172873  0.80656334  1
  Se  Se195  1  0.59420895  0.59869368  0.29821257  1
  Se  Se196  1  0.58512429  0.58658754  0.80594286  1
  Se  Se197  1  0.58468848  0.91488157  0.30083432  1
  Se  Se198  1  0.58620560  0.91410709  0.80277858  1
  Se  Se199  1  0.90182810  0.25250076  0.31694093  1
  Se  Se200  1  0.91370480  0.24843298  0.80120159  1
  Se  Se201  1  0.91884013  0.59174439  0.30264332  1
  Se  Se202  1  0.90156820  0.57863492  0.80845465  1
  Se  Se203  1  0.90848557  0.91185346  0.30960911  1
  Se  Se204  1  0.91849204  0.90805853  0.80323695  1
  Se  Se205  1  0.08020553  0.08498554  0.31226988  1
  Se  Se206  1  0.08389597  0.07892251  0.80290348  1
  Se  Se207  1  0.08637766  0.42849685  0.30794956  1
  Se  Se208  1  0.07455934  0.41807632  0.79531281  1
  Se  Se209  1  0.08342910  0.75305430  0.29778112  1
  Se  Se210  1  0.08649185  0.75617482  0.81765336  1
  Se  Se211  1  0.41330168  0.07477450  0.30139993  1
  Se  Se212  1  0.41560030  0.07959958  0.79737439  1
  Se  Se213  1  0.43050813  0.42804366  0.30900510  1
  Se  Se214  1  0.42147899  0.42285651  0.80859898  1
  Se  Se215  1  0.41611889  0.74654852  0.30293743  1
  Se  Se216  1  0.41709365  0.74701633  0.80709608  1
  Se  Se217  1  0.74459611  0.07690433  0.30271169  1
  Se  Se218  1  0.75034162  0.07789663  0.79714524  1
  Se  Se219  1  0.76096909  0.41895213  0.32080289  1
  Se  Se220  1  0.74771954  0.42141246  0.81068422  1
  Se  Se221  1  0.74671680  0.74913865  0.30076307  1
  Se  Se222  1  0.74532491  0.74580039  0.80153178  1
  Se  Se223  1  0.25265184  0.07243013  0.19934394  1
  Se  Se224  1  0.25586910  0.08219435  0.69962896  1
  Se  Se225  1  0.25161342  0.41985610  0.19183074  1
  Se  Se226  1  0.24521550  0.42626936  0.68718961  1
  Se  Se227  1  0.25621961  0.74563360  0.19470032  1
  Se  Se228  1  0.25328567  0.74772647  0.70377029  1
  Se  Se229  1  0.58587777  0.07956639  0.19818764  1
  Se  Se230  1  0.59020127  0.07679687  0.69716277  1
  Se  Se231  1  0.59859341  0.40722502  0.20102588  1
  Se  Se232  1  0.57766798  0.42475234  0.69189265  1
  Se  Se233  1  0.58742793  0.74998847  0.19548110  1
  Se  Se234  1  0.58463319  0.74807609  0.69503878  1
  Se  Se235  1  0.90564913  0.09230398  0.19391984  1
  Se  Se236  1  0.92061469  0.07113592  0.69592190  1
  Se  Se237  1  0.90881002  0.42806637  0.19189415  1
  Se  Se238  1  0.90878455  0.41345992  0.69378061  1
  Se  Se239  1  0.91938253  0.75387251  0.19243403  1
  Se  Se240  1  0.90765843  0.74670036  0.68902526  1
  Se  Se241  1  0.08885829  0.24068690  0.19346736  1
  Se  Se242  1  0.08486648  0.24727225  0.69799394  1
  Se  Se243  1  0.08342843  0.58634659  0.19727917  1
  Se  Se244  1  0.08545632  0.57695482  0.69028122  1
  Se  Se245  1  0.08889835  0.90508426  0.18284009  1
  Se  Se246  1  0.08316148  0.91024300  0.70405915  1
  Se  Se247  1  0.42144517  0.24107248  0.18792778  1
  Se  Se248  1  0.43112909  0.24851290  0.68473842  1
  Se  Se249  1  0.42397185  0.58260155  0.20390868  1
  Se  Se250  1  0.41491479  0.58822886  0.69415634  1
  Se  Se251  1  0.41750270  0.91470752  0.19582166  1
  Se  Se252  1  0.41821169  0.91457183  0.69861201  1
  Se  Se253  1  0.74508216  0.25647500  0.20559151  1
  Se  Se254  1  0.76315910  0.24175704  0.68330924  1
  Se  Se255  1  0.75056807  0.58700606  0.19934603  1
  Se  Se256  1  0.74128046  0.58250837  0.69347157  1
  Se  Se257  1  0.74723041  0.91799156  0.19582352  1
  Se  Se258  1  0.74786984  0.91304245  0.69410758  1
