# generated using pymatgen
data_In86Cu29Se144
_symmetry_space_group_name_H-M   'P 1'
_cell_length_a   17.57789210
_cell_length_b   17.57824292
_cell_length_c   23.43569799
_cell_angle_alpha   90.00544526
_cell_angle_beta   89.99976935
_cell_angle_gamma   90.00263493
_symmetry_Int_Tables_number   1
_chemical_formula_structural   In86Cu29Se144
_chemical_formula_sum   'In86 Cu29 Se144'
_cell_volume   7241.36013071
_cell_formula_units_Z   1
loop_
 _symmetry_equiv_pos_site_id
 _symmetry_equiv_pos_as_xyz
  1  'x, y, z'
loop_
 _atom_site_type_symbol
 _atom_site_label
 _atom_site_symmetry_multiplicity
 _atom_site_fract_x
 _atom_site_fract_y
 _atom_site_fract_z
 _atom_site_occupancy
  In  In0  1  -0.01333418  0.15574322  0.12073193  1
  In  In1  1  -0.00118524  0.17615399  0.61732148  1
  In  In2  1  0.00093552  0.51647289  0.12652384  1
  In  In3  1  0.02074781  0.52949233  0.59360987  1
  In  In4  1  -0.00142620  0.83466679  0.12891058  1
  In  In5  1  -0.00953193  0.82248515  0.62702116  1
  In  In6  1  0.34517282  0.17178316  0.12303957  1
  In  In7  1  0.34318307  0.16087774  0.61553722  1
  In  In8  1  0.34239158  0.48951910  0.13697145  1
  In  In9  1  0.33818099  0.50673907  0.61667291  1
  In  In10  1  0.31954128  0.83760527  0.12795695  1
  In  In11  1  0.33126119  0.82270138  0.62256051  1
  In  In12  1  0.66528458  0.16733794  0.13088527  1
  In  In13  1  0.66775717  0.15419506  0.61543842  1
  In  In14  1  0.65737607  0.49266086  0.12171720  1
  In  In15  1  0.66478044  0.49510344  0.61240365  1
  In  In16  1  0.67912125  0.82906307  0.12729523  1
  In  In17  1  0.66652997  0.84863530  0.62307232  1
  In  In18  1  0.16160915  0.00258776  0.36969995  1
  In  In19  1  0.16177836  0.00225617  0.88667598  1
  In  In20  1  0.18823259  0.33844497  0.37286620  1
  In  In21  1  0.15629621  0.33459727  0.87986207  1
  In  In22  1  0.15951362  0.65475193  0.37204073  1
  In  In23  1  0.17834613  0.67015479  0.87026848  1
  In  In24  1  0.51500049  -0.01255915  0.39411998  1
  In  In25  1  0.51332642  -0.00127298  0.87435290  1
  In  In26  1  0.49818197  0.32897104  0.37933532  1
  In  In27  1  0.50297704  0.32992021  0.88043739  1
  In  In28  1  0.48926402  0.67742270  0.37785451  1
  In  In29  1  0.48389533  0.66601318  0.87558172  1
  In  In30  1  0.83595216  0.00801176  0.37170246  1
  In  In31  1  0.82675140  0.00545497  0.88174536  1
  In  In32  1  0.82213663  0.33695481  0.37063477  1
  In  In33  1  0.83301890  0.33331696  0.88572271  1
  In  In34  1  0.83774212  0.65844170  0.37665026  1
  In  In35  1  0.84268266  0.65915766  0.88192136  1
  In  In36  1  -0.00208087  0.14709647  0.37324888  1
  In  In37  1  -0.00282818  0.16705429  0.88767195  1
  In  In38  1  -0.00554181  0.51273286  0.38203258  1
  In  In39  1  -0.00593998  0.50013865  0.87482678  1
  In  In40  1  -0.00228563  0.83136902  0.37030974  1
  In  In41  1  0.00846033  0.82431568  0.88214436  1
  In  In42  1  0.33853014  0.18063907  0.37888554  1
  In  In43  1  0.33581905  0.16468617  0.88443003  1
  In  In44  1  0.33319614  0.49908417  0.37893259  1
  In  In45  1  0.33033110  0.51522313  0.87725897  1
  In  In46  1  0.36307970  0.83062046  0.37107410  1
  In  In47  1  0.33059572  0.81846469  0.87599873  1
  In  In48  1  0.66270390  0.16249318  0.37407228  1
  In  In49  1  0.67585084  0.15753066  0.88288951  1
  In  In50  1  0.67472200  0.48772459  0.37804190  1
  In  In51  1  0.66963119  0.49442638  0.88304753  1
  In  In52  1  0.64955799  0.84053159  0.37224463  1
  In  In53  1  0.66331524  0.84966004  0.87618365  1
  In  In54  1  0.15685377  -0.01042314  0.12021173  1
  In  In55  1  0.17203918  0.00553013  0.62220889  1
  In  In56  1  0.18485373  0.33381267  0.12902911  1
  In  In57  1  0.15270353  0.34385900  0.62277710  1
  In  In58  1  0.15702412  0.67293324  0.13399158  1
  In  In59  1  0.17227030  0.66459488  0.63497322  1
  In  In60  1  0.49803475  0.01362027  0.12917329  1
  In  In61  1  0.51927406  0.01551589  0.59982318  1
  In  In62  1  0.50158665  0.33235750  0.13222430  1
  In  In63  1  0.49612787  0.33682389  0.60814323  1
  In  In64  1  0.50587328  0.65311739  0.12988590  1
  In  In65  1  0.49087330  0.65612651  0.61385129  1
  In  In66  1  0.83025364  -0.00092717  0.12950099  1
  In  In67  1  0.82108779  -0.00662155  0.61758751  1
  In  In68  1  0.82109296  0.32305948  0.12120139  1
  In  In69  1  0.83893617  0.33414498  0.61533404  1
  In  In70  1  0.84023616  0.67898381  0.11975158  1
  In  In71  1  0.84971698  0.66405576  0.62289566  1
  In  In72  1  0.33722197  0.00463478  0.25166305  1
  In  In73  1  0.66592073  0.66753748  0.25168318  1
  In  In74  1  0.33911573  -0.00798674  0.74303831  1
  In  In75  1  -0.00482933  0.34336076  0.75655878  1
  In  In76  1  0.83087497  0.83083444  0.49584688  1
  In  In77  1  0.66532770  0.66807599  0.74985230  1
  In  In78  1  0.17155472  0.83399924  0.49884466  1
  In  In79  1  0.16654988  0.17213236  0.49512717  1
  In  In80  1  -0.00416379  -0.00481002  0.74728379  1
  In  In81  1  0.16847268  0.49935958  0.00363659  1
  In  In82  1  0.33432677  0.33937617  0.73759588  1
  In  In83  1  0.49732920  0.83221290  -0.00183750  1
  In  In84  1  0.66490246  0.33382219  0.74372152  1
  In  In85  1  0.00096662  0.33502518  0.24775179  1
  Cu  Cu86  1  0.50235130  0.17028169  0.25359791  1
  Cu  Cu87  1  -0.00619340  -0.00273927  0.00490609  1
  Cu  Cu88  1  0.49939193  0.83334523  0.74682446  1
  Cu  Cu89  1  0.66980263  0.66328882  0.00274911  1
  Cu  Cu90  1  0.66637818  0.00448589  0.00460176  1
  Cu  Cu91  1  0.66911861  0.32478684  0.49432826  1
  Cu  Cu92  1  0.33023681  0.66444995  0.00225598  1
  Cu  Cu93  1  0.83373167  0.50452404  0.25152536  1
  Cu  Cu94  1  0.82676901  0.15824475  0.75247382  1
  Cu  Cu95  1  0.16627288  0.82906420  0.25042622  1
  Cu  Cu96  1  0.66194116  0.33190556  0.00563358  1
  Cu  Cu97  1  -0.00013752  0.33123866  0.00301832  1
  Cu  Cu98  1  0.82796816  0.16336670  0.24730514  1
  Cu  Cu99  1  0.16637346  0.16461676  0.25126812  1
  Cu  Cu100  1  0.83581875  0.83616336  0.24873332  1
  Cu  Cu101  1  0.51001371  0.15748865  0.74414341  1
  Cu  Cu102  1  0.49072259  0.50688706  0.74687517  1
  Cu  Cu103  1  0.17135690  0.50178236  0.25257416  1
  Cu  Cu104  1  -0.00668497  0.33330082  0.48994343  1
  Cu  Cu105  1  0.66468493  0.66555250  0.49512645  1
  Cu  Cu106  1  0.49944354  0.49705181  0.25568248  1
  Cu  Cu107  1  0.32912561  0.00201708  0.00509490  1
  Cu  Cu108  1  -0.00080695  0.67287204  0.00394009  1
  Cu  Cu109  1  0.83138062  0.83170203  0.74903540  1
  Cu  Cu110  1  0.34413276  0.33083887  0.00680753  1
  Cu  Cu111  1  0.83925686  0.50275980  0.74748390  1
  Cu  Cu112  1  0.16801985  0.17219703  0.75797655  1
  Cu  Cu113  1  0.16617527  0.82939611  0.75412737  1
  Cu  Cu114  1  0.33102759  0.66770844  0.49658770  1
  Se  Se115  1  0.08078532  0.08233645  0.05440515  1
  Se  Se116  1  0.07686674  0.07647447  0.55462091  1
  Se  Se117  1  0.07852754  0.40963111  0.06584862  1
  Se  Se118  1  0.08134963  0.41332684  0.54209518  1
  Se  Se119  1  0.08411795  0.75266572  0.05869688  1
  Se  Se120  1  0.08233459  0.74528542  0.55985823  1
  Se  Se121  1  0.41918218  0.08327779  0.05208791  1
  Se  Se122  1  0.41794488  0.08666488  0.54115779  1
  Se  Se123  1  0.42179788  0.41830793  0.06058300  1
  Se  Se124  1  0.40668318  0.41613087  0.54671663  1
  Se  Se125  1  0.41181892  0.74451326  0.06325485  1
  Se  Se126  1  0.41590959  0.75125754  0.54916447  1
  Se  Se127  1  0.74921929  0.08544477  0.06088363  1
  Se  Se128  1  0.76465077  0.08957686  0.54783936  1
  Se  Se129  1  0.74890592  0.41735420  0.05423531  1
  Se  Se130  1  0.75015164  0.41164969  0.54822245  1
  Se  Se131  1  0.75091288  0.75345377  0.04972924  1
  Se  Se132  1  0.74328278  0.74140305  0.56181835  1
  Se  Se133  1  0.25400878  0.24943030  0.05497759  1
  Se  Se134  1  0.24971939  0.25773032  0.56331738  1
  Se  Se135  1  0.25519078  0.58536237  0.06801970  1
  Se  Se136  1  0.24722562  0.59221466  0.55561641  1
  Se  Se137  1  0.24615808  0.91282668  0.05095598  1
  Se  Se138  1  0.26304543  0.92801270  0.55630717  1
  Se  Se139  1  0.58086112  0.24846992  0.06112526  1
  Se  Se140  1  0.58684887  0.24736557  0.55326321  1
  Se  Se141  1  0.58159741  0.58207855  0.05194052  1
  Se  Se142  1  0.58101396  0.57982752  0.54715241  1
  Se  Se143  1  0.58537010  0.91968911  0.06178471  1
  Se  Se144  1  0.58866129  0.91059586  0.54352458  1
  Se  Se145  1  0.91306407  0.24873113  0.05409594  1
  Se  Se146  1  0.91510055  0.24772330  0.54461231  1
  Se  Se147  1  0.91575155  0.58506987  0.05263223  1
  Se  Se148  1  0.89559072  0.57008714  0.54680342  1
  Se  Se149  1  0.91214281  0.91455687  0.06022972  1
  Se  Se150  1  0.92603672  0.91858020  0.55685683  1
  Se  Se151  1  0.07735338  0.25672774  0.42904687  1
  Se  Se152  1  0.08640799  0.24896001  0.95196199  1
  Se  Se153  1  0.08592671  0.58306081  0.45080066  1
  Se  Se154  1  0.07994708  0.59002601  0.94322954  1
  Se  Se155  1  0.07651407  0.92196217  0.44162120  1
  Se  Se156  1  0.08002686  0.91582517  0.95114017  1
  Se  Se157  1  0.40788806  0.26258743  0.45280395  1
  Se  Se158  1  0.42289282  0.24640435  0.94946470  1
  Se  Se159  1  0.41840710  0.58488860  0.44619000  1
  Se  Se160  1  0.41718213  0.58164767  0.95200218  1
  Se  Se161  1  0.40862942  0.91884211  0.45059173  1
  Se  Se162  1  0.40646159  0.92450134  0.93787115  1
  Se  Se163  1  0.75370010  0.24450753  0.44004893  1
  Se  Se164  1  0.74749783  0.25031025  0.95040573  1
  Se  Se165  1  0.74942285  0.58257266  0.44400904  1
  Se  Se166  1  0.75298674  0.57985943  0.94773258  1
  Se  Se167  1  0.74287979  0.92253220  0.43847077  1
  Se  Se168  1  0.74727452  0.91826759  0.95081996  1
  Se  Se169  1  0.25411902  0.07777429  0.43775402  1
  Se  Se170  1  0.24678957  0.08724782  0.95076526  1
  Se  Se171  1  0.24716572  0.42245715  0.44983623  1
  Se  Se172  1  0.26151499  0.40843723  0.94374898  1
  Se  Se173  1  0.25638681  0.74813907  0.43248966  1
  Se  Se174  1  0.24646336  0.74853861  0.95021739  1
  Se  Se175  1  0.57133477  0.10050730  0.44867623  1
  Se  Se176  1  0.58089204  0.08361634  0.94898208  1
  Se  Se177  1  0.58520541  0.41370325  0.44655559  1
  Se  Se178  1  0.58148543  0.41564390  0.94884433  1
  Se  Se179  1  0.58223950  0.75204221  0.44541788  1
  Se  Se180  1  0.58970977  0.74117200  0.93819507  1
  Se  Se181  1  0.91615991  0.07972997  0.44812161  1
  Se  Se182  1  0.91162982  0.08341083  0.95163873  1
  Se  Se183  1  0.90933554  0.41745760  0.43830120  1
  Se  Se184  1  0.92105170  0.41776422  0.94844359  1
  Se  Se185  1  0.92880454  0.73949435  0.44566172  1
  Se  Se186  1  0.91363216  0.75354988  0.94920269  1
  Se  Se187  1  0.25319256  0.24604078  0.30113813  1
  Se  Se188  1  0.25228288  0.25292884  0.81158524  1
  Se  Se189  1  0.25538715  0.58406401  0.30613617  1
  Se  Se190  1  0.25367707  0.58399390  0.80140226  1
  Se  Se191  1  0.24909371  0.90763070  0.31022530  1
  Se  Se192  1  0.24316760  0.91670723  0.81126040  1
  Se  Se193  1  0.58512774  0.25476309  0.30683393  1
  Se  Se194  1  0.58245954  0.24096282  0.80726513  1
  Se  Se195  1  0.58063695  0.57813793  0.31521030  1
  Se  Se196  1  0.57749440  0.57519375  0.81050118  1
  Se  Se197  1  0.57335473  0.92610848  0.30441812  1
  Se  Se198  1  0.58298033  0.91736037  0.79824641  1
  Se  Se199  1  0.91315430  0.24194320  0.30692917  1
  Se  Se200  1  0.90741533  0.24080898  0.81097920  1
  Se  Se201  1  0.91982167  0.58574679  0.30188560  1
  Se  Se202  1  0.91834507  0.58543013  0.80375176  1
  Se  Se203  1  0.91732109  0.91910019  0.30461507  1
  Se  Se204  1  0.91080977  0.91005385  0.81332020  1
  Se  Se205  1  0.08038120  0.07815865  0.29654562  1
  Se  Se206  1  0.08356327  0.08899616  0.81038664  1
  Se  Se207  1  0.08661685  0.42249198  0.31237745  1
  Se  Se208  1  0.09710465  0.43146100  0.80716686  1
  Se  Se209  1  0.08253933  0.74688294  0.30514920  1
  Se  Se210  1  0.08212008  0.74666436  0.80627770  1
  Se  Se211  1  0.42492673  0.08911570  0.31555399  1
  Se  Se212  1  0.42210273  0.08785473  0.80614927  1
  Se  Se213  1  0.41601719  0.41477588  0.30981080  1
  Se  Se214  1  0.42094324  0.41942683  0.80918250  1
  Se  Se215  1  0.42100740  0.74467496  0.29432384  1
  Se  Se216  1  0.41646314  0.75171553  0.80086717  1
  Se  Se217  1  0.74533930  0.08090194  0.30248804  1
  Se  Se218  1  0.74416016  0.07589793  0.80517818  1
  Se  Se219  1  0.74730698  0.41792300  0.29623834  1
  Se  Se220  1  0.75940655  0.41988970  0.80634966  1
  Se  Se221  1  0.75619454  0.75811308  0.31286723  1
  Se  Se222  1  0.75293333  0.75487604  0.81376383  1
  Se  Se223  1  0.24488717  0.08599130  0.18630984  1
  Se  Se224  1  0.24708735  0.09706751  0.69440119  1
  Se  Se225  1  0.25417360  0.41245724  0.20591944  1
  Se  Se226  1  0.23861611  0.43085115  0.68802758  1
  Se  Se227  1  0.25247739  0.74690439  0.19925983  1
  Se  Se228  1  0.25485039  0.75201356  0.70086304  1
  Se  Se229  1  0.58387840  0.08371107  0.20157165  1
  Se  Se230  1  0.58825735  0.07432859  0.68820024  1
  Se  Se231  1  0.58511828  0.41798174  0.20009927  1
  Se  Se232  1  0.56992694  0.42479115  0.68818993  1
  Se  Se233  1  0.57665310  0.75836115  0.19225570  1
  Se  Se234  1  0.57762789  0.75213924  0.68480506  1
  Se  Se235  1  0.91637906  0.07991293  0.19928457  1
  Se  Se236  1  0.91225098  0.09022549  0.68778915  1
  Se  Se237  1  0.90964693  0.42293551  0.18702154  1
  Se  Se238  1  0.91606220  0.42449154  0.68482948  1
  Se  Se239  1  0.91772865  0.74811657  0.19839516  1
  Se  Se240  1  0.91614519  0.74470660  0.70222078  1
  Se  Se241  1  0.08786490  0.24271999  0.18695803  1
  Se  Se242  1  0.08504382  0.24632858  0.69698882  1
  Se  Se243  1  0.08238021  0.58335905  0.20328467  1
  Se  Se244  1  0.07125341  0.58290354  0.68759717  1
  Se  Se245  1  0.08386417  0.91599024  0.19880294  1
  Se  Se246  1  0.09351229  0.90902186  0.68922065  1
  Se  Se247  1  0.41474421  0.25074553  0.20067473  1
  Se  Se248  1  0.43080871  0.24186954  0.68814638  1
  Se  Se249  1  0.41895178  0.58297467  0.20207361  1
  Se  Se250  1  0.41027403  0.58977076  0.69290275  1
  Se  Se251  1  0.42215941  0.91086797  0.19039172  1
  Se  Se252  1  0.43047156  0.91347647  0.67887266  1
  Se  Se253  1  0.74608356  0.25352165  0.20053421  1
  Se  Se254  1  0.75866682  0.24399522  0.68870274  1
  Se  Se255  1  0.75467628  0.58245721  0.18659414  1
  Se  Se256  1  0.75038663  0.57495019  0.68829712  1
  Se  Se257  1  0.74643827  0.91707593  0.20002030  1
  Se  Se258  1  0.75130090  0.91854551  0.69780542  1
