# generated using pymatgen
data_In86Cu29Se144
_symmetry_space_group_name_H-M   'P 1'
_cell_length_a   17.57815165
_cell_length_b   17.58081321
_cell_length_c   23.44029493
_cell_angle_alpha   89.99476711
_cell_angle_beta   89.98430912
_cell_angle_gamma   90.00421058
_symmetry_Int_Tables_number   1
_chemical_formula_structural   In86Cu29Se144
_chemical_formula_sum   'In86 Cu29 Se144'
_cell_volume   7243.94625037
_cell_formula_units_Z   1
loop_
 _symmetry_equiv_pos_site_id
 _symmetry_equiv_pos_as_xyz
  1  'x, y, z'
loop_
 _atom_site_type_symbol
 _atom_site_label
 _atom_site_symmetry_multiplicity
 _atom_site_fract_x
 _atom_site_fract_y
 _atom_site_fract_z
 _atom_site_occupancy
  In  In0  1  0.00227258  0.16411509  0.12896962  1
  In  In1  1  -0.00510205  0.14930622  0.61034596  1
  In  In2  1  -0.00124324  0.50183815  0.13246076  1
  In  In3  1  0.01668367  0.50047149  0.62290618  1
  In  In4  1  0.01106138  0.83171991  0.14416845  1
  In  In5  1  -0.01342869  0.84654027  0.62530195  1
  In  In6  1  0.32895205  0.18054739  0.12002703  1
  In  In7  1  0.33098750  0.16284737  0.62996332  1
  In  In8  1  0.34924454  0.50638961  0.12205125  1
  In  In9  1  0.31423792  0.50515200  0.64161138  1
  In  In10  1  0.33170560  0.81392513  0.12293351  1
  In  In11  1  0.33958673  0.83078741  0.63016628  1
  In  In12  1  0.68310482  0.16139377  0.12580324  1
  In  In13  1  0.65201752  0.16083239  0.61608946  1
  In  In14  1  0.64125317  0.49468023  0.12874408  1
  In  In15  1  0.67591148  0.50562645  0.62665825  1
  In  In16  1  0.66221162  0.83582055  0.11791419  1
  In  In17  1  0.66625759  0.83695755  0.62566393  1
  In  In18  1  0.16453794  0.01267329  0.38164719  1
  In  In19  1  0.16759147  0.01376947  0.85859650  1
  In  In20  1  0.16538515  0.34209983  0.38237326  1
  In  In21  1  0.16069272  0.31713410  0.86718771  1
  In  In22  1  0.15984454  0.66047939  0.37313029  1
  In  In23  1  0.17025976  0.66684697  0.85843770  1
  In  In24  1  0.49964160  0.00109471  0.38719527  1
  In  In25  1  0.48970858  -0.01269016  0.86723413  1
  In  In26  1  0.49842455  0.33084757  0.37591619  1
  In  In27  1  0.49957268  0.34569274  0.87693887  1
  In  In28  1  0.50455346  0.67802655  0.37399976  1
  In  In29  1  0.50116671  0.66882779  0.87470558  1
  In  In30  1  0.84432911  -0.00348736  0.39168776  1
  In  In31  1  0.84293572  0.00847736  0.86636098  1
  In  In32  1  0.82810095  0.31870244  0.37130097  1
  In  In33  1  0.82072083  0.32147376  0.87820326  1
  In  In34  1  0.84838019  0.66523567  0.37702505  1
  In  In35  1  0.83466094  0.67369482  0.86632461  1
  In  In36  1  0.00003322  0.16708188  0.37673452  1
  In  In37  1  0.00747511  0.15591074  0.87947388  1
  In  In38  1  0.01014138  0.50804023  0.37035724  1
  In  In39  1  -0.00434746  0.50516390  0.87188184  1
  In  In40  1  -0.00194284  0.82889277  0.37719293  1
  In  In41  1  0.00554218  0.84015593  0.86468225  1
  In  In42  1  0.33606855  0.16916453  0.38688497  1
  In  In43  1  0.31526279  0.16027863  0.85623651  1
  In  In44  1  0.32179623  0.49550850  0.37520104  1
  In  In45  1  0.34015423  0.51146818  0.85962428  1
  In  In46  1  0.34222404  0.83464301  0.38024006  1
  In  In47  1  0.33872645  0.83857432  0.86722283  1
  In  In48  1  0.66927515  0.17141456  0.38848557  1
  In  In49  1  0.68092313  0.16800233  0.87549357  1
  In  In50  1  0.67271064  0.49768605  0.37059467  1
  In  In51  1  0.65206979  0.50327245  0.87859938  1
  In  In52  1  0.66284432  0.84085630  0.38476183  1
  In  In53  1  0.65249902  0.82286211  0.86574135  1
  In  In54  1  0.15180468  -0.00525072  0.12704845  1
  In  In55  1  0.15272063  0.02029597  0.64090363  1
  In  In56  1  0.16856674  0.31977013  0.12170582  1
  In  In57  1  0.17292433  0.33702258  0.62050867  1
  In  In58  1  0.17733746  0.66981862  0.13631777  1
  In  In59  1  0.16832677  0.66066965  0.63325300  1
  In  In60  1  0.51038673  -0.00498188  0.11873766  1
  In  In61  1  0.50103326  -0.00017821  0.62857368  1
  In  In62  1  0.49859792  0.35584587  0.12891019  1
  In  In63  1  0.49525122  0.31562529  0.62037602  1
  In  In64  1  0.49254183  0.64866229  0.10865646  1
  In  In65  1  0.49112481  0.67553570  0.63018710  1
  In  In66  1  0.83894104  0.00820520  0.12451915  1
  In  In67  1  0.83369589  -0.00461906  0.62200641  1
  In  In68  1  0.84222090  0.32424329  0.13460274  1
  In  In69  1  0.83844202  0.32744087  0.61678908  1
  In  In70  1  0.83591454  0.67542603  0.12713872  1
  In  In71  1  0.82334202  0.67640603  0.63052388  1
  In  In72  1  0.66869028  0.66230670  0.24614606  1
  In  In73  1  0.82792119  0.49427455  -0.00612410  1
  In  In74  1  0.49938743  0.16645185  -0.00139159  1
  In  In75  1  0.32311926  -0.00547604  0.25509875  1
  In  In76  1  0.16903716  0.83782875  -0.00322606  1
  In  In77  1  0.00094162  0.33268069  0.74222735  1
  In  In78  1  0.16362294  0.84200751  0.50492484  1
  In  In79  1  0.16865664  0.49322200  -0.00794531  1
  In  In80  1  0.49520569  0.49822450  0.49652524  1
  In  In81  1  0.82914388  0.83900189  0.00401179  1
  In  In82  1  0.67418671  -0.00203322  0.25116294  1
  In  In83  1  0.66357292  0.33620254  0.75024012  1
  In  In84  1  0.83833827  0.49685272  0.49539998  1
  In  In85  1  0.32997677  0.34022187  0.24898031  1
  Cu  Cu86  1  0.00231011  0.66654096  0.49895637  1
  Cu  Cu87  1  -0.00067053  0.67380491  0.00167101  1
  Cu  Cu88  1  0.16488390  0.50247345  0.25208176  1
  Cu  Cu89  1  0.34006416  0.66182523  -0.00600462  1
  Cu  Cu90  1  0.49896067  0.50434573  0.75000302  1
  Cu  Cu91  1  0.83735541  0.49292844  0.25224790  1
  Cu  Cu92  1  0.32843025  0.00096523  -0.01198537  1
  Cu  Cu93  1  0.50490013  0.16989168  0.25827055  1
  Cu  Cu94  1  0.83242913  0.83944442  0.74614176  1
  Cu  Cu95  1  0.33681783  0.33152423  0.50463981  1
  Cu  Cu96  1  0.49896045  0.16198932  0.74686428  1
  Cu  Cu97  1  0.16086139  0.16810527  0.25154846  1
  Cu  Cu98  1  0.16709519  0.83179678  0.74315813  1
  Cu  Cu99  1  -0.00166425  0.00965047  0.00107743  1
  Cu  Cu100  1  0.49233554  0.82899383  0.24960799  1
  Cu  Cu101  1  0.66380402  0.67659180  0.50386315  1
  Cu  Cu102  1  0.33255097  0.33131958  -0.00485866  1
  Cu  Cu103  1  0.50552295  0.83068096  0.74883911  1
  Cu  Cu104  1  0.83423113  0.51039357  0.75031167  1
  Cu  Cu105  1  0.00754788  0.32789542  0.49863255  1
  Cu  Cu106  1  0.66714229  0.00090084  0.50612351  1
  Cu  Cu107  1  0.33684276  0.00148283  0.50937242  1
  Cu  Cu108  1  0.66514393  -0.00826184  -0.00597031  1
  Cu  Cu109  1  0.84026844  0.16318575  0.25319960  1
  Cu  Cu110  1  0.83872604  0.82919384  0.25746366  1
  Cu  Cu111  1  -0.00337534  0.31918996  0.00460655  1
  Cu  Cu112  1  0.32905078  0.66619327  0.50980867  1
  Cu  Cu113  1  0.66837805  0.32938004  0.00559681  1
  Cu  Cu114  1  0.83482113  0.16307581  0.74490658  1
  Se  Se115  1  0.08679664  0.08617231  0.05577220  1
  Se  Se116  1  0.09899844  0.08201166  0.55040484  1
  Se  Se117  1  0.07442611  0.41148390  0.05711907  1
  Se  Se118  1  0.08736390  0.41611179  0.54996999  1
  Se  Se119  1  0.08212060  0.74846365  0.06184874  1
  Se  Se120  1  0.07812970  0.74594271  0.56371226  1
  Se  Se121  1  0.40608914  0.07513821  0.05762518  1
  Se  Se122  1  0.42135238  0.08716445  0.55972500  1
  Se  Se123  1  0.41411803  0.41465667  0.04943000  1
  Se  Se124  1  0.40836138  0.41877943  0.56612893  1
  Se  Se125  1  0.41804441  0.74939155  0.04833901  1
  Se  Se126  1  0.41639639  0.75257946  0.55371241  1
  Se  Se127  1  0.74700361  0.07197990  0.05171958  1
  Se  Se128  1  0.75125336  0.08577175  0.55641966  1
  Se  Se129  1  0.74907837  0.41005948  0.06561187  1
  Se  Se130  1  0.74229371  0.41172574  0.55470012  1
  Se  Se131  1  0.74044986  0.73691456  0.05384041  1
  Se  Se132  1  0.75212094  0.75630491  0.55460958  1
  Se  Se133  1  0.24602312  0.24777901  0.04412738  1
  Se  Se134  1  0.25397170  0.24616882  0.55641372  1
  Se  Se135  1  0.25191614  0.58907774  0.05455159  1
  Se  Se136  1  0.24701263  0.58014284  0.55973044  1
  Se  Se137  1  0.25822306  0.92489927  0.06039702  1
  Se  Se138  1  0.25312058  0.92520658  0.56872010  1
  Se  Se139  1  0.58514590  0.25117510  0.06614031  1
  Se  Se140  1  0.58895103  0.25899362  0.54911104  1
  Se  Se141  1  0.59236386  0.57904865  0.04845380  1
  Se  Se142  1  0.58536145  0.58892588  0.55871954  1
  Se  Se143  1  0.57905340  0.91009275  0.04476261  1
  Se  Se144  1  0.58058446  0.91686399  0.55642353  1
  Se  Se145  1  0.91222077  0.24082821  0.05918923  1
  Se  Se146  1  0.91870809  0.24719700  0.54788977  1
  Se  Se147  1  0.92030221  0.58705590  0.05533869  1
  Se  Se148  1  0.91940869  0.58804514  0.56115192  1
  Se  Se149  1  0.93204679  0.91757932  0.06217677  1
  Se  Se150  1  0.91670046  0.92119094  0.54802410  1
  Se  Se151  1  0.09186826  0.24499631  0.44491908  1
  Se  Se152  1  0.08434489  0.24691323  0.94625130  1
  Se  Se153  1  0.08597100  0.58044428  0.44930884  1
  Se  Se154  1  0.07982515  0.59542561  0.94057588  1
  Se  Se155  1  0.07121028  0.92799826  0.44551400  1
  Se  Se156  1  0.07851854  0.92973567  0.93930113  1
  Se  Se157  1  0.42320788  0.25220339  0.45098931  1
  Se  Se158  1  0.40914322  0.24798033  0.93359931  1
  Se  Se159  1  0.40665604  0.59382874  0.44029163  1
  Se  Se160  1  0.41893433  0.57607434  0.93980012  1
  Se  Se161  1  0.41615183  0.91652969  0.45335893  1
  Se  Se162  1  0.41465765  0.91293416  0.94517963  1
  Se  Se163  1  0.75934286  0.25119276  0.45298269  1
  Se  Se164  1  0.75136019  0.24311318  0.95582316  1
  Se  Se165  1  0.74216871  0.59429838  0.44296699  1
  Se  Se166  1  0.74656733  0.59386937  0.93802774  1
  Se  Se167  1  0.74979659  0.91620429  0.45279215  1
  Se  Se168  1  0.74865544  0.91929688  0.93161813  1
  Se  Se169  1  0.25502825  0.08197445  0.45187951  1
  Se  Se170  1  0.24601360  0.08488645  0.93699881  1
  Se  Se171  1  0.25345649  0.41737900  0.45255687  1
  Se  Se172  1  0.25721101  0.40857472  0.92915757  1
  Se  Se173  1  0.25054438  0.74588939  0.44559355  1
  Se  Se174  1  0.25444468  0.74145274  0.93731142  1
  Se  Se175  1  0.58344295  0.08459082  0.45193563  1
  Se  Se176  1  0.58637104  0.07694937  0.93585299  1
  Se  Se177  1  0.59390900  0.41246951  0.44270393  1
  Se  Se178  1  0.58660431  0.41230153  0.95136826  1
  Se  Se179  1  0.57704518  0.75593835  0.44991786  1
  Se  Se180  1  0.58104290  0.75252942  0.94436959  1
  Se  Se181  1  0.90510738  0.10544777  0.44857775  1
  Se  Se182  1  0.91040643  0.08665456  0.94667510  1
  Se  Se183  1  0.92874103  0.40894073  0.43580640  1
  Se  Se184  1  0.92532718  0.40181264  0.93939669  1
  Se  Se185  1  0.91556117  0.75097939  0.45104623  1
  Se  Se186  1  0.92355868  0.75403898  0.94039134  1
  Se  Se187  1  0.24821652  0.24433320  0.31046349  1
  Se  Se188  1  0.24834190  0.25880357  0.79060227  1
  Se  Se189  1  0.25065224  0.58362542  0.30449223  1
  Se  Se190  1  0.24407812  0.57692939  0.79330607  1
  Se  Se191  1  0.23748034  0.90727562  0.31853161  1
  Se  Se192  1  0.24684601  0.91416856  0.80165293  1
  Se  Se193  1  0.58838729  0.24767706  0.31303732  1
  Se  Se194  1  0.57625551  0.24236311  0.81136637  1
  Se  Se195  1  0.57576488  0.57718015  0.30735554  1
  Se  Se196  1  0.58419730  0.58548555  0.80310371  1
  Se  Se197  1  0.57268360  0.91294416  0.30760769  1
  Se  Se198  1  0.58633149  0.92146165  0.79915694  1
  Se  Se199  1  0.92324107  0.25116599  0.30293041  1
  Se  Se200  1  0.90993799  0.24665898  0.80687450  1
  Se  Se201  1  0.91747459  0.58219072  0.30238435  1
  Se  Se202  1  0.92161124  0.59059773  0.80154020  1
  Se  Se203  1  0.91265594  0.91784252  0.31247957  1
  Se  Se204  1  0.91982537  0.92127191  0.79817423  1
  Se  Se205  1  0.08224607  0.08299627  0.30610006  1
  Se  Se206  1  0.07230066  0.08791932  0.79617638  1
  Se  Se207  1  0.08734733  0.41408525  0.30490983  1
  Se  Se208  1  0.08539810  0.42268652  0.80693322  1
  Se  Se209  1  0.07277006  0.74126978  0.30907441  1
  Se  Se210  1  0.08067057  0.75074370  0.79744904  1
  Se  Se211  1  0.42036147  0.08690870  0.31097434  1
  Se  Se212  1  0.41455639  0.07922541  0.80065219  1
  Se  Se213  1  0.42364743  0.42713799  0.30729203  1
  Se  Se214  1  0.41998052  0.41359916  0.79986643  1
  Se  Se215  1  0.41128038  0.74855888  0.30544793  1
  Se  Se216  1  0.41903405  0.74882318  0.80287112  1
  Se  Se217  1  0.75698432  0.08602126  0.31521813  1
  Se  Se218  1  0.74856837  0.08440653  0.80020232  1
  Se  Se219  1  0.75232401  0.41202809  0.30433695  1
  Se  Se220  1  0.75691012  0.42651940  0.81095369  1
  Se  Se221  1  0.74971737  0.75444811  0.31364719  1
  Se  Se222  1  0.74998714  0.75420630  0.79922968  1
  Se  Se223  1  0.24627841  0.09372972  0.19061258  1
  Se  Se224  1  0.26343517  0.07138197  0.70117416  1
  Se  Se225  1  0.24195479  0.42786139  0.18333359  1
  Se  Se226  1  0.25249713  0.39794343  0.70225798  1
  Se  Se227  1  0.24282576  0.76736440  0.20124355  1
  Se  Se228  1  0.25457453  0.74712790  0.69675292  1
  Se  Se229  1  0.57749492  0.08857168  0.19344579  1
  Se  Se230  1  0.58796860  0.08294517  0.69675712  1
  Se  Se231  1  0.59042790  0.40419950  0.20560221  1
  Se  Se232  1  0.57464537  0.42302356  0.68660952  1
  Se  Se233  1  0.57850493  0.75569511  0.18941624  1
  Se  Se234  1  0.58790945  0.74743318  0.69452550  1
  Se  Se235  1  0.92098995  0.07832245  0.19892800  1
  Se  Se236  1  0.91760956  0.08148777  0.69048705  1
  Se  Se237  1  0.92403501  0.41198003  0.19972117  1
  Se  Se238  1  0.90534940  0.42680251  0.68698744  1
  Se  Se239  1  0.91825338  0.74464417  0.20160014  1
  Se  Se240  1  0.91628347  0.75319803  0.69474165  1
  Se  Se241  1  0.08280730  0.25402594  0.19631531  1
  Se  Se242  1  0.08079743  0.24206346  0.67887954  1
  Se  Se243  1  0.08431499  0.58666859  0.19625310  1
  Se  Se244  1  0.08026243  0.58101090  0.69981123  1
  Se  Se245  1  0.08417284  0.92469578  0.20747671  1
  Se  Se246  1  0.07912467  0.91552254  0.69581677  1
  Se  Se247  1  0.42433107  0.24461276  0.19344596  1
  Se  Se248  1  0.41631923  0.24900948  0.69814282  1
  Se  Se249  1  0.41769896  0.59297822  0.19311435  1
  Se  Se250  1  0.41331039  0.58685412  0.69756411  1
  Se  Se251  1  0.42013408  0.91607380  0.18898908  1
  Se  Se252  1  0.42020589  0.91570281  0.69875048  1
  Se  Se253  1  0.75203444  0.24358024  0.20094607  1
  Se  Se254  1  0.75295832  0.24721465  0.68913655  1
  Se  Se255  1  0.75870115  0.56952212  0.18641994  1
  Se  Se256  1  0.74466826  0.58983536  0.70031805  1
  Se  Se257  1  0.76132905  0.90371519  0.19007540  1
  Se  Se258  1  0.74697719  0.92217252  0.69468850  1
