# generated using pymatgen
data_In86Cu29Se144
_symmetry_space_group_name_H-M   'P 1'
_cell_length_a   17.57944959
_cell_length_b   17.57677415
_cell_length_c   23.43753396
_cell_angle_alpha   90.01120118
_cell_angle_beta   89.98745974
_cell_angle_gamma   89.98114590
_symmetry_Int_Tables_number   1
_chemical_formula_structural   In86Cu29Se144
_chemical_formula_sum   'In86 Cu29 Se144'
_cell_volume   7241.96326645
_cell_formula_units_Z   1
loop_
 _symmetry_equiv_pos_site_id
 _symmetry_equiv_pos_as_xyz
  1  'x, y, z'
loop_
 _atom_site_type_symbol
 _atom_site_label
 _atom_site_symmetry_multiplicity
 _atom_site_fract_x
 _atom_site_fract_y
 _atom_site_fract_z
 _atom_site_occupancy
  In  In0  1  0.00059948  0.16483577  0.13153195  1
  In  In1  1  0.01168904  0.16908714  0.62718050  1
  In  In2  1  -0.00860342  0.50194403  0.12689110  1
  In  In3  1  0.00108122  0.50173468  0.62372224  1
  In  In4  1  0.00114616  0.83982197  0.12708456  1
  In  In5  1  -0.01860638  0.83032362  0.61790647  1
  In  In6  1  0.33499423  0.16671076  0.12944617  1
  In  In7  1  0.33361103  0.16973499  0.62929021  1
  In  In8  1  0.32995711  0.50241775  0.13828232  1
  In  In9  1  0.32279974  0.50979212  0.62424608  1
  In  In10  1  0.33716647  0.83809483  0.13668458  1
  In  In11  1  0.35031593  0.81193834  0.62142434  1
  In  In12  1  0.65967334  0.17941867  0.11704179  1
  In  In13  1  0.66037448  0.18034424  0.63508540  1
  In  In14  1  0.67968577  0.50486250  0.12541679  1
  In  In15  1  0.67371519  0.49684244  0.62822679  1
  In  In16  1  0.66492551  0.82009936  0.12463774  1
  In  In17  1  0.65606728  0.81973990  0.61193947  1
  In  In18  1  0.17960798  0.01045531  0.37010950  1
  In  In19  1  0.17075347  -0.01175984  0.86996876  1
  In  In20  1  0.16396394  0.33516851  0.37823486  1
  In  In21  1  0.16357083  0.33387188  0.86903487  1
  In  In22  1  0.17735253  0.64366656  0.38051399  1
  In  In23  1  0.16509321  0.66716669  0.86301928  1
  In  In24  1  0.49211241  0.00833982  0.38506228  1
  In  In25  1  0.50182487  0.02432028  0.87088063  1
  In  In26  1  0.48306021  0.33477918  0.38134983  1
  In  In27  1  0.49490360  0.32151685  0.86034140  1
  In  In28  1  0.50562216  0.67379920  0.37456103  1
  In  In29  1  0.49794488  0.66244589  0.86105638  1
  In  In30  1  0.83303898  -0.01286348  0.37440900  1
  In  In31  1  0.81737581  -0.00916889  0.88355040  1
  In  In32  1  0.84990525  0.33673727  0.37660085  1
  In  In33  1  0.84586629  0.34734291  0.86245291  1
  In  In34  1  0.82428747  0.66788169  0.38822031  1
  In  In35  1  0.82937692  0.66358923  0.87293766  1
  In  In36  1  0.01422404  0.18067845  0.36854527  1
  In  In37  1  -0.00958046  0.18506315  0.87218836  1
  In  In38  1  0.00998683  0.48765693  0.38508305  1
  In  In39  1  -0.01636533  0.48990087  0.86975291  1
  In  In40  1  -0.01127850  0.83039634  0.37507823  1
  In  In41  1  -0.00490911  0.81836195  0.87065644  1
  In  In42  1  0.33075220  0.16740429  0.38135240  1
  In  In43  1  0.34823376  0.17773331  0.85669623  1
  In  In44  1  0.32127412  0.48668359  0.36557012  1
  In  In45  1  0.33276673  0.49892393  0.86285689  1
  In  In46  1  0.34113507  0.83686341  0.37455837  1
  In  In47  1  0.33364561  0.83626776  0.86106062  1
  In  In48  1  0.66123175  0.15825490  0.38025161  1
  In  In49  1  0.65566096  0.16297382  0.87045975  1
  In  In50  1  0.66390006  0.51794517  0.38305975  1
  In  In51  1  0.67453315  0.51036732  0.86400720  1
  In  In52  1  0.67106143  0.81624769  0.39163724  1
  In  In53  1  0.67945743  0.83587513  0.87590128  1
  In  In54  1  0.16809440  0.00040108  0.13699880  1
  In  In55  1  0.16647904  0.01613301  0.61804785  1
  In  In56  1  0.16659364  0.33865558  0.13531132  1
  In  In57  1  0.16802113  0.33678500  0.62653033  1
  In  In58  1  0.16730821  0.67226462  0.13221417  1
  In  In59  1  0.17909751  0.64921964  0.62188177  1
  In  In60  1  0.48838142  0.00614469  0.12729022  1
  In  In61  1  0.49271553  -0.00712565  0.62016075  1
  In  In62  1  0.49828676  0.32405629  0.12349752  1
  In  In63  1  0.50280763  0.32057587  0.63312877  1
  In  In64  1  0.49993465  0.67480069  0.13698427  1
  In  In65  1  0.49798310  0.67017810  0.62292094  1
  In  In66  1  0.84463498  0.00281515  0.12379586  1
  In  In67  1  0.83925507  -0.00597827  0.62364429  1
  In  In68  1  0.83331355  0.34595588  0.12106445  1
  In  In69  1  0.82275065  0.34152998  0.63887297  1
  In  In70  1  0.82937056  0.65777563  0.12151506  1
  In  In71  1  0.83143381  0.66950701  0.62479094  1
  In  In72  1  0.16159503  0.50246782  0.00625828  1
  In  In73  1  0.66758468  0.33749997  0.24554618  1
  In  In74  1  0.16641832  0.83288152  0.00988326  1
  In  In75  1  0.66552871  -0.00222186  0.75369129  1
  In  In76  1  0.50453909  0.49605220  -0.00256995  1
  In  In77  1  0.50890638  0.84129455  -0.00232003  1
  In  In78  1  0.49471991  0.50147783  0.50424474  1
  In  In79  1  0.83015568  0.16768967  0.50514114  1
  In  In80  1  0.00574595  0.00293232  0.74971990  1
  In  In81  1  0.00737707  0.65845096  0.25711893  1
  In  In82  1  0.82800081  0.16765400  -0.00291239  1
  In  In83  1  0.66456670  -0.00669290  0.25073588  1
  In  In84  1  0.16757761  0.16777949  -0.00816559  1
  In  In85  1  0.16654899  0.83337482  0.49312615  1
  Cu  Cu86  1  0.16681227  0.83135785  0.73875253  1
  Cu  Cu87  1  0.83073961  0.82563013  0.74875213  1
  Cu  Cu88  1  0.66757914  0.33508769  0.50959912  1
  Cu  Cu89  1  0.17084770  0.17250630  0.74632574  1
  Cu  Cu90  1  0.50287206  0.49657247  0.74043364  1
  Cu  Cu91  1  0.00232535  0.33706177  0.50328932  1
  Cu  Cu92  1  0.17267886  0.83195570  0.25552999  1
  Cu  Cu93  1  0.33598487  0.32938479  -0.00625794  1
  Cu  Cu94  1  0.50266405  0.83633058  0.25632775  1
  Cu  Cu95  1  -0.00233564  0.66404387  0.50063046  1
  Cu  Cu96  1  0.17092687  0.16817931  0.25470398  1
  Cu  Cu97  1  0.50017481  0.83080902  0.74360914  1
  Cu  Cu98  1  0.83561924  0.82696601  0.25665595  1
  Cu  Cu99  1  0.83839359  0.50772126  0.74709132  1
  Cu  Cu100  1  -0.00337378  -0.00327748  0.00342156  1
  Cu  Cu101  1  0.32982618  0.00288369  0.50169647  1
  Cu  Cu102  1  0.65962675  -0.00113451  0.50071094  1
  Cu  Cu103  1  0.34188890  0.01040617  -0.00031877  1
  Cu  Cu104  1  0.83396766  0.50323740  0.25145174  1
  Cu  Cu105  1  0.32733341  0.32822154  0.50285428  1
  Cu  Cu106  1  0.66332791  0.33400162  -0.00616392  1
  Cu  Cu107  1  -0.00353101  0.00680485  0.49812692  1
  Cu  Cu108  1  0.67267147  0.66416034  -0.00218388  1
  Cu  Cu109  1  0.84437986  0.16439546  0.24943046  1
  Cu  Cu110  1  0.49938205  0.50593657  0.25737006  1
  Cu  Cu111  1  0.49221344  0.16990687  0.25431250  1
  Cu  Cu112  1  -0.01359957  0.65801997  -0.00604159  1
  Cu  Cu113  1  0.33633901  0.67513021  -0.00351496  1
  Cu  Cu114  1  0.16587842  0.50215486  0.74604679  1
  Se  Se115  1  0.08281691  0.07529460  0.05825855  1
  Se  Se116  1  0.08016853  0.09102727  0.54803618  1
  Se  Se117  1  0.07405172  0.40676782  0.06055038  1
  Se  Se118  1  0.08761723  0.42007058  0.55571612  1
  Se  Se119  1  0.06924492  0.73409677  0.05751148  1
  Se  Se120  1  0.08019209  0.74601754  0.55864074  1
  Se  Se121  1  0.42029316  0.09467127  0.05457462  1
  Se  Se122  1  0.41257809  0.08538906  0.55703727  1
  Se  Se123  1  0.40682627  0.41450897  0.05779581  1
  Se  Se124  1  0.41047256  0.40635729  0.56403624  1
  Se  Se125  1  0.41443350  0.75236904  0.05896063  1
  Se  Se126  1  0.42483807  0.74238568  0.54273258  1
  Se  Se127  1  0.74239082  0.07783754  0.06079561  1
  Se  Se128  1  0.73822149  0.07729964  0.56449624  1
  Se  Se129  1  0.74312463  0.41617950  0.05060491  1
  Se  Se130  1  0.75607292  0.41608345  0.55701562  1
  Se  Se131  1  0.75221078  0.74788359  0.05386252  1
  Se  Se132  1  0.76859669  0.76634152  0.55493698  1
  Se  Se133  1  0.25216138  0.25704884  0.05713586  1
  Se  Se134  1  0.24540168  0.24612327  0.55877208  1
  Se  Se135  1  0.25979990  0.59518784  0.05916998  1
  Se  Se136  1  0.25253828  0.57917882  0.54302074  1
  Se  Se137  1  0.26250079  0.92927749  0.06043692  1
  Se  Se138  1  0.25278955  0.91732219  0.56083780  1
  Se  Se139  1  0.57609910  0.25341269  0.04507222  1
  Se  Se140  1  0.58278110  0.24799309  0.55556091  1
  Se  Se141  1  0.58468552  0.59373508  0.05990082  1
  Se  Se142  1  0.59355055  0.58636225  0.55827817  1
  Se  Se143  1  0.58953357  0.92721160  0.06636562  1
  Se  Se144  1  0.57595736  0.91276949  0.55035296  1
  Se  Se145  1  0.92109071  0.25150537  0.05927684  1
  Se  Se146  1  0.91967301  0.25802623  0.56394124  1
  Se  Se147  1  0.90997648  0.57399533  0.05192120  1
  Se  Se148  1  0.91454990  0.58344672  0.55659999  1
  Se  Se149  1  0.91494063  0.91052510  0.05401275  1
  Se  Se150  1  0.91271445  0.91983060  0.54548895  1
  Se  Se151  1  0.08348209  0.25099076  0.45011389  1
  Se  Se152  1  0.07257414  0.26512585  0.94569971  1
  Se  Se153  1  0.08460185  0.58022513  0.45188217  1
  Se  Se154  1  0.07892052  0.58827372  0.93715878  1
  Se  Se155  1  0.07628248  0.92773659  0.43600312  1
  Se  Se156  1  0.07664674  0.91662736  0.94243654  1
  Se  Se157  1  0.41616149  0.24612627  0.45325210  1
  Se  Se158  1  0.41800002  0.24800841  0.93917595  1
  Se  Se159  1  0.41336138  0.57681891  0.43040589  1
  Se  Se160  1  0.41069824  0.58805317  0.93941972  1
  Se  Se161  1  0.41354186  0.91756851  0.45048207  1
  Se  Se162  1  0.41089640  0.92189884  0.93751527  1
  Se  Se163  1  0.74399053  0.25919001  0.44056995  1
  Se  Se164  1  0.74542867  0.25725898  0.93243834  1
  Se  Se165  1  0.75393477  0.57595432  0.45646925  1
  Se  Se166  1  0.75119037  0.57737774  0.94427989  1
  Se  Se167  1  0.74737649  0.91986130  0.44774179  1
  Se  Se168  1  0.74508057  0.91012984  0.95601285  1
  Se  Se169  1  0.24464691  0.08664090  0.45103554  1
  Se  Se170  1  0.25793201  0.07757220  0.93455069  1
  Se  Se171  1  0.25076104  0.41555766  0.44752060  1
  Se  Se172  1  0.25456384  0.41581968  0.94116446  1
  Se  Se173  1  0.26030496  0.74128918  0.44115083  1
  Se  Se174  1  0.25176120  0.75078970  0.93831438  1
  Se  Se175  1  0.57791103  0.08937844  0.45390822  1
  Se  Se176  1  0.59497902  0.07395514  0.94543995  1
  Se  Se177  1  0.58806476  0.40942898  0.44314143  1
  Se  Se178  1  0.58674632  0.41184520  0.92920387  1
  Se  Se179  1  0.57279188  0.74820104  0.45571726  1
  Se  Se180  1  0.58517308  0.73752009  0.93821422  1
  Se  Se181  1  0.91707290  0.08678362  0.43539794  1
  Se  Se182  1  0.92477212  0.07733455  0.93821338  1
  Se  Se183  1  0.91378887  0.41926988  0.45410103  1
  Se  Se184  1  0.91106055  0.41502445  0.94641581  1
  Se  Se185  1  0.91640174  0.75160112  0.44986729  1
  Se  Se186  1  0.90955607  0.75002769  0.94392299  1
  Se  Se187  1  0.25090324  0.25098177  0.31128877  1
  Se  Se188  1  0.25134186  0.25915337  0.79987402  1
  Se  Se189  1  0.24757523  0.57917172  0.29831480  1
  Se  Se190  1  0.25237607  0.58682909  0.79755543  1
  Se  Se191  1  0.25665018  0.91825052  0.30541219  1
  Se  Se192  1  0.24701281  0.91629272  0.79308265  1
  Se  Se193  1  0.57988258  0.24843297  0.31058262  1
  Se  Se194  1  0.58174087  0.23975129  0.79564319  1
  Se  Se195  1  0.58753567  0.58822147  0.30496222  1
  Se  Se196  1  0.58408436  0.58290347  0.79470526  1
  Se  Se197  1  0.58136044  0.91284086  0.32068998  1
  Se  Se198  1  0.57236567  0.90708430  0.81310014  1
  Se  Se199  1  0.92018391  0.25445929  0.30165545  1
  Se  Se200  1  0.91488040  0.25187414  0.79475962  1
  Se  Se201  1  0.91187887  0.57740420  0.31806742  1
  Se  Se202  1  0.92043321  0.59032918  0.80326566  1
  Se  Se203  1  0.91982890  0.91708831  0.30102697  1
  Se  Se204  1  0.90763610  0.91364472  0.80721219  1
  Se  Se205  1  0.08413066  0.08232870  0.30367088  1
  Se  Se206  1  0.09236716  0.09602197  0.81278028  1
  Se  Se207  1  0.07547808  0.40944452  0.30781032  1
  Se  Se208  1  0.08347195  0.42252557  0.80429702  1
  Se  Se209  1  0.09498952  0.75205799  0.31749181  1
  Se  Se210  1  0.08317470  0.75370461  0.79689000  1
  Se  Se211  1  0.41447400  0.08487861  0.31008441  1
  Se  Se212  1  0.39982145  0.06370355  0.79958385  1
  Se  Se213  1  0.41914921  0.41238073  0.30136740  1
  Se  Se214  1  0.41848722  0.41738183  0.79780976  1
  Se  Se215  1  0.41736531  0.74953622  0.30439088  1
  Se  Se216  1  0.41319483  0.74695484  0.79630587  1
  Se  Se217  1  0.75683717  0.08989271  0.30727498  1
  Se  Se218  1  0.76205365  0.08662516  0.80906887  1
  Se  Se219  1  0.75275509  0.42239099  0.31249028  1
  Se  Se220  1  0.75181430  0.42109865  0.79689058  1
  Se  Se221  1  0.75127711  0.74912043  0.31234749  1
  Se  Se222  1  0.74464211  0.74658785  0.80325690  1
  Se  Se223  1  0.25439330  0.08457009  0.19984239  1
  Se  Se224  1  0.24743028  0.08162344  0.69561235  1
  Se  Se225  1  0.25775436  0.40924436  0.20159417  1
  Se  Se226  1  0.25243436  0.41935444  0.69525195  1
  Se  Se227  1  0.25377847  0.74956125  0.19963423  1
  Se  Se228  1  0.25071873  0.74606823  0.68768627  1
  Se  Se229  1  0.58037917  0.09643760  0.19479524  1
  Se  Se230  1  0.57359510  0.08157666  0.69202273  1
  Se  Se231  1  0.57413327  0.42952222  0.18786629  1
  Se  Se232  1  0.58913951  0.41121336  0.69360558  1
  Se  Se233  1  0.58814529  0.75312384  0.20421821  1
  Se  Se234  1  0.58607311  0.74775320  0.69324904  1
  Se  Se235  1  0.92385010  0.07508379  0.19914787  1
  Se  Se236  1  0.91179842  0.08919417  0.69146695  1
  Se  Se237  1  0.91325147  0.41737352  0.19754524  1
  Se  Se238  1  0.92129757  0.42041668  0.69695455  1
  Se  Se239  1  0.91679532  0.74785048  0.19445162  1
  Se  Se240  1  0.91961747  0.74785243  0.69657351  1
  Se  Se241  1  0.08597950  0.24631018  0.19755886  1
  Se  Se242  1  0.08318444  0.25608611  0.69827418  1
  Se  Se243  1  0.09458326  0.56928573  0.19369978  1
  Se  Se244  1  0.08381576  0.58676653  0.69290868  1
  Se  Se245  1  0.08632971  0.91039918  0.20003421  1
  Se  Se246  1  0.08414285  0.91274977  0.68094484  1
  Se  Se247  1  0.41437961  0.25489697  0.19787262  1
  Se  Se248  1  0.41303521  0.24887721  0.70163004  1
  Se  Se249  1  0.41656629  0.58854377  0.20071699  1
  Se  Se250  1  0.41850618  0.58243876  0.69034085  1
  Se  Se251  1  0.42121660  0.92232482  0.20286518  1
  Se  Se252  1  0.41349969  0.90977420  0.69078144  1
  Se  Se253  1  0.75996520  0.24152108  0.18935958  1
  Se  Se254  1  0.75791418  0.24032836  0.70201230  1
  Se  Se255  1  0.75009713  0.58792244  0.20013294  1
  Se  Se256  1  0.75017297  0.58741003  0.69565640  1
  Se  Se257  1  0.75972919  0.90688800  0.19141783  1
  Se  Se258  1  0.75113570  0.90809127  0.68937227  1
