# generated using pymatgen
data_In86Cu29Se144
_symmetry_space_group_name_H-M   'P 1'
_cell_length_a   17.59942047
_cell_length_b   17.59615908
_cell_length_c   23.44956005
_cell_angle_alpha   90.00592228
_cell_angle_beta   90.01578861
_cell_angle_gamma   89.97550810
_symmetry_Int_Tables_number   1
_chemical_formula_structural   In86Cu29Se144
_chemical_formula_sum   'In86 Cu29 Se144'
_cell_volume   7261.91042052
_cell_formula_units_Z   1
loop_
 _symmetry_equiv_pos_site_id
 _symmetry_equiv_pos_as_xyz
  1  'x, y, z'
loop_
 _atom_site_type_symbol
 _atom_site_label
 _atom_site_symmetry_multiplicity
 _atom_site_fract_x
 _atom_site_fract_y
 _atom_site_fract_z
 _atom_site_occupancy
  In  In0  1  -0.00197804  0.16381387  0.12378138  1
  In  In1  1  0.00598618  0.16887732  0.62382306  1
  In  In2  1  0.00920714  0.49150428  0.13611312  1
  In  In3  1  0.02035536  0.52819721  0.59079972  1
  In  In4  1  0.00089544  0.83187775  0.12672496  1
  In  In5  1  -0.00555712  0.81422544  0.62302106  1
  In  In6  1  0.35102426  0.19897754  0.10600472  1
  In  In7  1  0.34555286  0.15813455  0.62872632  1
  In  In8  1  0.31397200  0.47943178  0.10430283  1
  In  In9  1  0.33190099  0.49704798  0.61916150  1
  In  In10  1  0.33929109  0.82811071  0.10956074  1
  In  In11  1  0.32875675  0.83034018  0.61954004  1
  In  In12  1  0.67178448  0.16673615  0.12035724  1
  In  In13  1  0.65237736  0.16801950  0.62916541  1
  In  In14  1  0.65952640  0.50405696  0.13593344  1
  In  In15  1  0.66308838  0.49372815  0.61251468  1
  In  In16  1  0.65925224  0.82605231  0.11274129  1
  In  In17  1  0.66837368  0.84791783  0.62967962  1
  In  In18  1  0.15965435  0.00006919  0.36851858  1
  In  In19  1  0.16755002  -0.00319390  0.88556431  1
  In  In20  1  0.17470931  0.34429444  0.36570314  1
  In  In21  1  0.16879036  0.33725647  0.89177799  1
  In  In22  1  0.15861548  0.67086629  0.38200868  1
  In  In23  1  0.15893115  0.67048753  0.88443615  1
  In  In24  1  0.50102878  0.00106613  0.37957461  1
  In  In25  1  0.50467946  0.00740196  0.88152637  1
  In  In26  1  0.49844577  0.33489181  0.36772169  1
  In  In27  1  0.49383394  0.33718909  0.89432535  1
  In  In28  1  0.50489959  0.66133422  0.37655824  1
  In  In29  1  0.48989243  0.66803363  0.88825966  1
  In  In30  1  0.84053095  -0.01099714  0.37052137  1
  In  In31  1  0.81240643  0.01500614  0.89583735  1
  In  In32  1  0.84373260  0.34165708  0.36221357  1
  In  In33  1  0.82219131  0.32752209  0.88127644  1
  In  In34  1  0.82982838  0.66487288  0.36743392  1
  In  In35  1  0.85174993  0.66957654  0.87031879  1
  In  In36  1  0.00289423  0.16259957  0.35897974  1
  In  In37  1  -0.00224250  0.16387554  0.88823024  1
  In  In38  1  0.00201720  0.50578099  0.37234171  1
  In  In39  1  0.00319545  0.51373187  0.87351718  1
  In  In40  1  0.00312342  0.83402163  0.36943527  1
  In  In41  1  0.00432418  0.82525576  0.88135655  1
  In  In42  1  0.34150877  0.18032764  0.36491811  1
  In  In43  1  0.34030115  0.16513057  0.89468363  1
  In  In44  1  0.33843803  0.49645962  0.37929412  1
  In  In45  1  0.32678584  0.50531390  0.89814658  1
  In  In46  1  0.33974746  0.82973321  0.37767169  1
  In  In47  1  0.32613185  0.82868368  0.88799602  1
  In  In48  1  0.64763131  0.17039693  0.36919182  1
  In  In49  1  0.66206522  0.16492364  0.89006628  1
  In  In50  1  0.66256198  0.50069624  0.36658071  1
  In  In51  1  0.66366095  0.49295572  0.87530628  1
  In  In52  1  0.66682159  0.82343465  0.37299330  1
  In  In53  1  0.64645129  0.86079476  0.89519343  1
  In  In54  1  0.16258091  -0.00563333  0.12136347  1
  In  In55  1  0.18079189  -0.00091256  0.62444552  1
  In  In56  1  0.16280313  0.33188626  0.12546626  1
  In  In57  1  0.15988676  0.34457077  0.62651524  1
  In  In58  1  0.16571015  0.65655282  0.11907976  1
  In  In59  1  0.15810853  0.66273592  0.61533272  1
  In  In60  1  0.51167002  0.00147729  0.11104880  1
  In  In61  1  0.50662481  0.00816592  0.62130640  1
  In  In62  1  0.49742199  0.33533654  0.13329701  1
  In  In63  1  0.50088670  0.33089847  0.61681313  1
  In  In64  1  0.50351429  0.66714271  0.11861168  1
  In  In65  1  0.49582921  0.66435905  0.61702834  1
  In  In66  1  0.83542040  0.00791119  0.11313548  1
  In  In67  1  0.82863921  -0.01776145  0.63281952  1
  In  In68  1  0.84149944  0.32672316  0.13482933  1
  In  In69  1  0.82059559  0.33881003  0.62149980  1
  In  In70  1  0.82837769  0.67051591  0.13237415  1
  In  In71  1  0.84726339  0.66713491  0.62420743  1
  In  In72  1  0.18009863  0.17203364  0.49140531  1
  In  In73  1  -0.00403800  -0.01014902  0.75380480  1
  In  In74  1  0.33439304  0.66054103  0.24022123  1
  In  In75  1  0.33630248  0.33723031  0.75065745  1
  In  In76  1  0.66301096  0.33064435  0.75888377  1
  In  In77  1  0.33344364  0.00544896  0.23620612  1
  In  In78  1  -0.00537702  0.34181473  0.75596608  1
  In  In79  1  0.33978824  -0.00552941  0.76782430  1
  In  In80  1  0.83014292  0.82427224  0.49656697  1
  In  In81  1  0.67019319  0.67239454  0.75208349  1
  In  In82  1  0.32855267  0.66357223  0.76493206  1
  In  In83  1  0.83539097  0.49840967  -0.00116121  1
  In  In84  1  0.67201019  0.00364232  0.23925638  1
  In  In85  1  0.82858549  0.16920907  0.49910237  1
  Cu  Cu86  1  0.49652547  0.49884438  0.75317318  1
  Cu  Cu87  1  0.33797133  0.33101246  0.49709521  1
  Cu  Cu88  1  0.82723334  0.83637535  0.75968621  1
  Cu  Cu89  1  0.17153799  0.16998851  0.76159231  1
  Cu  Cu90  1  0.49361466  0.49718731  0.24847052  1
  Cu  Cu91  1  0.16614470  0.83252937  0.24872732  1
  Cu  Cu92  1  0.84221339  0.50516563  0.74037648  1
  Cu  Cu93  1  0.34033989  -0.00277113  0.50007210  1
  Cu  Cu94  1  0.16420851  0.16865642  0.23930397  1
  Cu  Cu95  1  0.83274592  0.16283847  0.24261647  1
  Cu  Cu96  1  0.82668224  0.15383978  0.75882075  1
  Cu  Cu97  1  0.66264691  0.33616175  0.48976373  1
  Cu  Cu98  1  0.16660211  0.50217818  0.24801654  1
  Cu  Cu99  1  0.15528902  0.81913753  0.75075330  1
  Cu  Cu100  1  0.50816162  0.83180396  0.24271053  1
  Cu  Cu101  1  0.83913061  0.83245094  0.24696081  1
  Cu  Cu102  1  0.67313056  0.66672695  0.00328995  1
  Cu  Cu103  1  0.66185534  0.66463715  0.49437441  1
  Cu  Cu104  1  0.00014577  0.34011563  0.48910637  1
  Cu  Cu105  1  0.83270115  0.50262186  0.24988786  1
  Cu  Cu106  1  0.00150898  0.66286662  0.00552762  1
  Cu  Cu107  1  0.50253812  0.84279172  0.75274462  1
  Cu  Cu108  1  0.32530560  0.00226662  0.00366648  1
  Cu  Cu109  1  0.33198142  0.66883578  0.49683281  1
  Cu  Cu110  1  0.00583529  -0.00369992  0.49401389  1
  Cu  Cu111  1  0.65963135  0.00379799  0.50358263  1
  Cu  Cu112  1  0.66750694  0.33378891  0.00825067  1
  Cu  Cu113  1  -0.00057218  0.33207864  0.00909430  1
  Cu  Cu114  1  -0.00018795  -0.00606116  0.00109718  1
  Se  Se115  1  0.08005581  0.08037588  0.05414015  1
  Se  Se116  1  0.08492698  0.08016423  0.55321698  1
  Se  Se117  1  0.08198298  0.42071147  0.05616197  1
  Se  Se118  1  0.09067159  0.41291796  0.54470747  1
  Se  Se119  1  0.08388606  0.74862867  0.05704241  1
  Se  Se120  1  0.08963157  0.76230939  0.55176357  1
  Se  Se121  1  0.41246077  0.08217529  0.05500616  1
  Se  Se122  1  0.41931150  0.08588333  0.55132147  1
  Se  Se123  1  0.43178545  0.42199351  0.05679898  1
  Se  Se124  1  0.41845580  0.41691378  0.55250514  1
  Se  Se125  1  0.43645100  0.75879189  0.04754510  1
  Se  Se126  1  0.41516481  0.75173706  0.55202149  1
  Se  Se127  1  0.72921320  0.06673275  0.05169894  1
  Se  Se128  1  0.74809629  0.07444818  0.56373415  1
  Se  Se129  1  0.75065342  0.41440282  0.06645981  1
  Se  Se130  1  0.74947345  0.41516465  0.54409109  1
  Se  Se131  1  0.75946342  0.74811997  0.05357259  1
  Se  Se132  1  0.73774922  0.74211586  0.56256498  1
  Se  Se133  1  0.23333519  0.24619078  0.05185113  1
  Se  Se134  1  0.25940691  0.25626899  0.56549481  1
  Se  Se135  1  0.27042652  0.60254228  0.05310385  1
  Se  Se136  1  0.25310007  0.58442099  0.55319768  1
  Se  Se137  1  0.24517937  0.91166303  0.05175901  1
  Se  Se138  1  0.25086903  0.91772927  0.55022817  1
  Se  Se139  1  0.58156250  0.25413710  0.06133912  1
  Se  Se140  1  0.58969583  0.25138901  0.55089552  1
  Se  Se141  1  0.59290743  0.58057999  0.05552167  1
  Se  Se142  1  0.57896021  0.58120254  0.55003318  1
  Se  Se143  1  0.58540745  0.91331779  0.04385476  1
  Se  Se144  1  0.58165414  0.91390087  0.55537752  1
  Se  Se145  1  0.91145746  0.24882233  0.05625929  1
  Se  Se146  1  0.92667240  0.26021446  0.55553759  1
  Se  Se147  1  0.92088400  0.58198142  0.06579863  1
  Se  Se148  1  0.89529763  0.57508560  0.54835953  1
  Se  Se149  1  0.91789842  0.91164967  0.05503800  1
  Se  Se150  1  0.92045777  0.92206661  0.55529816  1
  Se  Se151  1  0.07827665  0.25154606  0.43383336  1
  Se  Se152  1  0.08130777  0.24898161  0.95219317  1
  Se  Se153  1  0.09046780  0.57281827  0.44589982  1
  Se  Se154  1  0.08313681  0.57793004  0.95234123  1
  Se  Se155  1  0.08757190  0.91414436  0.44043983  1
  Se  Se156  1  0.08516567  0.91003006  0.94965783  1
  Se  Se157  1  0.42011568  0.24990137  0.44195972  1
  Se  Se158  1  0.40839104  0.25907217  0.96074495  1
  Se  Se159  1  0.41673710  0.58582222  0.44519118  1
  Se  Se160  1  0.43601447  0.56575615  0.95401590  1
  Se  Se161  1  0.42233020  0.91278582  0.44558875  1
  Se  Se162  1  0.40803169  0.92681566  0.94247102  1
  Se  Se163  1  0.74650775  0.25545328  0.43219520  1
  Se  Se164  1  0.75055755  0.24849017  0.95563606  1
  Se  Se165  1  0.74390922  0.58665338  0.43643965  1
  Se  Se166  1  0.74879767  0.58997929  0.93596279  1
  Se  Se167  1  0.74088133  0.92569796  0.44261930  1
  Se  Se168  1  0.76710137  0.89759530  0.95059262  1
  Se  Se169  1  0.26443995  0.07495648  0.43280350  1
  Se  Se170  1  0.24116760  0.08755828  0.95243360  1
  Se  Se171  1  0.25172288  0.41208405  0.44540479  1
  Se  Se172  1  0.25313151  0.41148726  0.96133389  1
  Se  Se173  1  0.25053251  0.75335221  0.44401717  1
  Se  Se174  1  0.25723848  0.73341138  0.95205332  1
  Se  Se175  1  0.58196422  0.08774209  0.44687295  1
  Se  Se176  1  0.57272115  0.09053614  0.95700739  1
  Se  Se177  1  0.57965812  0.41929712  0.43759214  1
  Se  Se178  1  0.59084193  0.41942775  0.95212381  1
  Se  Se179  1  0.58032922  0.75315480  0.44488713  1
  Se  Se180  1  0.58763053  0.74459648  0.94729508  1
  Se  Se181  1  0.92415420  0.07969346  0.43945511  1
  Se  Se182  1  0.91407371  0.08483456  0.95632286  1
  Se  Se183  1  0.91341610  0.42122217  0.43909568  1
  Se  Se184  1  0.92692678  0.40769762  0.93806061  1
  Se  Se185  1  0.92449481  0.74039208  0.43913178  1
  Se  Se186  1  0.91888904  0.74444649  0.95061641  1
  Se  Se187  1  0.24372487  0.24679540  0.29969803  1
  Se  Se188  1  0.25205325  0.24916824  0.81846941  1
  Se  Se189  1  0.24689852  0.58126927  0.30935354  1
  Se  Se190  1  0.23966681  0.57014769  0.81841103  1
  Se  Se191  1  0.25330029  0.91146491  0.30395974  1
  Se  Se192  1  0.23498415  0.90047220  0.81050320  1
  Se  Se193  1  0.57819144  0.25230682  0.29662674  1
  Se  Se194  1  0.57141136  0.24951416  0.82016230  1
  Se  Se195  1  0.57652186  0.58555002  0.29877599  1
  Se  Se196  1  0.57572906  0.58234310  0.81032433  1
  Se  Se197  1  0.58193811  0.91499423  0.30465464  1
  Se  Se198  1  0.58233394  0.92535416  0.80792570  1
  Se  Se199  1  0.91662142  0.24677424  0.29623904  1
  Se  Se200  1  0.90789504  0.23944762  0.81164519  1
  Se  Se201  1  0.91848608  0.58601400  0.30111282  1
  Se  Se202  1  0.92315632  0.58544480  0.79693122  1
  Se  Se203  1  0.92273632  0.91712698  0.29806340  1
  Se  Se204  1  0.90643818  0.91535410  0.82178572  1
  Se  Se205  1  0.08719068  0.07898730  0.29303904  1
  Se  Se206  1  0.08603044  0.08614569  0.81271277  1
  Se  Se207  1  0.08099957  0.41921416  0.30119371  1
  Se  Se208  1  0.09438523  0.42113166  0.81282651  1
  Se  Se209  1  0.08678523  0.74803527  0.30338731  1
  Se  Se210  1  0.07531491  0.73896360  0.80702936  1
  Se  Se211  1  0.42495723  0.08421434  0.30314789  1
  Se  Se212  1  0.42307820  0.10088751  0.81269383  1
  Se  Se213  1  0.40804445  0.41702006  0.30209531  1
  Se  Se214  1  0.41850902  0.42585293  0.81764191  1
  Se  Se215  1  0.42375867  0.75400929  0.30127489  1
  Se  Se216  1  0.42402489  0.76286788  0.81241360  1
  Se  Se217  1  0.75668702  0.08771838  0.31125242  1
  Se  Se218  1  0.73880765  0.08317366  0.81474594  1
  Se  Se219  1  0.74740177  0.41664717  0.29924089  1
  Se  Se220  1  0.76558341  0.42706869  0.80479766  1
  Se  Se221  1  0.75060794  0.75377167  0.29970428  1
  Se  Se222  1  0.74761973  0.75830923  0.82110166  1
  Se  Se223  1  0.24780921  0.09691593  0.17705139  1
  Se  Se224  1  0.24927321  0.08815802  0.70183758  1
  Se  Se225  1  0.24760341  0.41960882  0.19190383  1
  Se  Se226  1  0.24170097  0.42902072  0.69665867  1
  Se  Se227  1  0.24815970  0.75974836  0.18633376  1
  Se  Se228  1  0.24698672  0.74864105  0.69423289  1
  Se  Se229  1  0.57212446  0.09064776  0.19012853  1
  Se  Se230  1  0.58175290  0.08081829  0.69802781  1
  Se  Se231  1  0.58501212  0.41380041  0.20344246  1
  Se  Se232  1  0.57821050  0.42172030  0.69314749  1
  Se  Se233  1  0.58811498  0.74669637  0.19024262  1
  Se  Se234  1  0.57275138  0.75558758  0.69159621  1
  Se  Se235  1  0.91452385  0.07689951  0.19164023  1
  Se  Se236  1  0.91122887  0.08878901  0.69134449  1
  Se  Se237  1  0.91833385  0.41554978  0.20214569  1
  Se  Se238  1  0.91688174  0.42099459  0.68153478  1
  Se  Se239  1  0.92238710  0.74589258  0.19735164  1
  Se  Se240  1  0.90714567  0.75599496  0.70111253  1
  Se  Se241  1  0.07477740  0.25227729  0.19358204  1
  Se  Se242  1  0.09139489  0.24471633  0.69875106  1
  Se  Se243  1  0.08530727  0.58962095  0.19757147  1
  Se  Se244  1  0.07938203  0.57862485  0.68353075  1
  Se  Se245  1  0.08424483  0.91688431  0.19571784  1
  Se  Se246  1  0.08952101  0.91006820  0.68892190  1
  Se  Se247  1  0.40483001  0.25609821  0.19752009  1
  Se  Se248  1  0.43015313  0.24559690  0.69555464  1
  Se  Se249  1  0.41823834  0.56941845  0.17977537  1
  Se  Se250  1  0.41779799  0.58036706  0.69435807  1
  Se  Se251  1  0.42729536  0.91018616  0.18353027  1
  Se  Se252  1  0.41591807  0.91346692  0.69121866  1
  Se  Se253  1  0.74575823  0.24720275  0.19596936  1
  Se  Se254  1  0.75653365  0.24237779  0.69618377  1
  Se  Se255  1  0.74717628  0.58694744  0.20059533  1
  Se  Se256  1  0.74780113  0.57648043  0.68697834  1
  Se  Se257  1  0.75611232  0.90681830  0.18333862  1
  Se  Se258  1  0.74273085  0.92024295  0.70867775  1
