# generated using pymatgen
data_In86Cu29Se144
_symmetry_space_group_name_H-M   'P 1'
_cell_length_a   17.57422493
_cell_length_b   17.57559144
_cell_length_c   23.43020466
_cell_angle_alpha   90.00571312
_cell_angle_beta   89.99715581
_cell_angle_gamma   89.97339824
_symmetry_Int_Tables_number   1
_chemical_formula_structural   In86Cu29Se144
_chemical_formula_sum   'In86 Cu29 Se144'
_cell_volume   7237.05980549
_cell_formula_units_Z   1
loop_
 _symmetry_equiv_pos_site_id
 _symmetry_equiv_pos_as_xyz
  1  'x, y, z'
loop_
 _atom_site_type_symbol
 _atom_site_label
 _atom_site_symmetry_multiplicity
 _atom_site_fract_x
 _atom_site_fract_y
 _atom_site_fract_z
 _atom_site_occupancy
  In  In0  1  -0.01267990  0.16697494  0.12400092  1
  In  In1  1  -0.01059153  0.17665256  0.63399012  1
  In  In2  1  -0.00281673  0.49812515  0.10946769  1
  In  In3  1  -0.00646797  0.49534091  0.63152481  1
  In  In4  1  0.01280826  0.83163366  0.12258313  1
  In  In5  1  -0.00294861  0.83853368  0.63331595  1
  In  In6  1  0.34421226  0.16209578  0.13027139  1
  In  In7  1  0.34097375  0.16030678  0.61791916  1
  In  In8  1  0.33648150  0.49913107  0.12778637  1
  In  In9  1  0.32546016  0.50077718  0.62331699  1
  In  In10  1  0.32443741  0.83741794  0.13198854  1
  In  In11  1  0.34983378  0.83058819  0.62061144  1
  In  In12  1  0.67508809  0.18375380  0.12245165  1
  In  In13  1  0.69100310  0.18849581  0.59227744  1
  In  In14  1  0.66627199  0.49866389  0.12463062  1
  In  In15  1  0.70026782  0.47713968  0.65554081  1
  In  In16  1  0.65520399  0.82647813  0.12636494  1
  In  In17  1  0.65434031  0.82373717  0.62646590  1
  In  In18  1  0.16491905  -0.00030721  0.36746902  1
  In  In19  1  0.14855657  -0.00056338  0.87741318  1
  In  In20  1  0.17740307  0.33140260  0.37392715  1
  In  In21  1  0.16326876  0.36312500  0.87960719  1
  In  In22  1  0.16302060  0.65171863  0.37537580  1
  In  In23  1  0.16730433  0.66542914  0.88066952  1
  In  In24  1  0.49371256  0.00710682  0.37901126  1
  In  In25  1  0.51082896  0.01135322  0.87621047  1
  In  In26  1  0.49918480  0.33294696  0.37100931  1
  In  In27  1  0.50249616  0.32872202  0.88341722  1
  In  In28  1  0.50120018  0.66703631  0.37135351  1
  In  In29  1  0.48993317  0.66099412  0.87352706  1
  In  In30  1  0.84274036  0.00827270  0.37639103  1
  In  In31  1  0.84290767  0.00343126  0.87337900  1
  In  In32  1  0.82203752  0.33780454  0.38776225  1
  In  In33  1  0.82638007  0.34100036  0.86892981  1
  In  In34  1  0.82169806  0.66476308  0.37708958  1
  In  In35  1  0.82378090  0.63504852  0.84807757  1
  In  In36  1  -0.00407758  0.15689474  0.37896380  1
  In  In37  1  -0.01545776  0.16376281  0.86896145  1
  In  In38  1  -0.00311215  0.49640469  0.38754393  1
  In  In39  1  0.00055253  0.49644279  0.86535462  1
  In  In40  1  -0.00935710  0.84835022  0.37861806  1
  In  In41  1  0.00417435  0.83222521  0.87159235  1
  In  In42  1  0.34469281  0.17396130  0.36358068  1
  In  In43  1  0.34443488  0.17956123  0.88331406  1
  In  In44  1  0.32699438  0.49016959  0.36593664  1
  In  In45  1  0.32845385  0.50108050  0.89031463  1
  In  In46  1  0.34015098  0.84025661  0.36627329  1
  In  In47  1  0.32702004  0.81930705  0.87880316  1
  In  In48  1  0.65144030  0.17865700  0.39352147  1
  In  In49  1  0.65884284  0.18339348  0.88013533  1
  In  In50  1  0.66710379  0.49821446  0.37383516  1
  In  In51  1  0.66813204  0.49701840  0.86989719  1
  In  In52  1  0.66525542  0.81198599  0.37609251  1
  In  In53  1  0.67173856  0.83502095  0.86993968  1
  In  In54  1  0.17658127  -0.00662219  0.13085879  1
  In  In55  1  0.16323348  -0.00315436  0.62493812  1
  In  In56  1  0.17169725  0.34877865  0.11944619  1
  In  In57  1  0.15046830  0.33798348  0.63290809  1
  In  In58  1  0.16752649  0.67339608  0.11717595  1
  In  In59  1  0.15875823  0.65051435  0.63202107  1
  In  In60  1  0.48722539  -0.00226241  0.12790067  1
  In  In61  1  0.52068777  0.00765252  0.60313028  1
  In  In62  1  0.50165622  0.34034097  0.12585927  1
  In  In63  1  0.52607749  0.33382089  0.61964398  1
  In  In64  1  0.50864523  0.64999499  0.13149779  1
  In  In65  1  0.51316828  0.67763635  0.62240928  1
  In  In66  1  0.82908177  0.01700539  0.12872831  1
  In  In67  1  0.83459978  0.01248327  0.61948674  1
  In  In68  1  0.82971276  0.32828886  0.11846060  1
  In  In69  1  0.83080712  0.33479552  0.62687943  1
  In  In70  1  0.83496805  0.65193253  0.12284921  1
  In  In71  1  0.84835866  0.65248655  0.64231144  1
  In  In72  1  0.00500712  0.33203730  0.24413069  1
  In  In73  1  0.33575184  -0.00116599  0.73962211  1
  In  In74  1  0.82700377  0.83440662  0.50588651  1
  In  In75  1  0.33056967  0.33323746  0.75520310  1
  In  In76  1  0.84053672  0.83100913  -0.01080678  1
  In  In77  1  0.66607467  0.00003254  0.25965110  1
  In  In78  1  0.16595022  0.83159299  0.49240907  1
  In  In79  1  0.16602491  0.16883616  0.00115537  1
  In  In80  1  0.33371245  0.66680305  0.75280110  1
  In  In81  1  0.49431448  0.83227556  0.00122245  1
  In  In82  1  0.00006848  0.67137458  0.24932884  1
  In  In83  1  0.50931292  0.50033109  0.49948025  1
  In  In84  1  0.66630538  0.00086708  0.73896688  1
  In  In85  1  0.16634892  0.17309923  0.50127914  1
  Cu  Cu86  1  0.50261398  0.50224995  0.75234938  1
  Cu  Cu87  1  0.33216388  0.66046969  0.50409134  1
  Cu  Cu88  1  0.32939058  0.66314819  0.00611073  1
  Cu  Cu89  1  0.15771012  0.16826670  0.75782994  1
  Cu  Cu90  1  0.16886693  0.50310349  0.24598732  1
  Cu  Cu91  1  0.16800363  0.83577434  0.74977046  1
  Cu  Cu92  1  0.33696856  0.00015597  0.49173013  1
  Cu  Cu93  1  0.82276093  0.16763570  0.74582394  1
  Cu  Cu94  1  0.50888649  0.16615407  0.25098777  1
  Cu  Cu95  1  0.50509119  0.17190302  0.74813537  1
  Cu  Cu96  1  0.67010257  0.65468082  0.50330504  1
  Cu  Cu97  1  0.83528533  0.17325762  0.24925815  1
  Cu  Cu98  1  0.66869056  0.34255994  -0.00072542  1
  Cu  Cu99  1  0.50307151  0.49868000  0.24933002  1
  Cu  Cu100  1  0.33213683  0.33938453  0.49329861  1
  Cu  Cu101  1  0.66682388  0.01791182  0.00206556  1
  Cu  Cu102  1  0.32879751  -0.00284873  0.00637766  1
  Cu  Cu103  1  0.83243139  0.83705631  0.25686014  1
  Cu  Cu104  1  -0.00370821  0.33551997  -0.00816434  1
  Cu  Cu105  1  0.49623172  0.82220901  0.24795059  1
  Cu  Cu106  1  -0.00421283  0.65780445  -0.01081300  1
  Cu  Cu107  1  -0.00285103  -0.00232144  -0.00316298  1
  Cu  Cu108  1  -0.00648659  0.33791438  0.50916132  1
  Cu  Cu109  1  0.67294911  0.66164465  -0.00431353  1
  Cu  Cu110  1  0.82608844  0.49921645  0.25079538  1
  Cu  Cu111  1  0.83641910  0.83350668  0.75382802  1
  Cu  Cu112  1  0.17164151  0.16447506  0.24943075  1
  Cu  Cu113  1  -0.00391218  0.66260611  0.50863940  1
  Cu  Cu114  1  0.16750262  0.83397049  0.24889714  1
  Se  Se115  1  0.07773360  0.07480115  0.06066701  1
  Se  Se116  1  0.07731657  0.08654668  0.56290254  1
  Se  Se117  1  0.08394024  0.41468439  0.04538764  1
  Se  Se118  1  0.08147376  0.42059491  0.55803187  1
  Se  Se119  1  0.07368246  0.74256549  0.04748335  1
  Se  Se120  1  0.07905611  0.74798467  0.56161974  1
  Se  Se121  1  0.41693096  0.08065318  0.05324161  1
  Se  Se122  1  0.41930840  0.08488060  0.54459127  1
  Se  Se123  1  0.43307051  0.43615634  0.05896907  1
  Se  Se124  1  0.41393268  0.41071778  0.56010786  1
  Se  Se125  1  0.41229544  0.74287643  0.06634186  1
  Se  Se126  1  0.42136017  0.74371903  0.54965142  1
  Se  Se127  1  0.75517023  0.09540024  0.05425865  1
  Se  Se128  1  0.72200223  0.05300848  0.55755491  1
  Se  Se129  1  0.75436074  0.42211690  0.05424428  1
  Se  Se130  1  0.73188997  0.40692282  0.56266995  1
  Se  Se131  1  0.74709091  0.74851755  0.05526658  1
  Se  Se132  1  0.75051781  0.73433579  0.56507888  1
  Se  Se133  1  0.25876477  0.25210214  0.06165500  1
  Se  Se134  1  0.25573856  0.26423625  0.56251071  1
  Se  Se135  1  0.24644416  0.57698334  0.05746813  1
  Se  Se136  1  0.24329941  0.58347544  0.55533643  1
  Se  Se137  1  0.24569332  0.91014965  0.05440939  1
  Se  Se138  1  0.25921923  0.92203960  0.55486791  1
  Se  Se139  1  0.58617747  0.25843424  0.05471341  1
  Se  Se140  1  0.56679388  0.23607099  0.54513789  1
  Se  Se141  1  0.58784724  0.58420354  0.05236838  1
  Se  Se142  1  0.59739862  0.57575702  0.56919807  1
  Se  Se143  1  0.58972508  0.92736138  0.05657149  1
  Se  Se144  1  0.58570532  0.89866818  0.54804702  1
  Se  Se145  1  0.91889869  0.25156894  0.04989445  1
  Se  Se146  1  0.91215973  0.24857116  0.55677663  1
  Se  Se147  1  0.90947615  0.58034093  0.04456622  1
  Se  Se148  1  0.91198521  0.57893965  0.55946369  1
  Se  Se149  1  0.91568639  0.92166794  0.06123750  1
  Se  Se150  1  0.92747024  0.92378781  0.55627684  1
  Se  Se151  1  0.07323102  0.26368070  0.44190912  1
  Se  Se152  1  0.07770072  0.25178264  0.93457889  1
  Se  Se153  1  0.08117429  0.58363160  0.45166060  1
  Se  Se154  1  0.08381932  0.57339020  0.94087005  1
  Se  Se155  1  0.07603828  0.93447896  0.44703279  1
  Se  Se156  1  0.08068808  0.90996860  0.94910713  1
  Se  Se157  1  0.41354536  0.25348209  0.44151861  1
  Se  Se158  1  0.42178915  0.25209744  0.95660885  1
  Se  Se159  1  0.40947513  0.58066465  0.44003437  1
  Se  Se160  1  0.41771719  0.58705779  0.95159733  1
  Se  Se161  1  0.41859187  0.90997764  0.44374444  1
  Se  Se162  1  0.40906634  0.92488744  0.93758591  1
  Se  Se163  1  0.76807936  0.22831549  0.44905167  1
  Se  Se164  1  0.75211951  0.25818521  0.94496918  1
  Se  Se165  1  0.75240426  0.57480551  0.44680336  1
  Se  Se166  1  0.75435146  0.58236548  0.93765789  1
  Se  Se167  1  0.74690326  0.91445651  0.43327311  1
  Se  Se168  1  0.74088280  0.93017837  0.94268185  1
  Se  Se169  1  0.25434780  0.08431314  0.43650653  1
  Se  Se170  1  0.25469354  0.07554704  0.93905336  1
  Se  Se171  1  0.24543842  0.42269944  0.44500942  1
  Se  Se172  1  0.26766303  0.39483748  0.95094434  1
  Se  Se173  1  0.25852816  0.74028992  0.43741434  1
  Se  Se174  1  0.24677402  0.74831122  0.95341228  1
  Se  Se175  1  0.59146934  0.06624272  0.44667959  1
  Se  Se176  1  0.57892853  0.09611058  0.94933198  1
  Se  Se177  1  0.59410407  0.40223839  0.44422606  1
  Se  Se178  1  0.58452776  0.42288282  0.94367512  1
  Se  Se179  1  0.58440150  0.73533835  0.44913141  1
  Se  Se180  1  0.58998438  0.74703594  0.94085948  1
  Se  Se181  1  0.91312814  0.08740214  0.45246234  1
  Se  Se182  1  0.91413700  0.08533488  0.94863507  1
  Se  Se183  1  0.90882473  0.41997610  0.45419839  1
  Se  Se184  1  0.91547734  0.42009572  0.93731927  1
  Se  Se185  1  0.92228365  0.74357961  0.44362230  1
  Se  Se186  1  0.91365819  0.73271970  0.92650622  1
  Se  Se187  1  0.25220699  0.25361457  0.29947613  1
  Se  Se188  1  0.24106271  0.24364046  0.81697445  1
  Se  Se189  1  0.24995693  0.58565186  0.30147213  1
  Se  Se190  1  0.24682807  0.57316442  0.81008663  1
  Se  Se191  1  0.25091278  0.91974374  0.30062589  1
  Se  Se192  1  0.24866681  0.91558991  0.80974485  1
  Se  Se193  1  0.58945587  0.24804268  0.30763683  1
  Se  Se194  1  0.58111665  0.25835632  0.80430530  1
  Se  Se195  1  0.58499757  0.58145403  0.30573665  1
  Se  Se196  1  0.58085920  0.58821820  0.80658363  1
  Se  Se197  1  0.57491891  0.90254658  0.31132439  1
  Se  Se198  1  0.57549518  0.91543341  0.80550259  1
  Se  Se199  1  0.91603173  0.25245024  0.31144626  1
  Se  Se200  1  0.90564363  0.24965527  0.80139538  1
  Se  Se201  1  0.91386645  0.57582520  0.30914772  1
  Se  Se202  1  0.94595959  0.59740878  0.79251990  1
  Se  Se203  1  0.91731531  0.92430859  0.30187080  1
  Se  Se204  1  0.91982422  0.91808929  0.80505675  1
  Se  Se205  1  0.08273184  0.08965395  0.30406912  1
  Se  Se206  1  0.07417041  0.07969492  0.80447382  1
  Se  Se207  1  0.08654214  0.42617849  0.30830246  1
  Se  Se208  1  0.07580144  0.40209989  0.79923969  1
  Se  Se209  1  0.08630848  0.76097891  0.31457359  1
  Se  Se210  1  0.09385109  0.75010620  0.80740627  1
  Se  Se211  1  0.42166617  0.08015926  0.29917577  1
  Se  Se212  1  0.42059570  0.09280676  0.80470159  1
  Se  Se213  1  0.41788275  0.41336731  0.30057494  1
  Se  Se214  1  0.41941280  0.42631799  0.81360293  1
  Se  Se215  1  0.41103083  0.74161060  0.30241868  1
  Se  Se216  1  0.42504287  0.76537468  0.80427912  1
  Se  Se217  1  0.75361547  0.09752053  0.31219611  1
  Se  Se218  1  0.74630916  0.08796116  0.81046104  1
  Se  Se219  1  0.75146223  0.41218710  0.30714431  1
  Se  Se220  1  0.75605621  0.42864083  0.79603192  1
  Se  Se221  1  0.75097767  0.74480347  0.30055172  1
  Se  Se222  1  0.75018297  0.75044415  0.80262431  1
  Se  Se223  1  0.25633507  0.08109444  0.19675810  1
  Se  Se224  1  0.23976480  0.09861519  0.69155203  1
  Se  Se225  1  0.25181760  0.41526171  0.19743698  1
  Se  Se226  1  0.24056355  0.42665598  0.69808186  1
  Se  Se227  1  0.24431467  0.74471750  0.19574708  1
  Se  Se228  1  0.24652603  0.75798811  0.68652967  1
  Se  Se229  1  0.58536379  0.08505167  0.18807279  1
  Se  Se230  1  0.58074080  0.09653411  0.68284402  1
  Se  Se231  1  0.58952119  0.41593962  0.19756159  1
  Se  Se232  1  0.58195826  0.41176450  0.70304353  1
  Se  Se233  1  0.58591305  0.74206843  0.19895768  1
  Se  Se234  1  0.58160822  0.74780148  0.70344123  1
  Se  Se235  1  0.91847819  0.08509730  0.20125644  1
  Se  Se236  1  0.91083571  0.08254318  0.69845414  1
  Se  Se237  1  0.91272700  0.42617237  0.18936092  1
  Se  Se238  1  0.90776372  0.41540690  0.69879561  1
  Se  Se239  1  0.90757391  0.75915077  0.18842962  1
  Se  Se240  1  0.92391646  0.75153366  0.70278115  1
  Se  Se241  1  0.09555343  0.24189843  0.18369526  1
  Se  Se242  1  0.07689112  0.25264828  0.70358381  1
  Se  Se243  1  0.08180334  0.57654695  0.18691342  1
  Se  Se244  1  0.06873893  0.58588269  0.70310464  1
  Se  Se245  1  0.08237194  0.91664868  0.19637125  1
  Se  Se246  1  0.08481774  0.92181590  0.69889060  1
  Se  Se247  1  0.42594426  0.24924469  0.19583270  1
  Se  Se248  1  0.42038233  0.25004835  0.68801703  1
  Se  Se249  1  0.41487949  0.58300502  0.20072968  1
  Se  Se250  1  0.42263674  0.57801909  0.68879476  1
  Se  Se251  1  0.41535586  0.91301993  0.19969977  1
  Se  Se252  1  0.43555757  0.92027128  0.68275149  1
  Se  Se253  1  0.75291951  0.25882544  0.19830572  1
  Se  Se254  1  0.73926874  0.24377765  0.68763272  1
  Se  Se255  1  0.74787809  0.58521087  0.19575045  1
  Se  Se256  1  0.73741869  0.60237765  0.70396412  1
  Se  Se257  1  0.75176186  0.91148007  0.19052273  1
  Se  Se258  1  0.76018433  0.90651138  0.68588569  1
