# generated using pymatgen
data_In86Cu29Se144
_symmetry_space_group_name_H-M   'P 1'
_cell_length_a   17.58060066
_cell_length_b   17.58333448
_cell_length_c   23.44283255
_cell_angle_alpha   90.00944683
_cell_angle_beta   90.00894247
_cell_angle_gamma   89.97043755
_symmetry_Int_Tables_number   1
_chemical_formula_structural   In86Cu29Se144
_chemical_formula_sum   'In86 Cu29 Se144'
_cell_volume   7246.77809743
_cell_formula_units_Z   1
loop_
 _symmetry_equiv_pos_site_id
 _symmetry_equiv_pos_as_xyz
  1  'x, y, z'
loop_
 _atom_site_type_symbol
 _atom_site_label
 _atom_site_symmetry_multiplicity
 _atom_site_fract_x
 _atom_site_fract_y
 _atom_site_fract_z
 _atom_site_occupancy
  In  In0  1  0.01504641  0.17698649  0.12132852  1
  In  In1  1  -0.01298306  0.15883742  0.62837588  1
  In  In2  1  -0.02087078  0.47836550  0.10111551  1
  In  In3  1  0.01294915  0.51243063  0.61970190  1
  In  In4  1  -0.00722477  0.84434664  0.12163873  1
  In  In5  1  0.00222895  0.82843458  0.63389199  1
  In  In6  1  0.33375122  0.16776521  0.11842936  1
  In  In7  1  0.34531202  0.16700971  0.62979109  1
  In  In8  1  0.32939435  0.49261233  0.11469127  1
  In  In9  1  0.30831918  0.52692342  0.65629066  1
  In  In10  1  0.34118419  0.82323541  0.12337893  1
  In  In11  1  0.32429305  0.82078968  0.61703901  1
  In  In12  1  0.65650423  0.17464975  0.13092964  1
  In  In13  1  0.65106480  0.16216570  0.61924772  1
  In  In14  1  0.66743428  0.50254330  0.12119655  1
  In  In15  1  0.67367109  0.48985488  0.61976471  1
  In  In16  1  0.66167780  0.83061262  0.12871353  1
  In  In17  1  0.68057655  0.84809778  0.60864256  1
  In  In18  1  0.15569604  -0.00242054  0.38099184  1
  In  In19  1  0.16852630  0.00643817  0.87195698  1
  In  In20  1  0.17251451  0.34609832  0.37369921  1
  In  In21  1  0.16565731  0.32581569  0.88013565  1
  In  In22  1  0.16821473  0.66813261  0.38440557  1
  In  In23  1  0.15147714  0.65029696  0.84700043  1
  In  In24  1  0.53489784  -0.01666089  0.40117760  1
  In  In25  1  0.50233972  -0.01316730  0.88049474  1
  In  In26  1  0.50138474  0.32579239  0.37412759  1
  In  In27  1  0.49172797  0.34451391  0.89204237  1
  In  In28  1  0.51193702  0.67185657  0.37008991  1
  In  In29  1  0.49374678  0.66916075  0.87756947  1
  In  In30  1  0.82018445  -0.00329419  0.37705292  1
  In  In31  1  0.81763827  -0.00965933  0.87017543  1
  In  In32  1  0.83947181  0.34116889  0.36350741  1
  In  In33  1  0.84655304  0.34313816  0.88734996  1
  In  In34  1  0.82631105  0.67600037  0.38230561  1
  In  In35  1  0.84407142  0.65877013  0.88045254  1
  In  In36  1  -0.01333664  0.16505395  0.37038944  1
  In  In37  1  0.01095236  0.17414842  0.88051536  1
  In  In38  1  0.00442196  0.50040740  0.37828590  1
  In  In39  1  -0.00084410  0.50140279  0.88104104  1
  In  In40  1  -0.00144447  0.83479628  0.38869555  1
  In  In41  1  -0.00403576  0.82189913  0.86146505  1
  In  In42  1  0.34948558  0.17918533  0.37883733  1
  In  In43  1  0.32358470  0.17260160  0.88082948  1
  In  In44  1  0.32750116  0.49369389  0.37850637  1
  In  In45  1  0.32901449  0.49987105  0.87132151  1
  In  In46  1  0.34030035  0.83055465  0.38565448  1
  In  In47  1  0.34003338  0.82943671  0.86933919  1
  In  In48  1  0.65398886  0.15390124  0.36152931  1
  In  In49  1  0.66570941  0.15645380  0.88007611  1
  In  In50  1  0.67527729  0.51376242  0.36089372  1
  In  In51  1  0.67228690  0.49149997  0.89270837  1
  In  In52  1  0.66853216  0.83501009  0.37606278  1
  In  In53  1  0.65651231  0.83786349  0.87775912  1
  In  In54  1  0.15988538  0.01140289  0.12153282  1
  In  In55  1  0.16501280  -0.02628317  0.63301878  1
  In  In56  1  0.15096731  0.32234999  0.11047338  1
  In  In57  1  0.16539671  0.35689189  0.63254423  1
  In  In58  1  0.17564453  0.65804608  0.12382971  1
  In  In59  1  0.16450286  0.66722796  0.63534931  1
  In  In60  1  0.50706237  0.00388973  0.12213597  1
  In  In61  1  0.50847906  0.00356091  0.61649643  1
  In  In62  1  0.51876096  0.34250769  0.10525906  1
  In  In63  1  0.49389300  0.32744322  0.62556930  1
  In  In64  1  0.51365172  0.67969448  0.11370507  1
  In  In65  1  0.48890212  0.67133046  0.62710959  1
  In  In66  1  0.82949877  -0.01627580  0.12361323  1
  In  In67  1  0.84150538  -0.00991913  0.63403563  1
  In  In68  1  0.81974022  0.34358713  0.13039594  1
  In  In69  1  0.82434777  0.33604071  0.62095937  1
  In  In70  1  0.82050288  0.65660072  0.11645095  1
  In  In71  1  0.84362137  0.67386765  0.62026048  1
  In  In72  1  -0.00746505  0.00531848  0.25120561  1
  In  In73  1  0.00037079  0.33423798  0.75683339  1
  In  In74  1  0.33401981  -0.00232453  0.74851543  1
  In  In75  1  0.34088010  0.00597035  0.24448642  1
  In  In76  1  0.66334485  0.66737668  0.74991018  1
  In  In77  1  0.82847355  0.16974074  0.00248161  1
  In  In78  1  0.33505977  0.32922665  0.25124357  1
  In  In79  1  0.49443960  0.49954426  0.50228141  1
  In  In80  1  0.17175178  0.83056337  -0.01184819  1
  In  In81  1  0.66754748  0.32922303  0.75436413  1
  In  In82  1  0.16849447  0.16771098  0.50015933  1
  In  In83  1  0.34205147  0.66289103  0.25505425  1
  In  In84  1  -0.00326277  0.66399909  0.24770141  1
  In  In85  1  0.82622719  0.16471956  0.49540466  1
  Cu  Cu86  1  0.33368269  0.33054890  -0.00417716  1
  Cu  Cu87  1  0.00925520  0.67342497  -0.00726219  1
  Cu  Cu88  1  -0.00576538  0.00246404  -0.00060477  1
  Cu  Cu89  1  0.67115499  0.33759417  0.49281122  1
  Cu  Cu90  1  0.50208251  0.16719087  0.24819344  1
  Cu  Cu91  1  0.32723647  0.66533842  0.50760465  1
  Cu  Cu92  1  0.16233354  0.16658064  0.75396256  1
  Cu  Cu93  1  0.50061037  0.16539546  0.75106037  1
  Cu  Cu94  1  0.83228941  0.16959078  0.24634651  1
  Cu  Cu95  1  0.33095787  0.34114162  0.50565805  1
  Cu  Cu96  1  0.49901440  0.49591383  0.76083503  1
  Cu  Cu97  1  0.33025375  -0.00212178  -0.00440350  1
  Cu  Cu98  1  0.00231745  -0.01289735  0.50978928  1
  Cu  Cu99  1  0.33635219  0.66024916  -0.00564610  1
  Cu  Cu100  1  0.00284115  0.66204500  0.50610870  1
  Cu  Cu101  1  0.83039230  0.83009749  0.74654988  1
  Cu  Cu102  1  0.82206703  0.82747389  0.25070445  1
  Cu  Cu103  1  0.83123890  0.50051163  0.24183979  1
  Cu  Cu104  1  0.16942558  0.83795324  0.25812717  1
  Cu  Cu105  1  0.33866437  0.00491671  0.50774646  1
  Cu  Cu106  1  0.66740840  0.66559463  0.49393395  1
  Cu  Cu107  1  0.50575155  0.83993339  0.74808098  1
  Cu  Cu108  1  0.66219341  -0.00783636  0.00018778  1
  Cu  Cu109  1  0.50368271  0.50039311  0.23788489  1
  Cu  Cu110  1  0.00007103  0.34101580  0.49540568  1
  Cu  Cu111  1  0.84204808  0.50419578  0.75235895  1
  Cu  Cu112  1  0.15637983  0.49315924  0.24696804  1
  Cu  Cu113  1  0.66719133  0.67049017  -0.00010395  1
  Cu  Cu114  1  0.82781608  0.15597902  0.75383807  1
  Se  Se115  1  0.08085802  0.08647539  0.04753680  1
  Se  Se116  1  0.08092043  0.07681167  0.56314174  1
  Se  Se117  1  0.10795402  0.44258536  0.05732887  1
  Se  Se118  1  0.08509301  0.41775304  0.55206542  1
  Se  Se119  1  0.08370510  0.75040131  0.06094596  1
  Se  Se120  1  0.08251388  0.74630085  0.56233833  1
  Se  Se121  1  0.41270816  0.07614057  0.05486384  1
  Se  Se122  1  0.42184146  0.09313932  0.55412850  1
  Se  Se123  1  0.41745950  0.41633429  0.04664285  1
  Se  Se124  1  0.40442897  0.42333123  0.56964455  1
  Se  Se125  1  0.41523959  0.74869676  0.04690807  1
  Se  Se126  1  0.41976578  0.75000199  0.54938081  1
  Se  Se127  1  0.74129746  0.07467350  0.06067291  1
  Se  Se128  1  0.74953311  0.07531312  0.56289332  1
  Se  Se129  1  0.75839902  0.42783688  0.05346077  1
  Se  Se130  1  0.75631830  0.41928305  0.54503987  1
  Se  Se131  1  0.74776881  0.75550311  0.05504101  1
  Se  Se132  1  0.75187017  0.74449542  0.55105308  1
  Se  Se133  1  0.24939844  0.24743738  0.04958599  1
  Se  Se134  1  0.25248452  0.25658662  0.56499428  1
  Se  Se135  1  0.24950730  0.58194329  0.04803819  1
  Se  Se136  1  0.24886171  0.58240814  0.56437266  1
  Se  Se137  1  0.25223210  0.91896749  0.06106873  1
  Se  Se138  1  0.25093707  0.91939234  0.55342114  1
  Se  Se139  1  0.57823665  0.23177384  0.04889808  1
  Se  Se140  1  0.58822730  0.26369263  0.55410087  1
  Se  Se141  1  0.58320850  0.58225633  0.04938731  1
  Se  Se142  1  0.58928682  0.59017807  0.56078823  1
  Se  Se143  1  0.57909472  0.90966438  0.05512463  1
  Se  Se144  1  0.57890067  0.91383702  0.54707166  1
  Se  Se145  1  0.91591037  0.25868324  0.06297118  1
  Se  Se146  1  0.92268129  0.25630768  0.55414454  1
  Se  Se147  1  0.92404306  0.59705803  0.05101872  1
  Se  Se148  1  0.91351411  0.57768031  0.55358326  1
  Se  Se149  1  0.91131773  0.91439109  0.04659477  1
  Se  Se150  1  0.91579945  0.90673534  0.56152868  1
  Se  Se151  1  0.07557365  0.25350866  0.43768279  1
  Se  Se152  1  0.07021846  0.26560075  0.95192968  1
  Se  Se153  1  0.08585442  0.58158680  0.44861262  1
  Se  Se154  1  0.09157110  0.59180882  0.93813709  1
  Se  Se155  1  0.09063189  0.91041477  0.45493930  1
  Se  Se156  1  0.07397319  0.92188001  0.93741044  1
  Se  Se157  1  0.41944065  0.26201569  0.45381009  1
  Se  Se158  1  0.41800660  0.24038246  0.94923826  1
  Se  Se159  1  0.40824811  0.59365340  0.43899247  1
  Se  Se160  1  0.41939557  0.57496808  0.94213945  1
  Se  Se161  1  0.41819454  0.92077333  0.45125875  1
  Se  Se162  1  0.41116509  0.90920374  0.94634242  1
  Se  Se163  1  0.74546211  0.25524708  0.43045183  1
  Se  Se164  1  0.74143042  0.26049592  0.94111573  1
  Se  Se165  1  0.74908455  0.57819236  0.44390185  1
  Se  Se166  1  0.75484203  0.58646976  0.95033933  1
  Se  Se167  1  0.75727310  0.90727069  0.44757909  1
  Se  Se168  1  0.74808001  0.91077637  0.94752662  1
  Se  Se169  1  0.26112495  0.07947359  0.43985955  1
  Se  Se170  1  0.24400233  0.08259205  0.94771620  1
  Se  Se171  1  0.24551690  0.42113877  0.45216755  1
  Se  Se172  1  0.25121594  0.41464702  0.94242064  1
  Se  Se173  1  0.24939067  0.75263094  0.45099749  1
  Se  Se174  1  0.25373294  0.73386965  0.93049714  1
  Se  Se175  1  0.58684142  0.10275604  0.45073389  1
  Se  Se176  1  0.57969080  0.07685712  0.94781393  1
  Se  Se177  1  0.58805962  0.42093878  0.43604598  1
  Se  Se178  1  0.59040817  0.40804114  0.95732263  1
  Se  Se179  1  0.58249955  0.75085840  0.44569404  1
  Se  Se180  1  0.57980326  0.74946830  0.94537619  1
  Se  Se181  1  0.92649931  0.06898888  0.44577160  1
  Se  Se182  1  0.91323010  0.08023268  0.93695517  1
  Se  Se183  1  0.91263248  0.41812533  0.44129367  1
  Se  Se184  1  0.92330062  0.42458196  0.95660134  1
  Se  Se185  1  0.91891900  0.74513675  0.45167726  1
  Se  Se186  1  0.92134827  0.75533033  0.94323487  1
  Se  Se187  1  0.24431961  0.24034810  0.31196255  1
  Se  Se188  1  0.24644607  0.24892437  0.80554443  1
  Se  Se189  1  0.23777009  0.57470085  0.30657326  1
  Se  Se190  1  0.26723231  0.59096877  0.79678325  1
  Se  Se191  1  0.25146337  0.91771279  0.31369945  1
  Se  Se192  1  0.24166406  0.90819013  0.80564983  1
  Se  Se193  1  0.58431438  0.25608584  0.29925313  1
  Se  Se194  1  0.57507404  0.24610758  0.81541691  1
  Se  Se195  1  0.57948187  0.58628795  0.29584938  1
  Se  Se196  1  0.58807379  0.57109883  0.81624464  1
  Se  Se197  1  0.58814843  0.92508618  0.31045738  1
  Se  Se198  1  0.58644194  0.92241009  0.80244835  1
  Se  Se199  1  0.91938125  0.25084061  0.29709102  1
  Se  Se200  1  0.90362760  0.24266137  0.81220720  1
  Se  Se201  1  0.90622763  0.57856972  0.30927101  1
  Se  Se202  1  0.92520725  0.58502507  0.80573939  1
  Se  Se203  1  0.91148385  0.90395942  0.30856586  1
  Se  Se204  1  0.90933904  0.91493702  0.80355660  1
  Se  Se205  1  0.09116297  0.09096316  0.30714606  1
  Se  Se206  1  0.07809599  0.08625370  0.80680095  1
  Se  Se207  1  0.07746344  0.41336310  0.30542765  1
  Se  Se208  1  0.09322643  0.42456769  0.81003796  1
  Se  Se209  1  0.08536659  0.75543317  0.31178887  1
  Se  Se210  1  0.09239423  0.76189048  0.79255982  1
  Se  Se211  1  0.42758503  0.08810021  0.31200905  1
  Se  Se212  1  0.41895847  0.08627046  0.81310086  1
  Se  Se213  1  0.42566551  0.42858295  0.30645363  1
  Se  Se214  1  0.41751008  0.40853777  0.80968190  1
  Se  Se215  1  0.42608983  0.76528479  0.30581065  1
  Se  Se216  1  0.42646113  0.75193536  0.79993396  1
  Se  Se217  1  0.75520075  0.08152805  0.30098009  1
  Se  Se218  1  0.73708488  0.07792751  0.80295317  1
  Se  Se219  1  0.74766873  0.41689538  0.29660110  1
  Se  Se220  1  0.76105123  0.42271499  0.81071558  1
  Se  Se221  1  0.74383319  0.74329908  0.30590559  1
  Se  Se222  1  0.75427030  0.75161643  0.81281702  1
  Se  Se223  1  0.24131639  0.09490986  0.19301550  1
  Se  Se224  1  0.23995189  0.08810895  0.68917380  1
  Se  Se225  1  0.24602566  0.41835149  0.19112228  1
  Se  Se226  1  0.26482058  0.40230006  0.70404951  1
  Se  Se227  1  0.24406725  0.75501129  0.19732281  1
  Se  Se228  1  0.25713807  0.75007721  0.69694634  1
  Se  Se229  1  0.58494145  0.07946530  0.19792489  1
  Se  Se230  1  0.58009504  0.08235732  0.69546564  1
  Se  Se231  1  0.58519868  0.41309272  0.18843096  1
  Se  Se232  1  0.57860382  0.42326225  0.69411942  1
  Se  Se233  1  0.58065084  0.74501766  0.19646403  1
  Se  Se234  1  0.58473648  0.76060934  0.68532763  1
  Se  Se235  1  0.90976221  0.09045730  0.18235943  1
  Se  Se236  1  0.91831502  0.07788070  0.70380635  1
  Se  Se237  1  0.92004441  0.41932406  0.19193473  1
  Se  Se238  1  0.91281371  0.41880690  0.68884624  1
  Se  Se239  1  0.90773828  0.75605822  0.18832664  1
  Se  Se240  1  0.91610085  0.74249510  0.70082805  1
  Se  Se241  1  0.08722518  0.25567058  0.19571252  1
  Se  Se242  1  0.08501230  0.24509121  0.68864352  1
  Se  Se243  1  0.08187726  0.57492702  0.18533869  1
  Se  Se244  1  0.08527663  0.57562844  0.70072700  1
  Se  Se245  1  0.09030355  0.91281942  0.19426278  1
  Se  Se246  1  0.06834126  0.92359431  0.70417218  1
  Se  Se247  1  0.42589060  0.24894289  0.18597754  1
  Se  Se248  1  0.41710673  0.25238489  0.70249228  1
  Se  Se249  1  0.41898539  0.57937190  0.18206131  1
  Se  Se250  1  0.42724795  0.58632229  0.70447510  1
  Se  Se251  1  0.42622954  0.90694578  0.19101293  1
  Se  Se252  1  0.42175884  0.91235009  0.68413565  1
  Se  Se253  1  0.74495430  0.25280551  0.19753913  1
  Se  Se254  1  0.75424989  0.23795277  0.69018685  1
  Se  Se255  1  0.74502137  0.58636622  0.19506080  1
  Se  Se256  1  0.75519139  0.57574485  0.69085297  1
  Se  Se257  1  0.74471739  0.91692841  0.19822499  1
  Se  Se258  1  0.74398508  0.91315408  0.69631176  1
