# generated using pymatgen
data_In86Cu29Se144
_symmetry_space_group_name_H-M   'P 1'
_cell_length_a   17.58129692
_cell_length_b   17.57520868
_cell_length_c   23.43995247
_cell_angle_alpha   89.99126301
_cell_angle_beta   89.99288491
_cell_angle_gamma   90.01583831
_symmetry_Int_Tables_number   1
_chemical_formula_structural   In86Cu29Se144
_chemical_formula_sum   'In86 Cu29 Se144'
_cell_volume   7242.82681367
_cell_formula_units_Z   1
loop_
 _symmetry_equiv_pos_site_id
 _symmetry_equiv_pos_as_xyz
  1  'x, y, z'
loop_
 _atom_site_type_symbol
 _atom_site_label
 _atom_site_symmetry_multiplicity
 _atom_site_fract_x
 _atom_site_fract_y
 _atom_site_fract_z
 _atom_site_occupancy
  In  In0  1  -0.00559381  0.17402850  0.13200064  1
  In  In1  1  -0.00322563  0.16099100  0.63070192  1
  In  In2  1  -0.00687693  0.50319758  0.11684813  1
  In  In3  1  0.01151076  0.51111142  0.61042036  1
  In  In4  1  0.00967266  0.83366371  0.11650835  1
  In  In5  1  0.00943890  0.81983431  0.63699520  1
  In  In6  1  0.34381879  0.16735769  0.12819651  1
  In  In7  1  0.32116899  0.16157959  0.62559349  1
  In  In8  1  0.32372246  0.51141153  0.13736326  1
  In  In9  1  0.33768736  0.52037815  0.61547252  1
  In  In10  1  0.32512056  0.81998492  0.11529031  1
  In  In11  1  0.33065170  0.82803018  0.62495042  1
  In  In12  1  0.67666860  0.16004047  0.13427329  1
  In  In13  1  0.67194073  0.16326174  0.61974397  1
  In  In14  1  0.67634006  0.49343576  0.13559194  1
  In  In15  1  0.68619509  0.51142021  0.61284229  1
  In  In16  1  0.66594239  0.83172635  0.12545375  1
  In  In17  1  0.64494523  0.82675752  0.61420796  1
  In  In18  1  0.15824726  -0.00319044  0.37427957  1
  In  In19  1  0.15467852  -0.01353960  0.86714437  1
  In  In20  1  0.17093144  0.34597914  0.36967281  1
  In  In21  1  0.16501539  0.35787204  0.87815646  1
  In  In22  1  0.17605869  0.65472913  0.38758963  1
  In  In23  1  0.16486433  0.66691795  0.87362931  1
  In  In24  1  0.50670310  -0.01836597  0.37744432  1
  In  In25  1  0.48541853  -0.00765855  0.86968849  1
  In  In26  1  0.49858559  0.33516554  0.36788461  1
  In  In27  1  0.50552532  0.32666654  0.87444569  1
  In  In28  1  0.50723041  0.67667944  0.37427595  1
  In  In29  1  0.51197963  0.67855196  0.86644933  1
  In  In30  1  0.83713712  0.00111328  0.36160380  1
  In  In31  1  0.84526753  -0.01137024  0.88730677  1
  In  In32  1  0.83703784  0.34244714  0.36913476  1
  In  In33  1  0.83578566  0.33537696  0.88809112  1
  In  In34  1  0.81127772  0.66060319  0.37475965  1
  In  In35  1  0.83054345  0.66912977  0.87746253  1
  In  In36  1  -0.00403358  0.16551943  0.36334132  1
  In  In37  1  -0.00131979  0.15556308  0.87834871  1
  In  In38  1  0.00213814  0.48853506  0.38592714  1
  In  In39  1  -0.01712630  0.52483083  0.89637695  1
  In  In40  1  0.00352843  0.84063781  0.37444573  1
  In  In41  1  -0.00329290  0.82926476  0.87860762  1
  In  In42  1  0.32590752  0.17443060  0.37269576  1
  In  In43  1  0.34447247  0.16175615  0.87147145  1
  In  In44  1  0.32692386  0.49832673  0.37434426  1
  In  In45  1  0.31513457  0.50761046  0.87661927  1
  In  In46  1  0.34385174  0.81739367  0.39072557  1
  In  In47  1  0.33020789  0.82799950  0.87415717  1
  In  In48  1  0.67093309  0.16857300  0.36298398  1
  In  In49  1  0.67260069  0.17438249  0.87909882  1
  In  In50  1  0.67477386  0.50755819  0.37341010  1
  In  In51  1  0.66685253  0.51362075  0.87472675  1
  In  In52  1  0.66029552  0.82505017  0.36719844  1
  In  In53  1  0.67877910  0.82513889  0.88505076  1
  In  In54  1  0.16800944  -0.01843737  0.12427635  1
  In  In55  1  0.17576637  -0.01205976  0.63655708  1
  In  In56  1  0.15405555  0.34656280  0.13859630  1
  In  In57  1  0.17035938  0.35534132  0.61180725  1
  In  In58  1  0.16901181  0.67461808  0.11561789  1
  In  In59  1  0.16672385  0.66663664  0.62174477  1
  In  In60  1  0.51026601  -0.00311587  0.12571795  1
  In  In61  1  0.49834813  -0.03978731  0.61514489  1
  In  In62  1  0.50065518  0.33690110  0.14012738  1
  In  In63  1  0.50309406  0.33986688  0.61697872  1
  In  In64  1  0.49121875  0.67186808  0.12984212  1
  In  In65  1  0.48550280  0.67878432  0.63147867  1
  In  In66  1  0.83277716  -0.00092019  0.12477952  1
  In  In67  1  0.83960524  0.00219753  0.62952496  1
  In  In68  1  0.83683929  0.33652772  0.12737600  1
  In  In69  1  0.83932112  0.34191935  0.61465741  1
  In  In70  1  0.83370779  0.65812756  0.11443964  1
  In  In71  1  0.84098300  0.66393438  0.63454187  1
  In  In72  1  0.83191293  0.83076732  0.49608305  1
  In  In73  1  0.16458208  0.16767661  -0.00106470  1
  In  In74  1  0.16444956  0.17056187  0.49503614  1
  In  In75  1  0.83524183  0.16798885  0.49511683  1
  In  In76  1  0.00483756  0.33391945  0.74190989  1
  In  In77  1  0.50658966  0.16040848  0.00272421  1
  In  In78  1  0.49893425  0.16462838  0.48946893  1
  In  In79  1  0.33264938  0.33421108  0.75306997  1
  In  In80  1  0.67093765  -0.00508446  0.74533565  1
  In  In81  1  0.50237708  0.50183505  0.00080742  1
  In  In82  1  -0.00339420  0.66721491  0.24696419  1
  In  In83  1  0.50111349  0.50594621  0.49186535  1
  In  In84  1  0.33076936  -0.00090034  0.25186067  1
  In  In85  1  0.66967129  0.33828042  0.73642848  1
  Cu  Cu86  1  0.83087285  0.16986226  0.24427547  1
  Cu  Cu87  1  0.00020224  0.33594511  0.00994382  1
  Cu  Cu88  1  0.33083756  0.33519703  0.00967983  1
  Cu  Cu89  1  0.50001295  0.50812814  0.25703697  1
  Cu  Cu90  1  0.50063455  0.15611107  0.74207061  1
  Cu  Cu91  1  0.16180578  0.16856903  0.25370785  1
  Cu  Cu92  1  0.33614489  -0.00628791  0.50607289  1
  Cu  Cu93  1  0.49949695  0.16841099  0.25043960  1
  Cu  Cu94  1  0.66767834  -0.00330782  0.00668169  1
  Cu  Cu95  1  0.49536089  0.83161611  0.74886115  1
  Cu  Cu96  1  0.16526573  0.83175809  0.75312244  1
  Cu  Cu97  1  0.83059683  0.83751487  0.24792065  1
  Cu  Cu98  1  0.00675502  -0.00621379  0.50230203  1
  Cu  Cu99  1  0.16490476  0.50291775  0.25642111  1
  Cu  Cu100  1  0.16218015  0.51213303  0.74695183  1
  Cu  Cu101  1  -0.00392442  -0.00048804  0.00069915  1
  Cu  Cu102  1  -0.00424588  0.66665652  0.50496910  1
  Cu  Cu103  1  0.66977621  0.66565314  0.00140450  1
  Cu  Cu104  1  0.16675126  0.16420115  0.75208287  1
  Cu  Cu105  1  0.84040133  0.15939553  0.75394618  1
  Cu  Cu106  1  0.49965924  0.83135148  0.24980751  1
  Cu  Cu107  1  0.83234222  0.83114993  0.75824761  1
  Cu  Cu108  1  0.67692321  0.33304814  0.01020100  1
  Cu  Cu109  1  0.33619044  0.66905792  -0.00082330  1
  Cu  Cu110  1  0.49441741  0.51001084  0.74931113  1
  Cu  Cu111  1  0.83572593  0.50141240  0.24728336  1
  Cu  Cu112  1  0.32694523  -0.01337864  -0.00629810  1
  Cu  Cu113  1  0.16792143  0.82915968  0.24673246  1
  Cu  Cu114  1  0.83490107  0.50552150  0.75370651  1
  Se  Se115  1  0.07952684  0.07739142  0.06200107  1
  Se  Se116  1  0.08466642  0.07720102  0.56176064  1
  Se  Se117  1  0.08868594  0.41921552  0.05655951  1
  Se  Se118  1  0.06458787  0.40296608  0.54748017  1
  Se  Se119  1  0.07356523  0.73804531  0.04772937  1
  Se  Se120  1  0.08007093  0.75221202  0.55477540  1
  Se  Se121  1  0.40565620  0.06903584  0.05477902  1
  Se  Se122  1  0.41677163  0.07914042  0.56167839  1
  Se  Se123  1  0.41454279  0.41560502  0.06587682  1
  Se  Se124  1  0.40787015  0.41431766  0.55255669  1
  Se  Se125  1  0.42360337  0.75045809  0.05029773  1
  Se  Se126  1  0.42228567  0.76007326  0.55414243  1
  Se  Se127  1  0.74882110  0.08513062  0.05617253  1
  Se  Se128  1  0.74956044  0.06965116  0.55329625  1
  Se  Se129  1  0.75614898  0.42402350  0.05809918  1
  Se  Se130  1  0.73451252  0.39925072  0.55362925  1
  Se  Se131  1  0.75016542  0.75178585  0.05480370  1
  Se  Se132  1  0.74920059  0.74311941  0.56194851  1
  Se  Se133  1  0.25012568  0.25373839  0.06657916  1
  Se  Se134  1  0.26002954  0.25874699  0.55377639  1
  Se  Se135  1  0.25732243  0.58405411  0.05506618  1
  Se  Se136  1  0.23197452  0.57134715  0.55130993  1
  Se  Se137  1  0.24263440  0.90646440  0.04813848  1
  Se  Se138  1  0.24692967  0.91546643  0.55730364  1
  Se  Se139  1  0.58689793  0.25674850  0.06466363  1
  Se  Se140  1  0.59158217  0.25355174  0.55273247  1
  Se  Se141  1  0.59077607  0.58628790  0.06465679  1
  Se  Se142  1  0.57816815  0.59169891  0.56355973  1
  Se  Se143  1  0.58040917  0.91195133  0.05321461  1
  Se  Se144  1  0.60151923  0.92951494  0.54267859  1
  Se  Se145  1  0.91567065  0.24900314  0.05714866  1
  Se  Se146  1  0.93226651  0.25128443  0.55508394  1
  Se  Se147  1  0.93431426  0.59983354  0.04658840  1
  Se  Se148  1  0.90660934  0.58489879  0.55434881  1
  Se  Se149  1  0.91531129  0.91578743  0.05578979  1
  Se  Se150  1  0.92417276  0.91515318  0.56146392  1
  Se  Se151  1  0.07522887  0.25423458  0.43271463  1
  Se  Se152  1  0.07566256  0.26264899  0.93993969  1
  Se  Se153  1  0.07795553  0.58253570  0.45007569  1
  Se  Se154  1  0.11342022  0.55650518  0.93765096  1
  Se  Se155  1  0.08892542  0.91127182  0.44888432  1
  Se  Se156  1  0.08016389  0.91767948  0.94641879  1
  Se  Se157  1  0.40545035  0.26269511  0.44222545  1
  Se  Se158  1  0.41011071  0.25700729  0.94790716  1
  Se  Se159  1  0.40758383  0.59649441  0.43833848  1
  Se  Se160  1  0.41629967  0.58987209  0.93695218  1
  Se  Se161  1  0.42179488  0.91417943  0.45175375  1
  Se  Se162  1  0.41832255  0.90830201  0.94417682  1
  Se  Se163  1  0.74424435  0.25520985  0.43709109  1
  Se  Se164  1  0.75334447  0.24679194  0.95288947  1
  Se  Se165  1  0.73958684  0.58817764  0.45279522  1
  Se  Se166  1  0.75145447  0.57989669  0.94851519  1
  Se  Se167  1  0.75047532  0.92083403  0.43118618  1
  Se  Se168  1  0.75274544  0.91462999  0.95303362  1
  Se  Se169  1  0.25986276  0.07324931  0.44242645  1
  Se  Se170  1  0.25369667  0.07729132  0.93694775  1
  Se  Se171  1  0.24044245  0.42551515  0.44580017  1
  Se  Se172  1  0.25410167  0.41917651  0.95317164  1
  Se  Se173  1  0.23104499  0.76485113  0.44772862  1
  Se  Se174  1  0.24823670  0.74793331  0.94503976  1
  Se  Se175  1  0.59588263  0.07732134  0.43601822  1
  Se  Se176  1  0.59045783  0.07066548  0.93726154  1
  Se  Se177  1  0.58963085  0.41000527  0.43786191  1
  Se  Se178  1  0.59502884  0.40533823  0.94378682  1
  Se  Se179  1  0.58718156  0.75532709  0.44641468  1
  Se  Se180  1  0.58380268  0.74696263  0.94825400  1
  Se  Se181  1  0.92794009  0.07175534  0.44081406  1
  Se  Se182  1  0.91317983  0.08903029  0.95277801  1
  Se  Se183  1  0.89906780  0.42415381  0.44805570  1
  Se  Se184  1  0.91558968  0.41933774  0.95580774  1
  Se  Se185  1  0.92105869  0.73934432  0.43498351  1
  Se  Se186  1  0.91013044  0.75187952  0.94648647  1
  Se  Se187  1  0.24717713  0.25371961  0.30202647  1
  Se  Se188  1  0.23927476  0.24743241  0.81593784  1
  Se  Se189  1  0.24928063  0.58851946  0.30535468  1
  Se  Se190  1  0.25137436  0.59022386  0.79959050  1
  Se  Se191  1  0.24777672  0.90513238  0.31190051  1
  Se  Se192  1  0.25236733  0.91550080  0.80385868  1
  Se  Se193  1  0.58368414  0.25401197  0.30023502  1
  Se  Se194  1  0.58158272  0.23945004  0.79930162  1
  Se  Se195  1  0.58727896  0.58964785  0.30688456  1
  Se  Se196  1  0.58711763  0.58546860  0.80006277  1
  Se  Se197  1  0.58532657  0.91723280  0.29784058  1
  Se  Se198  1  0.58226052  0.90773224  0.80930901  1
  Se  Se199  1  0.91256935  0.25264635  0.30011589  1
  Se  Se200  1  0.91383028  0.25063309  0.81013422  1
  Se  Se201  1  0.91206103  0.57922872  0.31254398  1
  Se  Se202  1  0.91756905  0.58606338  0.80913983  1
  Se  Se203  1  0.92246357  0.91350566  0.29923102  1
  Se  Se204  1  0.91674828  0.91682607  0.80762631  1
  Se  Se205  1  0.08189149  0.07712579  0.30130446  1
  Se  Se206  1  0.07985128  0.08417368  0.80407920  1
  Se  Se207  1  0.07551452  0.42024754  0.30399897  1
  Se  Se208  1  0.07999007  0.43130247  0.80521080  1
  Se  Se209  1  0.09022225  0.74918663  0.31003636  1
  Se  Se210  1  0.08033111  0.75015634  0.80671617  1
  Se  Se211  1  0.42324614  0.08674619  0.31342770  1
  Se  Se212  1  0.41460070  0.07898228  0.79697119  1
  Se  Se213  1  0.41385519  0.42126608  0.30432993  1
  Se  Se214  1  0.42493284  0.42484340  0.81333911  1
  Se  Se215  1  0.41489440  0.75317511  0.30612134  1
  Se  Se216  1  0.41286008  0.74707817  0.80257226  1
  Se  Se217  1  0.74958180  0.08166765  0.29560166  1
  Se  Se218  1  0.75565507  0.08353690  0.81262600  1
  Se  Se219  1  0.74884451  0.42110479  0.30112579  1
  Se  Se220  1  0.75627196  0.41691090  0.80902513  1
  Se  Se221  1  0.75024333  0.74917256  0.29869501  1
  Se  Se222  1  0.74461382  0.74683605  0.80549893  1
  Se  Se223  1  0.24006506  0.08902897  0.18978622  1
  Se  Se224  1  0.25343962  0.08112002  0.70211033  1
  Se  Se225  1  0.25075903  0.41739002  0.20371654  1
  Se  Se226  1  0.24755425  0.42782611  0.69227134  1
  Se  Se227  1  0.24996234  0.74616484  0.19291232  1
  Se  Se228  1  0.24441622  0.74975765  0.69434730  1
  Se  Se229  1  0.58060398  0.08319031  0.19718724  1
  Se  Se230  1  0.57792149  0.07751813  0.68067615  1
  Se  Se231  1  0.58379425  0.42276069  0.20410857  1
  Se  Se232  1  0.57490004  0.43349648  0.68671453  1
  Se  Se233  1  0.58334375  0.74871697  0.19549031  1
  Se  Se234  1  0.58359055  0.75085944  0.69721986  1
  Se  Se235  1  0.91508022  0.08209953  0.19542473  1
  Se  Se236  1  0.92392766  0.07538992  0.70261302  1
  Se  Se237  1  0.92237552  0.42207519  0.19338302  1
  Se  Se238  1  0.91228747  0.42825959  0.68869312  1
  Se  Se239  1  0.90970591  0.75756085  0.18602055  1
  Se  Se240  1  0.91789291  0.74753410  0.70530291  1
  Se  Se241  1  0.07753844  0.25333475  0.20215783  1
  Se  Se242  1  0.10212434  0.24717384  0.68470281  1
  Se  Se243  1  0.09050917  0.57980833  0.18890537  1
  Se  Se244  1  0.07590617  0.58865193  0.69108393  1
  Se  Se245  1  0.08139941  0.91144473  0.19644929  1
  Se  Se246  1  0.07973528  0.91772171  0.70218488  1
  Se  Se247  1  0.41141475  0.25175775  0.20243254  1
  Se  Se248  1  0.42384996  0.24708515  0.68795135  1
  Se  Se249  1  0.41500510  0.58895242  0.20201217  1
  Se  Se250  1  0.40619425  0.58904537  0.69834345  1
  Se  Se251  1  0.41634859  0.90929718  0.18805657  1
  Se  Se252  1  0.41189540  0.91520059  0.69620491  1
  Se  Se253  1  0.74745215  0.25953698  0.19660573  1
  Se  Se254  1  0.76730483  0.23952218  0.68905273  1
  Se  Se255  1  0.75661931  0.59024264  0.19510248  1
  Se  Se256  1  0.74745602  0.58237500  0.69846242  1
  Se  Se257  1  0.74587296  0.91941255  0.19383674  1
  Se  Se258  1  0.75638859  0.90024122  0.68625173  1
