# generated using pymatgen
data_In86Cu29Se144
_symmetry_space_group_name_H-M   'P 1'
_cell_length_a   17.58604308
_cell_length_b   17.58376063
_cell_length_c   23.44004917
_cell_angle_alpha   90.00492709
_cell_angle_beta   89.99981272
_cell_angle_gamma   89.99632853
_symmetry_Int_Tables_number   1
_chemical_formula_structural   In86Cu29Se144
_chemical_formula_sum   'In86 Cu29 Se144'
_cell_volume   7248.33757943
_cell_formula_units_Z   1
loop_
 _symmetry_equiv_pos_site_id
 _symmetry_equiv_pos_as_xyz
  1  'x, y, z'
loop_
 _atom_site_type_symbol
 _atom_site_label
 _atom_site_symmetry_multiplicity
 _atom_site_fract_x
 _atom_site_fract_y
 _atom_site_fract_z
 _atom_site_occupancy
  In  In0  1  0.01072617  0.17440748  0.13022367  1
  In  In1  1  0.00527351  0.17037873  0.61356272  1
  In  In2  1  0.01550903  0.47726935  0.15133952  1
  In  In3  1  -0.01356350  0.49840886  0.61880103  1
  In  In4  1  -0.00008538  0.82232606  0.12740199  1
  In  In5  1  0.00086840  0.82856368  0.61190580  1
  In  In6  1  0.32788193  0.16249680  0.13742168  1
  In  In7  1  0.33175151  0.16491304  0.61140765  1
  In  In8  1  0.32339206  0.48406789  0.11806077  1
  In  In9  1  0.33823132  0.48341981  0.61927567  1
  In  In10  1  0.34483982  0.84527060  0.12238178  1
  In  In11  1  0.33446422  0.85006896  0.62149201  1
  In  In12  1  0.66514712  0.17336830  0.13420265  1
  In  In13  1  0.68519991  0.18301751  0.60454142  1
  In  In14  1  0.66776805  0.50452824  0.13537828  1
  In  In15  1  0.66092782  0.49093727  0.61250874  1
  In  In16  1  0.65145799  0.83978453  0.13836286  1
  In  In17  1  0.67215841  0.83267731  0.61880478  1
  In  In18  1  0.17114365  -0.00245039  0.37158498  1
  In  In19  1  0.16852765  -0.00183336  0.88807741  1
  In  In20  1  0.15311531  0.31707210  0.35698477  1
  In  In21  1  0.15401181  0.33748306  0.89134736  1
  In  In22  1  0.15941998  0.68276315  0.37267040  1
  In  In23  1  0.16765506  0.66457147  0.88764167  1
  In  In24  1  0.52207035  0.02193749  0.36256353  1
  In  In25  1  0.49727528  0.01007195  0.89168491  1
  In  In26  1  0.50134069  0.32672703  0.36919294  1
  In  In27  1  0.50724451  0.32911916  0.88498060  1
  In  In28  1  0.50329930  0.64750552  0.37574083  1
  In  In29  1  0.50334208  0.66637836  0.89098959  1
  In  In30  1  0.80490754  0.02044316  0.39567057  1
  In  In31  1  0.83485267  -0.00634454  0.87423079  1
  In  In32  1  0.83179741  0.32875265  0.36028073  1
  In  In33  1  0.83283071  0.33500655  0.86562952  1
  In  In34  1  0.83330768  0.66532556  0.37047332  1
  In  In35  1  0.82526496  0.66648699  0.87237206  1
  In  In36  1  -0.00994797  0.17663791  0.37308415  1
  In  In37  1  -0.00816818  0.17753693  0.88002785  1
  In  In38  1  -0.02592882  0.48565290  0.35518223  1
  In  In39  1  0.00741918  0.49484704  0.88075871  1
  In  In40  1  -0.00104033  0.83089653  0.37352905  1
  In  In41  1  0.00102348  0.84076011  0.87939842  1
  In  In42  1  0.33215032  0.16847640  0.36764336  1
  In  In43  1  0.33382141  0.16777057  0.88525163  1
  In  In44  1  0.34731446  0.49298023  0.37623478  1
  In  In45  1  0.33437783  0.49546471  0.89011194  1
  In  In46  1  0.31954993  0.83651241  0.37416060  1
  In  In47  1  0.33258165  0.83801046  0.88695915  1
  In  In48  1  0.66446088  0.16475925  0.36854849  1
  In  In49  1  0.65415131  0.17622447  0.87773466  1
  In  In50  1  0.67130867  0.49145724  0.36450027  1
  In  In51  1  0.67449963  0.49157482  0.87960714  1
  In  In52  1  0.68035899  0.84693336  0.37181751  1
  In  In53  1  0.66705267  0.82663751  0.88213435  1
  In  In54  1  0.18072914  0.01660969  0.12214408  1
  In  In55  1  0.16841603  -0.00183944  0.60993845  1
  In  In56  1  0.16497462  0.33221332  0.13562473  1
  In  In57  1  0.16205252  0.31808505  0.62015589  1
  In  In58  1  0.16199613  0.65659953  0.11997345  1
  In  In59  1  0.15008046  0.66482091  0.62063800  1
  In  In60  1  0.50060908  -0.00329410  0.12820691  1
  In  In61  1  0.49324914  0.00806840  0.62179569  1
  In  In62  1  0.50079355  0.32842044  0.12512701  1
  In  In63  1  0.51141445  0.34202679  0.61215958  1
  In  In64  1  0.50477214  0.67105678  0.12358783  1
  In  In65  1  0.51768799  0.66586905  0.61902246  1
  In  In66  1  0.82428194  0.00054970  0.13459319  1
  In  In67  1  0.83011026  -0.00098568  0.60670475  1
  In  In68  1  0.83739983  0.32472049  0.15110582  1
  In  In69  1  0.83241198  0.33342567  0.61863108  1
  In  In70  1  0.83624194  0.65747095  0.14738168  1
  In  In71  1  0.84005415  0.66580465  0.60995817  1
  In  In72  1  -0.00947115  0.66211402  0.74443079  1
  In  In73  1  0.67193502  0.66055289  0.75430346  1
  In  In74  1  0.16822062  0.50482798  0.49045256  1
  In  In75  1  0.49911535  0.83443491  0.49559445  1
  In  In76  1  0.83501267  0.49740428  0.01048853  1
  In  In77  1  0.33509628  0.32786639  0.75230043  1
  In  In78  1  0.83649142  0.17007308  0.01598289  1
  In  In79  1  0.33170804  0.66546296  0.75066933  1
  In  In80  1  0.82690313  0.82682914  0.00239393  1
  In  In81  1  -0.00583618  -0.00083940  0.25623306  1
  In  In82  1  -0.00238428  0.00645319  0.74771440  1
  In  In83  1  0.33449547  0.66698277  0.24526875  1
  In  In84  1  0.32922762  0.00812914  0.75700419  1
  In  In85  1  0.66996050  0.00711057  0.74370371  1
  Cu  Cu86  1  0.00009829  0.65987135  0.00667849  1
  Cu  Cu87  1  0.16760282  0.84064026  0.24555031  1
  Cu  Cu88  1  0.33432651  0.00031116  0.00874825  1
  Cu  Cu89  1  0.33274934  0.32552911  0.00973931  1
  Cu  Cu90  1  0.33424411  0.66739413  0.00711853  1
  Cu  Cu91  1  0.00149064  -0.00204442  0.00658881  1
  Cu  Cu92  1  -0.00431928  0.33716875  0.48716993  1
  Cu  Cu93  1  0.66978816  0.65877043  0.49155598  1
  Cu  Cu94  1  0.15966432  0.82783400  0.74765647  1
  Cu  Cu95  1  0.50097407  0.49585133  0.74521215  1
  Cu  Cu96  1  0.50043582  0.16687012  0.24746350  1
  Cu  Cu97  1  0.82886202  0.49093071  0.74257599  1
  Cu  Cu98  1  0.17290167  0.50767135  0.24876859  1
  Cu  Cu99  1  0.82961071  0.17160239  0.74395855  1
  Cu  Cu100  1  0.66409411  0.67170268  0.01393248  1
  Cu  Cu101  1  0.82906776  0.83746708  0.25654162  1
  Cu  Cu102  1  0.50654541  0.83648496  0.76137170  1
  Cu  Cu103  1  -0.00102870  0.66441769  0.49002120  1
  Cu  Cu104  1  0.50123321  0.49255490  0.24748703  1
  Cu  Cu105  1  0.33549948  0.32715088  0.49120321  1
  Cu  Cu106  1  0.16270209  0.48698114  0.76089287  1
  Cu  Cu107  1  0.33598659  0.00198247  0.49114324  1
  Cu  Cu108  1  0.66819687  0.33482528  0.48768612  1
  Cu  Cu109  1  0.33280686  0.66705937  0.49318961  1
  Cu  Cu110  1  0.00598968  -0.00010892  0.48950499  1
  Cu  Cu111  1  0.50772775  0.18077216  0.74890043  1
  Cu  Cu112  1  0.50066415  0.82907223  0.25125060  1
  Cu  Cu113  1  0.16065821  0.16984716  0.74925592  1
  Cu  Cu114  1  0.66796601  0.33407174  0.00676998  1
  Se  Se115  1  0.08053051  0.08623030  0.05785580  1
  Se  Se116  1  0.08618091  0.08442725  0.54623205  1
  Se  Se117  1  0.08566667  0.42018829  0.06666427  1
  Se  Se118  1  0.07927612  0.41276624  0.55241725  1
  Se  Se119  1  0.08325321  0.74941695  0.05411676  1
  Se  Se120  1  0.08499525  0.74624277  0.54384621  1
  Se  Se121  1  0.41252923  0.08362543  0.06542680  1
  Se  Se122  1  0.41876678  0.08436966  0.54569226  1
  Se  Se123  1  0.42118410  0.41318285  0.05390687  1
  Se  Se124  1  0.41756792  0.41430594  0.54341515  1
  Se  Se125  1  0.41915201  0.75161488  0.05634468  1
  Se  Se126  1  0.40993207  0.74342193  0.56122468  1
  Se  Se127  1  0.73945940  0.07558530  0.06124207  1
  Se  Se128  1  0.74751653  0.08144164  0.54135728  1
  Se  Se129  1  0.75057371  0.40399526  0.07068518  1
  Se  Se130  1  0.75079008  0.41411532  0.54689618  1
  Se  Se131  1  0.74991314  0.74274283  0.07438829  1
  Se  Se132  1  0.74589962  0.74542623  0.54918976  1
  Se  Se133  1  0.24829158  0.24798095  0.06632572  1
  Se  Se134  1  0.24825476  0.25021155  0.54633192  1
  Se  Se135  1  0.24962021  0.57910199  0.05273439  1
  Se  Se136  1  0.25702736  0.58893801  0.56058985  1
  Se  Se137  1  0.24695541  0.91573353  0.05715416  1
  Se  Se138  1  0.25385077  0.91472927  0.54360789  1
  Se  Se139  1  0.58686370  0.24582884  0.05664802  1
  Se  Se140  1  0.58333403  0.25222441  0.54277401  1
  Se  Se141  1  0.58602328  0.57778268  0.06017873  1
  Se  Se142  1  0.58175936  0.57995019  0.54487220  1
  Se  Se143  1  0.57886208  0.90834009  0.05951343  1
  Se  Se144  1  0.58669957  0.92490126  0.55745951  1
  Se  Se145  1  0.92404483  0.26888166  0.06647726  1
  Se  Se146  1  0.91868545  0.25413204  0.54902286  1
  Se  Se147  1  0.92288347  0.58562996  0.07096624  1
  Se  Se148  1  0.91653190  0.57772421  0.54227636  1
  Se  Se149  1  0.91598415  0.92012972  0.06271266  1
  Se  Se150  1  0.92291415  0.91688569  0.54595544  1
  Se  Se151  1  0.08378221  0.25152037  0.44141008  1
  Se  Se152  1  0.08605380  0.23406520  0.95081204  1
  Se  Se153  1  0.07336359  0.58150602  0.42748957  1
  Se  Se154  1  0.08326093  0.57780306  0.95138717  1
  Se  Se155  1  0.08755785  0.91343973  0.43913388  1
  Se  Se156  1  0.08270318  0.91223789  0.95251213  1
  Se  Se157  1  0.42003083  0.24405969  0.43971103  1
  Se  Se158  1  0.41882309  0.24966444  0.95127085  1
  Se  Se159  1  0.41799717  0.57852017  0.44995152  1
  Se  Se160  1  0.41807543  0.58214383  0.95427618  1
  Se  Se161  1  0.41792969  0.92343977  0.43049168  1
  Se  Se162  1  0.41855855  0.91736903  0.95384027  1
  Se  Se163  1  0.75110941  0.25188495  0.43370104  1
  Se  Se164  1  0.75236844  0.25791736  0.94561385  1
  Se  Se165  1  0.75004439  0.57717082  0.43602251  1
  Se  Se166  1  0.74392250  0.59413646  0.94992365  1
  Se  Se167  1  0.75212791  0.90818456  0.45520221  1
  Se  Se168  1  0.74210132  0.92692433  0.94690432  1
  Se  Se169  1  0.25114778  0.08483335  0.43924457  1
  Se  Se170  1  0.25242622  0.08294390  0.95223836  1
  Se  Se171  1  0.25007245  0.40625687  0.43380730  1
  Se  Se172  1  0.25065906  0.41047679  0.95448886  1
  Se  Se173  1  0.24633109  0.75153444  0.44696710  1
  Se  Se174  1  0.25045578  0.75077026  0.95167656  1
  Se  Se175  1  0.58923436  0.08629282  0.44559499  1
  Se  Se176  1  0.58755044  0.09229620  0.95092805  1
  Se  Se177  1  0.58288388  0.41708170  0.43548975  1
  Se  Se178  1  0.58855927  0.41906296  0.95072880  1
  Se  Se179  1  0.58770224  0.74419547  0.43599082  1
  Se  Se180  1  0.58544891  0.75430096  0.95579557  1
  Se  Se181  1  0.91949040  0.08737991  0.44464145  1
  Se  Se182  1  0.91739052  0.07406282  0.94696171  1
  Se  Se183  1  0.90609343  0.41452160  0.43680078  1
  Se  Se184  1  0.91705312  0.40766292  0.94410075  1
  Se  Se185  1  0.91352605  0.75049479  0.44211068  1
  Se  Se186  1  0.92219745  0.73645836  0.94232766  1
  Se  Se187  1  0.26510009  0.26432168  0.29949303  1
  Se  Se188  1  0.24181390  0.24367532  0.81320038  1
  Se  Se189  1  0.24979635  0.58331082  0.31500427  1
  Se  Se190  1  0.24425563  0.57300668  0.81307367  1
  Se  Se191  1  0.25377266  0.91992776  0.29771180  1
  Se  Se192  1  0.23933930  0.90684574  0.80859555  1
  Se  Se193  1  0.58661539  0.25094312  0.29740119  1
  Se  Se194  1  0.58703648  0.26386961  0.80392331  1
  Se  Se195  1  0.58236651  0.57831937  0.29955539  1
  Se  Se196  1  0.57380658  0.57636134  0.81242728  1
  Se  Se197  1  0.58447241  0.91347062  0.30333095  1
  Se  Se198  1  0.58458659  0.92244463  0.81599647  1
  Se  Se199  1  0.93730408  0.26622174  0.29426799  1
  Se  Se200  1  0.91630279  0.24745730  0.80097467  1
  Se  Se201  1  0.93752998  0.60926531  0.30345437  1
  Se  Se202  1  0.90415203  0.56930401  0.80856302  1
  Se  Se203  1  0.90042229  0.92099519  0.31958084  1
  Se  Se204  1  0.91136536  0.90469528  0.80254394  1
  Se  Se205  1  0.08657644  0.09186286  0.30924391  1
  Se  Se206  1  0.09028422  0.08593585  0.81325881  1
  Se  Se207  1  0.08661966  0.42493843  0.29998560  1
  Se  Se208  1  0.07727526  0.40493573  0.80979364  1
  Se  Se209  1  0.08246818  0.75862403  0.29733682  1
  Se  Se210  1  0.08411052  0.74781123  0.80951944  1
  Se  Se211  1  0.41629351  0.08182357  0.30021967  1
  Se  Se212  1  0.42842283  0.09816565  0.80824598  1
  Se  Se213  1  0.41621135  0.41183607  0.30053575  1
  Se  Se214  1  0.42112429  0.42339235  0.81093998  1
  Se  Se215  1  0.42086348  0.75036272  0.31397873  1
  Se  Se216  1  0.42213759  0.75393692  0.81493877  1
  Se  Se217  1  0.75004679  0.07713176  0.30440818  1
  Se  Se218  1  0.75774335  0.09504944  0.81141776  1
  Se  Se219  1  0.76749832  0.43007280  0.29156940  1
  Se  Se220  1  0.74306359  0.41579763  0.80046571  1
  Se  Se221  1  0.74449076  0.74852586  0.30431392  1
  Se  Se222  1  0.75890775  0.76545727  0.80383642  1
  Se  Se223  1  0.24212709  0.08359940  0.20659113  1
  Se  Se224  1  0.24056468  0.08968003  0.68832608  1
  Se  Se225  1  0.25423465  0.41725530  0.20113055  1
  Se  Se226  1  0.24155676  0.41809243  0.69178531  1
  Se  Se227  1  0.24589956  0.75694811  0.18499889  1
  Se  Se228  1  0.24387636  0.75483275  0.68586096  1
  Se  Se229  1  0.58398745  0.08029665  0.19684396  1
  Se  Se230  1  0.57995737  0.09732319  0.68541878  1
  Se  Se231  1  0.58576013  0.40964511  0.19491305  1
  Se  Se232  1  0.58512712  0.41631588  0.69069769  1
  Se  Se233  1  0.58240018  0.73972883  0.20280955  1
  Se  Se234  1  0.58103804  0.75900453  0.69616048  1
  Se  Se235  1  0.91149431  0.09304382  0.19331679  1
  Se  Se236  1  0.90651610  0.08894153  0.68366621  1
  Se  Se237  1  0.88964251  0.44393741  0.20379259  1
  Se  Se238  1  0.91779116  0.41216937  0.69145109  1
  Se  Se239  1  0.91574046  0.75794639  0.20359297  1
  Se  Se240  1  0.90737900  0.75823300  0.68579891  1
  Se  Se241  1  0.06729408  0.26514666  0.20616693  1
  Se  Se242  1  0.07694993  0.24812794  0.69359972  1
  Se  Se243  1  0.08513183  0.59139433  0.20033523  1
  Se  Se244  1  0.08896942  0.56730475  0.69425767  1
  Se  Se245  1  0.08410837  0.91970470  0.18674778  1
  Se  Se246  1  0.08786897  0.91285474  0.68636274  1
  Se  Se247  1  0.41674324  0.25225037  0.19705304  1
  Se  Se248  1  0.42144498  0.24681199  0.68327956  1
  Se  Se249  1  0.41875049  0.57252818  0.18646057  1
  Se  Se250  1  0.42351352  0.57831617  0.68654917  1
  Se  Se251  1  0.41780254  0.91614930  0.20166173  1
  Se  Se252  1  0.42582025  0.91406606  0.69976391  1
  Se  Se253  1  0.75432817  0.23500560  0.20969672  1
  Se  Se254  1  0.74674100  0.25296572  0.68944722  1
  Se  Se255  1  0.74599745  0.57997963  0.21070897  1
  Se  Se256  1  0.75557277  0.57873872  0.68342145  1
  Se  Se257  1  0.74395084  0.91814909  0.20301384  1
  Se  Se258  1  0.76064151  0.91417230  0.68806373  1
