# generated using pymatgen
data_In86Cu29Se144
_symmetry_space_group_name_H-M   'P 1'
_cell_length_a   17.58393780
_cell_length_b   17.58510704
_cell_length_c   23.43431902
_cell_angle_alpha   90.02034153
_cell_angle_beta   89.99837559
_cell_angle_gamma   90.01751418
_symmetry_Int_Tables_number   1
_chemical_formula_structural   In86Cu29Se144
_chemical_formula_sum   'In86 Cu29 Se144'
_cell_volume   7246.25219595
_cell_formula_units_Z   1
loop_
 _symmetry_equiv_pos_site_id
 _symmetry_equiv_pos_as_xyz
  1  'x, y, z'
loop_
 _atom_site_type_symbol
 _atom_site_label
 _atom_site_symmetry_multiplicity
 _atom_site_fract_x
 _atom_site_fract_y
 _atom_site_fract_z
 _atom_site_occupancy
  In  In0  1  0.00236615  0.16309706  0.11930794  1
  In  In1  1  0.01430411  0.16151180  0.63848607  1
  In  In2  1  0.00401482  0.51036074  0.12414269  1
  In  In3  1  0.00187698  0.49942415  0.62125951  1
  In  In4  1  -0.01239305  0.83355455  0.12152440  1
  In  In5  1  0.00094174  0.83644123  0.63161665  1
  In  In6  1  0.34047021  0.16373243  0.12875888  1
  In  In7  1  0.32891395  0.17276544  0.61190960  1
  In  In8  1  0.31805073  0.49507142  0.13315942  1
  In  In9  1  0.34030786  0.49996897  0.61083218  1
  In  In10  1  0.34063522  0.82473928  0.12148244  1
  In  In11  1  0.31857943  0.81534530  0.61887339  1
  In  In12  1  0.65997156  0.17680438  0.11913704  1
  In  In13  1  0.66018270  0.17046618  0.63511646  1
  In  In14  1  0.68112748  0.50163853  0.12372761  1
  In  In15  1  0.66549638  0.50009761  0.62500462  1
  In  In16  1  0.66530355  0.82654658  0.12125415  1
  In  In17  1  0.66662661  0.82922606  0.62685490  1
  In  In18  1  0.17016863  -0.00432996  0.38476276  1
  In  In19  1  0.14984772  -0.00678805  0.85531772  1
  In  In20  1  0.17008201  0.32551351  0.39818647  1
  In  In21  1  0.16085878  0.33196429  0.86468927  1
  In  In22  1  0.15183611  0.67728449  0.38265518  1
  In  In23  1  0.16180771  0.66691639  0.85068107  1
  In  In24  1  0.49802390  0.00487622  0.38840612  1
  In  In25  1  0.50882410  -0.00594009  0.87863743  1
  In  In26  1  0.47551767  0.35405210  0.40229541  1
  In  In27  1  0.49428140  0.31927763  0.87530196  1
  In  In28  1  0.50727590  0.66106590  0.38080737  1
  In  In29  1  0.51531638  0.67540273  0.86387865  1
  In  In30  1  0.81895006  -0.00527100  0.37818813  1
  In  In31  1  0.82649684  -0.00296944  0.86693560  1
  In  In32  1  0.84693401  0.35058742  0.38278282  1
  In  In33  1  0.84500516  0.35163515  0.86621090  1
  In  In34  1  0.83643791  0.66337646  0.37970154  1
  In  In35  1  0.83393820  0.66799121  0.87144377  1
  In  In36  1  0.01310993  0.17800756  0.38458080  1
  In  In37  1  -0.00195723  0.16978307  0.86055216  1
  In  In38  1  -0.01219232  0.50549501  0.39818782  1
  In  In39  1  -0.01072873  0.49777242  0.86757746  1
  In  In40  1  0.01153922  0.81533623  0.38597577  1
  In  In41  1  -0.00518045  0.82156443  0.86426198  1
  In  In42  1  0.31954064  0.18355288  0.39798195  1
  In  In43  1  0.33646525  0.17050048  0.87621900  1
  In  In44  1  0.33643076  0.49270881  0.38760370  1
  In  In45  1  0.31988710  0.50081357  0.87036946  1
  In  In46  1  0.32772277  0.83812657  0.38413687  1
  In  In47  1  0.34813999  0.83709762  0.87078841  1
  In  In48  1  0.65575273  0.16375410  0.37978930  1
  In  In49  1  0.65898695  0.15721237  0.86569412  1
  In  In50  1  0.65761174  0.51272815  0.38139129  1
  In  In51  1  0.68006746  0.51520524  0.86339046  1
  In  In52  1  0.68204636  0.82052299  0.38668600  1
  In  In53  1  0.66868945  0.83483270  0.87197825  1
  In  In54  1  0.16174797  0.01108457  0.12263584  1
  In  In55  1  0.15737527  -0.01039856  0.62462714  1
  In  In56  1  0.16704368  0.34440354  0.13297556  1
  In  In57  1  0.15066233  0.32260841  0.59748946  1
  In  In58  1  0.16611742  0.65524854  0.13087139  1
  In  In59  1  0.16617453  0.67159486  0.62867914  1
  In  In60  1  0.50286708  0.00367682  0.11847772  1
  In  In61  1  0.50698126  0.00121233  0.62239958  1
  In  In62  1  0.49792464  0.32442182  0.12423713  1
  In  In63  1  0.50396658  0.33977922  0.61217892  1
  In  In64  1  0.50199630  0.68164775  0.12387098  1
  In  In65  1  0.49840317  0.66484692  0.62362101  1
  In  In66  1  0.84283403  -0.02420087  0.11754991  1
  In  In67  1  0.84680172  -0.00800405  0.63881862  1
  In  In68  1  0.82767223  0.33948514  0.11430663  1
  In  In69  1  0.82780770  0.33892948  0.63109751  1
  In  In70  1  0.83516136  0.66633766  0.12354447  1
  In  In71  1  0.83119008  0.66603294  0.62566620  1
  In  In72  1  0.32886234  0.33718842  0.74040953  1
  In  In73  1  0.16702254  0.16472891  -0.01444634  1
  In  In74  1  0.15974808  0.49876594  -0.00007588  1
  In  In75  1  0.65836377  -0.00330688  0.24733500  1
  In  In76  1  0.66387299  0.34035795  0.25038981  1
  In  In77  1  0.33205251  -0.00092987  0.73550136  1
  In  In78  1  0.00304519  -0.01270153  0.24864553  1
  In  In79  1  0.17103205  0.83229010  -0.00739361  1
  In  In80  1  0.83370238  0.16382259  0.50637871  1
  In  In81  1  0.33387282  0.66541572  0.25407245  1
  In  In82  1  0.50265560  0.50018640  -0.00384580  1
  In  In83  1  0.82510705  0.16384873  -0.00969609  1
  In  In84  1  0.00630114  0.34158332  0.25939511  1
  In  In85  1  0.33541638  -0.00464941  0.26456756  1
  Cu  Cu86  1  0.33941632  0.66997004  -0.00632803  1
  Cu  Cu87  1  0.49922816  0.49643907  0.74084600  1
  Cu  Cu88  1  0.83914857  0.16720269  0.24816935  1
  Cu  Cu89  1  0.66480558  -0.00117139  -0.00600032  1
  Cu  Cu90  1  0.50166772  0.82531106  0.74760718  1
  Cu  Cu91  1  0.67211963  0.67246214  -0.00632363  1
  Cu  Cu92  1  0.33294876  0.32481196  0.00266525  1
  Cu  Cu93  1  0.49920007  0.16336785  0.74703859  1
  Cu  Cu94  1  0.16479663  0.50054849  0.73822584  1
  Cu  Cu95  1  0.33446782  0.67086746  0.49929058  1
  Cu  Cu96  1  0.82927431  0.82891607  0.74931256  1
  Cu  Cu97  1  0.33171532  -0.00355241  0.50764040  1
  Cu  Cu98  1  0.83905447  0.50745077  0.25156809  1
  Cu  Cu99  1  0.16622968  0.49789901  0.26088114  1
  Cu  Cu100  1  0.66612378  0.66347529  0.50562217  1
  Cu  Cu101  1  0.67218163  -0.00933698  0.50770897  1
  Cu  Cu102  1  0.67237747  0.33288873  0.50647448  1
  Cu  Cu103  1  0.66573915  0.33434613  -0.00653142  1
  Cu  Cu104  1  0.48900745  0.18140753  0.25389836  1
  Cu  Cu105  1  0.50660825  0.83570466  0.25290166  1
  Cu  Cu106  1  0.17284844  0.17222487  0.26228086  1
  Cu  Cu107  1  0.83468749  0.50542171  0.74357630  1
  Cu  Cu108  1  -0.00225844  0.66730237  -0.00441795  1
  Cu  Cu109  1  0.83924511  0.81907739  0.25460864  1
  Cu  Cu110  1  -0.00536779  -0.00161765  0.50726976  1
  Cu  Cu111  1  -0.00360069  0.67225682  0.51069016  1
  Cu  Cu112  1  0.83014549  0.17427328  0.74906317  1
  Cu  Cu113  1  0.49530439  0.49947320  0.25992343  1
  Cu  Cu114  1  0.33766716  0.00110550  -0.00383030  1
  Se  Se115  1  0.07285753  0.07267330  0.04554602  1
  Se  Se116  1  0.07970667  0.08184473  0.55804501  1
  Se  Se117  1  0.07241076  0.40470113  0.05884911  1
  Se  Se118  1  0.10018195  0.44268250  0.54814672  1
  Se  Se119  1  0.08644291  0.73882325  0.05678698  1
  Se  Se120  1  0.08302502  0.75651192  0.55944677  1
  Se  Se121  1  0.41493036  0.08613840  0.05332961  1
  Se  Se122  1  0.41813058  0.08081855  0.55563374  1
  Se  Se123  1  0.40506139  0.41610311  0.05913363  1
  Se  Se124  1  0.41392057  0.40897815  0.54284071  1
  Se  Se125  1  0.42181303  0.75312698  0.04699178  1
  Se  Se126  1  0.41980138  0.75198220  0.55304869  1
  Se  Se127  1  0.74423260  0.07370708  0.06202979  1
  Se  Se128  1  0.74769488  0.07601863  0.56970539  1
  Se  Se129  1  0.74715163  0.42056506  0.04519884  1
  Se  Se130  1  0.75400444  0.42002515  0.55601918  1
  Se  Se131  1  0.75433802  0.75066866  0.05354538  1
  Se  Se132  1  0.74952219  0.74932607  0.55553741  1
  Se  Se133  1  0.24587781  0.25008354  0.06182107  1
  Se  Se134  1  0.26322722  0.26358455  0.54199381  1
  Se  Se135  1  0.26139457  0.59050434  0.05420423  1
  Se  Se136  1  0.25078815  0.59332670  0.55617128  1
  Se  Se137  1  0.25739052  0.92486052  0.05921294  1
  Se  Se138  1  0.24426182  0.91227897  0.55539226  1
  Se  Se139  1  0.58021225  0.25516926  0.04736416  1
  Se  Se140  1  0.58999397  0.24475504  0.55472358  1
  Se  Se141  1  0.59102466  0.59233302  0.05653937  1
  Se  Se142  1  0.58006449  0.57923257  0.55437979  1
  Se  Se143  1  0.58651912  0.91722187  0.05555895  1
  Se  Se144  1  0.58246405  0.90942876  0.55548658  1
  Se  Se145  1  0.91952620  0.25137421  0.05363370  1
  Se  Se146  1  0.91880608  0.24619427  0.57150480  1
  Se  Se147  1  0.91901189  0.58339370  0.05313628  1
  Se  Se148  1  0.91228225  0.58245371  0.55577993  1
  Se  Se149  1  0.92825636  0.91524025  0.04259410  1
  Se  Se150  1  0.91323423  0.91413356  0.55934248  1
  Se  Se151  1  0.07726311  0.25079257  0.46428382  1
  Se  Se152  1  0.07160496  0.25941482  0.93819605  1
  Se  Se153  1  0.08108718  0.59115452  0.45579303  1
  Se  Se154  1  0.08412008  0.59343016  0.93495365  1
  Se  Se155  1  0.07777256  0.91847235  0.44861772  1
  Se  Se156  1  0.07675656  0.91761564  0.93486848  1
  Se  Se157  1  0.44653927  0.22208145  0.44382695  1
  Se  Se158  1  0.41766030  0.24239752  0.95135802  1
  Se  Se159  1  0.41927255  0.58488695  0.44918409  1
  Se  Se160  1  0.41363030  0.58615884  0.93281723  1
  Se  Se161  1  0.41550723  0.91590715  0.45123574  1
  Se  Se162  1  0.42134047  0.91422087  0.94730466  1
  Se  Se163  1  0.74904013  0.25553868  0.43957457  1
  Se  Se164  1  0.74350819  0.25770790  0.92862444  1
  Se  Se165  1  0.75082278  0.58228050  0.44931522  1
  Se  Se166  1  0.75310692  0.58465794  0.94376181  1
  Se  Se167  1  0.75802829  0.91045178  0.45532737  1
  Se  Se168  1  0.75066362  0.91783983  0.94250634  1
  Se  Se169  1  0.24587846  0.08061788  0.45509328  1
  Se  Se170  1  0.25346223  0.06542259  0.93082342  1
  Se  Se171  1  0.24089900  0.42860917  0.45640372  1
  Se  Se172  1  0.25332617  0.40277465  0.94240563  1
  Se  Se173  1  0.24537683  0.75252721  0.44904828  1
  Se  Se174  1  0.25452160  0.73957544  0.93011070  1
  Se  Se175  1  0.59244087  0.07755678  0.45508266  1
  Se  Se176  1  0.58249633  0.08785397  0.94594523  1
  Se  Se177  1  0.59169840  0.41689319  0.45062882  1
  Se  Se178  1  0.58825815  0.41519087  0.93100997  1
  Se  Se179  1  0.58430863  0.74842075  0.45002022  1
  Se  Se180  1  0.58445661  0.75212511  0.94296154  1
  Se  Se181  1  0.92208101  0.07639012  0.43873071  1
  Se  Se182  1  0.92154331  0.08012183  0.93283123  1
  Se  Se183  1  0.92573936  0.40393872  0.46390617  1
  Se  Se184  1  0.91845496  0.42222641  0.94549183  1
  Se  Se185  1  0.91208619  0.75045862  0.45151351  1
  Se  Se186  1  0.91634683  0.75100754  0.94230534  1
  Se  Se187  1  0.24930472  0.25733039  0.31754740  1
  Se  Se188  1  0.24721607  0.24031065  0.80253571  1
  Se  Se189  1  0.24699903  0.58067990  0.31908625  1
  Se  Se190  1  0.25315246  0.57903165  0.79295407  1
  Se  Se191  1  0.23403840  0.90279054  0.30789575  1
  Se  Se192  1  0.25020567  0.90724894  0.80151896  1
  Se  Se193  1  0.57658195  0.25441394  0.31300352  1
  Se  Se194  1  0.57887052  0.24992519  0.80142124  1
  Se  Se195  1  0.58305217  0.58599059  0.30280930  1
  Se  Se196  1  0.58134309  0.57942061  0.79584117  1
  Se  Se197  1  0.58134732  0.91225802  0.31907859  1
  Se  Se198  1  0.57905796  0.91284098  0.80279457  1
  Se  Se199  1  0.91263605  0.24432712  0.31236438  1
  Se  Se200  1  0.91722976  0.26005708  0.79706997  1
  Se  Se201  1  0.92310145  0.57779587  0.31342655  1
  Se  Se202  1  0.91677310  0.58841188  0.79955501  1
  Se  Se203  1  0.90973089  0.90906125  0.31399569  1
  Se  Se204  1  0.91311895  0.91416648  0.80114044  1
  Se  Se205  1  0.08730292  0.08575949  0.31152571  1
  Se  Se206  1  0.09252352  0.09862886  0.79507299  1
  Se  Se207  1  0.08976229  0.42382747  0.32723952  1
  Se  Se208  1  0.08647739  0.42534256  0.80200710  1
  Se  Se209  1  0.07918427  0.74846707  0.30312242  1
  Se  Se210  1  0.08625611  0.76014401  0.79017707  1
  Se  Se211  1  0.41987493  0.09507950  0.31657127  1
  Se  Se212  1  0.41938897  0.08311312  0.80655522  1
  Se  Se213  1  0.41486795  0.41467725  0.31177484  1
  Se  Se214  1  0.42110132  0.42084218  0.80757437  1
  Se  Se215  1  0.42206343  0.75972717  0.31285038  1
  Se  Se216  1  0.41461450  0.74445398  0.80049067  1
  Se  Se217  1  0.75156571  0.09170501  0.30468171  1
  Se  Se218  1  0.74889633  0.08349428  0.79774807  1
  Se  Se219  1  0.75752325  0.42627025  0.31105360  1
  Se  Se220  1  0.75072015  0.41985991  0.79707198  1
  Se  Se221  1  0.75014066  0.74239589  0.30774370  1
  Se  Se222  1  0.74567870  0.74669796  0.80321267  1
  Se  Se223  1  0.24532938  0.08780085  0.20025371  1
  Se  Se224  1  0.24269687  0.09480871  0.68365922  1
  Se  Se225  1  0.24932505  0.41338937  0.20874516  1
  Se  Se226  1  0.24150954  0.42051081  0.67692149  1
  Se  Se227  1  0.24642899  0.75593582  0.19186720  1
  Se  Se228  1  0.25066923  0.74817334  0.70081278  1
  Se  Se229  1  0.57031882  0.10074623  0.19425374  1
  Se  Se230  1  0.58388830  0.07527387  0.69997803  1
  Se  Se231  1  0.57277751  0.42891924  0.18767895  1
  Se  Se232  1  0.58140536  0.40997576  0.69051591  1
  Se  Se233  1  0.58669082  0.75202504  0.19799566  1
  Se  Se234  1  0.58467341  0.74243552  0.69473387  1
  Se  Se235  1  0.91237699  0.08236503  0.18854696  1
  Se  Se236  1  0.91874283  0.08812735  0.70326324  1
  Se  Se237  1  0.91074932  0.41875980  0.19159006  1
  Se  Se238  1  0.91973517  0.41984471  0.69426441  1
  Se  Se239  1  0.92293159  0.74457751  0.19469154  1
  Se  Se240  1  0.91421551  0.74846914  0.69514671  1
  Se  Se241  1  0.08742710  0.24118020  0.19624370  1
  Se  Se242  1  0.09159235  0.26776825  0.68903774  1
  Se  Se243  1  0.08540341  0.57639759  0.20208569  1
  Se  Se244  1  0.07768929  0.58692902  0.69287312  1
  Se  Se245  1  0.09553059  0.90543334  0.18469974  1
  Se  Se246  1  0.07365930  0.92707527  0.70173910  1
  Se  Se247  1  0.40659138  0.26020611  0.19721101  1
  Se  Se248  1  0.42245546  0.24405144  0.68622851  1
  Se  Se249  1  0.42380100  0.57723347  0.18862858  1
  Se  Se250  1  0.41303442  0.57749995  0.68944997  1
  Se  Se251  1  0.42481246  0.91395210  0.19313053  1
  Se  Se252  1  0.42274795  0.90253404  0.68421718  1
  Se  Se253  1  0.75787468  0.24661362  0.19033192  1
  Se  Se254  1  0.74348408  0.25722295  0.69987075  1
  Se  Se255  1  0.75281849  0.58527428  0.19627480  1
  Se  Se256  1  0.74476424  0.58571753  0.69494909  1
  Se  Se257  1  0.76007027  0.90660432  0.19681852  1
  Se  Se258  1  0.74654122  0.91502054  0.69763330  1
