# generated using pymatgen
data_In86Cu29Se144
_symmetry_space_group_name_H-M   'P 1'
_cell_length_a   17.58214137
_cell_length_b   17.57938862
_cell_length_c   23.43907266
_cell_angle_alpha   89.99224177
_cell_angle_beta   89.99379315
_cell_angle_gamma   90.01056996
_symmetry_Int_Tables_number   1
_chemical_formula_structural   In86Cu29Se144
_chemical_formula_sum   'In86 Cu29 Se144'
_cell_volume   7244.62560039
_cell_formula_units_Z   1
loop_
 _symmetry_equiv_pos_site_id
 _symmetry_equiv_pos_as_xyz
  1  'x, y, z'
loop_
 _atom_site_type_symbol
 _atom_site_label
 _atom_site_symmetry_multiplicity
 _atom_site_fract_x
 _atom_site_fract_y
 _atom_site_fract_z
 _atom_site_occupancy
  In  In0  1  -0.00012865  0.15623266  0.12499079  1
  In  In1  1  0.01797052  0.17147345  0.62372295  1
  In  In2  1  -0.00018810  0.49794584  0.11757410  1
  In  In3  1  0.00726141  0.48817284  0.63001716  1
  In  In4  1  0.00879094  0.83890753  0.13310803  1
  In  In5  1  -0.00261558  0.82422451  0.60856765  1
  In  In6  1  0.34513062  0.17558280  0.12042843  1
  In  In7  1  0.34087755  0.17506311  0.61944863  1
  In  In8  1  0.33284751  0.49866083  0.12615481  1
  In  In9  1  0.32857350  0.48882009  0.62044974  1
  In  In10  1  0.34263680  0.81304394  0.13639622  1
  In  In11  1  0.32945859  0.82695741  0.61268293  1
  In  In12  1  0.65647815  0.17932292  0.13362236  1
  In  In13  1  0.65579934  0.17543019  0.61882295  1
  In  In14  1  0.66107077  0.50660451  0.12828258  1
  In  In15  1  0.66776379  0.51566178  0.62122295  1
  In  In16  1  0.65263021  0.83974023  0.14298995  1
  In  In17  1  0.66308991  0.81709763  0.60895165  1
  In  In18  1  0.16325792  0.00463416  0.37693570  1
  In  In19  1  0.17981998  0.00088506  0.87593807  1
  In  In20  1  0.17660353  0.33089093  0.37888744  1
  In  In21  1  0.16976291  0.33692452  0.87393701  1
  In  In22  1  0.17236473  0.65597175  0.38885828  1
  In  In23  1  0.15729057  0.65975582  0.87191776  1
  In  In24  1  0.51137813  -0.01151869  0.37739108  1
  In  In25  1  0.49813543  0.00016821  0.88827541  1
  In  In26  1  0.49346892  0.33609240  0.37006579  1
  In  In27  1  0.48942663  0.33994372  0.88262220  1
  In  In28  1  0.49921045  0.66939773  0.36905987  1
  In  In29  1  0.50596276  0.65988306  0.87848241  1
  In  In30  1  0.81872070  -0.01297101  0.36585330  1
  In  In31  1  0.84283880  0.00107111  0.87573367  1
  In  In32  1  0.82152976  0.34506277  0.37089457  1
  In  In33  1  0.85084002  0.33654496  0.87583524  1
  In  In34  1  0.82968447  0.67489531  0.38068228  1
  In  In35  1  0.81259161  0.66709612  0.86968309  1
  In  In36  1  0.01672611  0.16693099  0.37726586  1
  In  In37  1  0.00411246  0.18582965  0.87335066  1
  In  In38  1  0.00319499  0.51849343  0.38257176  1
  In  In39  1  0.01263405  0.48739697  0.88547838  1
  In  In40  1  -0.01100262  0.83604616  0.38650623  1
  In  In41  1  -0.00421327  0.83312569  0.86722004  1
  In  In42  1  0.32569991  0.17492981  0.37769586  1
  In  In43  1  0.32167738  0.17267470  0.88687852  1
  In  In44  1  0.33371357  0.50269358  0.37110129  1
  In  In45  1  0.34178175  0.49385469  0.87737389  1
  In  In46  1  0.35410334  0.81305244  0.38148681  1
  In  In47  1  0.33663072  0.84309658  0.87429588  1
  In  In48  1  0.65393278  0.15729124  0.36687470  1
  In  In49  1  0.66240649  0.15836934  0.88250865  1
  In  In50  1  0.66066982  0.48806557  0.36152065  1
  In  In51  1  0.65427318  0.51070068  0.88338273  1
  In  In52  1  0.65730091  0.83134430  0.37213705  1
  In  In53  1  0.66513802  0.81787340  0.87390583  1
  In  In54  1  0.15695688  0.00039434  0.12810423  1
  In  In55  1  0.16313351  -0.00042746  0.61270525  1
  In  In56  1  0.17883452  0.34146007  0.11951132  1
  In  In57  1  0.17644450  0.33717164  0.62686883  1
  In  In58  1  0.17816739  0.66361908  0.12789485  1
  In  In59  1  0.16449582  0.66535912  0.61386870  1
  In  In60  1  0.50385836  0.00214161  0.12700396  1
  In  In61  1  0.49792703  -0.00467599  0.61362168  1
  In  In62  1  0.49627962  0.33536902  0.12655349  1
  In  In63  1  0.48720532  0.32789432  0.61775863  1
  In  In64  1  0.50256904  0.66380041  0.12726823  1
  In  In65  1  0.51082700  0.66953088  0.61295384  1
  In  In66  1  0.83533527  -0.00480398  0.13400202  1
  In  In67  1  0.83943940  -0.01210018  0.62047570  1
  In  In68  1  0.82000557  0.34560501  0.13186386  1
  In  In69  1  0.83718012  0.35016065  0.62889673  1
  In  In70  1  0.82139105  0.65216213  0.12465868  1
  In  In71  1  0.82060748  0.66741157  0.62360821  1
  In  In72  1  0.00000406  -0.00269944  0.74686587  1
  In  In73  1  0.33228779  0.00316482  0.75074791  1
  In  In74  1  0.83266353  0.50396101  0.49910784  1
  In  In75  1  0.82844051  0.17865220  0.00819096  1
  In  In76  1  0.00002187  0.33333822  0.25012062  1
  In  In77  1  0.82822372  0.83218135  -0.00536445  1
  In  In78  1  0.17560284  0.83001853  0.00027364  1
  In  In79  1  0.33068157  0.66182467  0.74162607  1
  In  In80  1  0.66293803  -0.00420520  0.74298779  1
  In  In81  1  0.00000678  0.66176311  0.74214896  1
  In  In82  1  0.66671398  0.33967547  0.75224701  1
  In  In83  1  0.33864709  -0.00391985  0.25231352  1
  In  In84  1  -0.00591411  0.67277757  0.26039137  1
  In  In85  1  0.82992535  0.16259217  0.50051700  1
  Cu  Cu86  1  0.17066094  0.17499762  0.74985438  1
  Cu  Cu87  1  0.66019875  0.00029361  0.00878789  1
  Cu  Cu88  1  0.33426109  0.33279636  0.00148725  1
  Cu  Cu89  1  0.83215226  0.83345760  0.25675306  1
  Cu  Cu90  1  0.50201984  0.82792023  0.74462838  1
  Cu  Cu91  1  0.33676234  -0.00384389  0.00625408  1
  Cu  Cu92  1  -0.00297513  -0.00067883  0.49687417  1
  Cu  Cu93  1  0.83769191  0.50562165  0.75215542  1
  Cu  Cu94  1  0.66223461  0.33979269  0.00851462  1
  Cu  Cu95  1  0.49335988  0.49994949  0.24728552  1
  Cu  Cu96  1  0.00858604  0.33362622  0.50233690  1
  Cu  Cu97  1  0.33772648  0.65976476  0.00492793  1
  Cu  Cu98  1  0.50421066  0.50233171  0.75239374  1
  Cu  Cu99  1  0.33142675  0.00398181  0.49328468  1
  Cu  Cu100  1  0.66003649  0.66679575  0.00377301  1
  Cu  Cu101  1  0.34137719  0.66423298  0.49758515  1
  Cu  Cu102  1  0.66422087  -0.00846097  0.49095021  1
  Cu  Cu103  1  0.83892472  0.16245741  0.24887129  1
  Cu  Cu104  1  0.83723093  0.16920696  0.75104270  1
  Cu  Cu105  1  0.16745500  0.50468182  0.25269561  1
  Cu  Cu106  1  0.16776721  0.83604155  0.25622816  1
  Cu  Cu107  1  0.49106780  0.17497077  0.75063104  1
  Cu  Cu108  1  0.33380633  0.34021807  0.49713289  1
  Cu  Cu109  1  0.49853192  0.17042479  0.24969019  1
  Cu  Cu110  1  0.65223957  0.33355611  0.49326725  1
  Cu  Cu111  1  -0.00038511  0.66023389  -0.00011208  1
  Cu  Cu112  1  0.17008592  0.16782136  0.25363876  1
  Cu  Cu113  1  0.00531187  0.00464979  0.00145452  1
  Cu  Cu114  1  0.00879701  0.33596435  -0.00020314  1
  Se  Se115  1  0.08948557  0.08683477  0.05304159  1
  Se  Se116  1  0.08000886  0.08624581  0.54714988  1
  Se  Se117  1  0.09100536  0.42150576  0.05260206  1
  Se  Se118  1  0.09025449  0.41719565  0.55588637  1
  Se  Se119  1  0.07685852  0.74483807  0.05943112  1
  Se  Se120  1  0.09015929  0.75133719  0.54480675  1
  Se  Se121  1  0.42106970  0.08157039  0.05654600  1
  Se  Se122  1  0.41465296  0.08380080  0.55145938  1
  Se  Se123  1  0.41556595  0.41748950  0.05566189  1
  Se  Se124  1  0.42109719  0.42238146  0.54837514  1
  Se  Se125  1  0.41860516  0.74701437  0.05619987  1
  Se  Se126  1  0.42267051  0.75287797  0.54832885  1
  Se  Se127  1  0.74574209  0.07906524  0.06495595  1
  Se  Se128  1  0.73690117  0.07083916  0.55942613  1
  Se  Se129  1  0.74762926  0.42462022  0.05706245  1
  Se  Se130  1  0.73896044  0.40625220  0.55504915  1
  Se  Se131  1  0.74099464  0.75090513  0.06125597  1
  Se  Se132  1  0.75722330  0.74473070  0.54413173  1
  Se  Se133  1  0.25061949  0.24673473  0.05316112  1
  Se  Se134  1  0.25271836  0.25451184  0.55311654  1
  Se  Se135  1  0.24801103  0.58013123  0.05443025  1
  Se  Se136  1  0.25786015  0.58371584  0.55341264  1
  Se  Se137  1  0.25882530  0.91584636  0.06882299  1
  Se  Se138  1  0.25083702  0.91832753  0.54813061  1
  Se  Se139  1  0.57987365  0.25097239  0.05620191  1
  Se  Se140  1  0.57244639  0.24749059  0.54730841  1
  Se  Se141  1  0.57730620  0.57892205  0.05323135  1
  Se  Se142  1  0.58476713  0.57835712  0.54586145  1
  Se  Se143  1  0.58317325  0.91069053  0.06046102  1
  Se  Se144  1  0.58088052  0.91125881  0.54845120  1
  Se  Se145  1  0.92504979  0.26513732  0.06589361  1
  Se  Se146  1  0.91900236  0.25851374  0.55955892  1
  Se  Se147  1  0.91281006  0.58357603  0.05427748  1
  Se  Se148  1  0.92290244  0.58227495  0.56653456  1
  Se  Se149  1  0.92403627  0.91992448  0.05658980  1
  Se  Se150  1  0.91215136  0.91216861  0.54439734  1
  Se  Se151  1  0.09081988  0.25051171  0.44852754  1
  Se  Se152  1  0.09014124  0.25093457  0.94690728  1
  Se  Se153  1  0.08395891  0.58246939  0.45868003  1
  Se  Se154  1  0.08969103  0.58171603  0.95000221  1
  Se  Se155  1  0.08466495  0.91788645  0.44601765  1
  Se  Se156  1  0.07803847  0.91889583  0.94027358  1
  Se  Se157  1  0.41500567  0.25390724  0.44369550  1
  Se  Se158  1  0.41852143  0.24617212  0.95021722  1
  Se  Se159  1  0.41977876  0.58217948  0.43957486  1
  Se  Se160  1  0.42054875  0.58017856  0.94625324  1
  Se  Se161  1  0.41687696  0.91831593  0.44468569  1
  Se  Se162  1  0.41632108  0.91014722  0.95197523  1
  Se  Se163  1  0.74128602  0.25338393  0.43964230  1
  Se  Se164  1  0.74111769  0.26467145  0.94084536  1
  Se  Se165  1  0.73734010  0.58036256  0.43618625  1
  Se  Se166  1  0.74775185  0.58750105  0.94902331  1
  Se  Se167  1  0.75046908  0.90762272  0.44267433  1
  Se  Se168  1  0.73812850  0.93014273  0.93916550  1
  Se  Se169  1  0.24520389  0.08875189  0.44525124  1
  Se  Se170  1  0.24962533  0.07676653  0.95343884  1
  Se  Se171  1  0.24976324  0.42426976  0.44453621  1
  Se  Se172  1  0.25321501  0.41629615  0.94530769  1
  Se  Se173  1  0.25448632  0.75042662  0.44904890  1
  Se  Se174  1  0.26100173  0.73787325  0.93786580  1
  Se  Se175  1  0.58179405  0.08407451  0.44639279  1
  Se  Se176  1  0.57947588  0.08667426  0.95520348  1
  Se  Se177  1  0.57719619  0.42061797  0.43858970  1
  Se  Se178  1  0.57971461  0.41797734  0.94844357  1
  Se  Se179  1  0.57075795  0.75647198  0.44172900  1
  Se  Se180  1  0.57963682  0.75177902  0.94802011  1
  Se  Se181  1  0.91651467  0.07818310  0.43493258  1
  Se  Se182  1  0.92192118  0.08781031  0.94581409  1
  Se  Se183  1  0.92402225  0.40781629  0.44102216  1
  Se  Se184  1  0.91610704  0.41796514  0.95340780  1
  Se  Se185  1  0.93227974  0.72782022  0.44748663  1
  Se  Se186  1  0.92285277  0.74081359  0.93793699  1
  Se  Se187  1  0.25215792  0.25551159  0.30160657  1
  Se  Se188  1  0.25563581  0.25029110  0.80750266  1
  Se  Se189  1  0.24693570  0.59071025  0.30640730  1
  Se  Se190  1  0.24737272  0.57477070  0.80838170  1
  Se  Se191  1  0.25233251  0.90978123  0.31701221  1
  Se  Se192  1  0.23819923  0.90506717  0.80121482  1
  Se  Se193  1  0.58287727  0.25465146  0.30252820  1
  Se  Se194  1  0.58015629  0.24427800  0.81128433  1
  Se  Se195  1  0.57859020  0.58062267  0.30010732  1
  Se  Se196  1  0.58739430  0.58775629  0.80267289  1
  Se  Se197  1  0.59274721  0.92510640  0.30042984  1
  Se  Se198  1  0.57124327  0.91377476  0.80906706  1
  Se  Se199  1  0.91221125  0.24354347  0.31375163  1
  Se  Se200  1  0.92084381  0.25556632  0.79909682  1
  Se  Se201  1  0.90362574  0.57442791  0.31022551  1
  Se  Se202  1  0.91781782  0.58130622  0.81610172  1
  Se  Se203  1  0.92181930  0.91429196  0.30619844  1
  Se  Se204  1  0.89916297  0.90666304  0.79964881  1
  Se  Se205  1  0.08453211  0.08315487  0.30158078  1
  Se  Se206  1  0.09098034  0.08897507  0.80823486  1
  Se  Se207  1  0.08537134  0.42595077  0.31298753  1
  Se  Se208  1  0.07831762  0.41234969  0.80680565  1
  Se  Se209  1  0.09063647  0.75523364  0.31877089  1
  Se  Se210  1  0.09086017  0.75820374  0.80194448  1
  Se  Se211  1  0.42262686  0.08984016  0.31336988  1
  Se  Se212  1  0.42098422  0.08951378  0.81409836  1
  Se  Se213  1  0.40902474  0.41569494  0.29977846  1
  Se  Se214  1  0.42142488  0.41633626  0.80266809  1
  Se  Se215  1  0.41602630  0.74779984  0.29650184  1
  Se  Se216  1  0.41923755  0.75246908  0.80659377  1
  Se  Se217  1  0.74915771  0.08438660  0.30151774  1
  Se  Se218  1  0.75549189  0.08863982  0.80684572  1
  Se  Se219  1  0.74887931  0.41246707  0.29234709  1
  Se  Se220  1  0.75639187  0.42634306  0.81479922  1
  Se  Se221  1  0.74909353  0.74885048  0.30686303  1
  Se  Se222  1  0.74902287  0.75659447  0.79811680  1
  Se  Se223  1  0.25005503  0.08809426  0.19102840  1
  Se  Se224  1  0.24172437  0.08879420  0.68789110  1
  Se  Se225  1  0.24717411  0.41937517  0.19797853  1
  Se  Se226  1  0.26152166  0.41230645  0.69837615  1
  Se  Se227  1  0.24515665  0.74772592  0.20336375  1
  Se  Se228  1  0.24099003  0.75753377  0.68780099  1
  Se  Se229  1  0.58232385  0.08454801  0.19853096  1
  Se  Se230  1  0.56899529  0.09304690  0.69094638  1
  Se  Se231  1  0.58012643  0.41716584  0.19489677  1
  Se  Se232  1  0.57877214  0.42138539  0.68638859  1
  Se  Se233  1  0.60369202  0.72263001  0.19660130  1
  Se  Se234  1  0.58489120  0.74867693  0.68934070  1
  Se  Se235  1  0.92327598  0.07814979  0.19880400  1
  Se  Se236  1  0.91172583  0.09165633  0.68591448  1
  Se  Se237  1  0.91297713  0.43063055  0.19573635  1
  Se  Se238  1  0.92036963  0.41774128  0.70384994  1
  Se  Se239  1  0.90767536  0.75602881  0.18922293  1
  Se  Se240  1  0.91118753  0.75704729  0.68806174  1
  Se  Se241  1  0.09120309  0.24572746  0.18905770  1
  Se  Se242  1  0.08646452  0.25664930  0.69630561  1
  Se  Se243  1  0.08145768  0.58224466  0.19442558  1
  Se  Se244  1  0.10108355  0.57421882  0.69294278  1
  Se  Se245  1  0.08474492  0.92049060  0.20476020  1
  Se  Se246  1  0.08381534  0.90976326  0.68274051  1
  Se  Se247  1  0.41332664  0.25375697  0.19845317  1
  Se  Se248  1  0.41005599  0.25707295  0.69672922  1
  Se  Se249  1  0.41100894  0.58602690  0.19451192  1
  Se  Se250  1  0.42829035  0.57805232  0.68516837  1
  Se  Se251  1  0.43102645  0.90440174  0.19729875  1
  Se  Se252  1  0.41912848  0.90966498  0.68900943  1
  Se  Se253  1  0.75532333  0.24784865  0.19828803  1
  Se  Se254  1  0.75439615  0.24477151  0.68951551  1
  Se  Se255  1  0.74079170  0.58785049  0.20102736  1
  Se  Se256  1  0.75019067  0.58260293  0.69845831  1
  Se  Se257  1  0.74977116  0.91848429  0.20264930  1
  Se  Se258  1  0.74978692  0.90535733  0.68485924  1
