# generated using pymatgen
data_In86Cu29Se144
_symmetry_space_group_name_H-M   'P 1'
_cell_length_a   17.58987036
_cell_length_b   17.58699366
_cell_length_c   23.45167586
_cell_angle_alpha   90.00259593
_cell_angle_beta   90.00386014
_cell_angle_gamma   90.00079390
_symmetry_Int_Tables_number   1
_chemical_formula_structural   In86Cu29Se144
_chemical_formula_sum   'In86 Cu29 Se144'
_cell_volume   7254.84481441
_cell_formula_units_Z   1
loop_
 _symmetry_equiv_pos_site_id
 _symmetry_equiv_pos_as_xyz
  1  'x, y, z'
loop_
 _atom_site_type_symbol
 _atom_site_label
 _atom_site_symmetry_multiplicity
 _atom_site_fract_x
 _atom_site_fract_y
 _atom_site_fract_z
 _atom_site_occupancy
  In  In0  1  0.00211783  0.16457473  0.12920427  1
  In  In1  1  0.00965653  0.16302115  0.63698213  1
  In  In2  1  -0.01436113  0.50404902  0.12620839  1
  In  In3  1  -0.00146683  0.49968090  0.62353214  1
  In  In4  1  0.00241619  0.84285496  0.10974253  1
  In  In5  1  0.00055861  0.83117846  0.63094735  1
  In  In6  1  0.35789830  0.16452150  0.13420037  1
  In  In7  1  0.32493064  0.16630000  0.62516317  1
  In  In8  1  0.33905895  0.49790128  0.13474799  1
  In  In9  1  0.34317144  0.51270836  0.61756476  1
  In  In10  1  0.32595540  0.82496563  0.11878945  1
  In  In11  1  0.32255644  0.83522864  0.63873758  1
  In  In12  1  0.67115407  0.16443456  0.13594051  1
  In  In13  1  0.67218275  0.15819386  0.61766073  1
  In  In14  1  0.67132184  0.49807889  0.13185565  1
  In  In15  1  0.69082239  0.53174713  0.59058103  1
  In  In16  1  0.67212868  0.82628299  0.12309962  1
  In  In17  1  0.66516511  0.81171372  0.62129708  1
  In  In18  1  0.15488996  0.00410296  0.37648185  1
  In  In19  1  0.13995442  -0.04072413  0.84573206  1
  In  In20  1  0.17175816  0.34581534  0.37133818  1
  In  In21  1  0.16512314  0.34634370  0.87532877  1
  In  In22  1  0.17067986  0.66093064  0.38692364  1
  In  In23  1  0.18560786  0.69265095  0.84873341  1
  In  In24  1  0.50649659  -0.01933604  0.36574086  1
  In  In25  1  0.48535650  -0.00162587  0.87526302  1
  In  In26  1  0.51604624  0.35108519  0.35756014  1
  In  In27  1  0.50289215  0.32275786  0.87684969  1
  In  In28  1  0.49342824  0.67119388  0.36632325  1
  In  In29  1  0.51233671  0.67322366  0.86512618  1
  In  In30  1  0.82899701  -0.00613330  0.36278946  1
  In  In31  1  0.83972432  -0.01906228  0.88849946  1
  In  In32  1  0.83793976  0.33948907  0.37122457  1
  In  In33  1  0.84866820  0.33647826  0.87786361  1
  In  In34  1  0.82343538  0.67643768  0.39239279  1
  In  In35  1  0.83014392  0.66478812  0.87454526  1
  In  In36  1  -0.00350473  0.15809697  0.36638924  1
  In  In37  1  -0.00145388  0.17012590  0.86886026  1
  In  In38  1  0.00095575  0.49808896  0.38477184  1
  In  In39  1  -0.00466860  0.50320893  0.86875953  1
  In  In40  1  -0.00574174  0.83820157  0.37915895  1
  In  In41  1  -0.00356638  0.82896857  0.86856713  1
  In  In42  1  0.32483410  0.16890056  0.37513490  1
  In  In43  1  0.34360976  0.13980258  0.87563801  1
  In  In44  1  0.33316469  0.51017299  0.37590213  1
  In  In45  1  0.32236657  0.50057478  0.87441299  1
  In  In46  1  0.33633053  0.81553737  0.37382410  1
  In  In47  1  0.33240976  0.83381357  0.87436650  1
  In  In48  1  0.65994481  0.16444773  0.36031832  1
  In  In49  1  0.66182669  0.16714623  0.87644248  1
  In  In50  1  0.66816893  0.50732854  0.37644226  1
  In  In51  1  0.66519656  0.51553603  0.87592678  1
  In  In52  1  0.66761401  0.83309679  0.35987750  1
  In  In53  1  0.67720671  0.82479429  0.88835576  1
  In  In54  1  0.16434770  -0.01112000  0.12115109  1
  In  In55  1  0.17316496  -0.01279665  0.64209423  1
  In  In56  1  0.16841198  0.33117462  0.13676590  1
  In  In57  1  0.15641862  0.33280733  0.62354812  1
  In  In58  1  0.16829062  0.67923009  0.12287996  1
  In  In59  1  0.16796029  0.66895380  0.62988866  1
  In  In60  1  0.52975928  -0.01989042  0.13868687  1
  In  In61  1  0.50427787  -0.01354980  0.62919453  1
  In  In62  1  0.50877346  0.31726155  0.15189715  1
  In  In63  1  0.48869192  0.34747388  0.62213913  1
  In  In64  1  0.49110450  0.68292707  0.13984839  1
  In  In65  1  0.50681943  0.65794111  0.63254501  1
  In  In66  1  0.83711980  -0.01040417  0.12427005  1
  In  In67  1  0.85019243  -0.00803447  0.63103657  1
  In  In68  1  0.82538598  0.34241205  0.13369038  1
  In  In69  1  0.83188804  0.34519008  0.62357845  1
  In  In70  1  0.83054029  0.65931031  0.11779700  1
  In  In71  1  0.83490646  0.67270281  0.62180688  1
  In  In72  1  0.66703112  -0.00131467  0.75944042  1
  In  In73  1  0.33176154  0.33246031  0.74914181  1
  In  In74  1  0.50087233  0.16956476  0.48867728  1
  In  In75  1  0.17025657  0.16188735  -0.00052557  1
  In  In76  1  0.50215483  0.15610286  0.01080594  1
  In  In77  1  -0.00222814  0.66763889  0.25155505  1
  In  In78  1  0.49972607  0.82469961  0.49635249  1
  In  In79  1  0.50100079  0.50407808  0.00609669  1
  In  In80  1  0.83192461  0.16028949  0.00551547  1
  In  In81  1  0.83639551  0.16909309  0.48932152  1
  In  In82  1  0.16130475  0.16831296  0.50491880  1
  In  In83  1  0.15538366  0.51368597  -0.00417325  1
  In  In84  1  0.32942230  0.00472201  0.25027156  1
  In  In85  1  0.66568828  0.34211092  0.75025783  1
  Cu  Cu86  1  0.33432446  -0.00488041  0.51239101  1
  Cu  Cu87  1  0.32937178  0.67159974  0.50272212  1
  Cu  Cu88  1  0.82729065  0.82718652  0.75263207  1
  Cu  Cu89  1  0.83481542  0.50073336  0.25533945  1
  Cu  Cu90  1  0.67096221  0.66955838  0.00177970  1
  Cu  Cu91  1  0.83610583  0.83183689  0.24804140  1
  Cu  Cu92  1  0.17406411  0.16660184  0.75311492  1
  Cu  Cu93  1  0.00228785  0.66750225  0.50756035  1
  Cu  Cu94  1  0.16615005  0.83297501  0.24596897  1
  Cu  Cu95  1  0.50113155  0.50151162  0.74564729  1
  Cu  Cu96  1  -0.00217451  0.33045532  0.50039529  1
  Cu  Cu97  1  0.67348908  0.34100539  0.00753086  1
  Cu  Cu98  1  0.15661121  0.16739433  0.25066266  1
  Cu  Cu99  1  -0.00312232  0.34211446  0.00224553  1
  Cu  Cu100  1  0.33497913  0.34963342  0.49160620  1
  Cu  Cu101  1  0.33436240  0.66939484  -0.00277534  1
  Cu  Cu102  1  0.49730426  0.50572547  0.25210577  1
  Cu  Cu103  1  0.83373423  0.50636190  0.74139608  1
  Cu  Cu104  1  0.16077780  0.50030483  0.74781605  1
  Cu  Cu105  1  0.34000421  0.33032842  0.01092041  1
  Cu  Cu106  1  0.65569519  0.33724448  0.49342265  1
  Cu  Cu107  1  0.49449099  0.82962747  0.75152924  1
  Cu  Cu108  1  -0.00133869  0.67195837  -0.00898039  1
  Cu  Cu109  1  0.67919007  -0.01021314  0.49087657  1
  Cu  Cu110  1  0.16688141  0.50622581  0.25895520  1
  Cu  Cu111  1  0.83384521  0.17012948  0.75185928  1
  Cu  Cu112  1  0.00240396  -0.01587329  0.50382804  1
  Cu  Cu113  1  0.32695916  -0.01569370  -0.00123344  1
  Cu  Cu114  1  0.83316364  0.16717324  0.24791741  1
  Se  Se115  1  0.07373066  0.07554177  0.05490695  1
  Se  Se116  1  0.07875801  0.07114906  0.56246212  1
  Se  Se117  1  0.08299235  0.41449158  0.06233536  1
  Se  Se118  1  0.08085090  0.41484809  0.55253214  1
  Se  Se119  1  0.08339227  0.74736394  0.04948209  1
  Se  Se120  1  0.08464565  0.75205100  0.56025267  1
  Se  Se121  1  0.40710850  0.06260763  0.06154494  1
  Se  Se122  1  0.41976719  0.08051915  0.56042923  1
  Se  Se123  1  0.42402833  0.40554496  0.06912670  1
  Se  Se124  1  0.42067790  0.42804232  0.54617696  1
  Se  Se125  1  0.41929139  0.74585285  0.05428292  1
  Se  Se126  1  0.40972800  0.74877233  0.56629354  1
  Se  Se127  1  0.73495476  0.07539577  0.06071339  1
  Se  Se128  1  0.75599359  0.06989327  0.55234489  1
  Se  Se129  1  0.75653092  0.42512709  0.05708282  1
  Se  Se130  1  0.74919374  0.40896565  0.54680942  1
  Se  Se131  1  0.75984059  0.75257363  0.04979339  1
  Se  Se132  1  0.74538419  0.74135860  0.54868031  1
  Se  Se133  1  0.25692828  0.24871970  0.06586839  1
  Se  Se134  1  0.26060127  0.26529951  0.55332665  1
  Se  Se135  1  0.25910366  0.58524692  0.05849011  1
  Se  Se136  1  0.24620244  0.58688304  0.55530714  1
  Se  Se137  1  0.23928779  0.90444749  0.05038614  1
  Se  Se138  1  0.24789235  0.91543161  0.56268650  1
  Se  Se139  1  0.58913637  0.26058148  0.06298101  1
  Se  Se140  1  0.58657354  0.25494721  0.55760694  1
  Se  Se141  1  0.58939994  0.59301260  0.06500354  1
  Se  Se142  1  0.56611458  0.58304956  0.54971318  1
  Se  Se143  1  0.58053524  0.90379075  0.05579181  1
  Se  Se144  1  0.59405276  0.91975401  0.55371100  1
  Se  Se145  1  0.92004364  0.25863375  0.06131214  1
  Se  Se146  1  0.92353245  0.24644974  0.56224946  1
  Se  Se147  1  0.92227059  0.58583890  0.04799922  1
  Se  Se148  1  0.91556410  0.58183876  0.55486372  1
  Se  Se149  1  0.91164968  0.92026549  0.04547169  1
  Se  Se150  1  0.91380644  0.90649013  0.55592460  1
  Se  Se151  1  0.07499232  0.25083970  0.43752040  1
  Se  Se152  1  0.07832763  0.26093883  0.94412058  1
  Se  Se153  1  0.08274281  0.58198495  0.45269482  1
  Se  Se154  1  0.08290561  0.60309565  0.92620616  1
  Se  Se155  1  0.09024218  0.91121091  0.44683916  1
  Se  Se156  1  0.08239178  0.90862614  0.93790766  1
  Se  Se157  1  0.41116313  0.26381097  0.43454308  1
  Se  Se158  1  0.41062245  0.24755375  0.94667191  1
  Se  Se159  1  0.41468868  0.59711449  0.44298203  1
  Se  Se160  1  0.41304078  0.58629790  0.93817346  1
  Se  Se161  1  0.40916879  0.92334333  0.44236800  1
  Se  Se162  1  0.41920064  0.90850958  0.94763547  1
  Se  Se163  1  0.73469105  0.25291969  0.43554497  1
  Se  Se164  1  0.74554246  0.25826451  0.94332480  1
  Se  Se165  1  0.75619652  0.57224373  0.45143974  1
  Se  Se166  1  0.75116472  0.58182795  0.94903352  1
  Se  Se167  1  0.75506886  0.90714664  0.43352178  1
  Se  Se168  1  0.73738428  0.92682174  0.95319069  1
  Se  Se169  1  0.25597752  0.07469949  0.44897649  1
  Se  Se170  1  0.24859273  0.06481057  0.93888151  1
  Se  Se171  1  0.24392325  0.42936815  0.44450098  1
  Se  Se172  1  0.25767222  0.41066333  0.95321046  1
  Se  Se173  1  0.24772338  0.75740043  0.45042733  1
  Se  Se174  1  0.24856636  0.74594125  0.94085167  1
  Se  Se175  1  0.59152937  0.06974522  0.43742189  1
  Se  Se176  1  0.58773915  0.07335142  0.94285305  1
  Se  Se177  1  0.57668494  0.42357957  0.44159029  1
  Se  Se178  1  0.58903413  0.41007221  0.94312883  1
  Se  Se179  1  0.59329598  0.74410878  0.43529052  1
  Se  Se180  1  0.58003396  0.74359465  0.94785348  1
  Se  Se181  1  0.92553409  0.06656847  0.44156216  1
  Se  Se182  1  0.92827909  0.08166248  0.94357347  1
  Se  Se183  1  0.91243818  0.41309259  0.44927808  1
  Se  Se184  1  0.91904182  0.42685802  0.94749538  1
  Se  Se185  1  0.92295016  0.75118129  0.45116881  1
  Se  Se186  1  0.91058220  0.75261389  0.94089976  1
  Se  Se187  1  0.24008142  0.24657780  0.30665931  1
  Se  Se188  1  0.24985695  0.24421891  0.81846723  1
  Se  Se189  1  0.24917666  0.59469442  0.30692610  1
  Se  Se190  1  0.25265530  0.57755741  0.79777289  1
  Se  Se191  1  0.24299023  0.91103989  0.31113244  1
  Se  Se192  1  0.27164506  0.93191070  0.80460798  1
  Se  Se193  1  0.57202158  0.24393282  0.29670317  1
  Se  Se194  1  0.57546784  0.23990667  0.80093226  1
  Se  Se195  1  0.58372063  0.58587978  0.30508781  1
  Se  Se196  1  0.58865248  0.58300628  0.79741744  1
  Se  Se197  1  0.59122371  0.92001771  0.29033785  1
  Se  Se198  1  0.57788623  0.90448220  0.81435701  1
  Se  Se199  1  0.91443781  0.24823513  0.30456073  1
  Se  Se200  1  0.91809300  0.25695421  0.80135420  1
  Se  Se201  1  0.91101493  0.58321206  0.31647433  1
  Se  Se202  1  0.91278215  0.58704353  0.80121403  1
  Se  Se203  1  0.92291976  0.91417024  0.29988207  1
  Se  Se204  1  0.90714372  0.91691376  0.80384510  1
  Se  Se205  1  0.07887363  0.07437502  0.29825907  1
  Se  Se206  1  0.08575467  0.08704414  0.80472910  1
  Se  Se207  1  0.07862035  0.42334760  0.30709499  1
  Se  Se208  1  0.08049854  0.41621395  0.80293548  1
  Se  Se209  1  0.09029574  0.75378330  0.31165796  1
  Se  Se210  1  0.07518260  0.75117472  0.79392389  1
  Se  Se211  1  0.42132294  0.08771639  0.31373763  1
  Se  Se212  1  0.43181619  0.08954829  0.79843327  1
  Se  Se213  1  0.40925873  0.42387852  0.30396888  1
  Se  Se214  1  0.42698305  0.42099450  0.81080668  1
  Se  Se215  1  0.43549107  0.77571126  0.30071516  1
  Se  Se216  1  0.41211403  0.74522602  0.80433693  1
  Se  Se217  1  0.74754793  0.08110500  0.29700477  1
  Se  Se218  1  0.76199212  0.09013566  0.81600826  1
  Se  Se219  1  0.74726629  0.41854124  0.30676100  1
  Se  Se220  1  0.75998618  0.42708125  0.81027310  1
  Se  Se221  1  0.76191422  0.74356572  0.30439125  1
  Se  Se222  1  0.74221668  0.74775514  0.80723888  1
  Se  Se223  1  0.23870019  0.09245450  0.18647357  1
  Se  Se224  1  0.25685560  0.08391743  0.69979378  1
  Se  Se225  1  0.24672395  0.42253877  0.20027590  1
  Se  Se226  1  0.24589875  0.42229028  0.68716821  1
  Se  Se227  1  0.25220270  0.74764120  0.19770186  1
  Se  Se228  1  0.23597569  0.75525365  0.70478112  1
  Se  Se229  1  0.54917150  0.11134442  0.18352814  1
  Se  Se230  1  0.58334106  0.08760728  0.69014724  1
  Se  Se231  1  0.58557714  0.42203902  0.20299791  1
  Se  Se232  1  0.58378101  0.42838003  0.68403744  1
  Se  Se233  1  0.60742417  0.73199834  0.19428593  1
  Se  Se234  1  0.58239706  0.74969141  0.69947196  1
  Se  Se235  1  0.91264161  0.08252313  0.19198773  1
  Se  Se236  1  0.91653345  0.08461915  0.70007147  1
  Se  Se237  1  0.91802623  0.41848351  0.20073825  1
  Se  Se238  1  0.91661411  0.41562116  0.69568325  1
  Se  Se239  1  0.91605440  0.75499673  0.18461704  1
  Se  Se240  1  0.91311224  0.74758437  0.69807813  1
  Se  Se241  1  0.07454244  0.25404054  0.19922329  1
  Se  Se242  1  0.09091486  0.25207927  0.70169278  1
  Se  Se243  1  0.09036303  0.57926831  0.18921177  1
  Se  Se244  1  0.07933273  0.58221334  0.69335217  1
  Se  Se245  1  0.08056889  0.91075869  0.19136433  1
  Se  Se246  1  0.06312069  0.93075426  0.69949228  1
  Se  Se247  1  0.39272315  0.26629613  0.20698606  1
  Se  Se248  1  0.42472509  0.24470675  0.68886723  1
  Se  Se249  1  0.41123236  0.58944048  0.20185718  1
  Se  Se250  1  0.41138615  0.58499149  0.69945977  1
  Se  Se251  1  0.41218324  0.91276741  0.18818368  1
  Se  Se252  1  0.41650867  0.91845009  0.69993257  1
  Se  Se253  1  0.74687587  0.25515038  0.20136375  1
  Se  Se254  1  0.75313943  0.24383924  0.68990113  1
  Se  Se255  1  0.75781167  0.58388367  0.19645946  1
  Se  Se256  1  0.74720053  0.58222493  0.68526692  1
  Se  Se257  1  0.75099581  0.91400631  0.19448542  1
  Se  Se258  1  0.74846217  0.91001464  0.69055814  1
