# generated using pymatgen
data_In86Cu29Se144
_symmetry_space_group_name_H-M   'P 1'
_cell_length_a   17.58707651
_cell_length_b   17.58542903
_cell_length_c   23.45122317
_cell_angle_alpha   90.00002076
_cell_angle_beta   89.98846984
_cell_angle_gamma   89.98192404
_symmetry_Int_Tables_number   1
_chemical_formula_structural   In86Cu29Se144
_chemical_formula_sum   'In86 Cu29 Se144'
_cell_volume   7252.90668975
_cell_formula_units_Z   1
loop_
 _symmetry_equiv_pos_site_id
 _symmetry_equiv_pos_as_xyz
  1  'x, y, z'
loop_
 _atom_site_type_symbol
 _atom_site_label
 _atom_site_symmetry_multiplicity
 _atom_site_fract_x
 _atom_site_fract_y
 _atom_site_fract_z
 _atom_site_occupancy
  In  In0  1  -0.00136982  0.13015083  0.12250548  1
  In  In1  1  0.01307877  0.17209640  0.62625153  1
  In  In2  1  -0.00078333  0.49905178  0.11591722  1
  In  In3  1  -0.01794817  0.50121771  0.62844808  1
  In  In4  1  0.02101327  0.87118079  0.09526479  1
  In  In5  1  -0.01278990  0.84415153  0.62831855  1
  In  In6  1  0.32203532  0.15424606  0.11828451  1
  In  In7  1  0.33842357  0.18403852  0.60788088  1
  In  In8  1  0.34199423  0.50866878  0.12103921  1
  In  In9  1  0.35026357  0.48105590  0.62271254  1
  In  In10  1  0.33483186  0.83324845  0.13104798  1
  In  In11  1  0.32940955  0.83359775  0.62743619  1
  In  In12  1  0.66578862  0.18019141  0.13709560  1
  In  In13  1  0.65913165  0.17457571  0.63315298  1
  In  In14  1  0.66430379  0.49444035  0.11714573  1
  In  In15  1  0.66651260  0.49363549  0.62469443  1
  In  In16  1  0.67968654  0.84469586  0.11508556  1
  In  In17  1  0.67516357  0.82586819  0.63544255  1
  In  In18  1  0.17937313  0.00422094  0.35493641  1
  In  In19  1  0.15861895  0.00347933  0.89257579  1
  In  In20  1  0.15174390  0.32788358  0.37712679  1
  In  In21  1  0.16697065  0.33224851  0.87998721  1
  In  In22  1  0.17816364  0.66621896  0.36531769  1
  In  In23  1  0.16189598  0.66759319  0.88794487  1
  In  In24  1  0.50655535  0.00391345  0.36438746  1
  In  In25  1  0.50554735  -0.00382193  0.88523443  1
  In  In26  1  0.51167554  0.31310335  0.39538337  1
  In  In27  1  0.50526937  0.32857791  0.87843997  1
  In  In28  1  0.50320472  0.66938285  0.37655736  1
  In  In29  1  0.51453348  0.65799305  0.88028484  1
  In  In30  1  0.81880562  -0.00625903  0.36172796  1
  In  In31  1  0.82935496  0.00399485  0.87890990  1
  In  In32  1  0.82910713  0.34420142  0.38016301  1
  In  In33  1  0.83785212  0.33696423  0.86661625  1
  In  In34  1  0.83257007  0.66337863  0.38485021  1
  In  In35  1  0.82177920  0.67427181  0.88133210  1
  In  In36  1  0.00836462  0.16376633  0.37735569  1
  In  In37  1  -0.00038607  0.16872598  0.87644713  1
  In  In38  1  -0.00436001  0.49504428  0.37709838  1
  In  In39  1  0.00217413  0.48915543  0.88157909  1
  In  In40  1  -0.01238016  0.83674983  0.37056742  1
  In  In41  1  -0.00504659  0.83814981  0.89344956  1
  In  In42  1  0.33854312  0.15938037  0.37808787  1
  In  In43  1  0.33684979  0.17069505  0.88509096  1
  In  In44  1  0.34286241  0.50507688  0.36856127  1
  In  In45  1  0.33585077  0.49815550  0.88495923  1
  In  In46  1  0.33805023  0.83396475  0.35554728  1
  In  In47  1  0.32894717  0.83893899  0.88973603  1
  In  In48  1  0.66246505  0.16193159  0.36934934  1
  In  In49  1  0.66395739  0.15895421  0.86756743  1
  In  In50  1  0.67362315  0.48867257  0.39086068  1
  In  In51  1  0.66506517  0.49836206  0.87276751  1
  In  In52  1  0.66646902  0.83239354  0.37491774  1
  In  In53  1  0.66894258  0.83549709  0.87936319  1
  In  In54  1  0.17181114  0.00105171  0.12797782  1
  In  In55  1  0.15874618  0.01273415  0.62637658  1
  In  In56  1  0.16443819  0.32802843  0.11642727  1
  In  In57  1  0.16570223  0.31290095  0.63359284  1
  In  In58  1  0.18338525  0.68173271  0.11910201  1
  In  In59  1  0.17686682  0.66538494  0.62860633  1
  In  In60  1  0.50443640  0.00347840  0.12401077  1
  In  In61  1  0.50244486  0.01459033  0.61937002  1
  In  In62  1  0.50783061  0.33732182  0.11963073  1
  In  In63  1  0.52679486  0.35774566  0.59278236  1
  In  In64  1  0.49237330  0.65837576  0.12233005  1
  In  In65  1  0.52778485  0.66835399  0.62288494  1
  In  In66  1  0.83691609  -0.00049512  0.13797302  1
  In  In67  1  0.82982718  -0.01395210  0.62167135  1
  In  In68  1  0.81938893  0.32489315  0.12558915  1
  In  In69  1  0.81944970  0.34489384  0.63677861  1
  In  In70  1  0.83927504  0.67043651  0.11528576  1
  In  In71  1  0.79346677  0.63594268  0.59166591  1
  In  In72  1  0.16112386  0.83717417  0.49123389  1
  In  In73  1  0.33842186  0.33195989  0.25125498  1
  In  In74  1  -0.01370166  0.66884451  0.75222491  1
  In  In75  1  -0.00664537  0.33084275  0.25188111  1
  In  In76  1  0.16331428  0.49570579  0.49480866  1
  In  In77  1  0.50698109  0.83257148  0.49173632  1
  In  In78  1  -0.00396492  0.00639176  0.76016127  1
  In  In79  1  0.82962226  0.16943198  0.50070235  1
  In  In80  1  0.66395182  0.66808855  0.24879928  1
  In  In81  1  0.00409078  0.67399890  0.24341230  1
  In  In82  1  0.33912401  0.32809948  0.74931106  1
  In  In83  1  0.34276154  0.66142489  0.76500941  1
  In  In84  1  0.83743793  0.16228597  0.00185902  1
  In  In85  1  0.33748983  0.00605396  0.74289288  1
  Cu  Cu86  1  0.33890580  0.33666524  0.00333578  1
  Cu  Cu87  1  -0.00076382  0.32920125  -0.00168977  1
  Cu  Cu88  1  0.83474579  0.16367300  0.75073764  1
  Cu  Cu89  1  0.83776426  0.83980826  0.24383024  1
  Cu  Cu90  1  0.16569483  0.83841580  0.76412647  1
  Cu  Cu91  1  0.32623446  0.00382024  0.49055203  1
  Cu  Cu92  1  0.66391079  0.00043791  0.49116710  1
  Cu  Cu93  1  0.33962591  0.66477847  0.49834148  1
  Cu  Cu94  1  0.33096754  0.67057315  0.00305612  1
  Cu  Cu95  1  0.66807480  0.33292831  -0.00157016  1
  Cu  Cu96  1  -0.00312142  0.33521197  0.50294798  1
  Cu  Cu97  1  -0.00172095  0.00431026  0.50265259  1
  Cu  Cu98  1  0.49560346  0.16737074  0.25147701  1
  Cu  Cu99  1  0.51010794  0.49272626  0.24671114  1
  Cu  Cu100  1  0.50182458  0.83436560  0.24462971  1
  Cu  Cu101  1  0.51158062  0.83775301  0.75818881  1
  Cu  Cu102  1  0.66557344  0.00576462  -0.00030969  1
  Cu  Cu103  1  0.17541821  0.50606465  0.24427761  1
  Cu  Cu104  1  0.16114051  0.16485096  0.24625492  1
  Cu  Cu105  1  0.82446834  0.50038646  0.74752377  1
  Cu  Cu106  1  0.15681843  0.49170188  0.75527138  1
  Cu  Cu107  1  0.50298885  0.16873354  0.74854611  1
  Cu  Cu108  1  0.33754474  -0.00250509  0.00763604  1
  Cu  Cu109  1  -0.00020833  0.67840316  0.49984838  1
  Cu  Cu110  1  0.50698483  0.49976278  0.74394436  1
  Cu  Cu111  1  0.82436807  0.82559367  0.74968658  1
  Cu  Cu112  1  0.66164345  0.66419476  0.00026605  1
  Cu  Cu113  1  -0.00683376  0.65712814  0.00022956  1
  Cu  Cu114  1  0.82676809  0.50047489  0.25274412  1
  Se  Se115  1  0.10365826  0.09209039  0.05459238  1
  Se  Se116  1  0.08410223  0.08869603  0.55085270  1
  Se  Se117  1  0.08290240  0.41433799  0.05068333  1
  Se  Se118  1  0.07690544  0.41594890  0.56485514  1
  Se  Se119  1  0.06930563  0.73799543  0.06189954  1
  Se  Se120  1  0.08228402  0.74881144  0.56424926  1
  Se  Se121  1  0.42211133  0.08679831  0.05363027  1
  Se  Se122  1  0.41037890  0.07999578  0.54896765  1
  Se  Se123  1  0.42234854  0.42147105  0.05403836  1
  Se  Se124  1  0.40316771  0.40115634  0.54223702  1
  Se  Se125  1  0.41504604  0.75084037  0.05805445  1
  Se  Se126  1  0.41524121  0.74825958  0.55997828  1
  Se  Se127  1  0.74224950  0.08395036  0.06440747  1
  Se  Se128  1  0.74072451  0.07577690  0.55864463  1
  Se  Se129  1  0.75412962  0.41308211  0.05164697  1
  Se  Se130  1  0.75325756  0.41462052  0.55592752  1
  Se  Se131  1  0.74887734  0.74786505  0.04968873  1
  Se  Se132  1  0.75723605  0.76888684  0.55559790  1
  Se  Se133  1  0.25289095  0.24980595  0.05068490  1
  Se  Se134  1  0.23739502  0.25579798  0.54907061  1
  Se  Se135  1  0.24885576  0.58144345  0.05369285  1
  Se  Se136  1  0.25915656  0.58292884  0.55801682  1
  Se  Se137  1  0.25301624  0.91426791  0.05947176  1
  Se  Se138  1  0.25191098  0.92433044  0.55714489  1
  Se  Se139  1  0.59058419  0.24802413  0.05516557  1
  Se  Se140  1  0.57640600  0.23083997  0.55314769  1
  Se  Se141  1  0.57897649  0.57998746  0.05326955  1
  Se  Se142  1  0.57434858  0.56740438  0.55435499  1
  Se  Se143  1  0.58317175  0.91941586  0.05194421  1
  Se  Se144  1  0.58954434  0.92050418  0.55822980  1
  Se  Se145  1  0.92635135  0.25055915  0.06542539  1
  Se  Se146  1  0.91661981  0.25659385  0.56511710  1
  Se  Se147  1  0.90682276  0.57210438  0.04947761  1
  Se  Se148  1  0.92256600  0.58725364  0.55113841  1
  Se  Se149  1  0.89504876  0.92031046  0.05583307  1
  Se  Se150  1  0.91532406  0.91442992  0.54818186  1
  Se  Se151  1  0.07813738  0.24884461  0.45209899  1
  Se  Se152  1  0.08377963  0.24576818  0.94680721  1
  Se  Se153  1  0.07809063  0.59830496  0.43697679  1
  Se  Se154  1  0.08119322  0.57611615  0.94980836  1
  Se  Se155  1  0.07529799  0.93037944  0.43435417  1
  Se  Se156  1  0.09072505  0.90708692  0.95745934  1
  Se  Se157  1  0.39991815  0.25175723  0.44855358  1
  Se  Se158  1  0.42262296  0.25212413  0.95074511  1
  Se  Se159  1  0.42049795  0.58352527  0.44295652  1
  Se  Se160  1  0.41537212  0.59024394  0.94639676  1
  Se  Se161  1  0.40867180  0.91989568  0.43450646  1
  Se  Se162  1  0.42150719  0.91520424  0.95352901  1
  Se  Se163  1  0.73738887  0.25631423  0.44233239  1
  Se  Se164  1  0.74881567  0.25060236  0.93787258  1
  Se  Se165  1  0.75709790  0.57819323  0.45300510  1
  Se  Se166  1  0.74434201  0.58109972  0.94504026  1
  Se  Se167  1  0.74981472  0.91680103  0.44190740  1
  Se  Se168  1  0.75035625  0.92133524  0.94861300  1
  Se  Se169  1  0.23819000  0.08140059  0.43826784  1
  Se  Se170  1  0.25709584  0.08170823  0.95045626  1
  Se  Se171  1  0.25297319  0.41271359  0.43060397  1
  Se  Se172  1  0.25036412  0.41454947  0.94880865  1
  Se  Se173  1  0.26248106  0.74786965  0.43891443  1
  Se  Se174  1  0.24315181  0.75394709  0.95354321  1
  Se  Se175  1  0.57834749  0.08314728  0.44135346  1
  Se  Se176  1  0.58440759  0.09197632  0.94689825  1
  Se  Se177  1  0.56751307  0.42672296  0.45144372  1
  Se  Se178  1  0.58384642  0.41743659  0.94513665  1
  Se  Se179  1  0.60299264  0.73391104  0.44710466  1
  Se  Se180  1  0.58310543  0.75335952  0.94798037  1
  Se  Se181  1  0.91380245  0.07669078  0.43910863  1
  Se  Se182  1  0.93118312  0.06958988  0.94600013  1
  Se  Se183  1  0.91621494  0.42077354  0.45054032  1
  Se  Se184  1  0.91152834  0.40922248  0.94668288  1
  Se  Se185  1  0.91463969  0.75711183  0.44559753  1
  Se  Se186  1  0.91093870  0.74611611  0.95193058  1
  Se  Se187  1  0.23907389  0.24630424  0.30776733  1
  Se  Se188  1  0.24856907  0.24133532  0.80959984  1
  Se  Se189  1  0.26105547  0.58554866  0.29745135  1
  Se  Se190  1  0.23783215  0.57383630  0.81347104  1
  Se  Se191  1  0.24657054  0.90678668  0.29113339  1
  Se  Se192  1  0.24961591  0.92286474  0.81414538  1
  Se  Se193  1  0.57499302  0.25202943  0.30711819  1
  Se  Se194  1  0.58415178  0.25249209  0.80389646  1
  Se  Se195  1  0.58576980  0.57258116  0.31097194  1
  Se  Se196  1  0.58557913  0.58349615  0.80075967  1
  Se  Se197  1  0.58650760  0.91015272  0.30284268  1
  Se  Se198  1  0.58938230  0.92492191  0.81056325  1
  Se  Se199  1  0.90813445  0.24571813  0.31691326  1
  Se  Se200  1  0.91943004  0.24471244  0.80366590  1
  Se  Se201  1  0.91284569  0.58146960  0.30609298  1
  Se  Se202  1  0.90516890  0.57435462  0.81452402  1
  Se  Se203  1  0.91956286  0.92393122  0.29766995  1
  Se  Se204  1  0.90980019  0.90263167  0.81031060  1
  Se  Se205  1  0.07631213  0.08298001  0.30006009  1
  Se  Se206  1  0.09900265  0.08943864  0.81006232  1
  Se  Se207  1  0.09153515  0.42887592  0.30327033  1
  Se  Se208  1  0.07840146  0.40704715  0.80835869  1
  Se  Se209  1  0.09081667  0.76065090  0.30741390  1
  Se  Se210  1  0.08043266  0.75540956  0.81558744  1
  Se  Se211  1  0.41132822  0.08181248  0.30136744  1
  Se  Se212  1  0.42353314  0.09001390  0.81026431  1
  Se  Se213  1  0.43476864  0.41235292  0.31084631  1
  Se  Se214  1  0.42281559  0.42692576  0.80753716  1
  Se  Se215  1  0.42781970  0.74380738  0.29933595  1
  Se  Se216  1  0.42528770  0.76336925  0.81820067  1
  Se  Se217  1  0.74134849  0.08314471  0.29817707  1
  Se  Se218  1  0.75369099  0.07748821  0.80258210  1
  Se  Se219  1  0.74555085  0.42008025  0.30804843  1
  Se  Se220  1  0.74512057  0.41437189  0.80201727  1
  Se  Se221  1  0.76406460  0.75307169  0.30564492  1
  Se  Se222  1  0.74144295  0.74644327  0.80597330  1
  Se  Se223  1  0.25312220  0.08362345  0.20027494  1
  Se  Se224  1  0.25035314  0.09922266  0.68582414  1
  Se  Se225  1  0.24765778  0.41718150  0.18709656  1
  Se  Se226  1  0.24427418  0.42338603  0.69224954  1
  Se  Se227  1  0.25400600  0.74853263  0.20000907  1
  Se  Se228  1  0.24608787  0.75624818  0.70564865  1
  Se  Se229  1  0.58130004  0.08717899  0.19694175  1
  Se  Se230  1  0.58347807  0.07866690  0.69829505  1
  Se  Se231  1  0.59205940  0.41179983  0.19249463  1
  Se  Se232  1  0.57845686  0.40769934  0.68946439  1
  Se  Se233  1  0.58225552  0.75627644  0.18270210  1
  Se  Se234  1  0.58718633  0.74820205  0.70383358  1
  Se  Se235  1  0.90100679  0.10335936  0.19966071  1
  Se  Se236  1  0.91176198  0.08470695  0.68630107  1
  Se  Se237  1  0.90956690  0.42546540  0.19104236  1
  Se  Se238  1  0.91619661  0.41625276  0.70344673  1
  Se  Se239  1  0.91582181  0.76153732  0.18278640  1
  Se  Se240  1  0.90032340  0.74926028  0.68472853  1
  Se  Se241  1  0.08125702  0.24547903  0.18797424  1
  Se  Se242  1  0.07795662  0.24727099  0.70587246  1
  Se  Se243  1  0.08988697  0.57907375  0.18494188  1
  Se  Se244  1  0.08693031  0.58116849  0.69448753  1
  Se  Se245  1  0.07361358  0.92372711  0.18861009  1
  Se  Se246  1  0.08909084  0.91313580  0.69754480  1
  Se  Se247  1  0.41900577  0.24308052  0.18466083  1
  Se  Se248  1  0.42880217  0.24812669  0.68406485  1
  Se  Se249  1  0.42218200  0.57660052  0.19933934  1
  Se  Se250  1  0.42250059  0.58232751  0.68846366  1
  Se  Se251  1  0.42105139  0.92153847  0.19415463  1
  Se  Se252  1  0.43041234  0.90689226  0.69044160  1
  Se  Se253  1  0.75079527  0.25762069  0.20677130  1
  Se  Se254  1  0.74863820  0.24833024  0.70160642  1
  Se  Se255  1  0.75502786  0.58139395  0.18772282  1
  Se  Se256  1  0.74822989  0.58571982  0.68997509  1
  Se  Se257  1  0.74187073  0.91800397  0.19917152  1
  Se  Se258  1  0.74905016  0.92174023  0.70053691  1
