# generated using pymatgen
data_In86Cu29Se144
_symmetry_space_group_name_H-M   'P 1'
_cell_length_a   17.57127153
_cell_length_b   17.57459939
_cell_length_c   23.43057242
_cell_angle_alpha   89.98748267
_cell_angle_beta   89.99532588
_cell_angle_gamma   89.99660444
_symmetry_Int_Tables_number   1
_chemical_formula_structural   In86Cu29Se144
_chemical_formula_sum   'In86 Cu29 Se144'
_cell_volume   7235.54935197
_cell_formula_units_Z   1
loop_
 _symmetry_equiv_pos_site_id
 _symmetry_equiv_pos_as_xyz
  1  'x, y, z'
loop_
 _atom_site_type_symbol
 _atom_site_label
 _atom_site_symmetry_multiplicity
 _atom_site_fract_x
 _atom_site_fract_y
 _atom_site_fract_z
 _atom_site_occupancy
  In  In0  1  -0.00142742  0.15430917  0.12964360  1
  In  In1  1  0.00887996  0.17398051  0.61553494  1
  In  In2  1  0.00259198  0.51620576  0.13620491  1
  In  In3  1  -0.00003243  0.48775944  0.62032391  1
  In  In4  1  -0.01017582  0.83687892  0.13932050  1
  In  In5  1  -0.00326872  0.82717684  0.61350314  1
  In  In6  1  0.32539148  0.16079558  0.11851344  1
  In  In7  1  0.33719411  0.16685896  0.62541464  1
  In  In8  1  0.34029128  0.50202665  0.12204306  1
  In  In9  1  0.31991592  0.50137976  0.62390013  1
  In  In10  1  0.34366321  0.82557197  0.13144884  1
  In  In11  1  0.33867915  0.84273908  0.62391311  1
  In  In12  1  0.66267212  0.17763469  0.12681003  1
  In  In13  1  0.67350640  0.17549798  0.61557558  1
  In  In14  1  0.65841442  0.50970168  0.13923764  1
  In  In15  1  0.66481806  0.50497556  0.63015458  1
  In  In16  1  0.65605701  0.82884690  0.11979594  1
  In  In17  1  0.66842116  0.82104266  0.62239292  1
  In  In18  1  0.16606975  0.00082122  0.37379333  1
  In  In19  1  0.18650824  -0.00231692  0.87006095  1
  In  In20  1  0.16414561  0.33125272  0.38568616  1
  In  In21  1  0.15618731  0.31868586  0.86736858  1
  In  In22  1  0.16936380  0.67074072  0.37280136  1
  In  In23  1  0.16854988  0.66731029  0.87669087  1
  In  In24  1  0.49925598  0.01250990  0.37399160  1
  In  In25  1  0.49456048  0.01323260  0.88399503  1
  In  In26  1  0.50486227  0.32529609  0.37915433  1
  In  In27  1  0.49836941  0.33241151  0.87232596  1
  In  In28  1  0.50371955  0.67076514  0.36498801  1
  In  In29  1  0.50526778  0.65041329  0.88890274  1
  In  In30  1  0.84443454  -0.01191088  0.37714204  1
  In  In31  1  0.82109834  -0.00607244  0.87907319  1
  In  In32  1  0.82070145  0.33908861  0.37394960  1
  In  In33  1  0.83554929  0.33409703  0.86419177  1
  In  In34  1  0.84184275  0.67601582  0.35902200  1
  In  In35  1  0.82846849  0.68290524  0.88340744  1
  In  In36  1  0.00696137  0.15853236  0.38128701  1
  In  In37  1  -0.00649245  0.17603345  0.87446059  1
  In  In38  1  0.00611295  0.51230260  0.36675928  1
  In  In39  1  0.00994677  0.49495609  0.87560576  1
  In  In40  1  -0.00298866  0.84236942  0.36753307  1
  In  In41  1  -0.00498450  0.82418703  0.87969714  1
  In  In42  1  0.33791736  0.16187573  0.38002794  1
  In  In43  1  0.33218868  0.16614630  0.87232645  1
  In  In44  1  0.31929778  0.50290368  0.37120152  1
  In  In45  1  0.35011979  0.49854008  0.87804255  1
  In  In46  1  0.32323840  0.82412863  0.36541759  1
  In  In47  1  0.33472680  0.84318111  0.87348071  1
  In  In48  1  0.66170613  0.17411689  0.38255195  1
  In  In49  1  0.65541621  0.16849955  0.87569688  1
  In  In50  1  0.68404092  0.50864943  0.35485704  1
  In  In51  1  0.65911972  0.49040325  0.87014999  1
  In  In52  1  0.68146850  0.82655879  0.37178264  1
  In  In53  1  0.66990384  0.82609578  0.88228080  1
  In  In54  1  0.16119873  0.00546727  0.13290567  1
  In  In55  1  0.18083057  0.01055352  0.61575443  1
  In  In56  1  0.17790545  0.33419111  0.12146217  1
  In  In57  1  0.16870348  0.32978676  0.62391273  1
  In  In58  1  0.16192299  0.66296666  0.14413529  1
  In  In59  1  0.16337408  0.66267184  0.60915770  1
  In  In60  1  0.48896037  -0.00983863  0.11719031  1
  In  In61  1  0.48249978  -0.00304637  0.62982059  1
  In  In62  1  0.50130755  0.34201885  0.11345348  1
  In  In63  1  0.50938082  0.32605258  0.63274499  1
  In  In64  1  0.49626402  0.66731718  0.12122557  1
  In  In65  1  0.51740363  0.67663324  0.62898269  1
  In  In66  1  0.84861032  -0.00160837  0.13587992  1
  In  In67  1  0.83162054  -0.00016575  0.61055544  1
  In  In68  1  0.82103147  0.31842496  0.13461432  1
  In  In69  1  0.83991102  0.33389797  0.62736421  1
  In  In70  1  0.80660389  0.69031425  0.15914620  1
  In  In71  1  0.81953404  0.66992156  0.61782285  1
  In  In72  1  -0.00250985  0.33316752  0.25865637  1
  In  In73  1  0.66125856  0.00246584  0.75288632  1
  In  In74  1  0.50201476  0.83843756  0.50071455  1
  In  In75  1  0.84019171  0.50761374  0.48850565  1
  In  In76  1  0.00491417  0.00321406  0.74167837  1
  In  In77  1  0.17318544  0.83565874  -0.00035735  1
  In  In78  1  0.82913065  0.15819409  0.00530222  1
  In  In79  1  0.50329692  0.49951286  0.50592313  1
  In  In80  1  0.33695568  0.33925184  0.24458630  1
  In  In81  1  0.17352018  0.50200461  0.00426469  1
  In  In82  1  -0.00312008  0.65980026  0.75443901  1
  In  In83  1  0.33951664  0.66305895  0.75403384  1
  In  In84  1  0.83083332  0.50063098  0.01357134  1
  In  In85  1  0.66569872  -0.00021186  0.25448730  1
  Cu  Cu86  1  0.82712215  0.50422942  0.74744244  1
  Cu  Cu87  1  0.33216272  0.66497704  0.49390444  1
  Cu  Cu88  1  0.00481628  -0.00480535  0.00984827  1
  Cu  Cu89  1  0.82857375  0.83312548  0.75251734  1
  Cu  Cu90  1  0.65903524  0.33419900  -0.00281670  1
  Cu  Cu91  1  0.16323535  0.84083009  0.25284540  1
  Cu  Cu92  1  0.49645244  0.83269040  0.24329759  1
  Cu  Cu93  1  0.00343180  0.32743920  0.50255330  1
  Cu  Cu94  1  0.49729822  0.16914673  0.75277277  1
  Cu  Cu95  1  0.83190179  0.17592199  0.74184975  1
  Cu  Cu96  1  0.00308014  0.33153762  -0.00142082  1
  Cu  Cu97  1  0.66409893  -0.00802901  0.00136104  1
  Cu  Cu98  1  0.16470952  0.48673961  0.74816351  1
  Cu  Cu99  1  0.17511157  0.83593482  0.74227682  1
  Cu  Cu100  1  0.17117679  0.16639433  0.74283756  1
  Cu  Cu101  1  0.16836755  0.16724091  0.25316644  1
  Cu  Cu102  1  -0.00301147  0.67882459  0.00995617  1
  Cu  Cu103  1  0.33386960  0.00587137  -0.00063989  1
  Cu  Cu104  1  0.33159187  0.32563736  -0.00606309  1
  Cu  Cu105  1  0.00145723  -0.00592533  0.49604680  1
  Cu  Cu106  1  0.66676648  0.34007662  0.49993604  1
  Cu  Cu107  1  0.00116588  0.67243052  0.48725220  1
  Cu  Cu108  1  0.32799722  -0.00055570  0.49923640  1
  Cu  Cu109  1  0.49821064  0.16662103  0.25257629  1
  Cu  Cu110  1  0.66448967  0.00585253  0.49377753  1
  Cu  Cu111  1  0.50238819  0.49897349  0.75370899  1
  Cu  Cu112  1  0.50256084  0.49943337  0.24409974  1
  Cu  Cu113  1  0.33042545  0.32767536  0.50065197  1
  Cu  Cu114  1  0.66840769  0.66094687  0.01006340  1
  Se  Se115  1  0.08571542  0.08495720  0.05642648  1
  Se  Se116  1  0.08223029  0.07872099  0.55133822  1
  Se  Se117  1  0.07392463  0.41610972  0.06182910  1
  Se  Se118  1  0.08815528  0.41432739  0.55200407  1
  Se  Se119  1  0.08582250  0.75224794  0.06664225  1
  Se  Se120  1  0.08535713  0.75286162  0.54456055  1
  Se  Se121  1  0.41975316  0.08874862  0.05161975  1
  Se  Se122  1  0.41457868  0.07941904  0.55376456  1
  Se  Se123  1  0.40750160  0.41553993  0.04756893  1
  Se  Se124  1  0.41080464  0.40797148  0.56191465  1
  Se  Se125  1  0.42068795  0.75833580  0.05393007  1
  Se  Se126  1  0.41325732  0.73945142  0.55800973  1
  Se  Se127  1  0.74128594  0.06929011  0.06678652  1
  Se  Se128  1  0.75050263  0.08877609  0.54654927  1
  Se  Se129  1  0.73755566  0.40527510  0.06441012  1
  Se  Se130  1  0.75027800  0.42242592  0.55670486  1
  Se  Se131  1  0.75313901  0.74262044  0.06381847  1
  Se  Se132  1  0.75912253  0.76389940  0.54788331  1
  Se  Se133  1  0.24563598  0.24742336  0.04888152  1
  Se  Se134  1  0.24919928  0.24362007  0.55562585  1
  Se  Se135  1  0.25166340  0.60010219  0.06351501  1
  Se  Se136  1  0.24984682  0.57758362  0.54531843  1
  Se  Se137  1  0.25629161  0.92609883  0.06293220  1
  Se  Se138  1  0.24985867  0.91003626  0.55158632  1
  Se  Se139  1  0.57993849  0.24661713  0.05066840  1
  Se  Se140  1  0.58140831  0.25611989  0.55125441  1
  Se  Se141  1  0.58275446  0.57587423  0.05855356  1
  Se  Se142  1  0.59806073  0.59723731  0.55371838  1
  Se  Se143  1  0.57515084  0.90977616  0.04959673  1
  Se  Se144  1  0.59062698  0.92921910  0.56254980  1
  Se  Se145  1  0.92081310  0.25434435  0.06013652  1
  Se  Se146  1  0.91160193  0.25034308  0.55315697  1
  Se  Se147  1  0.91728735  0.59705977  0.06745538  1
  Se  Se148  1  0.92790454  0.59459202  0.55694393  1
  Se  Se149  1  0.91790001  0.91462700  0.06020018  1
  Se  Se150  1  0.91413127  0.91164259  0.54720621  1
  Se  Se151  1  0.08785785  0.24168701  0.45179854  1
  Se  Se152  1  0.08223744  0.24461224  0.94685785  1
  Se  Se153  1  0.08637726  0.58412400  0.44223921  1
  Se  Se154  1  0.07291930  0.59546447  0.94861427  1
  Se  Se155  1  0.08506547  0.91335301  0.44111037  1
  Se  Se156  1  0.07997959  0.92460504  0.93758763  1
  Se  Se157  1  0.41825436  0.24880893  0.44780524  1
  Se  Se158  1  0.41885532  0.24600422  0.94115887  1
  Se  Se159  1  0.41807647  0.58652030  0.43833894  1
  Se  Se160  1  0.40914344  0.58125995  0.95511324  1
  Se  Se161  1  0.40916018  0.92062995  0.43736138  1
  Se  Se162  1  0.41482431  0.91920899  0.94722760  1
  Se  Se163  1  0.75109045  0.25507416  0.44925394  1
  Se  Se164  1  0.74965998  0.25724534  0.94172788  1
  Se  Se165  1  0.74580857  0.59562260  0.43435404  1
  Se  Se166  1  0.74514640  0.58272355  0.94364783  1
  Se  Se167  1  0.74599376  0.91809572  0.44392650  1
  Se  Se168  1  0.75283321  0.90980953  0.95256654  1
  Se  Se169  1  0.24643036  0.08464334  0.44555449  1
  Se  Se170  1  0.24819001  0.08550627  0.94472821  1
  Se  Se171  1  0.25394612  0.41644586  0.44692551  1
  Se  Se172  1  0.24752736  0.40830476  0.93561884  1
  Se  Se173  1  0.24984206  0.75363687  0.44558996  1
  Se  Se174  1  0.26236688  0.74180292  0.94226570  1
  Se  Se175  1  0.57515562  0.08971436  0.44886105  1
  Se  Se176  1  0.58853008  0.08557438  0.95154788  1
  Se  Se177  1  0.59451921  0.42318686  0.43647116  1
  Se  Se178  1  0.57695469  0.41799011  0.94433041  1
  Se  Se179  1  0.58846726  0.74592531  0.44096174  1
  Se  Se180  1  0.58836800  0.74240408  0.95096056  1
  Se  Se181  1  0.91592372  0.07977901  0.44704346  1
  Se  Se182  1  0.92368577  0.07116889  0.94319721  1
  Se  Se183  1  0.93008945  0.40858778  0.43707411  1
  Se  Se184  1  0.91829696  0.41249698  0.94410210  1
  Se  Se185  1  0.91499441  0.75294208  0.43591375  1
  Se  Se186  1  0.91192200  0.75845360  0.95584305  1
  Se  Se187  1  0.24920754  0.25080840  0.30947638  1
  Se  Se188  1  0.25152470  0.24924201  0.80091874  1
  Se  Se189  1  0.25818918  0.59669563  0.30237156  1
  Se  Se190  1  0.24112293  0.57063780  0.80939421  1
  Se  Se191  1  0.25197295  0.92327644  0.30262626  1
  Se  Se192  1  0.25887651  0.91716972  0.79532576  1
  Se  Se193  1  0.58286955  0.24821506  0.30480805  1
  Se  Se194  1  0.58528780  0.25219928  0.80212001  1
  Se  Se195  1  0.58441987  0.58615742  0.29673173  1
  Se  Se196  1  0.58242794  0.58557325  0.80668493  1
  Se  Se197  1  0.57310750  0.90640159  0.31226676  1
  Se  Se198  1  0.57954058  0.91685749  0.81930838  1
  Se  Se199  1  0.91106597  0.24149759  0.31682322  1
  Se  Se200  1  0.92081504  0.25169165  0.79720396  1
  Se  Se201  1  0.89084355  0.55409631  0.30833053  1
  Se  Se202  1  0.90393263  0.57550325  0.81767424  1
  Se  Se203  1  0.90910814  0.91408825  0.29602009  1
  Se  Se204  1  0.91432359  0.91418565  0.80754140  1
  Se  Se205  1  0.08251396  0.08384257  0.30358732  1
  Se  Se206  1  0.09048508  0.08908334  0.80794498  1
  Se  Se207  1  0.09981505  0.42059586  0.30842279  1
  Se  Se208  1  0.07580304  0.40982139  0.80134884  1
  Se  Se209  1  0.08334558  0.75280962  0.30518711  1
  Se  Se210  1  0.09287034  0.76041691  0.80463828  1
  Se  Se211  1  0.41161638  0.08420868  0.30228842  1
  Se  Se212  1  0.41698862  0.08135891  0.80440263  1
  Se  Se213  1  0.42634400  0.42305570  0.31137853  1
  Se  Se214  1  0.41506590  0.41514736  0.80158763  1
  Se  Se215  1  0.41469163  0.74859071  0.29878967  1
  Se  Se216  1  0.42584755  0.74732976  0.81779897  1
  Se  Se217  1  0.75097706  0.08476710  0.31904772  1
  Se  Se218  1  0.75962611  0.09546057  0.80794254  1
  Se  Se219  1  0.73963298  0.39895591  0.29491709  1
  Se  Se220  1  0.74776432  0.41585853  0.80059364  1
  Se  Se221  1  0.74636439  0.74809033  0.29267922  1
  Se  Se222  1  0.74759166  0.74873714  0.80545895  1
  Se  Se223  1  0.25247644  0.08672183  0.19748856  1
  Se  Se224  1  0.25599507  0.07968990  0.69527952  1
  Se  Se225  1  0.24104134  0.43124275  0.19236056  1
  Se  Se226  1  0.25339997  0.41075711  0.69504431  1
  Se  Se227  1  0.24721906  0.75826120  0.19941929  1
  Se  Se228  1  0.24608493  0.74305421  0.68640262  1
  Se  Se229  1  0.57373487  0.08312110  0.18979859  1
  Se  Se230  1  0.57788291  0.09247034  0.68776328  1
  Se  Se231  1  0.57925120  0.40655747  0.19405045  1
  Se  Se232  1  0.58685409  0.41823667  0.69760176  1
  Se  Se233  1  0.58029365  0.74737209  0.19322458  1
  Se  Se234  1  0.58171357  0.76547650  0.70020933  1
  Se  Se235  1  0.90884356  0.09595231  0.20326681  1
  Se  Se236  1  0.90869763  0.08996654  0.68477341  1
  Se  Se237  1  0.91343699  0.41402454  0.18809167  1
  Se  Se238  1  0.91563822  0.42321537  0.69670953  1
  Se  Se239  1  0.93638806  0.72783134  0.20092989  1
  Se  Se240  1  0.91217344  0.75385403  0.69315740  1
  Se  Se241  1  0.09129595  0.24949026  0.19195549  1
  Se  Se242  1  0.08249217  0.24863922  0.69354003  1
  Se  Se243  1  0.08428417  0.57888820  0.21283199  1
  Se  Se244  1  0.09031118  0.57729679  0.69027620  1
  Se  Se245  1  0.07755514  0.92415501  0.20081261  1
  Se  Se246  1  0.09006230  0.90924042  0.68207236  1
  Se  Se247  1  0.42210141  0.24455543  0.18610160  1
  Se  Se248  1  0.41464408  0.25173118  0.69709362  1
  Se  Se249  1  0.41671601  0.58337195  0.19413042  1
  Se  Se250  1  0.42723894  0.57636669  0.68628268  1
  Se  Se251  1  0.41319493  0.92349913  0.19827347  1
  Se  Se252  1  0.42593419  0.90025257  0.69993127  1
  Se  Se253  1  0.75154132  0.23035466  0.20395349  1
  Se  Se254  1  0.74443011  0.25714775  0.69161422  1
  Se  Se255  1  0.76419443  0.56329432  0.20302788  1
  Se  Se256  1  0.74877168  0.59207640  0.69533504  1
  Se  Se257  1  0.74854862  0.91029899  0.18990331  1
  Se  Se258  1  0.75691640  0.91916733  0.69145576  1
