# generated using pymatgen
data_In86Cu29Se144
_symmetry_space_group_name_H-M   'P 1'
_cell_length_a   17.58562489
_cell_length_b   17.58556747
_cell_length_c   23.44132519
_cell_angle_alpha   89.99915826
_cell_angle_beta   90.01126904
_cell_angle_gamma   90.00168474
_symmetry_Int_Tables_number   1
_chemical_formula_structural   In86Cu29Se144
_chemical_formula_sum   'In86 Cu29 Se144'
_cell_volume   7249.30451844
_cell_formula_units_Z   1
loop_
 _symmetry_equiv_pos_site_id
 _symmetry_equiv_pos_as_xyz
  1  'x, y, z'
loop_
 _atom_site_type_symbol
 _atom_site_label
 _atom_site_symmetry_multiplicity
 _atom_site_fract_x
 _atom_site_fract_y
 _atom_site_fract_z
 _atom_site_occupancy
  In  In0  1  -0.00323059  0.15298764  0.12486035  1
  In  In1  1  -0.00381223  0.16316055  0.61599993  1
  In  In2  1  0.01713609  0.52699766  0.10673470  1
  In  In3  1  0.00674477  0.50502983  0.62214017  1
  In  In4  1  -0.00002660  0.83097049  0.12150908  1
  In  In5  1  -0.00311241  0.82457261  0.61786648  1
  In  In6  1  0.33602555  0.16730225  0.12117719  1
  In  In7  1  0.33097804  0.16790284  0.62689416  1
  In  In8  1  0.34293599  0.50486531  0.11808815  1
  In  In9  1  0.31817779  0.50088429  0.62855760  1
  In  In10  1  0.31817140  0.83645703  0.12544731  1
  In  In11  1  0.33067595  0.84706730  0.62822865  1
  In  In12  1  0.65459408  0.16933125  0.12715480  1
  In  In13  1  0.65958911  0.16257239  0.61002947  1
  In  In14  1  0.69921610  0.53613075  0.08749208  1
  In  In15  1  0.67480624  0.48212065  0.61892108  1
  In  In16  1  0.68677087  0.81229633  0.14399928  1
  In  In17  1  0.67393716  0.82521118  0.61957241  1
  In  In18  1  0.15754861  0.00886804  0.37929603  1
  In  In19  1  0.17236256  -0.01402654  0.88268481  1
  In  In20  1  0.16889835  0.33450644  0.38297326  1
  In  In21  1  0.17800023  0.32154148  0.88240548  1
  In  In22  1  0.16626049  0.67071579  0.37247300  1
  In  In23  1  0.15953305  0.66778349  0.88694288  1
  In  In24  1  0.50927482  0.00363517  0.37112505  1
  In  In25  1  0.49605786  0.01294056  0.87743383  1
  In  In26  1  0.49294713  0.33110879  0.38025079  1
  In  In27  1  0.49425182  0.33803630  0.87821379  1
  In  In28  1  0.50863947  0.68388921  0.35156132  1
  In  In29  1  0.50078289  0.65638549  0.88645012  1
  In  In30  1  0.83384834  -0.00402407  0.37423924  1
  In  In31  1  0.83751337  -0.00484679  0.88005988  1
  In  In32  1  0.82786928  0.33743784  0.38600818  1
  In  In33  1  0.84181504  0.33918575  0.87394349  1
  In  In34  1  0.83938100  0.66936764  0.36970445  1
  In  In35  1  0.84927001  0.64928690  0.89438391  1
  In  In36  1  0.00538549  0.16022739  0.37896114  1
  In  In37  1  0.00023724  0.17679464  0.87772366  1
  In  In38  1  -0.00580628  0.51350591  0.37503711  1
  In  In39  1  -0.00336796  0.50740216  0.88649479  1
  In  In40  1  0.00111787  0.83338580  0.37325301  1
  In  In41  1  0.02154424  0.80903242  0.90529532  1
  In  In42  1  0.32968268  0.17361293  0.38657342  1
  In  In43  1  0.33677821  0.16216275  0.86471921  1
  In  In44  1  0.32528853  0.50670918  0.37594384  1
  In  In45  1  0.34037459  0.48660883  0.88382809  1
  In  In46  1  0.33663642  0.81995866  0.37193930  1
  In  In47  1  0.31897087  0.83335707  0.87599474  1
  In  In48  1  0.67798746  0.15995100  0.38569490  1
  In  In49  1  0.65778324  0.16226765  0.88089862  1
  In  In50  1  0.66924353  0.51254592  0.36846015  1
  In  In51  1  0.66970119  0.49182906  0.89177070  1
  In  In52  1  0.67478342  0.84458095  0.36286559  1
  In  In53  1  0.68060288  0.82877025  0.88571209  1
  In  In54  1  0.14159336  -0.01978634  0.10093099  1
  In  In55  1  0.17081870  0.00739266  0.61691786  1
  In  In56  1  0.16600629  0.33388087  0.11895788  1
  In  In57  1  0.17523067  0.33722955  0.62504763  1
  In  In58  1  0.16314165  0.67356950  0.12518110  1
  In  In59  1  0.15643902  0.65219777  0.61805236  1
  In  In60  1  0.50169424  0.01124558  0.12664833  1
  In  In61  1  0.48395048  0.00719693  0.63160439  1
  In  In62  1  0.51776387  0.33737550  0.10696824  1
  In  In63  1  0.49714508  0.30669598  0.62714152  1
  In  In64  1  0.51101142  0.66004083  0.13572537  1
  In  In65  1  0.50475841  0.66592963  0.62282185  1
  In  In66  1  0.84949541  -0.01724350  0.13706196  1
  In  In67  1  0.82977293  -0.00522420  0.61421145  1
  In  In68  1  0.82417975  0.35082062  0.12471260  1
  In  In69  1  0.82528375  0.33281393  0.60955458  1
  In  In70  1  0.83873689  0.67359191  0.12320228  1
  In  In71  1  0.84610664  0.67481707  0.61477022  1
  In  In72  1  -0.00705479  0.33736567  0.25579526  1
  In  In73  1  0.66774760  0.66436427  0.75017493  1
  In  In74  1  0.33541726  0.33496066  0.25308842  1
  In  In75  1  0.00293530  -0.00630226  0.75488175  1
  In  In76  1  0.32450743  0.66930232  0.75574094  1
  In  In77  1  0.66342659  0.33882270  0.24762257  1
  In  In78  1  0.00416783  0.33870992  0.74697701  1
  In  In79  1  0.66169359  0.33251103  0.75335968  1
  In  In80  1  0.83069094  0.16815751  0.00194121  1
  In  In81  1  0.50158089  0.83740159  0.49550264  1
  In  In82  1  0.32670868  -0.00184658  0.24750274  1
  In  In83  1  0.66203545  -0.00353704  0.74114783  1
  In  In84  1  0.50825071  0.83078740  0.00938327  1
  In  In85  1  0.49817820  0.50103859  0.49579409  1
  Cu  Cu86  1  0.50004440  0.16890196  0.24964150  1
  Cu  Cu87  1  0.84697605  0.81981208  0.75122892  1
  Cu  Cu88  1  0.83914807  0.83329616  0.25136420  1
  Cu  Cu89  1  0.49287830  0.49583033  0.75570946  1
  Cu  Cu90  1  0.16629928  0.51058311  0.24761627  1
  Cu  Cu91  1  0.33632017  0.00509744  -0.00137282  1
  Cu  Cu92  1  -0.00335804  -0.00581169  0.49592988  1
  Cu  Cu93  1  0.83693774  0.51218275  0.24049050  1
  Cu  Cu94  1  0.84077361  0.51135260  0.75032174  1
  Cu  Cu95  1  0.82386706  0.15991732  0.74353980  1
  Cu  Cu96  1  0.32997982  0.66643453  0.49543416  1
  Cu  Cu97  1  0.67984172  0.66701320  0.49163668  1
  Cu  Cu98  1  0.15841038  0.83284001  0.24736719  1
  Cu  Cu99  1  0.00340380  0.33195378  0.50108053  1
  Cu  Cu100  1  0.32927634  0.00413921  0.50384286  1
  Cu  Cu101  1  0.50366081  0.50646950  0.24102627  1
  Cu  Cu102  1  -0.00172692  0.33894157  0.00005302  1
  Cu  Cu103  1  0.00579147  0.66506252  0.49355285  1
  Cu  Cu104  1  0.66595343  -0.00252838  0.49372493  1
  Cu  Cu105  1  0.32770165  0.32590883  -0.00386292  1
  Cu  Cu106  1  0.16011489  0.50235672  0.75225137  1
  Cu  Cu107  1  0.33478254  0.33085350  0.50579911  1
  Cu  Cu108  1  0.82754816  0.15572066  0.25422751  1
  Cu  Cu109  1  0.66964674  0.00043323  0.00767332  1
  Cu  Cu110  1  0.32949253  0.66450943  0.00368379  1
  Cu  Cu111  1  0.16050490  0.83106240  0.75568797  1
  Cu  Cu112  1  0.49780754  0.84032407  0.75875486  1
  Cu  Cu113  1  0.16114447  0.15719783  0.24676414  1
  Cu  Cu114  1  0.17313494  0.16025199  0.74893647  1
  Se  Se115  1  0.09549304  0.10383605  0.05381805  1
  Se  Se116  1  0.07917579  0.08003994  0.54943116  1
  Se  Se117  1  0.08656888  0.41948812  0.05107085  1
  Se  Se118  1  0.08572418  0.41401851  0.55749932  1
  Se  Se119  1  0.07812411  0.74497715  0.05200297  1
  Se  Se120  1  0.08722165  0.74735657  0.55087079  1
  Se  Se121  1  0.42025826  0.08517624  0.05292573  1
  Se  Se122  1  0.41561178  0.08678286  0.55497504  1
  Se  Se123  1  0.41026213  0.40723116  0.05208802  1
  Se  Se124  1  0.41335163  0.41623537  0.56436737  1
  Se  Se125  1  0.40994374  0.74443672  0.06413406  1
  Se  Se126  1  0.41064515  0.74532327  0.55803046  1
  Se  Se127  1  0.75181410  0.07813511  0.06904896  1
  Se  Se128  1  0.75028206  0.08138218  0.54780385  1
  Se  Se129  1  0.72306433  0.39708351  0.05522986  1
  Se  Se130  1  0.76358360  0.43088629  0.54255071  1
  Se  Se131  1  0.74923150  0.75384483  0.05677864  1
  Se  Se132  1  0.75700896  0.75365585  0.54719089  1
  Se  Se133  1  0.24750241  0.24582744  0.05433724  1
  Se  Se134  1  0.24708991  0.24726047  0.55531249  1
  Se  Se135  1  0.24572184  0.58324498  0.05854000  1
  Se  Se136  1  0.25150832  0.58058089  0.55055950  1
  Se  Se137  1  0.25289940  0.91551948  0.04605361  1
  Se  Se138  1  0.24865006  0.91339672  0.55181517  1
  Se  Se139  1  0.58140798  0.23319529  0.04607969  1
  Se  Se140  1  0.59915086  0.27358049  0.55419553  1
  Se  Se141  1  0.56562877  0.57896987  0.05449753  1
  Se  Se142  1  0.59691101  0.59136449  0.55422698  1
  Se  Se143  1  0.59637457  0.91849288  0.07093984  1
  Se  Se144  1  0.58666815  0.92590378  0.56370441  1
  Se  Se145  1  0.91960697  0.26077265  0.06399017  1
  Se  Se146  1  0.91540264  0.24778838  0.54919191  1
  Se  Se147  1  0.89473402  0.56762504  0.05580225  1
  Se  Se148  1  0.92327405  0.58260567  0.55053494  1
  Se  Se149  1  0.92028249  0.92097498  0.05482935  1
  Se  Se150  1  0.91499611  0.91015655  0.55065667  1
  Se  Se151  1  0.08530810  0.24785169  0.44632026  1
  Se  Se152  1  0.08101241  0.25253880  0.94956348  1
  Se  Se153  1  0.09101397  0.58051237  0.44262160  1
  Se  Se154  1  0.07387264  0.59116573  0.95602539  1
  Se  Se155  1  0.08449954  0.91380319  0.44465437  1
  Se  Se156  1  0.07727196  0.92747213  0.95330439  1
  Se  Se157  1  0.42090914  0.24878042  0.45384940  1
  Se  Se158  1  0.41107598  0.24607322  0.93949824  1
  Se  Se159  1  0.42075966  0.60000040  0.43376461  1
  Se  Se160  1  0.41291432  0.57924886  0.95209586  1
  Se  Se161  1  0.40664426  0.92664974  0.43826318  1
  Se  Se162  1  0.41591595  0.91496300  0.94284680  1
  Se  Se163  1  0.74593028  0.25458697  0.45141876  1
  Se  Se164  1  0.74548044  0.25812040  0.93773017  1
  Se  Se165  1  0.75935131  0.58107114  0.43905265  1
  Se  Se166  1  0.74525190  0.58352670  0.95515554  1
  Se  Se167  1  0.74935362  0.91201950  0.44383658  1
  Se  Se168  1  0.75294628  0.92161531  0.95199053  1
  Se  Se169  1  0.24515113  0.08632178  0.44860559  1
  Se  Se170  1  0.25523981  0.08311237  0.93889227  1
  Se  Se171  1  0.25812328  0.41607606  0.44745835  1
  Se  Se172  1  0.24392801  0.41832770  0.95046941  1
  Se  Se173  1  0.24829281  0.75320763  0.44467698  1
  Se  Se174  1  0.24981991  0.75091606  0.95032047  1
  Se  Se175  1  0.57870259  0.08369893  0.44757396  1
  Se  Se176  1  0.58369018  0.07785179  0.95259355  1
  Se  Se177  1  0.59240307  0.41615879  0.43657105  1
  Se  Se178  1  0.57612654  0.41293273  0.94996223  1
  Se  Se179  1  0.59053101  0.74572544  0.43694531  1
  Se  Se180  1  0.59582521  0.73687704  0.94930942  1
  Se  Se181  1  0.91444923  0.08113030  0.44396348  1
  Se  Se182  1  0.92674068  0.08053951  0.94524034  1
  Se  Se183  1  0.92689457  0.41631242  0.44263385  1
  Se  Se184  1  0.91006807  0.41945375  0.94980657  1
  Se  Se185  1  0.91945301  0.74886677  0.44275032  1
  Se  Se186  1  0.89288801  0.76923734  0.94785600  1
  Se  Se187  1  0.23989275  0.24043422  0.30646692  1
  Se  Se188  1  0.24891339  0.25123226  0.80142619  1
  Se  Se189  1  0.25252695  0.58872635  0.30270810  1
  Se  Se190  1  0.24260856  0.57561287  0.81691148  1
  Se  Se191  1  0.23859100  0.91095490  0.31120089  1
  Se  Se192  1  0.24789767  0.91673648  0.80178655  1
  Se  Se193  1  0.58019760  0.24683519  0.31215566  1
  Se  Se194  1  0.57257272  0.23945610  0.80854119  1
  Se  Se195  1  0.59055349  0.58693520  0.29431709  1
  Se  Se196  1  0.58034390  0.57198712  0.81145601  1
  Se  Se197  1  0.56348783  0.90199240  0.30523378  1
  Se  Se198  1  0.58735639  0.91021849  0.81659363  1
  Se  Se199  1  0.90334928  0.24342202  0.31291140  1
  Se  Se200  1  0.90671568  0.24187078  0.80031922  1
  Se  Se201  1  0.92209570  0.58927879  0.29716575  1
  Se  Se202  1  0.92185584  0.58686142  0.80973757  1
  Se  Se203  1  0.92046044  0.91910242  0.30437430  1
  Se  Se204  1  0.91757142  0.90290247  0.81481815  1
  Se  Se205  1  0.07653529  0.07902047  0.30214347  1
  Se  Se206  1  0.08912117  0.08983962  0.81201198  1
  Se  Se207  1  0.09402616  0.42396036  0.30906430  1
  Se  Se208  1  0.08691345  0.42018453  0.81682670  1
  Se  Se209  1  0.07914080  0.74745451  0.30258637  1
  Se  Se210  1  0.08149270  0.75003259  0.81375114  1
  Se  Se211  1  0.41257744  0.09521731  0.30923731  1
  Se  Se212  1  0.41783837  0.07425929  0.79860504  1
  Se  Se213  1  0.42832322  0.42997605  0.30816778  1
  Se  Se214  1  0.40923938  0.41090628  0.80391632  1
  Se  Se215  1  0.40520034  0.74911211  0.29196329  1
  Se  Se216  1  0.42481712  0.75160773  0.81571120  1
  Se  Se217  1  0.74192557  0.07697224  0.30804310  1
  Se  Se218  1  0.75075719  0.08307326  0.80892488  1
  Se  Se219  1  0.76416773  0.42563143  0.30259022  1
  Se  Se220  1  0.75649483  0.42938168  0.80634696  1
  Se  Se221  1  0.75222408  0.74882631  0.30125915  1
  Se  Se222  1  0.76049937  0.74685330  0.81156587  1
  Se  Se223  1  0.24003878  0.08325816  0.18308197  1
  Se  Se224  1  0.25183470  0.07577863  0.69368019  1
  Se  Se225  1  0.24477519  0.42254528  0.19187139  1
  Se  Se226  1  0.24560773  0.41847882  0.70213874  1
  Se  Se227  1  0.24645802  0.75138580  0.19800409  1
  Se  Se228  1  0.23917213  0.75368923  0.68947324  1
  Se  Se229  1  0.58525978  0.08345283  0.20177382  1
  Se  Se230  1  0.57574741  0.09877760  0.69243590  1
  Se  Se231  1  0.58279484  0.42649236  0.18248965  1
  Se  Se232  1  0.57335302  0.42256058  0.68975655  1
  Se  Se233  1  0.57634713  0.75633069  0.20228378  1
  Se  Se234  1  0.57474635  0.76280713  0.69456812  1
  Se  Se235  1  0.91974074  0.08160417  0.20237355  1
  Se  Se236  1  0.90988555  0.08028327  0.68977783  1
  Se  Se237  1  0.92171308  0.43021409  0.18562638  1
  Se  Se238  1  0.90656711  0.42045385  0.68780349  1
  Se  Se239  1  0.92075554  0.75096374  0.19569867  1
  Se  Se240  1  0.92699737  0.74033066  0.69397603  1
  Se  Se241  1  0.08403509  0.24937232  0.19373344  1
  Se  Se242  1  0.08693170  0.23794936  0.69039592  1
  Se  Se243  1  0.07904036  0.58944728  0.19519192  1
  Se  Se244  1  0.07934146  0.58561193  0.69858339  1
  Se  Se245  1  0.08244757  0.91918070  0.19055842  1
  Se  Se246  1  0.08848056  0.90985106  0.68782673  1
  Se  Se247  1  0.42715183  0.25326737  0.18850958  1
  Se  Se248  1  0.40141377  0.25776030  0.69840113  1
  Se  Se249  1  0.40898972  0.58547758  0.19632384  1
  Se  Se250  1  0.42137538  0.58300445  0.69455397  1
  Se  Se251  1  0.41961331  0.91304668  0.18826885  1
  Se  Se252  1  0.41398377  0.91791267  0.70270333  1
  Se  Se253  1  0.75836840  0.24420611  0.19277527  1
  Se  Se254  1  0.74924867  0.24550433  0.68624732  1
  Se  Se255  1  0.74610095  0.58637818  0.18597862  1
  Se  Se256  1  0.75576881  0.57908495  0.68519134  1
  Se  Se257  1  0.74998317  0.91959165  0.20414074  1
  Se  Se258  1  0.76408745  0.90177398  0.69374428  1
