# generated using pymatgen
data_In86Cu29Se144
_symmetry_space_group_name_H-M   'P 1'
_cell_length_a   17.57875937
_cell_length_b   17.57767202
_cell_length_c   23.43519553
_cell_angle_alpha   90.04054683
_cell_angle_beta   90.00712071
_cell_angle_gamma   89.98690464
_symmetry_Int_Tables_number   1
_chemical_formula_structural   In86Cu29Se144
_chemical_formula_sum   'In86 Cu29 Se144'
_cell_volume   7241.32493634
_cell_formula_units_Z   1
loop_
 _symmetry_equiv_pos_site_id
 _symmetry_equiv_pos_as_xyz
  1  'x, y, z'
loop_
 _atom_site_type_symbol
 _atom_site_label
 _atom_site_symmetry_multiplicity
 _atom_site_fract_x
 _atom_site_fract_y
 _atom_site_fract_z
 _atom_site_occupancy
  In  In0  1  0.01073819  0.17833072  0.11554864  1
  In  In1  1  0.00639619  0.16368826  0.62079697  1
  In  In2  1  -0.00882842  0.49290539  0.11286875  1
  In  In3  1  0.00127945  0.48226752  0.62598195  1
  In  In4  1  -0.00254114  0.83418118  0.12699804  1
  In  In5  1  0.01710814  0.84163428  0.61987329  1
  In  In6  1  0.34030753  0.18436221  0.13064663  1
  In  In7  1  0.33374164  0.17348806  0.62270280  1
  In  In8  1  0.32551626  0.50382024  0.13294538  1
  In  In9  1  0.32245719  0.47325794  0.60442912  1
  In  In10  1  0.33183805  0.82058186  0.12867778  1
  In  In11  1  0.34561120  0.84168078  0.62009755  1
  In  In12  1  0.66402890  0.15625693  0.12356910  1
  In  In13  1  0.67407691  0.17290615  0.62122358  1
  In  In14  1  0.67472090  0.48656580  0.12328819  1
  In  In15  1  0.65595611  0.50276905  0.63091565  1
  In  In16  1  0.66933959  0.85590087  0.12858489  1
  In  In17  1  0.65150208  0.82546275  0.62181896  1
  In  In18  1  0.14854452  0.00583771  0.39586032  1
  In  In19  1  0.17459300  0.01770077  0.86779723  1
  In  In20  1  0.16960937  0.33441093  0.37559546  1
  In  In21  1  0.16505005  0.33208384  0.87396306  1
  In  In22  1  0.18042095  0.65225088  0.38324565  1
  In  In23  1  0.15952659  0.65167760  0.87573022  1
  In  In24  1  0.50562943  -0.00422556  0.38617910  1
  In  In25  1  0.48288618  0.00344015  0.87243079  1
  In  In26  1  0.48212188  0.34439019  0.39524974  1
  In  In27  1  0.49234935  0.31571282  0.85361891  1
  In  In28  1  0.49154737  0.68219822  0.38450961  1
  In  In29  1  0.51208896  0.66625103  0.87524411  1
  In  In30  1  0.83339135  0.01639253  0.37156773  1
  In  In31  1  0.85097123  -0.00234178  0.86965958  1
  In  In32  1  0.82904352  0.31924257  0.37342625  1
  In  In33  1  0.83514419  0.33248440  0.87369080  1
  In  In34  1  0.82484759  0.66169366  0.37220876  1
  In  In35  1  0.82378862  0.66949761  0.87538384  1
  In  In36  1  -0.00917038  0.17296305  0.38052591  1
  In  In37  1  0.00178360  0.17010645  0.87225584  1
  In  In38  1  0.01810703  0.49549297  0.37413575  1
  In  In39  1  0.01552293  0.49244532  0.88525673  1
  In  In40  1  0.00181042  0.84778077  0.37962470  1
  In  In41  1  -0.00855881  0.83867503  0.87153757  1
  In  In42  1  0.32249449  0.17472638  0.38705661  1
  In  In43  1  0.32704151  0.15949923  0.86456719  1
  In  In44  1  0.32796122  0.49777825  0.37554904  1
  In  In45  1  0.32949092  0.48376849  0.87121541  1
  In  In46  1  0.33784085  0.82867174  0.38135233  1
  In  In47  1  0.32712548  0.85044207  0.87585806  1
  In  In48  1  0.67061503  0.16229625  0.38666043  1
  In  In49  1  0.66579969  0.18147009  0.86985743  1
  In  In50  1  0.66474018  0.48583546  0.37877171  1
  In  In51  1  0.66619722  0.50091180  0.86744545  1
  In  In52  1  0.64974562  0.83251864  0.37509127  1
  In  In53  1  0.66822723  0.81854829  0.87274553  1
  In  In54  1  0.15496753  0.00491441  0.12651395  1
  In  In55  1  0.16986530  0.00824915  0.62198511  1
  In  In56  1  0.16746569  0.33373819  0.12622974  1
  In  In57  1  0.17156731  0.32750241  0.62004861  1
  In  In58  1  0.17707437  0.66824906  0.12775789  1
  In  In59  1  0.17445487  0.66457090  0.61944826  1
  In  In60  1  0.51724617  0.00780336  0.12973858  1
  In  In61  1  0.49274141  -0.00448637  0.62114801  1
  In  In62  1  0.48554008  0.32197463  0.13011519  1
  In  In63  1  0.49770881  0.33339422  0.62373922  1
  In  In64  1  0.48424341  0.66541824  0.12682132  1
  In  In65  1  0.50626659  0.66139236  0.61819309  1
  In  In66  1  0.81645521  0.00075544  0.12473398  1
  In  In67  1  0.83692010  0.01509279  0.62358892  1
  In  In68  1  0.84206239  0.34359003  0.11240541  1
  In  In69  1  0.84913801  0.32138434  0.63350145  1
  In  In70  1  0.84500502  0.66157140  0.12226165  1
  In  In71  1  0.82789646  0.65484692  0.63029363  1
  In  In72  1  0.82991498  0.83383702  0.50184342  1
  In  In73  1  0.33533615  0.00277470  0.26495386  1
  In  In74  1  0.34363496  0.66834849  0.73888789  1
  In  In75  1  0.66728745  -0.00233193  0.74158477  1
  In  In76  1  -0.00303683  0.66531766  0.75671448  1
  In  In77  1  0.00357675  0.66811357  0.24249924  1
  In  In78  1  -0.00615029  0.00509493  0.25307075  1
  In  In79  1  0.49990350  0.16757385  -0.00124063  1
  In  In80  1  0.65776375  0.66981246  0.25509222  1
  In  In81  1  0.50397174  0.49934359  -0.00530568  1
  In  In82  1  0.82924112  0.49525771  0.50054631  1
  In  In83  1  0.16524130  0.83108879  0.00411081  1
  In  In84  1  0.65695259  0.32111605  0.25306291  1
  In  In85  1  0.83391866  0.83155871  0.00072665  1
  Cu  Cu86  1  0.83902481  0.16850158  0.74886690  1
  Cu  Cu87  1  0.00435796  0.66786556  0.49960133  1
  Cu  Cu88  1  0.82817441  0.49269697  0.75083472  1
  Cu  Cu89  1  0.33400752  0.66598499  0.00423663  1
  Cu  Cu90  1  0.66647210  -0.00078381  -0.00011632  1
  Cu  Cu91  1  0.49929438  0.49404586  0.74587726  1
  Cu  Cu92  1  0.83478866  0.17284482  0.24868896  1
  Cu  Cu93  1  0.49370121  0.83698815  0.25614167  1
  Cu  Cu94  1  0.66890896  0.32787019  0.50525670  1
  Cu  Cu95  1  0.66425390  0.66834138  -0.00169966  1
  Cu  Cu96  1  0.49861370  0.83317101  0.74514966  1
  Cu  Cu97  1  0.84210929  0.49529751  0.24238829  1
  Cu  Cu98  1  0.83481784  0.83122913  0.74919615  1
  Cu  Cu99  1  0.33154127  -0.00131500  0.50092294  1
  Cu  Cu100  1  0.00207878  0.32822717  -0.00377185  1
  Cu  Cu101  1  0.00327792  0.32900343  0.50181876  1
  Cu  Cu102  1  0.33300268  0.00265221  -0.00384536  1
  Cu  Cu103  1  0.17155165  0.82617539  0.26131074  1
  Cu  Cu104  1  0.00490408  0.01029244  -0.00469799  1
  Cu  Cu105  1  0.49071360  0.49698228  0.25626031  1
  Cu  Cu106  1  0.66404183  0.00156047  0.50493717  1
  Cu  Cu107  1  0.16775058  0.84887898  0.74878325  1
  Cu  Cu108  1  0.16739912  0.49200187  0.74651140  1
  Cu  Cu109  1  0.16502057  0.17158569  0.74443377  1
  Cu  Cu110  1  0.67027611  0.33638603  -0.00697763  1
  Cu  Cu111  1  0.17114757  0.49005271  0.25142471  1
  Cu  Cu112  1  0.17150615  0.17270141  0.25154615  1
  Cu  Cu113  1  0.32524692  0.33510692  -0.00024524  1
  Cu  Cu114  1  0.33472130  0.66278816  0.50125726  1
  Se  Se115  1  0.09182191  0.08799705  0.04961726  1
  Se  Se116  1  0.09454890  0.09214144  0.54982063  1
  Se  Se117  1  0.08465058  0.41058510  0.05308177  1
  Se  Se118  1  0.08592606  0.41519463  0.55216015  1
  Se  Se119  1  0.07294161  0.73982040  0.06101849  1
  Se  Se120  1  0.08837886  0.74802425  0.55377534  1
  Se  Se121  1  0.41168794  0.07892127  0.06259218  1
  Se  Se122  1  0.41390583  0.08341002  0.55457211  1
  Se  Se123  1  0.41207496  0.41304502  0.05759658  1
  Se  Se124  1  0.44526347  0.43570626  0.55245495  1
  Se  Se125  1  0.41694770  0.75300413  0.05271455  1
  Se  Se126  1  0.41786509  0.74624490  0.55508287  1
  Se  Se127  1  0.74954177  0.08584840  0.04934425  1
  Se  Se128  1  0.75261003  0.08616264  0.55085481  1
  Se  Se129  1  0.75288408  0.42242034  0.04422628  1
  Se  Se130  1  0.75031667  0.40631574  0.56749651  1
  Se  Se131  1  0.74040186  0.74667637  0.06383772  1
  Se  Se132  1  0.74419657  0.73697221  0.55847348  1
  Se  Se133  1  0.25136158  0.24809437  0.05717041  1
  Se  Se134  1  0.26724334  0.26344507  0.54736727  1
  Se  Se135  1  0.25153729  0.58199695  0.05625837  1
  Se  Se136  1  0.24742787  0.57790533  0.54903407  1
  Se  Se137  1  0.25657727  0.92447084  0.06265190  1
  Se  Se138  1  0.24993678  0.91486608  0.55626490  1
  Se  Se139  1  0.58936341  0.26229012  0.05805497  1
  Se  Se140  1  0.58039315  0.24639223  0.55488382  1
  Se  Se141  1  0.58894935  0.58752055  0.06294079  1
  Se  Se142  1  0.59060127  0.57833640  0.55143814  1
  Se  Se143  1  0.58135594  0.91985939  0.05376492  1
  Se  Se144  1  0.58000099  0.91463713  0.55305479  1
  Se  Se145  1  0.91439750  0.24636135  0.04843577  1
  Se  Se146  1  0.91702208  0.24623254  0.55308461  1
  Se  Se147  1  0.91201954  0.58194224  0.04757665  1
  Se  Se148  1  0.92513099  0.58613372  0.55908200  1
  Se  Se149  1  0.92513967  0.92976327  0.05695077  1
  Se  Se150  1  0.92221542  0.92478601  0.55666046  1
  Se  Se151  1  0.08512319  0.24906180  0.44383881  1
  Se  Se152  1  0.08745303  0.24582564  0.94403949  1
  Se  Se153  1  0.08499292  0.57930004  0.44924988  1
  Se  Se154  1  0.08312472  0.58708615  0.95338586  1
  Se  Se155  1  0.08512997  0.90315406  0.45809633  1
  Se  Se156  1  0.08252730  0.92277103  0.93821563  1
  Se  Se157  1  0.38999416  0.26497959  0.46101285  1
  Se  Se158  1  0.40909794  0.25683883  0.93936638  1
  Se  Se159  1  0.41516738  0.58267423  0.44255136  1
  Se  Se160  1  0.40777825  0.58774477  0.93682030  1
  Se  Se161  1  0.41701016  0.91350103  0.45039897  1
  Se  Se162  1  0.41774367  0.91666462  0.94854880  1
  Se  Se163  1  0.75682387  0.24761864  0.45244457  1
  Se  Se164  1  0.75216046  0.24778516  0.94395434  1
  Se  Se165  1  0.73809532  0.58880801  0.44419081  1
  Se  Se166  1  0.74147094  0.58404997  0.94195961  1
  Se  Se167  1  0.74283617  0.92477794  0.43911277  1
  Se  Se168  1  0.74685864  0.92172674  0.93642536  1
  Se  Se169  1  0.24517520  0.08476126  0.45420563  1
  Se  Se170  1  0.25253613  0.08937127  0.94534378  1
  Se  Se171  1  0.23667098  0.42815744  0.44465020  1
  Se  Se172  1  0.24397865  0.41933040  0.94604927  1
  Se  Se173  1  0.25070665  0.74871532  0.44900149  1
  Se  Se174  1  0.25481086  0.74351770  0.93912098  1
  Se  Se175  1  0.57952146  0.08758382  0.45439227  1
  Se  Se176  1  0.58930720  0.07786430  0.93611235  1
  Se  Se177  1  0.58707219  0.41467869  0.45465683  1
  Se  Se178  1  0.57972323  0.40238692  0.93149772  1
  Se  Se179  1  0.58737475  0.74986799  0.45083072  1
  Se  Se180  1  0.58095394  0.75407818  0.94862507  1
  Se  Se181  1  0.93060709  0.06729481  0.44253419  1
  Se  Se182  1  0.91612328  0.08674484  0.94208264  1
  Se  Se183  1  0.92240084  0.40943638  0.43897252  1
  Se  Se184  1  0.91826788  0.41350772  0.94450768  1
  Se  Se185  1  0.91945027  0.74018632  0.43911406  1
  Se  Se186  1  0.92605978  0.74189660  0.94207419  1
  Se  Se187  1  0.25497808  0.25196005  0.30646533  1
  Se  Se188  1  0.24737138  0.25276137  0.80239252  1
  Se  Se189  1  0.24974992  0.58150648  0.30146816  1
  Se  Se190  1  0.24822001  0.57983523  0.80106663  1
  Se  Se191  1  0.23711279  0.91723291  0.32139182  1
  Se  Se192  1  0.25525212  0.92904632  0.80078163  1
  Se  Se193  1  0.57457549  0.25259379  0.32859542  1
  Se  Se194  1  0.58687810  0.24267096  0.79111356  1
  Se  Se195  1  0.57472577  0.57459938  0.31494443  1
  Se  Se196  1  0.57814648  0.58155217  0.80011715  1
  Se  Se197  1  0.57851379  0.92216326  0.30494464  1
  Se  Se198  1  0.58043605  0.91085587  0.80841880  1
  Se  Se199  1  0.92055900  0.25249139  0.30211480  1
  Se  Se200  1  0.91999553  0.25368841  0.80323185  1
  Se  Se201  1  0.91495430  0.57631056  0.30676903  1
  Se  Se202  1  0.90926985  0.57207749  0.81389985  1
  Se  Se203  1  0.90461709  0.90952006  0.30733904  1
  Se  Se204  1  0.92269811  0.91714140  0.79371636  1
  Se  Se205  1  0.09092361  0.08967183  0.30988280  1
  Se  Se206  1  0.08194875  0.08735134  0.79980889  1
  Se  Se207  1  0.08262537  0.40864717  0.30031035  1
  Se  Se208  1  0.08187948  0.41693655  0.80435100  1
  Se  Se209  1  0.08439465  0.74817043  0.31659925  1
  Se  Se210  1  0.09561687  0.76014658  0.80898614  1
  Se  Se211  1  0.42202941  0.09313587  0.32348155  1
  Se  Se212  1  0.42836101  0.09645273  0.80026518  1
  Se  Se213  1  0.41301191  0.41012362  0.30976359  1
  Se  Se214  1  0.41107562  0.41357924  0.79675155  1
  Se  Se215  1  0.41224121  0.74911477  0.30496843  1
  Se  Se216  1  0.41942647  0.75739831  0.81133247  1
  Se  Se217  1  0.74784269  0.09605809  0.30391686  1
  Se  Se218  1  0.75702440  0.08408217  0.80672860  1
  Se  Se219  1  0.75674738  0.41929411  0.30290043  1
  Se  Se220  1  0.74520083  0.40888646  0.80417105  1
  Se  Se221  1  0.75344025  0.76101367  0.30806614  1
  Se  Se222  1  0.74985931  0.74614462  0.79788404  1
  Se  Se223  1  0.24717246  0.08466995  0.19396660  1
  Se  Se224  1  0.25191508  0.08853787  0.69307673  1
  Se  Se225  1  0.25640161  0.40694497  0.19810896  1
  Se  Se226  1  0.25226920  0.41354547  0.69119319  1
  Se  Se227  1  0.25224944  0.74666594  0.20357739  1
  Se  Se228  1  0.24390424  0.76142639  0.69101809  1
  Se  Se229  1  0.57622572  0.10167106  0.20053410  1
  Se  Se230  1  0.57889116  0.08831673  0.68535015  1
  Se  Se231  1  0.57322488  0.42260121  0.19288321  1
  Se  Se232  1  0.58600361  0.40847670  0.69750350  1
  Se  Se233  1  0.57301338  0.75986897  0.19011081  1
  Se  Se234  1  0.57889791  0.74348553  0.69630375  1
  Se  Se235  1  0.91268176  0.09329380  0.18508504  1
  Se  Se236  1  0.92256618  0.08565595  0.69560575  1
  Se  Se237  1  0.92311643  0.41098839  0.19070968  1
  Se  Se238  1  0.92064511  0.41450268  0.70242726  1
  Se  Se239  1  0.90198177  0.76217488  0.19550350  1
  Se  Se240  1  0.91765037  0.75418755  0.68642117  1
  Se  Se241  1  0.08440312  0.24868853  0.19532825  1
  Se  Se242  1  0.08207262  0.25387896  0.68986427  1
  Se  Se243  1  0.09097853  0.57019907  0.18833880  1
  Se  Se244  1  0.08769604  0.57972043  0.69136859  1
  Se  Se245  1  0.09147566  0.90591632  0.19994121  1
  Se  Se246  1  0.08361091  0.92747577  0.69392709  1
  Se  Se247  1  0.42640729  0.24048107  0.20837619  1
  Se  Se248  1  0.40893537  0.26046051  0.69330109  1
  Se  Se249  1  0.41303903  0.58380735  0.20081737  1
  Se  Se250  1  0.41837574  0.56740980  0.68107995  1
  Se  Se251  1  0.41683380  0.91731999  0.19222604  1
  Se  Se252  1  0.41466526  0.92045111  0.69857823  1
  Se  Se253  1  0.75592083  0.25162041  0.18503607  1
  Se  Se254  1  0.75155520  0.24864261  0.69745056  1
  Se  Se255  1  0.75305368  0.57941845  0.19353239  1
  Se  Se256  1  0.74568357  0.57977446  0.70130438  1
  Se  Se257  1  0.74767699  0.92702650  0.20313360  1
  Se  Se258  1  0.75788055  0.90585286  0.68230239  1
