# generated using pymatgen
data_In86Cu29Se144
_symmetry_space_group_name_H-M   'P 1'
_cell_length_a   17.59144048
_cell_length_b   17.59420828
_cell_length_c   23.44781429
_cell_angle_alpha   89.99200916
_cell_angle_beta   89.99653885
_cell_angle_gamma   89.99336751
_symmetry_Int_Tables_number   1
_chemical_formula_structural   In86Cu29Se144
_chemical_formula_sum   'In86 Cu29 Se144'
_cell_volume   7257.27349351
_cell_formula_units_Z   1
loop_
 _symmetry_equiv_pos_site_id
 _symmetry_equiv_pos_as_xyz
  1  'x, y, z'
loop_
 _atom_site_type_symbol
 _atom_site_label
 _atom_site_symmetry_multiplicity
 _atom_site_fract_x
 _atom_site_fract_y
 _atom_site_fract_z
 _atom_site_occupancy
  In  In0  1  0.01021182  0.17242251  0.11500733  1
  In  In1  1  0.00013730  0.16267258  0.63582450  1
  In  In2  1  0.00301842  0.49741803  0.13149637  1
  In  In3  1  -0.00511849  0.49792925  0.62556706  1
  In  In4  1  -0.00202131  0.83032537  0.11986436  1
  In  In5  1  0.00720720  0.83587847  0.62473260  1
  In  In6  1  0.33334482  0.16732468  0.11803050  1
  In  In7  1  0.33511176  0.16901955  0.64126822  1
  In  In8  1  0.34169904  0.48814268  0.12597790  1
  In  In9  1  0.34537062  0.49274527  0.63480289  1
  In  In10  1  0.32865465  0.84350852  0.12837510  1
  In  In11  1  0.32277951  0.84275015  0.63749909  1
  In  In12  1  0.67242808  0.17637059  0.11402155  1
  In  In13  1  0.65747804  0.17042912  0.64471610  1
  In  In14  1  0.65547088  0.50589652  0.12355397  1
  In  In15  1  0.64956321  0.50557494  0.62855970  1
  In  In16  1  0.67014108  0.82302185  0.12515242  1
  In  In17  1  0.67428267  0.84468664  0.63309185  1
  In  In18  1  0.16028912  -0.01479274  0.37675490  1
  In  In19  1  0.16528863  0.00117511  0.87760396  1
  In  In20  1  0.17013957  0.33305897  0.35957176  1
  In  In21  1  0.15847859  0.32385078  0.87076709  1
  In  In22  1  0.17860304  0.67703060  0.36730788  1
  In  In23  1  0.18431477  0.67101415  0.87948885  1
  In  In24  1  0.49914536  0.01555340  0.37729393  1
  In  In25  1  0.51923888  0.02000864  0.84902738  1
  In  In26  1  0.50634104  0.33912828  0.36803494  1
  In  In27  1  0.49809216  0.32932950  0.87150709  1
  In  In28  1  0.48538317  0.65132360  0.36979764  1
  In  In29  1  0.48718273  0.67091619  0.87501264  1
  In  In30  1  0.84458412  -0.00490245  0.37737917  1
  In  In31  1  0.83900538  -0.00316723  0.87726350  1
  In  In32  1  0.83082311  0.33650136  0.36400054  1
  In  In33  1  0.82110682  0.31766792  0.87294454  1
  In  In34  1  0.82948399  0.67503231  0.35605577  1
  In  In35  1  0.83622832  0.67131295  0.88115653  1
  In  In36  1  -0.00580707  0.16515443  0.37016652  1
  In  In37  1  0.00019671  0.16163762  0.87947794  1
  In  In38  1  -0.00809019  0.49813248  0.36613603  1
  In  In39  1  0.01050359  0.49567432  0.87534493  1
  In  In40  1  0.01742587  0.84559899  0.37108963  1
  In  In41  1  -0.01190434  0.85033030  0.88562869  1
  In  In42  1  0.32738554  0.16487506  0.36069374  1
  In  In43  1  0.33387862  0.16445826  0.87066854  1
  In  In44  1  0.33686633  0.50059289  0.37101027  1
  In  In45  1  0.34715386  0.50459890  0.86581038  1
  In  In46  1  0.32710680  0.82494955  0.37106122  1
  In  In47  1  0.33616829  0.83332213  0.86861977  1
  In  In48  1  0.65792644  0.17187144  0.36822210  1
  In  In49  1  0.66404190  0.17025900  0.88036382  1
  In  In50  1  0.65842439  0.49527386  0.36892247  1
  In  In51  1  0.65684476  0.48205605  0.86902662  1
  In  In52  1  0.67940376  0.82827047  0.37254018  1
  In  In53  1  0.67233712  0.84794244  0.86762020  1
  In  In54  1  0.18399007  0.01216378  0.11317377  1
  In  In55  1  0.17047259  -0.00751277  0.63026371  1
  In  In56  1  0.17792271  0.31374390  0.13745688  1
  In  In57  1  0.17216644  0.32392275  0.63302592  1
  In  In58  1  0.15971149  0.67437187  0.13170578  1
  In  In59  1  0.16603403  0.68239929  0.62082279  1
  In  In60  1  0.48243632  0.00081589  0.12154720  1
  In  In61  1  0.48842219  0.00954510  0.65587777  1
  In  In62  1  0.49820895  0.33345499  0.11751965  1
  In  In63  1  0.48423613  0.34778982  0.65400202  1
  In  In64  1  0.50574182  0.65771028  0.12740153  1
  In  In65  1  0.49451800  0.65067768  0.62304406  1
  In  In66  1  0.82933871  -0.00175966  0.11551482  1
  In  In67  1  0.83010183  -0.00409339  0.64628908  1
  In  In68  1  0.83936320  0.32388097  0.12758732  1
  In  In69  1  0.83625359  0.32965053  0.63504676  1
  In  In70  1  0.83154800  0.67542563  0.13016892  1
  In  In71  1  0.83433850  0.67150263  0.62353760  1
  In  In72  1  0.83181849  0.49970156  0.00556422  1
  In  In73  1  0.83089580  0.16363401  0.49514704  1
  In  In74  1  0.50114579  0.83413299  0.50702097  1
  In  In75  1  0.00485584  0.00165636  0.24916308  1
  In  In76  1  0.17267598  0.49621698  0.00317234  1
  In  In77  1  0.66003540  -0.00251736  0.24492288  1
  In  In78  1  0.82793521  0.50331096  0.49950170  1
  In  In79  1  0.17346360  0.50222982  0.49546362  1
  In  In80  1  0.83671224  0.83336287  0.50541822  1
  In  In81  1  0.66311499  0.66837969  0.75535775  1
  In  In82  1  0.00798477  0.66885373  0.74418740  1
  In  In83  1  0.49914005  0.83995716  -0.00828230  1
  In  In84  1  0.49446535  0.17187476  0.51518571  1
  In  In85  1  0.16888962  0.16105197  0.50509934  1
  Cu  Cu86  1  0.15951658  0.83345601  0.75495786  1
  Cu  Cu87  1  0.33267917  0.33042599  -0.00453408  1
  Cu  Cu88  1  0.17446304  0.49354858  0.75425136  1
  Cu  Cu89  1  0.49524892  0.17391158  0.24393525  1
  Cu  Cu90  1  0.82328143  0.49964766  0.24295551  1
  Cu  Cu91  1  0.49739792  0.49671055  0.24712249  1
  Cu  Cu92  1  0.16980411  0.83704509  0.24743502  1
  Cu  Cu93  1  0.83135004  0.16513273  0.24696380  1
  Cu  Cu94  1  0.83704642  0.16414722  0.76005297  1
  Cu  Cu95  1  -0.00393823  0.32994110  -0.00118305  1
  Cu  Cu96  1  0.16408069  0.50395339  0.25046752  1
  Cu  Cu97  1  0.33616353  0.67031300  0.00125678  1
  Cu  Cu98  1  0.00310096  -0.00181844  0.00109287  1
  Cu  Cu99  1  0.66343614  0.00026466  -0.00802542  1
  Cu  Cu100  1  0.66759692  0.00496662  0.51355939  1
  Cu  Cu101  1  0.66808108  0.66539799  0.00200429  1
  Cu  Cu102  1  0.00523786  0.67775415  0.00335218  1
  Cu  Cu103  1  0.83946614  0.49753426  0.75091148  1
  Cu  Cu104  1  0.65855077  0.32963216  -0.00500419  1
  Cu  Cu105  1  0.49684465  0.83212236  0.24880998  1
  Cu  Cu106  1  0.65817615  0.34245438  0.50038338  1
  Cu  Cu107  1  0.33696129  0.00497064  -0.00924533  1
  Cu  Cu108  1  0.34890108  0.33398258  0.50136660  1
  Cu  Cu109  1  0.00706159  0.32910439  0.49950979  1
  Cu  Cu110  1  0.33047904  0.66782227  0.49560558  1
  Cu  Cu111  1  0.16064376  0.16653920  0.75626664  1
  Cu  Cu112  1  0.00591845  0.67455545  0.48941089  1
  Cu  Cu113  1  0.32890164  -0.00934950  0.50575315  1
  Cu  Cu114  1  0.65366812  0.66059517  0.49594046  1
  Se  Se115  1  0.08881864  0.08539293  0.04820362  1
  Se  Se116  1  0.07533246  0.07566444  0.56262735  1
  Se  Se117  1  0.07763628  0.40862659  0.05901159  1
  Se  Se118  1  0.08446401  0.41078850  0.55849651  1
  Se  Se119  1  0.09431529  0.75663128  0.05351883  1
  Se  Se120  1  0.08141185  0.75566220  0.54916062  1
  Se  Se121  1  0.41847918  0.08723127  0.04674790  1
  Se  Se122  1  0.40727963  0.06998409  0.56763413  1
  Se  Se123  1  0.41508356  0.41682552  0.04681011  1
  Se  Se124  1  0.42545679  0.41147101  0.56317782  1
  Se  Se125  1  0.41765574  0.75146161  0.06017331  1
  Se  Se126  1  0.40489020  0.74637429  0.56181875  1
  Se  Se127  1  0.74671003  0.08190255  0.04906721  1
  Se  Se128  1  0.74884732  0.08619198  0.57010663  1
  Se  Se129  1  0.73996137  0.40645160  0.05922153  1
  Se  Se130  1  0.74622705  0.41135167  0.56246496  1
  Se  Se131  1  0.75282204  0.74837157  0.05212219  1
  Se  Se132  1  0.73323659  0.74216034  0.55603760  1
  Se  Se133  1  0.24629281  0.25273738  0.05119847  1
  Se  Se134  1  0.26678672  0.25393815  0.55909875  1
  Se  Se135  1  0.25677152  0.59082264  0.06302289  1
  Se  Se136  1  0.25709037  0.58755716  0.56210648  1
  Se  Se137  1  0.26032117  0.91862583  0.04751455  1
  Se  Se138  1  0.24490211  0.90853149  0.55659539  1
  Se  Se139  1  0.57550310  0.24508387  0.04764560  1
  Se  Se140  1  0.59067927  0.26015186  0.56706797  1
  Se  Se141  1  0.57838903  0.58289952  0.04810562  1
  Se  Se142  1  0.57499564  0.57501194  0.54855508  1
  Se  Se143  1  0.58901548  0.92311706  0.06057672  1
  Se  Se144  1  0.58014950  0.93042209  0.56953491  1
  Se  Se145  1  0.91187874  0.24591243  0.05086607  1
  Se  Se146  1  0.92262641  0.25269523  0.55818554  1
  Se  Se147  1  0.92721818  0.59030889  0.05901827  1
  Se  Se148  1  0.92888367  0.59607357  0.55250034  1
  Se  Se149  1  0.91669980  0.91505703  0.05183292  1
  Se  Se150  1  0.91647103  0.93048324  0.56470900  1
  Se  Se151  1  0.08498826  0.25190611  0.43835638  1
  Se  Se152  1  0.08316054  0.24883246  0.94758335  1
  Se  Se153  1  0.07969516  0.58613285  0.43402845  1
  Se  Se154  1  0.08096243  0.59248259  0.94436376  1
  Se  Se155  1  0.07929946  0.91930694  0.45279404  1
  Se  Se156  1  0.08921995  0.91436898  0.95008598  1
  Se  Se157  1  0.41578218  0.24763935  0.43721425  1
  Se  Se158  1  0.41527681  0.24688071  0.94191995  1
  Se  Se159  1  0.41160149  0.57788389  0.44838416  1
  Se  Se160  1  0.41402516  0.58417575  0.94626253  1
  Se  Se161  1  0.41435471  0.92271170  0.44171796  1
  Se  Se162  1  0.42027739  0.93295428  0.92865452  1
  Se  Se163  1  0.73849580  0.26215111  0.44018013  1
  Se  Se164  1  0.75160808  0.24582421  0.95353291  1
  Se  Se165  1  0.74514174  0.59390110  0.43563206  1
  Se  Se166  1  0.74101209  0.58177283  0.93812333  1
  Se  Se167  1  0.74197149  0.92731528  0.44737787  1
  Se  Se168  1  0.75080708  0.91449035  0.94651289  1
  Se  Se169  1  0.26066461  0.07681073  0.44172293  1
  Se  Se170  1  0.24838000  0.08833461  0.94329334  1
  Se  Se171  1  0.25772080  0.40148747  0.44093914  1
  Se  Se172  1  0.25450868  0.41266485  0.93407385  1
  Se  Se173  1  0.24621777  0.75377315  0.44747415  1
  Se  Se174  1  0.25904539  0.75851321  0.94829226  1
  Se  Se175  1  0.59266650  0.08599254  0.45077039  1
  Se  Se176  1  0.57588937  0.07956954  0.94100756  1
  Se  Se177  1  0.57633781  0.42209105  0.44434579  1
  Se  Se178  1  0.57596777  0.41594948  0.94595097  1
  Se  Se179  1  0.58176855  0.74718559  0.43623348  1
  Se  Se180  1  0.59312337  0.74555213  0.93717414  1
  Se  Se181  1  0.93296395  0.07227585  0.44774031  1
  Se  Se182  1  0.91721538  0.08059930  0.94943065  1
  Se  Se183  1  0.92035107  0.40673138  0.44345765  1
  Se  Se184  1  0.91827246  0.41288560  0.93997443  1
  Se  Se185  1  0.91719616  0.74865385  0.43303186  1
  Se  Se186  1  0.91515436  0.75272391  0.95037432  1
  Se  Se187  1  0.25457432  0.25369710  0.29396114  1
  Se  Se188  1  0.24964523  0.25099873  0.80247918  1
  Se  Se189  1  0.25218917  0.58253412  0.30356647  1
  Se  Se190  1  0.24963446  0.58409811  0.80549203  1
  Se  Se191  1  0.25072177  0.91797663  0.30563699  1
  Se  Se192  1  0.24434908  0.91620066  0.80679329  1
  Se  Se193  1  0.58310471  0.25323768  0.29645482  1
  Se  Se194  1  0.60556864  0.26774641  0.81039258  1
  Se  Se195  1  0.57910619  0.58242102  0.30119607  1
  Se  Se196  1  0.57127589  0.57570016  0.80764934  1
  Se  Se197  1  0.57391660  0.91156011  0.31370312  1
  Se  Se198  1  0.55900794  0.88947833  0.80676501  1
  Se  Se199  1  0.91529160  0.24797838  0.30135716  1
  Se  Se200  1  0.92193610  0.25073505  0.80956191  1
  Se  Se201  1  0.90997085  0.57985417  0.29779179  1
  Se  Se202  1  0.91622333  0.58104177  0.80915125  1
  Se  Se203  1  0.90972003  0.90582703  0.30314033  1
  Se  Se204  1  0.92046753  0.91856871  0.80464715  1
  Se  Se205  1  0.09597441  0.09072807  0.30906738  1
  Se  Se206  1  0.07938341  0.07999459  0.80715726  1
  Se  Se207  1  0.07882665  0.41746400  0.30045936  1
  Se  Se208  1  0.08222497  0.41492418  0.80152632  1
  Se  Se209  1  0.08613278  0.75401673  0.30162512  1
  Se  Se210  1  0.08405049  0.75141237  0.81740841  1
  Se  Se211  1  0.42159974  0.08399782  0.29978090  1
  Se  Se212  1  0.40560416  0.07990511  0.79658650  1
  Se  Se213  1  0.41408813  0.41406086  0.30174064  1
  Se  Se214  1  0.41451139  0.40874314  0.80077328  1
  Se  Se215  1  0.41574936  0.74820299  0.30403195  1
  Se  Se216  1  0.41589083  0.74812334  0.79996449  1
  Se  Se217  1  0.75595300  0.08353561  0.31013336  1
  Se  Se218  1  0.75204749  0.08513399  0.81504111  1
  Se  Se219  1  0.74303404  0.41614074  0.29939272  1
  Se  Se220  1  0.75676487  0.41664086  0.80522839  1
  Se  Se221  1  0.73875995  0.75148689  0.29210563  1
  Se  Se222  1  0.76398305  0.75598963  0.80585995  1
  Se  Se223  1  0.25818284  0.08276188  0.19044418  1
  Se  Se224  1  0.24221446  0.08456600  0.69865634  1
  Se  Se225  1  0.24411817  0.42201655  0.19372395  1
  Se  Se226  1  0.25466860  0.41015487  0.69752917  1
  Se  Se227  1  0.25416408  0.75169354  0.19602538  1
  Se  Se228  1  0.24132009  0.74918288  0.70060972  1
  Se  Se229  1  0.57676248  0.09116339  0.18465097  1
  Se  Se230  1  0.59784084  0.07037662  0.71132264  1
  Se  Se231  1  0.57903355  0.41552657  0.19005434  1
  Se  Se232  1  0.60019178  0.41038150  0.70147414  1
  Se  Se233  1  0.57946963  0.75198950  0.19370874  1
  Se  Se234  1  0.58004442  0.74893500  0.68397001  1
  Se  Se235  1  0.91087167  0.08624653  0.18654437  1
  Se  Se236  1  0.92043448  0.08129163  0.70598263  1
  Se  Se237  1  0.91209875  0.41647134  0.19468055  1
  Se  Se238  1  0.92398729  0.41478439  0.69834394  1
  Se  Se239  1  0.93039027  0.74409399  0.19313369  1
  Se  Se240  1  0.90848993  0.76047487  0.69316973  1
  Se  Se241  1  0.06898314  0.25282351  0.19539370  1
  Se  Se242  1  0.08042939  0.25215869  0.69983323  1
  Se  Se243  1  0.08002091  0.58668110  0.19825762  1
  Se  Se244  1  0.09846368  0.57258180  0.68736352  1
  Se  Se245  1  0.09402219  0.91858638  0.18392118  1
  Se  Se246  1  0.07970882  0.91711676  0.69939818  1
  Se  Se247  1  0.41346775  0.25422000  0.18766767  1
  Se  Se248  1  0.44315664  0.22312639  0.70209257  1
  Se  Se249  1  0.41442525  0.58119079  0.19371276  1
  Se  Se250  1  0.41254849  0.58898268  0.70057084  1
  Se  Se251  1  0.41543575  0.92013543  0.19917596  1
  Se  Se252  1  0.41560304  0.90480136  0.70822052  1
  Se  Se253  1  0.74640940  0.24727127  0.19444349  1
  Se  Se254  1  0.75664404  0.24735982  0.70343681  1
  Se  Se255  1  0.74454723  0.58522166  0.18950639  1
  Se  Se256  1  0.75935164  0.57901288  0.69179880  1
  Se  Se257  1  0.75801073  0.91042215  0.19224132  1
  Se  Se258  1  0.74070597  0.92009137  0.71157821  1
