# generated using pymatgen
data_In86Cu29Se144
_symmetry_space_group_name_H-M   'P 1'
_cell_length_a   17.58925101
_cell_length_b   17.58858020
_cell_length_c   23.45588034
_cell_angle_alpha   90.01194820
_cell_angle_beta   90.00605757
_cell_angle_gamma   89.99700022
_symmetry_Int_Tables_number   1
_chemical_formula_structural   In86Cu29Se144
_chemical_formula_sum   'In86 Cu29 Se144'
_cell_volume   7256.54436715
_cell_formula_units_Z   1
loop_
 _symmetry_equiv_pos_site_id
 _symmetry_equiv_pos_as_xyz
  1  'x, y, z'
loop_
 _atom_site_type_symbol
 _atom_site_label
 _atom_site_symmetry_multiplicity
 _atom_site_fract_x
 _atom_site_fract_y
 _atom_site_fract_z
 _atom_site_occupancy
  In  In0  1  0.01054094  0.16593718  0.12664111  1
  In  In1  1  -0.00430180  0.17431824  0.62135900  1
  In  In2  1  -0.01139055  0.49865028  0.12493138  1
  In  In3  1  -0.00844132  0.52007754  0.62544028  1
  In  In4  1  0.00194825  0.82658836  0.12153748  1
  In  In5  1  -0.01864432  0.80830775  0.60682955  1
  In  In6  1  0.33647865  0.17845897  0.12396430  1
  In  In7  1  0.33415081  0.14958989  0.62665985  1
  In  In8  1  0.34091749  0.49968149  0.12559525  1
  In  In9  1  0.34860624  0.51598516  0.62623981  1
  In  In10  1  0.33337193  0.82346180  0.11516840  1
  In  In11  1  0.34381576  0.83536019  0.62665688  1
  In  In12  1  0.65395249  0.16490338  0.14465706  1
  In  In13  1  0.66542510  0.16351848  0.61261813  1
  In  In14  1  0.66193491  0.50470164  0.12244277  1
  In  In15  1  0.67497086  0.50353869  0.62093028  1
  In  In16  1  0.65957393  0.83300416  0.12921489  1
  In  In17  1  0.66312050  0.83524718  0.63067880  1
  In  In18  1  0.15838889  -0.00922892  0.37539785  1
  In  In19  1  0.17988645  -0.01739354  0.88550464  1
  In  In20  1  0.17159570  0.34191545  0.36246459  1
  In  In21  1  0.15635789  0.33235988  0.88312911  1
  In  In22  1  0.17285403  0.66372641  0.37742434  1
  In  In23  1  0.18262825  0.68742760  0.86070737  1
  In  In24  1  0.50700719  -0.01065466  0.38004059  1
  In  In25  1  0.47437022  -0.03892414  0.83681178  1
  In  In26  1  0.49147950  0.32073163  0.35954835  1
  In  In27  1  0.51195451  0.34177808  0.87730663  1
  In  In28  1  0.50182088  0.66654212  0.37066003  1
  In  In29  1  0.50165705  0.67776309  0.88146275  1
  In  In30  1  0.82721266  0.00400488  0.38721658  1
  In  In31  1  0.80291649  -0.00332081  0.86184884  1
  In  In32  1  0.82967093  0.33121188  0.36946840  1
  In  In33  1  0.83631614  0.33911284  0.87681512  1
  In  In34  1  0.81770172  0.67892551  0.39446807  1
  In  In35  1  0.82545864  0.65791603  0.86810869  1
  In  In36  1  -0.00784035  0.17024343  0.37727498  1
  In  In37  1  -0.00493793  0.17187457  0.87791284  1
  In  In38  1  -0.00236119  0.48990918  0.37102989  1
  In  In39  1  -0.01131993  0.50103686  0.87945915  1
  In  In40  1  -0.00061574  0.82327850  0.39117358  1
  In  In41  1  0.01325600  0.83797960  0.87237161  1
  In  In42  1  0.33040147  0.17458005  0.37360762  1
  In  In43  1  0.34041033  0.14906031  0.87782544  1
  In  In44  1  0.33855943  0.50494344  0.36434097  1
  In  In45  1  0.33886388  0.53451570  0.88471279  1
  In  In46  1  0.34795782  0.81684869  0.38833981  1
  In  In47  1  0.33408877  0.82565195  0.87633899  1
  In  In48  1  0.66463442  0.16484123  0.37042894  1
  In  In49  1  0.66163871  0.15007657  0.87050533  1
  In  In50  1  0.67162981  0.50517903  0.36844469  1
  In  In51  1  0.63664548  0.54025105  0.91722531  1
  In  In52  1  0.66300955  0.82982554  0.37741385  1
  In  In53  1  0.63395186  0.80966547  0.83912970  1
  In  In54  1  0.16532175  -0.00421951  0.11519943  1
  In  In55  1  0.18814071  -0.01417206  0.63418277  1
  In  In56  1  0.17921913  0.32841690  0.13015431  1
  In  In57  1  0.16501626  0.32652647  0.62422965  1
  In  In58  1  0.17493127  0.67846149  0.11662586  1
  In  In59  1  0.16751202  0.67900594  0.62549758  1
  In  In60  1  0.51329196  0.00020290  0.12952199  1
  In  In61  1  0.50164686  -0.00181541  0.62390078  1
  In  In62  1  0.49165510  0.33700380  0.13699988  1
  In  In63  1  0.51629935  0.33453544  0.61718770  1
  In  In64  1  0.50151144  0.66697920  0.12232327  1
  In  In65  1  0.48440738  0.69792615  0.65273185  1
  In  In66  1  0.80951809  -0.00348619  0.12507125  1
  In  In67  1  0.82803917  -0.00188871  0.62031512  1
  In  In68  1  0.82103916  0.34141784  0.13845782  1
  In  In69  1  0.82986305  0.33394569  0.60842576  1
  In  In70  1  0.83296856  0.65699752  0.12018926  1
  In  In71  1  0.82717295  0.66062372  0.62613558  1
  In  In72  1  0.50983680  0.50823729  0.49526682  1
  In  In73  1  -0.00569751  0.66338738  0.24872063  1
  In  In74  1  0.83237855  0.16542836  -0.00486990  1
  In  In75  1  -0.00281895  0.33798211  0.75377624  1
  In  In76  1  0.83292302  0.82908431  0.00107336  1
  In  In77  1  0.33193496  0.33707769  0.75094195  1
  In  In78  1  0.49935287  0.16639386  0.00511294  1
  In  In79  1  0.16191559  0.50571540  0.50828460  1
  In  In80  1  0.67125578  0.33998239  0.74885716  1
  In  In81  1  0.00316235  -0.00273546  0.74364085  1
  In  In82  1  0.16814704  0.50425162  0.00263857  1
  In  In83  1  0.33648448  0.00031494  0.25211689  1
  In  In84  1  0.16733446  0.16018289  0.49903660  1
  In  In85  1  -0.00658654  0.00175745  0.25899680  1
  Cu  Cu86  1  0.33233517  -0.00776012  -0.00528000  1
  Cu  Cu87  1  0.82903148  0.50219076  0.75225248  1
  Cu  Cu88  1  0.65751240  -0.00293374  -0.00103759  1
  Cu  Cu89  1  0.82339956  0.83269014  0.25848990  1
  Cu  Cu90  1  -0.00107024  0.00405415  -0.00113810  1
  Cu  Cu91  1  -0.00210212  0.32365405  0.00325966  1
  Cu  Cu92  1  0.50309346  0.50363337  0.24654006  1
  Cu  Cu93  1  0.33117254  0.33473293  0.00347272  1
  Cu  Cu94  1  0.82841641  0.50252781  0.25036640  1
  Cu  Cu95  1  0.16838106  0.51060690  0.74664445  1
  Cu  Cu96  1  0.34273006  -0.00649807  0.50332242  1
  Cu  Cu97  1  0.83843943  0.83138081  0.73929463  1
  Cu  Cu98  1  0.50125757  0.16359972  0.73978401  1
  Cu  Cu99  1  0.49957537  0.82342052  0.25164274  1
  Cu  Cu100  1  0.66538947  0.32593327  0.48844963  1
  Cu  Cu101  1  -0.00830217  0.33425391  0.49536155  1
  Cu  Cu102  1  0.66849435  -0.00364897  0.50017909  1
  Cu  Cu103  1  0.16873612  0.15690671  0.76014614  1
  Cu  Cu104  1  0.16867182  0.83181908  0.74807315  1
  Cu  Cu105  1  0.50232585  0.50990150  0.76239736  1
  Cu  Cu106  1  0.83521525  0.16255902  0.25556751  1
  Cu  Cu107  1  0.00828823  0.66894700  -0.00392277  1
  Cu  Cu108  1  0.17270894  0.17661603  0.24683783  1
  Cu  Cu109  1  0.65591810  0.67250790  0.50690024  1
  Cu  Cu110  1  0.00457248  -0.00165794  0.50563827  1
  Cu  Cu111  1  0.67542080  0.33466581  0.00927096  1
  Cu  Cu112  1  0.33770826  0.33589977  0.49131253  1
  Cu  Cu113  1  0.16958367  0.50304606  0.24594314  1
  Cu  Cu114  1  0.16847035  0.83027708  0.24576050  1
  Se  Se115  1  0.08291311  0.08583217  0.05180091  1
  Se  Se116  1  0.08614248  0.07346399  0.56777784  1
  Se  Se117  1  0.07918227  0.40841752  0.06040730  1
  Se  Se118  1  0.06958841  0.40703421  0.56228608  1
  Se  Se119  1  0.08668841  0.75607085  0.04890701  1
  Se  Se120  1  0.08695157  0.74508776  0.54767191  1
  Se  Se121  1  0.40807003  0.07050579  0.06166165  1
  Se  Se122  1  0.42037669  0.08521318  0.55290846  1
  Se  Se123  1  0.41844174  0.41080244  0.05773635  1
  Se  Se124  1  0.41334676  0.41457524  0.55573442  1
  Se  Se125  1  0.44100294  0.76845055  0.05461854  1
  Se  Se126  1  0.42597245  0.74830397  0.56058792  1
  Se  Se127  1  0.73235158  0.08666752  0.05599000  1
  Se  Se128  1  0.75521471  0.08389403  0.54718973  1
  Se  Se129  1  0.75617783  0.42094369  0.05948639  1
  Se  Se130  1  0.73927269  0.41491722  0.54610025  1
  Se  Se131  1  0.73986083  0.74126125  0.05822874  1
  Se  Se132  1  0.74361523  0.74955659  0.56142354  1
  Se  Se133  1  0.24754854  0.24833113  0.05171223  1
  Se  Se134  1  0.26102475  0.25480086  0.55574076  1
  Se  Se135  1  0.26679643  0.59321949  0.05284882  1
  Se  Se136  1  0.26253932  0.59519974  0.55645489  1
  Se  Se137  1  0.24896863  0.91136034  0.05060345  1
  Se  Se138  1  0.25502261  0.91236373  0.55419932  1
  Se  Se139  1  0.59130061  0.25367625  0.06519494  1
  Se  Se140  1  0.58083285  0.24676369  0.54404304  1
  Se  Se141  1  0.57476446  0.57661898  0.05061124  1
  Se  Se142  1  0.57673876  0.59573914  0.57020581  1
  Se  Se143  1  0.57997298  0.91308310  0.05564945  1
  Se  Se144  1  0.58527486  0.91556319  0.55578319  1
  Se  Se145  1  0.91298084  0.25157466  0.06483198  1
  Se  Se146  1  0.91401185  0.24359245  0.54582703  1
  Se  Se147  1  0.92530255  0.58776797  0.05076869  1
  Se  Se148  1  0.89992983  0.57430579  0.55277170  1
  Se  Se149  1  0.91859640  0.92824764  0.06263051  1
  Se  Se150  1  0.91367311  0.91717482  0.55241204  1
  Se  Se151  1  0.08674099  0.26170601  0.43997178  1
  Se  Se152  1  0.08211512  0.24210336  0.95065831  1
  Se  Se153  1  0.07346127  0.58439679  0.43970181  1
  Se  Se154  1  0.08664005  0.58990012  0.93413833  1
  Se  Se155  1  0.08535282  0.91503878  0.45086073  1
  Se  Se156  1  0.08229467  0.91389984  0.95156740  1
  Se  Se157  1  0.41949652  0.24956520  0.44217730  1
  Se  Se158  1  0.41165126  0.25758645  0.93945522  1
  Se  Se159  1  0.40665534  0.58996768  0.44194092  1
  Se  Se160  1  0.44308665  0.57630695  0.95281894  1
  Se  Se161  1  0.42616318  0.90904480  0.45157098  1
  Se  Se162  1  0.41933455  0.92206446  0.93492439  1
  Se  Se163  1  0.75396730  0.24365879  0.43976487  1
  Se  Se164  1  0.73661357  0.25452447  0.93849996  1
  Se  Se165  1  0.73330959  0.58353740  0.45148162  1
  Se  Se166  1  0.77187260  0.57525459  0.94926758  1
  Se  Se167  1  0.74950606  0.90864298  0.44816812  1
  Se  Se168  1  0.74153193  0.91764315  0.94332894  1
  Se  Se169  1  0.26017325  0.06900636  0.44007116  1
  Se  Se170  1  0.24919647  0.08390040  0.94897612  1
  Se  Se171  1  0.25271815  0.41943686  0.44036514  1
  Se  Se172  1  0.25993443  0.41654760  0.93779828  1
  Se  Se173  1  0.23393194  0.76197424  0.44394326  1
  Se  Se174  1  0.25054604  0.74553843  0.94598240  1
  Se  Se175  1  0.58854921  0.07987479  0.44372627  1
  Se  Se176  1  0.57406663  0.07295603  0.93908904  1
  Se  Se177  1  0.58237650  0.40957224  0.43138139  1
  Se  Se178  1  0.58471672  0.41135129  0.95652191  1
  Se  Se179  1  0.57586948  0.74827192  0.44536408  1
  Se  Se180  1  0.60216321  0.75786514  0.93809742  1
  Se  Se181  1  0.92605202  0.08023327  0.44791485  1
  Se  Se182  1  0.91311799  0.06774796  0.93497531  1
  Se  Se183  1  0.91023698  0.41630654  0.44089218  1
  Se  Se184  1  0.91870068  0.41161520  0.95074886  1
  Se  Se185  1  0.91733447  0.74296950  0.45822173  1
  Se  Se186  1  0.92439843  0.74677876  0.93619310  1
  Se  Se187  1  0.25859416  0.25723053  0.29906478  1
  Se  Se188  1  0.24495923  0.24638774  0.81511190  1
  Se  Se189  1  0.24827961  0.58796408  0.30144796  1
  Se  Se190  1  0.25631314  0.58551442  0.80183190  1
  Se  Se191  1  0.24700390  0.90761190  0.30925171  1
  Se  Se192  1  0.25089539  0.91207053  0.80540818  1
  Se  Se193  1  0.59564281  0.25569259  0.29987811  1
  Se  Se194  1  0.57482377  0.24508475  0.80387438  1
  Se  Se195  1  0.58503621  0.58615787  0.30170369  1
  Se  Se196  1  0.58961724  0.58480217  0.81788153  1
  Se  Se197  1  0.58078774  0.90900879  0.30476218  1
  Se  Se198  1  0.61654678  0.95100214  0.81189271  1
  Se  Se199  1  0.92069422  0.24954419  0.30214619  1
  Se  Se200  1  0.90395315  0.24213489  0.80474239  1
  Se  Se201  1  0.90333155  0.58421212  0.31404986  1
  Se  Se202  1  0.92073175  0.58109560  0.80216103  1
  Se  Se203  1  0.91138587  0.90461349  0.31714859  1
  Se  Se204  1  0.90914605  0.91197473  0.80754797  1
  Se  Se205  1  0.09440490  0.09627901  0.30840354  1
  Se  Se206  1  0.08529213  0.07943356  0.81767893  1
  Se  Se207  1  0.08273958  0.42091279  0.29681272  1
  Se  Se208  1  0.09393723  0.42850005  0.80804852  1
  Se  Se209  1  0.08287628  0.75674943  0.30712887  1
  Se  Se210  1  0.07840678  0.75092788  0.79801242  1
  Se  Se211  1  0.42396536  0.08586606  0.31433045  1
  Se  Se212  1  0.41576948  0.08673240  0.79641187  1
  Se  Se213  1  0.41674145  0.41873828  0.29738975  1
  Se  Se214  1  0.41801376  0.42597692  0.81538611  1
  Se  Se215  1  0.41037671  0.74582156  0.30394332  1
  Se  Se216  1  0.42834450  0.75917723  0.80695138  1
  Se  Se217  1  0.75478727  0.07622469  0.30791529  1
  Se  Se218  1  0.75808066  0.10461014  0.79645830  1
  Se  Se219  1  0.74679860  0.41435101  0.30051473  1
  Se  Se220  1  0.74951310  0.42851789  0.81595780  1
  Se  Se221  1  0.74699051  0.74235704  0.30978276  1
  Se  Se222  1  0.75823398  0.75050222  0.79802940  1
  Se  Se223  1  0.24166472  0.08503308  0.18856355  1
  Se  Se224  1  0.25333313  0.08047124  0.70361714  1
  Se  Se225  1  0.25582024  0.41936783  0.19520288  1
  Se  Se226  1  0.24407942  0.42668603  0.68596519  1
  Se  Se227  1  0.25358194  0.75056609  0.19283298  1
  Se  Se228  1  0.25629696  0.75241495  0.69513871  1
  Se  Se229  1  0.58516166  0.06950841  0.20873791  1
  Se  Se230  1  0.58932961  0.08589019  0.68806264  1
  Se  Se231  1  0.58699916  0.41924697  0.19521253  1
  Se  Se232  1  0.57267580  0.43053521  0.69404071  1
  Se  Se233  1  0.58515305  0.74280248  0.19755331  1
  Se  Se234  1  0.59157830  0.76044130  0.71146624  1
  Se  Se235  1  0.90749143  0.08342177  0.18784469  1
  Se  Se236  1  0.91188053  0.09146441  0.69018481  1
  Se  Se237  1  0.91738772  0.41966114  0.20075950  1
  Se  Se238  1  0.90535769  0.41932940  0.68931264  1
  Se  Se239  1  0.90372962  0.76123021  0.19200559  1
  Se  Se240  1  0.91904777  0.74129556  0.69296076  1
  Se  Se241  1  0.08240664  0.25494836  0.19584714  1
  Se  Se242  1  0.09182165  0.23851900  0.69911963  1
  Se  Se243  1  0.09076098  0.58320512  0.18434570  1
  Se  Se244  1  0.08513723  0.58991624  0.69205936  1
  Se  Se245  1  0.08470325  0.91405115  0.19369479  1
  Se  Se246  1  0.08234623  0.90073989  0.68354285  1
  Se  Se247  1  0.43034434  0.23006711  0.19726735  1
  Se  Se248  1  0.42285306  0.25211635  0.68563754  1
  Se  Se249  1  0.41756372  0.58697384  0.19430245  1
  Se  Se250  1  0.41525198  0.58800336  0.70774883  1
  Se  Se251  1  0.42102995  0.90736696  0.19131359  1
  Se  Se252  1  0.41265768  0.92915856  0.69630494  1
  Se  Se253  1  0.74994011  0.24569108  0.20298418  1
  Se  Se254  1  0.75317423  0.25162243  0.68310922  1
  Se  Se255  1  0.74967783  0.58452049  0.19253541  1
  Se  Se256  1  0.74292724  0.58251403  0.69888815  1
  Se  Se257  1  0.74391056  0.91449545  0.20060497  1
  Se  Se258  1  0.75308774  0.92060926  0.69504826  1
