# generated using pymatgen
data_In86Cu29Se144
_symmetry_space_group_name_H-M   'P 1'
_cell_length_a   17.58521144
_cell_length_b   17.58278983
_cell_length_c   23.44673042
_cell_angle_alpha   90.01911585
_cell_angle_beta   90.00189620
_cell_angle_gamma   89.99934697
_symmetry_Int_Tables_number   1
_chemical_formula_structural   In86Cu29Se144
_chemical_formula_sum   'In86 Cu29 Se144'
_cell_volume   7249.66010089
_cell_formula_units_Z   1
loop_
 _symmetry_equiv_pos_site_id
 _symmetry_equiv_pos_as_xyz
  1  'x, y, z'
loop_
 _atom_site_type_symbol
 _atom_site_label
 _atom_site_symmetry_multiplicity
 _atom_site_fract_x
 _atom_site_fract_y
 _atom_site_fract_z
 _atom_site_occupancy
  In  In0  1  -0.01428171  0.16427910  0.12416727  1
  In  In1  1  0.00307240  0.15248330  0.63210621  1
  In  In2  1  0.00364751  0.51275761  0.12458713  1
  In  In3  1  0.00270748  0.48521486  0.62383513  1
  In  In4  1  -0.00017995  0.83797117  0.12490048  1
  In  In5  1  0.01021870  0.84665336  0.61814223  1
  In  In6  1  0.34209027  0.15620407  0.12120461  1
  In  In7  1  0.32151444  0.15980808  0.61827491  1
  In  In8  1  0.33539530  0.49222997  0.12100025  1
  In  In9  1  0.34374410  0.51406472  0.61932248  1
  In  In10  1  0.33393037  0.82913781  0.11601277  1
  In  In11  1  0.33624851  0.83694587  0.62892347  1
  In  In12  1  0.66175896  0.15558175  0.12165988  1
  In  In13  1  0.66516017  0.17117239  0.62440194  1
  In  In14  1  0.67645438  0.50995320  0.11706375  1
  In  In15  1  0.65306243  0.50587034  0.62217914  1
  In  In16  1  0.66972660  0.83424558  0.12491170  1
  In  In17  1  0.65941073  0.83164283  0.61212722  1
  In  In18  1  0.16274486  -0.00307385  0.37755887  1
  In  In19  1  0.15754777  -0.00776096  0.86962840  1
  In  In20  1  0.17575121  0.32517402  0.40548577  1
  In  In21  1  0.15875819  0.34549630  0.86768563  1
  In  In22  1  0.14958485  0.68033417  0.38628317  1
  In  In23  1  0.18131174  0.66919409  0.87065998  1
  In  In24  1  0.52277447  -0.01823248  0.39714756  1
  In  In25  1  0.49916555  -0.00176575  0.87363009  1
  In  In26  1  0.49736655  0.33600177  0.39126662  1
  In  In27  1  0.49977253  0.32967983  0.87959320  1
  In  In28  1  0.50617870  0.66441402  0.37344275  1
  In  In29  1  0.49194017  0.66983570  0.87621981  1
  In  In30  1  0.81968562  -0.01678422  0.36648863  1
  In  In31  1  0.83600750  -0.00400537  0.88066601  1
  In  In32  1  0.83610875  0.33572973  0.37564828  1
  In  In33  1  0.84191447  0.32568970  0.88155950  1
  In  In34  1  0.84842618  0.67879157  0.36213022  1
  In  In35  1  0.82641239  0.67332152  0.88750354  1
  In  In36  1  0.01396991  0.15952007  0.38003607  1
  In  In37  1  -0.01619923  0.15072654  0.85840412  1
  In  In38  1  -0.00223423  0.50775515  0.37870130  1
  In  In39  1  0.00385496  0.48956495  0.87086097  1
  In  In40  1  0.00034977  0.83019661  0.37322730  1
  In  In41  1  -0.00792911  0.84348944  0.88281922  1
  In  In42  1  0.33760371  0.16337805  0.38932477  1
  In  In43  1  0.34894505  0.16435364  0.87151555  1
  In  In44  1  0.33627064  0.49619379  0.38870609  1
  In  In45  1  0.33659844  0.51291476  0.86743589  1
  In  In46  1  0.32873686  0.83751893  0.38080738  1
  In  In47  1  0.33454943  0.82910200  0.87194056  1
  In  In48  1  0.66958131  0.14684693  0.38068315  1
  In  In49  1  0.66769535  0.16364716  0.88267568  1
  In  In50  1  0.65526985  0.50811704  0.37343051  1
  In  In51  1  0.66141383  0.50627655  0.88278363  1
  In  In52  1  0.67275530  0.83500826  0.37113792  1
  In  In53  1  0.66343619  0.83662688  0.88206363  1
  In  In54  1  0.16763249  -0.01507754  0.12800825  1
  In  In55  1  0.16697884  -0.00061065  0.62695733  1
  In  In56  1  0.16582892  0.34614901  0.13042894  1
  In  In57  1  0.15360022  0.31874937  0.60637653  1
  In  In58  1  0.14986533  0.67422981  0.13402056  1
  In  In59  1  0.18099948  0.68558544  0.61608231  1
  In  In60  1  0.50957210  0.00251764  0.12029932  1
  In  In61  1  0.48088214  -0.02028869  0.61182586  1
  In  In62  1  0.50115397  0.33152544  0.11766469  1
  In  In63  1  0.49015442  0.33647193  0.61411772  1
  In  In64  1  0.51185153  0.68071690  0.11643015  1
  In  In65  1  0.48587173  0.66155863  0.62260793  1
  In  In66  1  0.83424883  -0.00348583  0.12496737  1
  In  In67  1  0.84457909  0.00497304  0.62482732  1
  In  In68  1  0.82819486  0.32754866  0.11482634  1
  In  In69  1  0.83939468  0.32634096  0.63384754  1
  In  In70  1  0.83488141  0.67084936  0.12263296  1
  In  In71  1  0.81868378  0.67385188  0.62452360  1
  In  In72  1  0.00263336  0.66685047  0.75068541  1
  In  In73  1  0.83380011  0.16009516  0.50585341  1
  In  In74  1  0.66693573  0.33252309  0.25605133  1
  In  In75  1  0.33869574  0.32836505  0.27056099  1
  In  In76  1  0.66777632  0.33275713  0.74173239  1
  In  In77  1  0.66504465  -0.00512238  0.75272515  1
  In  In78  1  0.33294014  0.66535021  0.25248333  1
  In  In79  1  0.83419240  0.50574701  0.49824329  1
  In  In80  1  0.00127123  0.33610699  0.25648227  1
  In  In81  1  0.16852203  0.50745261  -0.00390203  1
  In  In82  1  0.32574206  0.33236054  0.74263395  1
  In  In83  1  0.16952918  0.16888948  -0.00507276  1
  In  In84  1  0.65683086  0.66906936  0.75082388  1
  In  In85  1  0.33480366  -0.00174267  0.26129616  1
  Cu  Cu86  1  0.50094161  0.16405129  0.25267929  1
  Cu  Cu87  1  0.67053760  -0.00349206  0.00160887  1
  Cu  Cu88  1  0.83534599  0.83191489  0.24474196  1
  Cu  Cu89  1  0.16768230  0.49928347  0.73785830  1
  Cu  Cu90  1  0.66628105  0.33314021  -0.00052970  1
  Cu  Cu91  1  0.50634603  0.84132612  0.24852155  1
  Cu  Cu92  1  0.17005747  0.83853445  0.74632858  1
  Cu  Cu93  1  0.50092636  0.15808448  0.74759367  1
  Cu  Cu94  1  0.16689763  0.50133629  0.26212086  1
  Cu  Cu95  1  0.83921661  0.83957088  0.75112363  1
  Cu  Cu96  1  0.83240245  0.15375052  0.24928814  1
  Cu  Cu97  1  0.83589786  0.50854934  0.24130608  1
  Cu  Cu98  1  0.00049538  0.00128455  -0.00085760  1
  Cu  Cu99  1  0.66441680  0.66402704  0.00462923  1
  Cu  Cu100  1  0.32622157  -0.00159307  0.50283586  1
  Cu  Cu101  1  0.66609497  0.67663314  0.49597755  1
  Cu  Cu102  1  0.50978724  0.50971661  0.24584419  1
  Cu  Cu103  1  0.33569732  0.67140953  0.49972601  1
  Cu  Cu104  1  -0.00052675  -0.00348498  0.50019968  1
  Cu  Cu105  1  -0.00031226  0.66923994  0.49791426  1
  Cu  Cu106  1  -0.00731736  0.33146875  -0.00655796  1
  Cu  Cu107  1  0.16069941  0.15944709  0.25505568  1
  Cu  Cu108  1  0.16638132  0.16600521  0.74206407  1
  Cu  Cu109  1  0.83362097  0.49417738  0.75488798  1
  Cu  Cu110  1  0.34117347  -0.00462274  -0.00231806  1
  Cu  Cu111  1  0.33918091  0.32999833  -0.00178930  1
  Cu  Cu112  1  0.33551460  0.66844125  -0.00369526  1
  Cu  Cu113  1  0.66642665  0.33711881  0.50337877  1
  Cu  Cu114  1  -0.00204802  0.67221427  0.00434090  1
  Se  Se115  1  0.08277615  0.08136867  0.05951896  1
  Se  Se116  1  0.08188509  0.07950307  0.55576811  1
  Se  Se117  1  0.07608539  0.41023905  0.05343847  1
  Se  Se118  1  0.08335351  0.42186502  0.54706375  1
  Se  Se119  1  0.08518174  0.75341882  0.05532794  1
  Se  Se120  1  0.08272484  0.75445972  0.55090162  1
  Se  Se121  1  0.42355966  0.08199974  0.04959360  1
  Se  Se122  1  0.41306076  0.08373900  0.55148652  1
  Se  Se123  1  0.41951945  0.41750478  0.05055350  1
  Se  Se124  1  0.42407474  0.43240572  0.54921829  1
  Se  Se125  1  0.42086990  0.75310721  0.04764772  1
  Se  Se126  1  0.41627896  0.75594871  0.55490984  1
  Se  Se127  1  0.75332358  0.08186636  0.05476134  1
  Se  Se128  1  0.73816241  0.07092210  0.55914254  1
  Se  Se129  1  0.75132391  0.41805930  0.05024857  1
  Se  Se130  1  0.74936355  0.41297137  0.56415194  1
  Se  Se131  1  0.74927202  0.75054072  0.05371595  1
  Se  Se132  1  0.75459914  0.75550643  0.54759201  1
  Se  Se133  1  0.25562142  0.26009443  0.06268944  1
  Se  Se134  1  0.25939410  0.25446002  0.54807541  1
  Se  Se135  1  0.25350248  0.59483491  0.06284448  1
  Se  Se136  1  0.25074229  0.58795808  0.55166943  1
  Se  Se137  1  0.25258247  0.91960251  0.05231329  1
  Se  Se138  1  0.24708843  0.91320844  0.55879100  1
  Se  Se139  1  0.58576516  0.24648525  0.05412141  1
  Se  Se140  1  0.58435175  0.25242618  0.55521871  1
  Se  Se141  1  0.57699538  0.57815762  0.05263098  1
  Se  Se142  1  0.58413883  0.59460348  0.55243667  1
  Se  Se143  1  0.58476063  0.91261835  0.05302576  1
  Se  Se144  1  0.58303587  0.92008431  0.54655716  1
  Se  Se145  1  0.91531947  0.24571450  0.04914974  1
  Se  Se146  1  0.92445096  0.25208252  0.56099154  1
  Se  Se147  1  0.91696433  0.58303744  0.05365385  1
  Se  Se148  1  0.92146239  0.59327957  0.56370250  1
  Se  Se149  1  0.91728837  0.91760387  0.05332632  1
  Se  Se150  1  0.91219527  0.91570514  0.55232412  1
  Se  Se151  1  0.07440548  0.24438494  0.45544751  1
  Se  Se152  1  0.07730964  0.25463087  0.93446173  1
  Se  Se153  1  0.08296242  0.57954382  0.45140189  1
  Se  Se154  1  0.07514508  0.59557546  0.93709988  1
  Se  Se155  1  0.08160811  0.91194228  0.44558940  1
  Se  Se156  1  0.08666272  0.91761190  0.94911487  1
  Se  Se157  1  0.40330410  0.26271154  0.45369447  1
  Se  Se158  1  0.42097599  0.24286502  0.94803922  1
  Se  Se159  1  0.42148023  0.59033397  0.44554446  1
  Se  Se160  1  0.41564744  0.57912876  0.94623535  1
  Se  Se161  1  0.41210726  0.91513405  0.45089050  1
  Se  Se162  1  0.41998842  0.91102740  0.94155053  1
  Se  Se163  1  0.74525293  0.25659976  0.44279975  1
  Se  Se164  1  0.75118576  0.24896785  0.94782953  1
  Se  Se165  1  0.74842923  0.59536566  0.43599812  1
  Se  Se166  1  0.75006359  0.58111618  0.95151595  1
  Se  Se167  1  0.73882109  0.92437826  0.44535364  1
  Se  Se168  1  0.75362332  0.91258030  0.94832530  1
  Se  Se169  1  0.24336275  0.08023035  0.44736808  1
  Se  Se170  1  0.25929724  0.07628499  0.93793830  1
  Se  Se171  1  0.25578852  0.42127377  0.46042518  1
  Se  Se172  1  0.25823948  0.41089181  0.93886210  1
  Se  Se173  1  0.24800485  0.75302643  0.44873919  1
  Se  Se174  1  0.24918345  0.75166956  0.94604367  1
  Se  Se175  1  0.56640143  0.10324207  0.44981415  1
  Se  Se176  1  0.58439513  0.07554108  0.94497684  1
  Se  Se177  1  0.58856374  0.42439495  0.44909709  1
  Se  Se178  1  0.58121841  0.41466689  0.94645635  1
  Se  Se179  1  0.58238706  0.75541650  0.43951326  1
  Se  Se180  1  0.58472302  0.74309447  0.94383540  1
  Se  Se181  1  0.91593902  0.07219337  0.43825253  1
  Se  Se182  1  0.91907574  0.08638458  0.94521950  1
  Se  Se183  1  0.92519059  0.40699853  0.44700019  1
  Se  Se184  1  0.91572594  0.42514699  0.94492260  1
  Se  Se185  1  0.91415242  0.75060049  0.44473684  1
  Se  Se186  1  0.91434573  0.75584215  0.95081621  1
  Se  Se187  1  0.23704331  0.23911647  0.31813585  1
  Se  Se188  1  0.24199731  0.24174158  0.81008882  1
  Se  Se189  1  0.24809647  0.58126399  0.32011539  1
  Se  Se190  1  0.24565958  0.58028691  0.79654096  1
  Se  Se191  1  0.23722770  0.90278112  0.30535680  1
  Se  Se192  1  0.25214832  0.91804928  0.80519127  1
  Se  Se193  1  0.57471160  0.24710267  0.31609867  1
  Se  Se194  1  0.57943775  0.24114069  0.80600552  1
  Se  Se195  1  0.59096228  0.59442486  0.29757063  1
  Se  Se196  1  0.57270590  0.57230419  0.80706732  1
  Se  Se197  1  0.58435904  0.92345485  0.30670183  1
  Se  Se198  1  0.57372542  0.89922524  0.80514986  1
  Se  Se199  1  0.90954157  0.23730326  0.30984910  1
  Se  Se200  1  0.92803098  0.26562753  0.80512406  1
  Se  Se201  1  0.92322143  0.58009481  0.30037721  1
  Se  Se202  1  0.90615205  0.58377224  0.81245975  1
  Se  Se203  1  0.91673590  0.91262873  0.30279892  1
  Se  Se204  1  0.91960870  0.92201833  0.80588326  1
  Se  Se205  1  0.07860590  0.07384995  0.30429141  1
  Se  Se206  1  0.08631345  0.08173196  0.79890296  1
  Se  Se207  1  0.09577059  0.41276835  0.32172728  1
  Se  Se208  1  0.08180725  0.42022880  0.79218820  1
  Se  Se209  1  0.07668035  0.74089703  0.30436437  1
  Se  Se210  1  0.08821718  0.76116008  0.81016828  1
  Se  Se211  1  0.42711264  0.08609166  0.31838044  1
  Se  Se212  1  0.41693036  0.07562503  0.79985373  1
  Se  Se213  1  0.43370506  0.43116788  0.31117864  1
  Se  Se214  1  0.41912366  0.41405589  0.80636605  1
  Se  Se215  1  0.42236051  0.76271104  0.30747357  1
  Se  Se216  1  0.40409717  0.73466588  0.80347240  1
  Se  Se217  1  0.74229351  0.07706903  0.30070578  1
  Se  Se218  1  0.75455005  0.08703474  0.81045081  1
  Se  Se219  1  0.76079406  0.43106357  0.30767764  1
  Se  Se220  1  0.74883507  0.41843928  0.81308029  1
  Se  Se221  1  0.74997899  0.75023858  0.29921216  1
  Se  Se222  1  0.75651177  0.75755563  0.80737639  1
  Se  Se223  1  0.24909351  0.09005035  0.19455564  1
  Se  Se224  1  0.25340084  0.08075614  0.69601165  1
  Se  Se225  1  0.25186394  0.42310182  0.20422398  1
  Se  Se226  1  0.24338451  0.41816666  0.67633000  1
  Se  Se227  1  0.24680830  0.75933490  0.19352662  1
  Se  Se228  1  0.25310644  0.75126715  0.69834400  1
  Se  Se229  1  0.58201323  0.08215348  0.19726006  1
  Se  Se230  1  0.57881935  0.08001086  0.68633280  1
  Se  Se231  1  0.58259148  0.41950011  0.18898589  1
  Se  Se232  1  0.56931243  0.42211641  0.69169803  1
  Se  Se233  1  0.58442552  0.75276608  0.19552465  1
  Se  Se234  1  0.57391058  0.75759821  0.68716799  1
  Se  Se235  1  0.92038223  0.07623695  0.19674993  1
  Se  Se236  1  0.91251386  0.08243720  0.70138784  1
  Se  Se237  1  0.91178368  0.41716653  0.18733410  1
  Se  Se238  1  0.91758131  0.41689849  0.69893318  1
  Se  Se239  1  0.92020425  0.74820472  0.19269254  1
  Se  Se240  1  0.91350799  0.75609268  0.68910063  1
  Se  Se241  1  0.08999348  0.24491140  0.19218042  1
  Se  Se242  1  0.08477584  0.25153253  0.69050171  1
  Se  Se243  1  0.08517828  0.57739547  0.20276093  1
  Se  Se244  1  0.08880387  0.58650188  0.68189108  1
  Se  Se245  1  0.07786184  0.92018145  0.19728575  1
  Se  Se246  1  0.08068348  0.92009355  0.69792859  1
  Se  Se247  1  0.42050482  0.24609625  0.19543323  1
  Se  Se248  1  0.42195220  0.24100402  0.68834608  1
  Se  Se249  1  0.42190254  0.58113552  0.18641510  1
  Se  Se250  1  0.41388367  0.58550496  0.70006800  1
  Se  Se251  1  0.41881115  0.91469903  0.18948299  1
  Se  Se252  1  0.41732877  0.92027804  0.69841906  1
  Se  Se253  1  0.75545589  0.24344997  0.19348115  1
  Se  Se254  1  0.76251901  0.23093781  0.69947286  1
  Se  Se255  1  0.74820416  0.58957122  0.19249066  1
  Se  Se256  1  0.75299741  0.57342205  0.69479767  1
  Se  Se257  1  0.74952668  0.91770517  0.19526300  1
  Se  Se258  1  0.75288815  0.90751939  0.68747352  1
