# generated using pymatgen
data_In86Cu29Se144
_symmetry_space_group_name_H-M   'P 1'
_cell_length_a   17.58705176
_cell_length_b   17.59106437
_cell_length_c   23.45080146
_cell_angle_alpha   90.01608812
_cell_angle_beta   90.01175576
_cell_angle_gamma   90.02660030
_symmetry_Int_Tables_number   1
_chemical_formula_structural   In86Cu29Se144
_chemical_formula_sum   'In86 Cu29 Se144'
_cell_volume   7255.08953625
_cell_formula_units_Z   1
loop_
 _symmetry_equiv_pos_site_id
 _symmetry_equiv_pos_as_xyz
  1  'x, y, z'
loop_
 _atom_site_type_symbol
 _atom_site_label
 _atom_site_symmetry_multiplicity
 _atom_site_fract_x
 _atom_site_fract_y
 _atom_site_fract_z
 _atom_site_occupancy
  In  In0  1  -0.01533879  0.16470778  0.13383825  1
  In  In1  1  -0.00014588  0.16689224  0.62560861  1
  In  In2  1  -0.00715433  0.49799628  0.12103907  1
  In  In3  1  0.00804169  0.49491133  0.62967377  1
  In  In4  1  0.00792171  0.84240688  0.12063392  1
  In  In5  1  0.00794681  0.83223168  0.62141059  1
  In  In6  1  0.32256516  0.15473120  0.12858391  1
  In  In7  1  0.31546912  0.16611541  0.62333010  1
  In  In8  1  0.32341412  0.52144245  0.13554338  1
  In  In9  1  0.31944508  0.51001371  0.62043538  1
  In  In10  1  0.31741992  0.83901680  0.13463201  1
  In  In11  1  0.33731636  0.83120325  0.61310805  1
  In  In12  1  0.67962691  0.15673820  0.12292260  1
  In  In13  1  0.68521831  0.14360395  0.64002534  1
  In  In14  1  0.67791553  0.49794595  0.12648865  1
  In  In15  1  0.66350449  0.49403544  0.63004279  1
  In  In16  1  0.66496547  0.82446051  0.12517089  1
  In  In17  1  0.67582960  0.84762987  0.61823676  1
  In  In18  1  0.16298768  -0.00100905  0.37863683  1
  In  In19  1  0.16435912  -0.00602754  0.86868630  1
  In  In20  1  0.15111871  0.34214249  0.37884428  1
  In  In21  1  0.16451502  0.35175490  0.87765496  1
  In  In22  1  0.17193533  0.65233595  0.40028459  1
  In  In23  1  0.15738727  0.68177606  0.88336568  1
  In  In24  1  0.47837157  -0.00698766  0.37364210  1
  In  In25  1  0.50138419  0.00648128  0.85608505  1
  In  In26  1  0.50063045  0.33901834  0.37537979  1
  In  In27  1  0.50792617  0.31324569  0.87201652  1
  In  In28  1  0.50774723  0.67436304  0.36719894  1
  In  In29  1  0.49798853  0.66900505  0.87634735  1
  In  In30  1  0.84415565  -0.00221845  0.37795577  1
  In  In31  1  0.84004256  0.00042620  0.87586766  1
  In  In32  1  0.84749648  0.31722054  0.37995183  1
  In  In33  1  0.84037807  0.33340974  0.87094007  1
  In  In34  1  0.84185614  0.68123510  0.37398331  1
  In  In35  1  0.84529325  0.65487406  0.88150672  1
  In  In36  1  -0.00034354  0.16731697  0.37552696  1
  In  In37  1  -0.00844000  0.15550764  0.86700008  1
  In  In38  1  0.03680613  0.50379296  0.36528546  1
  In  In39  1  0.00116574  0.50283769  0.87300586  1
  In  In40  1  -0.01005366  0.83357095  0.38661989  1
  In  In41  1  0.00180951  0.83231510  0.87247751  1
  In  In42  1  0.33023707  0.14901088  0.37389762  1
  In  In43  1  0.33821525  0.15649118  0.87316246  1
  In  In44  1  0.31971495  0.50276974  0.36694468  1
  In  In45  1  0.32148386  0.49568456  0.88000643  1
  In  In46  1  0.32096084  0.82893805  0.38424392  1
  In  In47  1  0.32149228  0.83754468  0.87540755  1
  In  In48  1  0.67983621  0.16759330  0.38072260  1
  In  In49  1  0.67706798  0.17715255  0.86315073  1
  In  In50  1  0.65664517  0.50720688  0.36902672  1
  In  In51  1  0.68634336  0.50037936  0.87389951  1
  In  In52  1  0.67883332  0.82560041  0.37948834  1
  In  In53  1  0.67220091  0.85033853  0.86982514  1
  In  In54  1  0.17003991  -0.01608511  0.13202190  1
  In  In55  1  0.16139997  0.00113743  0.62729399  1
  In  In56  1  0.14466622  0.33068583  0.12681631  1
  In  In57  1  0.15910337  0.32383678  0.61748071  1
  In  In58  1  0.16516262  0.67793251  0.12515145  1
  In  In59  1  0.15848797  0.65428695  0.60256599  1
  In  In60  1  0.49360436  -0.01143307  0.12695333  1
  In  In61  1  0.50790033  -0.00753271  0.63095904  1
  In  In62  1  0.50618491  0.33614987  0.12418287  1
  In  In63  1  0.50857950  0.33378648  0.62796733  1
  In  In64  1  0.49583414  0.66631315  0.14322150  1
  In  In65  1  0.48497079  0.67436723  0.61893175  1
  In  In66  1  0.84667831  0.00891457  0.11211230  1
  In  In67  1  0.83858743  -0.00143072  0.62566514  1
  In  In68  1  0.83712522  0.33735249  0.11973095  1
  In  In69  1  0.84860155  0.32171089  0.63353954  1
  In  In70  1  0.82916323  0.66196379  0.12190557  1
  In  In71  1  0.83620449  0.68867733  0.61950437  1
  In  In72  1  0.67121645  0.33936684  0.24477397  1
  In  In73  1  0.32543477  0.33190916  0.25255504  1
  In  In74  1  0.00183401  0.67083750  0.25338479  1
  In  In75  1  0.49975257  0.83420481  -0.00232442  1
  In  In76  1  0.67173372  -0.00117689  0.25518072  1
  In  In77  1  0.50135529  0.16345667  0.00204748  1
  In  In78  1  0.50218812  0.16164527  0.49905957  1
  In  In79  1  0.15788325  0.16130852  -0.00346074  1
  In  In80  1  0.32934023  0.67010377  0.74178427  1
  In  In81  1  0.49489234  0.50158700  0.49993895  1
  In  In82  1  0.67561647  0.66772391  0.74769048  1
  In  In83  1  0.84059121  0.50473805  0.49850969  1
  In  In84  1  0.33218504  0.32746358  0.75350530  1
  In  In85  1  0.50283569  0.50007479  0.00599864  1
  Cu  Cu86  1  0.67862850  0.33428451  -0.00816412  1
  Cu  Cu87  1  0.67694511  0.66818357  0.00232344  1
  Cu  Cu88  1  0.00333267  0.33498049  0.50269995  1
  Cu  Cu89  1  0.16516917  0.83148948  0.25852083  1
  Cu  Cu90  1  0.48980820  0.83217368  0.25389655  1
  Cu  Cu91  1  0.83708195  0.16382431  0.75058981  1
  Cu  Cu92  1  0.84106283  0.83840836  0.74714180  1
  Cu  Cu93  1  0.32505198  0.33411769  0.49671637  1
  Cu  Cu94  1  -0.00282673  0.00543348  0.50400479  1
  Cu  Cu95  1  0.50618220  0.49045507  0.75093767  1
  Cu  Cu96  1  0.32638563  -0.00114056  0.50012884  1
  Cu  Cu97  1  0.16283526  0.50491115  0.74834981  1
  Cu  Cu98  1  0.67770511  0.32812848  0.50545177  1
  Cu  Cu99  1  0.84103284  0.49816220  0.75260500  1
  Cu  Cu100  1  0.67519474  0.00612484  -0.00786931  1
  Cu  Cu101  1  0.83469782  0.49903401  0.24783609  1
  Cu  Cu102  1  0.15989735  0.15623791  0.25145229  1
  Cu  Cu103  1  0.50090224  0.83710107  0.74176711  1
  Cu  Cu104  1  0.49921773  0.16636827  0.25342662  1
  Cu  Cu105  1  0.83241945  0.83508668  0.25265523  1
  Cu  Cu106  1  0.66666784  -0.00520766  0.50444855  1
  Cu  Cu107  1  0.32319987  0.33883697  0.00317275  1
  Cu  Cu108  1  0.16442736  0.83417775  0.74718560  1
  Cu  Cu109  1  0.66228882  0.67407238  0.49655967  1
  Cu  Cu110  1  0.00000152  0.66688833  0.00079796  1
  Cu  Cu111  1  0.15935716  0.16598055  0.74734352  1
  Cu  Cu112  1  0.00473076  -0.00423301  -0.00371955  1
  Cu  Cu113  1  0.32878922  0.67337008  0.00900179  1
  Cu  Cu114  1  -0.00665738  0.33540529  -0.00135576  1
  Se  Se115  1  0.07691611  0.07474735  0.06440741  1
  Se  Se116  1  0.08413539  0.08711783  0.55616364  1
  Se  Se117  1  0.07875281  0.41617569  0.05189215  1
  Se  Se118  1  0.08735709  0.42144450  0.55308641  1
  Se  Se119  1  0.08337772  0.75317579  0.05204540  1
  Se  Se120  1  0.10300630  0.76958964  0.54762092  1
  Se  Se121  1  0.40761273  0.07223425  0.05628218  1
  Se  Se122  1  0.41017862  0.07754456  0.56073584  1
  Se  Se123  1  0.40510235  0.41507877  0.06469968  1
  Se  Se124  1  0.40711928  0.40681732  0.56082944  1
  Se  Se125  1  0.41649131  0.74796406  0.06566895  1
  Se  Se126  1  0.40461093  0.73780061  0.54320757  1
  Se  Se127  1  0.75794424  0.08955953  0.04531663  1
  Se  Se128  1  0.75138813  0.07944324  0.55522451  1
  Se  Se129  1  0.75178933  0.41968184  0.05151364  1
  Se  Se130  1  0.75386205  0.41359061  0.56276796  1
  Se  Se131  1  0.75521195  0.75621318  0.05440515  1
  Se  Se132  1  0.74771402  0.75705558  0.54826299  1
  Se  Se133  1  0.24866205  0.25205382  0.06082351  1
  Se  Se134  1  0.24492625  0.24648530  0.54763449  1
  Se  Se135  1  0.24429806  0.58693032  0.05706898  1
  Se  Se136  1  0.25829112  0.58489091  0.54019658  1
  Se  Se137  1  0.25328841  0.91777307  0.05600109  1
  Se  Se138  1  0.24472417  0.91983357  0.55708917  1
  Se  Se139  1  0.59855961  0.25814211  0.05607986  1
  Se  Se140  1  0.59305284  0.24772353  0.56094591  1
  Se  Se141  1  0.58854123  0.59649706  0.06325234  1
  Se  Se142  1  0.59114729  0.59034993  0.56011488  1
  Se  Se143  1  0.59451390  0.92813747  0.05469890  1
  Se  Se144  1  0.57607035  0.91390715  0.55212229  1
  Se  Se145  1  0.91868370  0.24766875  0.05520503  1
  Se  Se146  1  0.91878639  0.25004101  0.55328270  1
  Se  Se147  1  0.91402788  0.58361346  0.05241849  1
  Se  Se148  1  0.92416629  0.59085273  0.56395967  1
  Se  Se149  1  0.91853527  0.91202231  0.04838662  1
  Se  Se150  1  0.91840027  0.91538894  0.55595953  1
  Se  Se151  1  0.08316588  0.24847394  0.44732201  1
  Se  Se152  1  0.07374877  0.25640965  0.93646487  1
  Se  Se153  1  0.05847226  0.58911331  0.45155277  1
  Se  Se154  1  0.08287460  0.58409551  0.94497309  1
  Se  Se155  1  0.07664917  0.92184492  0.44847781  1
  Se  Se156  1  0.08771970  0.91379501  0.94232370  1
  Se  Se157  1  0.41010124  0.25512106  0.43937248  1
  Se  Se158  1  0.40555704  0.25820943  0.94587768  1
  Se  Se159  1  0.41441606  0.58551546  0.43231009  1
  Se  Se160  1  0.40749259  0.59249247  0.94668584  1
  Se  Se161  1  0.41086448  0.91338927  0.45022016  1
  Se  Se162  1  0.41926017  0.92580943  0.93363211  1
  Se  Se163  1  0.75997037  0.24565580  0.45221518  1
  Se  Se164  1  0.75715903  0.24758137  0.93956075  1
  Se  Se165  1  0.74208969  0.58983713  0.43975284  1
  Se  Se166  1  0.75486453  0.57972144  0.95035693  1
  Se  Se167  1  0.75211653  0.92003214  0.44436256  1
  Se  Se168  1  0.75662985  0.91525213  0.94539805  1
  Se  Se169  1  0.24493943  0.08517679  0.44904749  1
  Se  Se170  1  0.25517632  0.07352797  0.94292946  1
  Se  Se171  1  0.24816312  0.41861654  0.44088332  1
  Se  Se172  1  0.24042040  0.42605628  0.95538243  1
  Se  Se173  1  0.22042206  0.77061333  0.45547763  1
  Se  Se174  1  0.25136423  0.75501548  0.94977262  1
  Se  Se175  1  0.58900467  0.06979218  0.43677392  1
  Se  Se176  1  0.58815787  0.08107771  0.93454498  1
  Se  Se177  1  0.59641177  0.40911515  0.44707866  1
  Se  Se178  1  0.58730023  0.41107054  0.93843634  1
  Se  Se179  1  0.57889378  0.75616341  0.44364563  1
  Se  Se180  1  0.59704377  0.74472994  0.93928224  1
  Se  Se181  1  0.91539115  0.08812753  0.44788440  1
  Se  Se182  1  0.92099125  0.08383273  0.94752040  1
  Se  Se183  1  0.93030311  0.41698839  0.43785440  1
  Se  Se184  1  0.91551773  0.42066602  0.94167775  1
  Se  Se185  1  0.90929775  0.74912648  0.45520049  1
  Se  Se186  1  0.91958510  0.75076571  0.94431923  1
  Se  Se187  1  0.24012315  0.23854449  0.31187478  1
  Se  Se188  1  0.23627386  0.24311762  0.81439308  1
  Se  Se189  1  0.22659963  0.58746940  0.31090092  1
  Se  Se190  1  0.24408956  0.58356589  0.80918839  1
  Se  Se191  1  0.24920310  0.91680305  0.31059716  1
  Se  Se192  1  0.25191827  0.91588057  0.79832914  1
  Se  Se193  1  0.58238898  0.24430286  0.30997893  1
  Se  Se194  1  0.57879977  0.24053448  0.79557773  1
  Se  Se195  1  0.58301265  0.58718565  0.29782138  1
  Se  Se196  1  0.58036611  0.57823844  0.80961498  1
  Se  Se197  1  0.57693983  0.91038688  0.31213715  1
  Se  Se198  1  0.58701889  0.91671268  0.79530741  1
  Se  Se199  1  0.92476249  0.25202098  0.30242432  1
  Se  Se200  1  0.92146099  0.25097090  0.80050545  1
  Se  Se201  1  0.91447627  0.57411219  0.31294492  1
  Se  Se202  1  0.92174024  0.58788051  0.80157875  1
  Se  Se203  1  0.91924472  0.91183529  0.30701127  1
  Se  Se204  1  0.92213168  0.91987303  0.80466800  1
  Se  Se205  1  0.07741906  0.07622362  0.30777456  1
  Se  Se206  1  0.08154715  0.07780478  0.80132067  1
  Se  Se207  1  0.08345718  0.40478049  0.29344737  1
  Se  Se208  1  0.08266464  0.41888927  0.80156516  1
  Se  Se209  1  0.08714682  0.75296177  0.32067108  1
  Se  Se210  1  0.08410535  0.74819481  0.80185057  1
  Se  Se211  1  0.41287152  0.07953069  0.29848435  1
  Se  Se212  1  0.41151479  0.08850143  0.79489185  1
  Se  Se213  1  0.42286468  0.42356463  0.30526119  1
  Se  Se214  1  0.42241801  0.42146940  0.81505391  1
  Se  Se215  1  0.40691655  0.75352949  0.31104892  1
  Se  Se216  1  0.42324600  0.75709900  0.80482324  1
  Se  Se217  1  0.76378108  0.09304641  0.30697809  1
  Se  Se218  1  0.75501581  0.07891409  0.80449063  1
  Se  Se219  1  0.75900507  0.41990811  0.31430511  1
  Se  Se220  1  0.75332200  0.41457274  0.80087270  1
  Se  Se221  1  0.75035417  0.74710037  0.30163123  1
  Se  Se222  1  0.76260013  0.75608597  0.80987213  1
  Se  Se223  1  0.24731212  0.07492527  0.20056993  1
  Se  Se224  1  0.24636118  0.08316372  0.69811828  1
  Se  Se225  1  0.23754921  0.41837250  0.19020967  1
  Se  Se226  1  0.24476257  0.42027266  0.69201672  1
  Se  Se227  1  0.24633554  0.74693664  0.20281801  1
  Se  Se228  1  0.23805658  0.75386264  0.68209416  1
  Se  Se229  1  0.57795987  0.08764380  0.19063689  1
  Se  Se230  1  0.57575747  0.08666014  0.69783377  1
  Se  Se231  1  0.57283194  0.43122454  0.19413028  1
  Se  Se232  1  0.59144247  0.40795045  0.70163729  1
  Se  Se233  1  0.58235836  0.75746437  0.20153136  1
  Se  Se234  1  0.58086936  0.75145396  0.68585953  1
  Se  Se235  1  0.91363568  0.06751537  0.19768803  1
  Se  Se236  1  0.91986117  0.08210651  0.69515495  1
  Se  Se237  1  0.91556566  0.41577643  0.19378427  1
  Se  Se238  1  0.92409679  0.41482598  0.69849627  1
  Se  Se239  1  0.91223875  0.75672265  0.18931943  1
  Se  Se240  1  0.92194940  0.75343408  0.69411507  1
  Se  Se241  1  0.07871406  0.24126037  0.19825575  1
  Se  Se242  1  0.08111110  0.25419694  0.69526504  1
  Se  Se243  1  0.08359683  0.58039194  0.18891164  1
  Se  Se244  1  0.09053035  0.59135899  0.68932860  1
  Se  Se245  1  0.08050347  0.91167235  0.20224421  1
  Se  Se246  1  0.07874042  0.91815871  0.69632937  1
  Se  Se247  1  0.42159312  0.24417451  0.18951775  1
  Se  Se248  1  0.41723494  0.24363936  0.68702550  1
  Se  Se249  1  0.41035711  0.58574188  0.20773620  1
  Se  Se250  1  0.42528784  0.57036145  0.69149905  1
  Se  Se251  1  0.41085631  0.91755254  0.19964660  1
  Se  Se252  1  0.40977414  0.91166185  0.68944716  1
  Se  Se253  1  0.75983596  0.24242536  0.19247319  1
  Se  Se254  1  0.75260222  0.24980050  0.69871925  1
  Se  Se255  1  0.75147526  0.58443546  0.19770877  1
  Se  Se256  1  0.76532596  0.57779263  0.68704241  1
  Se  Se257  1  0.75542917  0.91357709  0.18807055  1
  Se  Se258  1  0.75164684  0.91847138  0.69631158  1
