# generated using pymatgen
data_In86Cu29Se144
_symmetry_space_group_name_H-M   'P 1'
_cell_length_a   17.60199130
_cell_length_b   17.59611478
_cell_length_c   23.45900287
_cell_angle_alpha   89.99270224
_cell_angle_beta   90.01097048
_cell_angle_gamma   90.00828985
_symmetry_Int_Tables_number   1
_chemical_formula_structural   In86Cu29Se144
_chemical_formula_sum   'In86 Cu29 Se144'
_cell_volume   7265.87832006
_cell_formula_units_Z   1
loop_
 _symmetry_equiv_pos_site_id
 _symmetry_equiv_pos_as_xyz
  1  'x, y, z'
loop_
 _atom_site_type_symbol
 _atom_site_label
 _atom_site_symmetry_multiplicity
 _atom_site_fract_x
 _atom_site_fract_y
 _atom_site_fract_z
 _atom_site_occupancy
  In  In0  1  -0.00851862  0.17022843  0.12516046  1
  In  In1  1  0.00662376  0.16331537  0.62400147  1
  In  In2  1  0.01438230  0.49558772  0.12007764  1
  In  In3  1  0.01110326  0.47646037  0.64580177  1
  In  In4  1  -0.00806186  0.83778444  0.12636532  1
  In  In5  1  -0.00300890  0.83209658  0.63155904  1
  In  In6  1  0.34511141  0.16290077  0.12380347  1
  In  In7  1  0.32602458  0.17245094  0.62710186  1
  In  In8  1  0.33108891  0.48924108  0.11653868  1
  In  In9  1  0.33099782  0.49855438  0.62947529  1
  In  In10  1  0.33018164  0.82838301  0.11557813  1
  In  In11  1  0.33189836  0.82530674  0.63818091  1
  In  In12  1  0.66887903  0.17354681  0.11950012  1
  In  In13  1  0.68019960  0.18592286  0.62819569  1
  In  In14  1  0.65643241  0.50132780  0.11921067  1
  In  In15  1  0.68502392  0.47852384  0.65085087  1
  In  In16  1  0.66463946  0.83052980  0.10887033  1
  In  In17  1  0.66323278  0.82720968  0.62904939  1
  In  In18  1  0.16192133  0.02090546  0.37232983  1
  In  In19  1  0.17384983  0.00670407  0.86552837  1
  In  In20  1  0.17196985  0.32774449  0.39037066  1
  In  In21  1  0.17286081  0.34435030  0.87015528  1
  In  In22  1  0.15500433  0.66675478  0.37628136  1
  In  In23  1  0.15290690  0.65179470  0.87501624  1
  In  In24  1  0.51413406  0.01206966  0.37200585  1
  In  In25  1  0.49413904  0.01285684  0.87713209  1
  In  In26  1  0.49047226  0.32606611  0.36320347  1
  In  In27  1  0.50288685  0.33645472  0.87176898  1
  In  In28  1  0.50246092  0.67593418  0.37541344  1
  In  In29  1  0.49953842  0.66340940  0.87492896  1
  In  In30  1  0.84522831  0.00767494  0.37401311  1
  In  In31  1  0.83876548  -0.00611704  0.87980695  1
  In  In32  1  0.81976789  0.34103775  0.37372986  1
  In  In33  1  0.82018790  0.32490595  0.85847766  1
  In  In34  1  0.85310423  0.64638876  0.37639464  1
  In  In35  1  0.84757333  0.67052999  0.86600387  1
  In  In36  1  0.00622083  0.16260781  0.38191606  1
  In  In37  1  -0.00986957  0.16183618  0.86000870  1
  In  In38  1  0.00066048  0.50933314  0.37483524  1
  In  In39  1  0.00655743  0.50649643  0.86827151  1
  In  In40  1  -0.00801034  0.83160164  0.36860375  1
  In  In41  1  -0.01111481  0.82264909  0.87436890  1
  In  In42  1  0.31411880  0.19777170  0.40820399  1
  In  In43  1  0.36988710  0.19082534  0.83691324  1
  In  In44  1  0.33874590  0.47805352  0.38113541  1
  In  In45  1  0.33060157  0.50032036  0.87711943  1
  In  In46  1  0.33809232  0.82954343  0.37553049  1
  In  In47  1  0.34095147  0.84346912  0.86839063  1
  In  In48  1  0.65207270  0.18256000  0.38418475  1
  In  In49  1  0.66106532  0.17517504  0.87038287  1
  In  In50  1  0.68053790  0.48615430  0.37495311  1
  In  In51  1  0.65870263  0.48435986  0.86361262  1
  In  In52  1  0.65847354  0.83327918  0.37583574  1
  In  In53  1  0.67961649  0.82359333  0.88402692  1
  In  In54  1  0.16279908  -0.00738109  0.12839790  1
  In  In55  1  0.15344355  0.00701363  0.63062473  1
  In  In56  1  0.16343203  0.34388869  0.12357610  1
  In  In57  1  0.17158199  0.33114292  0.62069800  1
  In  In58  1  0.16275241  0.65557055  0.12078361  1
  In  In59  1  0.17560319  0.65319301  0.63377480  1
  In  In60  1  0.50383510  0.00718178  0.10890423  1
  In  In61  1  0.48617100  0.01377822  0.63622359  1
  In  In62  1  0.50159480  0.33239841  0.12193191  1
  In  In63  1  0.49242978  0.31927965  0.63144949  1
  In  In64  1  0.50134657  0.66517913  0.10620280  1
  In  In65  1  0.50799134  0.65414013  0.64194408  1
  In  In66  1  0.83657731  0.00392182  0.11668659  1
  In  In67  1  0.83226336  0.02671437  0.63235063  1
  In  In68  1  0.83580763  0.31721696  0.12111025  1
  In  In69  1  0.87223969  0.30367415  0.67771708  1
  In  In70  1  0.83552590  0.67310665  0.11980039  1
  In  In71  1  0.84976565  0.63947791  0.65551481  1
  In  In72  1  0.32917650  0.00574111  0.25404926  1
  In  In73  1  0.66650290  0.00123207  0.75310425  1
  In  In74  1  0.16782222  0.84149321  0.50025684  1
  In  In75  1  0.00148306  0.33057100  0.24944043  1
  In  In76  1  0.83367934  0.49527758  0.50852668  1
  In  In77  1  0.16493692  0.83181515  -0.00427763  1
  In  In78  1  0.67347595  0.00534361  0.24039363  1
  In  In79  1  0.49281447  0.84770195  0.51907377  1
  In  In80  1  0.82830471  0.84105271  0.49994219  1
  In  In81  1  0.49967307  0.49252867  0.51432432  1
  In  In82  1  0.17002203  0.16968132  -0.00780835  1
  In  In83  1  0.83532756  0.49791307  -0.01037260  1
  In  In84  1  0.32392013  0.65641224  0.23608258  1
  In  In85  1  0.67410757  0.66038120  0.24945340  1
  Cu  Cu86  1  -0.00066097  0.00201098  -0.00455872  1
  Cu  Cu87  1  0.33704414  0.66910213  -0.00518081  1
  Cu  Cu88  1  0.16815827  0.49831651  0.75158795  1
  Cu  Cu89  1  0.33868719  0.33104022  -0.00818830  1
  Cu  Cu90  1  0.16363724  0.82786418  0.75537222  1
  Cu  Cu91  1  0.49401430  0.17782383  0.25207867  1
  Cu  Cu92  1  0.33631796  0.00640094  0.50629012  1
  Cu  Cu93  1  0.66683689  0.00301838  -0.00720620  1
  Cu  Cu94  1  0.15059513  0.83579992  0.25225840  1
  Cu  Cu95  1  0.16787250  0.50002894  0.24800967  1
  Cu  Cu96  1  0.16470974  0.16864265  0.74718331  1
  Cu  Cu97  1  0.83216753  0.16448715  0.24715816  1
  Cu  Cu98  1  0.66699507  0.66112563  -0.00742447  1
  Cu  Cu99  1  0.67034128  0.02022237  0.50531882  1
  Cu  Cu100  1  0.83944738  0.83635911  0.75486768  1
  Cu  Cu101  1  -0.00280095  0.32934497  -0.00440611  1
  Cu  Cu102  1  -0.00669113  0.33093178  0.51395401  1
  Cu  Cu103  1  0.83614480  0.82449018  0.24815217  1
  Cu  Cu104  1  0.33783581  0.01103983  -0.01109290  1
  Cu  Cu105  1  0.66682940  0.32898169  -0.00748503  1
  Cu  Cu106  1  -0.00362978  0.00909891  0.50156760  1
  Cu  Cu107  1  0.49598755  0.83268242  0.23499635  1
  Cu  Cu108  1  0.48710876  0.49911733  0.75251251  1
  Cu  Cu109  1  0.66935468  0.67025127  0.51101491  1
  Cu  Cu110  1  0.00793837  0.65973724  0.50588354  1
  Cu  Cu111  1  0.50412152  0.83075877  0.75684132  1
  Cu  Cu112  1  0.66546483  0.33577477  0.50638643  1
  Cu  Cu113  1  0.33277029  0.65460626  0.50813610  1
  Cu  Cu114  1  0.50561385  0.49193710  0.24652285  1
  Se  Se115  1  0.08141362  0.07932572  0.05642847  1
  Se  Se116  1  0.08874155  0.08560180  0.55037160  1
  Se  Se117  1  0.08473596  0.41150698  0.04546070  1
  Se  Se118  1  0.07910686  0.41902621  0.55914430  1
  Se  Se119  1  0.07656327  0.74620463  0.05795481  1
  Se  Se120  1  0.08490324  0.74670201  0.56242310  1
  Se  Se121  1  0.41974424  0.09370395  0.04465729  1
  Se  Se122  1  0.41677957  0.09095186  0.55852759  1
  Se  Se123  1  0.42027947  0.41339916  0.04915181  1
  Se  Se124  1  0.40218958  0.39998483  0.56026439  1
  Se  Se125  1  0.41798156  0.75712779  0.04572413  1
  Se  Se126  1  0.41439304  0.73632567  0.56664932  1
  Se  Se127  1  0.74628832  0.08333345  0.05297823  1
  Se  Se128  1  0.75741781  0.10065807  0.55555797  1
  Se  Se129  1  0.74763254  0.40838702  0.05509338  1
  Se  Se130  1  0.75036418  0.40281933  0.56871862  1
  Se  Se131  1  0.75065785  0.74401962  0.04665023  1
  Se  Se132  1  0.75813096  0.74438523  0.56646965  1
  Se  Se133  1  0.25699475  0.25655366  0.05731162  1
  Se  Se134  1  0.24004597  0.23863350  0.55118953  1
  Se  Se135  1  0.25759568  0.58835621  0.05414306  1
  Se  Se136  1  0.24521282  0.57353773  0.55647303  1
  Se  Se137  1  0.25644847  0.93204026  0.05016364  1
  Se  Se138  1  0.25977549  0.92106775  0.56547333  1
  Se  Se139  1  0.58241269  0.24967847  0.05018423  1
  Se  Se140  1  0.58306361  0.25109913  0.55924888  1
  Se  Se141  1  0.58241078  0.57595169  0.04223744  1
  Se  Se142  1  0.59601049  0.58181268  0.56744547  1
  Se  Se143  1  0.58199684  0.91707335  0.04461260  1
  Se  Se144  1  0.59483256  0.93688767  0.56772905  1
  Se  Se145  1  0.91617944  0.24242350  0.04691168  1
  Se  Se146  1  0.91068017  0.25876816  0.57476305  1
  Se  Se147  1  0.92289941  0.58239177  0.05542233  1
  Se  Se148  1  0.92575873  0.58455183  0.56649248  1
  Se  Se149  1  0.91882114  0.91734572  0.05017949  1
  Se  Se150  1  0.91933272  0.92709396  0.56181151  1
  Se  Se151  1  0.07443173  0.25285748  0.45299590  1
  Se  Se152  1  0.07608670  0.25308000  0.93125388  1
  Se  Se153  1  0.08700455  0.57886212  0.44911497  1
  Se  Se154  1  0.07747673  0.57554805  0.94957939  1
  Se  Se155  1  0.07056287  0.92299395  0.43968331  1
  Se  Se156  1  0.08149421  0.92564168  0.93536929  1
  Se  Se157  1  0.43597307  0.25491458  0.44890288  1
  Se  Se158  1  0.41533793  0.24666622  0.93445975  1
  Se  Se159  1  0.41961088  0.58788456  0.44370678  1
  Se  Se160  1  0.41806263  0.58054231  0.94540381  1
  Se  Se161  1  0.41324223  0.92687685  0.44140133  1
  Se  Se162  1  0.41949299  0.91836093  0.94394444  1
  Se  Se163  1  0.74905560  0.25666590  0.44723595  1
  Se  Se164  1  0.75303152  0.24955355  0.93965839  1
  Se  Se165  1  0.74466849  0.59101955  0.44609003  1
  Se  Se166  1  0.74337917  0.58331669  0.92847485  1
  Se  Se167  1  0.73533816  0.93253404  0.44047023  1
  Se  Se168  1  0.75554185  0.91545224  0.95024989  1
  Se  Se169  1  0.24596333  0.07947974  0.45115901  1
  Se  Se170  1  0.26365012  0.09282129  0.92798900  1
  Se  Se171  1  0.24242903  0.42802455  0.45223484  1
  Se  Se172  1  0.24865426  0.41677556  0.94811204  1
  Se  Se173  1  0.25994149  0.74117368  0.44662047  1
  Se  Se174  1  0.25489162  0.74589144  0.93384954  1
  Se  Se175  1  0.57685528  0.09124267  0.45170013  1
  Se  Se176  1  0.58507180  0.08976424  0.94237667  1
  Se  Se177  1  0.58688705  0.41306468  0.44305419  1
  Se  Se178  1  0.58359486  0.41667751  0.94461018  1
  Se  Se179  1  0.58484733  0.75103040  0.45501897  1
  Se  Se180  1  0.58056082  0.74885193  0.94521386  1
  Se  Se181  1  0.91013289  0.09135425  0.45010893  1
  Se  Se182  1  0.92126330  0.08847953  0.94165023  1
  Se  Se183  1  0.92419784  0.40891328  0.44279568  1
  Se  Se184  1  0.91864578  0.40350684  0.92958378  1
  Se  Se185  1  0.92489468  0.74162693  0.44853478  1
  Se  Se186  1  0.91339174  0.74442501  0.94736769  1
  Se  Se187  1  0.24685481  0.24560956  0.31792827  1
  Se  Se188  1  0.24560058  0.25317678  0.80086486  1
  Se  Se189  1  0.24790871  0.57781742  0.31243670  1
  Se  Se190  1  0.24730301  0.58303372  0.80694828  1
  Se  Se191  1  0.23948223  0.90703092  0.31229505  1
  Se  Se192  1  0.25068864  0.91619216  0.79932101  1
  Se  Se193  1  0.58966866  0.25492530  0.29974578  1
  Se  Se194  1  0.58330349  0.25608340  0.79990314  1
  Se  Se195  1  0.57736355  0.57535168  0.31122889  1
  Se  Se196  1  0.57621659  0.57876652  0.80331115  1
  Se  Se197  1  0.57639801  0.90989535  0.29808668  1
  Se  Se198  1  0.58468189  0.90990543  0.81738863  1
  Se  Se199  1  0.90829113  0.24576554  0.31096297  1
  Se  Se200  1  0.92165185  0.25911787  0.79321687  1
  Se  Se201  1  0.91697773  0.57185766  0.29722505  1
  Se  Se202  1  0.91094945  0.57345793  0.79985498  1
  Se  Se203  1  0.91011292  0.91696167  0.30210577  1
  Se  Se204  1  0.92274967  0.92009351  0.80653725  1
  Se  Se205  1  0.07091737  0.08399477  0.30225372  1
  Se  Se206  1  0.08400750  0.08248897  0.79867949  1
  Se  Se207  1  0.09122701  0.41847674  0.31100279  1
  Se  Se208  1  0.08045828  0.41401393  0.80020611  1
  Se  Se209  1  0.07527557  0.74419404  0.30385322  1
  Se  Se210  1  0.07977849  0.74556566  0.80825170  1
  Se  Se211  1  0.41882358  0.09459792  0.31315614  1
  Se  Se212  1  0.41395972  0.06419750  0.79381545  1
  Se  Se213  1  0.41270437  0.41692423  0.29749327  1
  Se  Se214  1  0.40755944  0.41429105  0.80674248  1
  Se  Se215  1  0.41879155  0.75146258  0.29669843  1
  Se  Se216  1  0.41636524  0.74712541  0.80543520  1
  Se  Se217  1  0.74868134  0.09265104  0.31174389  1
  Se  Se218  1  0.75969592  0.08665646  0.81126898  1
  Se  Se219  1  0.76174982  0.42717839  0.29663095  1
  Se  Se220  1  0.75374687  0.42329605  0.79329335  1
  Se  Se221  1  0.75890278  0.75181228  0.31631812  1
  Se  Se222  1  0.75312889  0.75260828  0.80432379  1
  Se  Se223  1  0.24159420  0.09217687  0.18990964  1
  Se  Se224  1  0.24718541  0.08167346  0.69513469  1
  Se  Se225  1  0.25072714  0.41849896  0.19395820  1
  Se  Se226  1  0.24808624  0.41343847  0.69583608  1
  Se  Se227  1  0.23438560  0.76216506  0.18916972  1
  Se  Se228  1  0.24825655  0.74246987  0.70380670  1
  Se  Se229  1  0.56976363  0.09173992  0.19067294  1
  Se  Se230  1  0.58461030  0.09625199  0.69337925  1
  Se  Se231  1  0.58888576  0.41256546  0.19178627  1
  Se  Se232  1  0.56669985  0.41593440  0.69607911  1
  Se  Se233  1  0.58134034  0.74818735  0.18477050  1
  Se  Se234  1  0.58730795  0.74933639  0.70318425  1
  Se  Se235  1  0.91312978  0.08162924  0.19268541  1
  Se  Se236  1  0.93358125  0.07857852  0.69854275  1
  Se  Se237  1  0.91582559  0.41609511  0.18350617  1
  Se  Se238  1  0.88104099  0.45076231  0.69351565  1
  Se  Se239  1  0.91956781  0.74336733  0.19469769  1
  Se  Se240  1  0.92314741  0.74893553  0.70483168  1
  Se  Se241  1  0.09283699  0.24184696  0.18948860  1
  Se  Se242  1  0.08527366  0.25355488  0.69177148  1
  Se  Se243  1  0.08288273  0.58192924  0.19599646  1
  Se  Se244  1  0.08078922  0.58346367  0.70131136  1
  Se  Se245  1  0.07333176  0.92095984  0.19684324  1
  Se  Se246  1  0.08425417  0.91148281  0.69772882  1
  Se  Se247  1  0.41279671  0.25559538  0.19307096  1
  Se  Se248  1  0.40898420  0.24312182  0.70324075  1
  Se  Se249  1  0.43082403  0.57709024  0.18484544  1
  Se  Se250  1  0.40460192  0.58598894  0.70102217  1
  Se  Se251  1  0.41597611  0.91914665  0.18290051  1
  Se  Se252  1  0.42302555  0.90962349  0.69862746  1
  Se  Se253  1  0.74879904  0.24828105  0.19491486  1
  Se  Se254  1  0.74249413  0.25496921  0.71294232  1
  Se  Se255  1  0.75806397  0.57364166  0.18450581  1
  Se  Se256  1  0.71734566  0.60995961  0.69370028  1
  Se  Se257  1  0.75458950  0.90170673  0.18630986  1
  Se  Se258  1  0.76029516  0.91321355  0.69018637  1
