# generated using pymatgen
data_In86Cu29Se144
_symmetry_space_group_name_H-M   'P 1'
_cell_length_a   17.57124640
_cell_length_b   17.57131562
_cell_length_c   23.42828988
_cell_angle_alpha   89.99380049
_cell_angle_beta   90.00311735
_cell_angle_gamma   90.01590723
_symmetry_Int_Tables_number   1
_chemical_formula_structural   In86Cu29Se144
_chemical_formula_sum   'In86 Cu29 Se144'
_cell_volume   7233.48220810
_cell_formula_units_Z   1
loop_
 _symmetry_equiv_pos_site_id
 _symmetry_equiv_pos_as_xyz
  1  'x, y, z'
loop_
 _atom_site_type_symbol
 _atom_site_label
 _atom_site_symmetry_multiplicity
 _atom_site_fract_x
 _atom_site_fract_y
 _atom_site_fract_z
 _atom_site_occupancy
  In  In0  1  0.00603699  0.17178999  0.13093370  1
  In  In1  1  -0.01643455  0.18098906  0.63106801  1
  In  In2  1  -0.00631705  0.49605782  0.11946778  1
  In  In3  1  0.00068744  0.49943335  0.62072175  1
  In  In4  1  -0.00053873  0.83178856  0.11416861  1
  In  In5  1  -0.00896076  0.84360705  0.63658082  1
  In  In6  1  0.32966782  0.15927755  0.13031509  1
  In  In7  1  0.34593172  0.16408644  0.63241159  1
  In  In8  1  0.33706318  0.51258094  0.12329032  1
  In  In9  1  0.32015099  0.48865804  0.61643709  1
  In  In10  1  0.32653209  0.83323760  0.12423107  1
  In  In11  1  0.34509283  0.84646791  0.63313271  1
  In  In12  1  0.66046468  0.16946467  0.12635570  1
  In  In13  1  0.66621447  0.16507935  0.62603287  1
  In  In14  1  0.67936713  0.50759553  0.12078867  1
  In  In15  1  0.66053639  0.49088663  0.61612699  1
  In  In16  1  0.65787440  0.82331560  0.11781434  1
  In  In17  1  0.67332080  0.83498414  0.62955053  1
  In  In18  1  0.17767029  -0.00466485  0.37441438  1
  In  In19  1  0.15930733  -0.00698541  0.87001087  1
  In  In20  1  0.16515832  0.35020478  0.37870985  1
  In  In21  1  0.16750296  0.33373533  0.86965954  1
  In  In22  1  0.17241924  0.65842907  0.36883518  1
  In  In23  1  0.15659405  0.67503393  0.88507982  1
  In  In24  1  0.50058619  0.00514988  0.37316490  1
  In  In25  1  0.48568652  -0.01878354  0.85117907  1
  In  In26  1  0.50777482  0.32459576  0.38775420  1
  In  In27  1  0.48691563  0.31803759  0.84745212  1
  In  In28  1  0.49155288  0.65984266  0.36283271  1
  In  In29  1  0.51055454  0.67308106  0.87601950  1
  In  In30  1  0.82339632  0.00372621  0.38751724  1
  In  In31  1  0.82691441  -0.00918024  0.86815939  1
  In  In32  1  0.84749832  0.32622561  0.38934461  1
  In  In33  1  0.83487724  0.33477222  0.86530377  1
  In  In34  1  0.82846571  0.67201756  0.38257940  1
  In  In35  1  0.83826343  0.65108339  0.88208134  1
  In  In36  1  -0.02015807  0.17652000  0.38285095  1
  In  In37  1  -0.00013576  0.16635742  0.86068691  1
  In  In38  1  0.00833865  0.49392320  0.38756507  1
  In  In39  1  -0.00376138  0.49702536  0.87281916  1
  In  In40  1  -0.00246043  0.82604792  0.37615049  1
  In  In41  1  0.00067010  0.82663064  0.87586997  1
  In  In42  1  0.34688262  0.15913871  0.37955105  1
  In  In43  1  0.33196457  0.15522424  0.86284994  1
  In  In44  1  0.32996036  0.50209739  0.38002394  1
  In  In45  1  0.32750028  0.48880515  0.87530636  1
  In  In46  1  0.34309422  0.84047053  0.34969588  1
  In  In47  1  0.32977713  0.83455064  0.88119600  1
  In  In48  1  0.66482801  0.16402640  0.38343946  1
  In  In49  1  0.65117741  0.15684551  0.85122471  1
  In  In50  1  0.66315009  0.50242990  0.38413706  1
  In  In51  1  0.67547661  0.49955568  0.87018183  1
  In  In52  1  0.67442167  0.83742208  0.37378184  1
  In  In53  1  0.66205219  0.83895298  0.88339349  1
  In  In54  1  0.17825926  -0.00640664  0.12646640  1
  In  In55  1  0.17098945  -0.00155165  0.63570300  1
  In  In56  1  0.14856213  0.32921612  0.12500950  1
  In  In57  1  0.15397660  0.34542542  0.63000939  1
  In  In58  1  0.17702719  0.67490016  0.11422156  1
  In  In59  1  0.16566335  0.65000464  0.62189709  1
  In  In60  1  0.50362690  -0.01999319  0.13212021  1
  In  In61  1  0.49072484  0.01779161  0.64704539  1
  In  In62  1  0.49056958  0.33257413  0.12674501  1
  In  In63  1  0.49919525  0.32928699  0.62686809  1
  In  In64  1  0.47258416  0.70020780  0.15560439  1
  In  In65  1  0.51200764  0.66837486  0.62501622  1
  In  In66  1  0.84494161  -0.00130279  0.12241750  1
  In  In67  1  0.82916776  0.00069302  0.62709712  1
  In  In68  1  0.82519757  0.35031662  0.12455867  1
  In  In69  1  0.83874373  0.33308597  0.61718908  1
  In  In70  1  0.82817172  0.66350310  0.12231959  1
  In  In71  1  0.83923496  0.67905678  0.62031148  1
  In  In72  1  0.66401792  -0.00074457  0.25675500  1
  In  In73  1  0.83018397  0.16849054  -0.00813568  1
  In  In74  1  0.15720149  0.17483076  0.51019384  1
  In  In75  1  0.33180314  0.33441071  0.25501970  1
  In  In76  1  0.16586293  0.16760885  0.00314074  1
  In  In77  1  0.50589824  0.83538283  0.49931429  1
  In  In78  1  0.51735449  0.50898928  -0.00560266  1
  In  In79  1  0.49957019  0.16153741  -0.01161393  1
  In  In80  1  0.67166977  0.33057113  0.26254718  1
  In  In81  1  0.00555800  0.66580335  0.25134401  1
  In  In82  1  0.32772638  0.66789964  0.75314194  1
  In  In83  1  0.67150376  0.67037529  0.74504709  1
  In  In84  1  0.16645635  0.82359688  0.49146115  1
  In  In85  1  0.00347540  0.00421710  0.24716511  1
  Cu  Cu86  1  -0.00393339  0.66002079  -0.00094176  1
  Cu  Cu87  1  0.83967152  0.82905808  0.75329320  1
  Cu  Cu88  1  0.17173638  0.16660614  0.74416117  1
  Cu  Cu89  1  0.33816269  0.00128502  0.50695811  1
  Cu  Cu90  1  0.33939297  0.33071711  0.50277788  1
  Cu  Cu91  1  0.83109573  0.83631397  0.25170909  1
  Cu  Cu92  1  0.33781415  0.66750657  0.00561880  1
  Cu  Cu93  1  0.33909589  -0.00660308  -0.00067607  1
  Cu  Cu94  1  0.51326280  0.49433136  0.25292365  1
  Cu  Cu95  1  0.66609299  0.67252496  0.00342474  1
  Cu  Cu96  1  0.33992019  0.66433220  0.49444685  1
  Cu  Cu97  1  -0.00842926  0.33974776  -0.00257468  1
  Cu  Cu98  1  0.66743170  0.66336781  0.50146090  1
  Cu  Cu99  1  0.16697170  0.83019222  0.75703770  1
  Cu  Cu100  1  0.49320548  0.49813972  0.74127003  1
  Cu  Cu101  1  0.15843245  0.17355813  0.25486500  1
  Cu  Cu102  1  0.15553513  0.49815452  0.74886584  1
  Cu  Cu103  1  0.00170831  -0.00931476  -0.00585511  1
  Cu  Cu104  1  -0.00894354  -0.00124343  0.50835519  1
  Cu  Cu105  1  0.66806364  -0.00762654  -0.00308279  1
  Cu  Cu106  1  0.83702999  0.17063242  0.74085022  1
  Cu  Cu107  1  0.83916040  0.50221744  0.24965193  1
  Cu  Cu108  1  0.66548515  0.33663537  -0.00963767  1
  Cu  Cu109  1  0.66959062  0.33129215  0.50530962  1
  Cu  Cu110  1  0.66592107  0.00125399  0.50633219  1
  Cu  Cu111  1  0.32998480  0.34138160  -0.00651821  1
  Cu  Cu112  1  -0.00162271  0.66871903  0.50043793  1
  Cu  Cu113  1  0.83757960  0.49707029  0.74538202  1
  Cu  Cu114  1  0.16918256  0.50274197  0.25097236  1
  Se  Se115  1  0.07354376  0.07319525  0.05980098  1
  Se  Se116  1  0.07556495  0.07450659  0.56739469  1
  Se  Se117  1  0.08159183  0.41555129  0.05115437  1
  Se  Se118  1  0.09336767  0.42798960  0.55202957  1
  Se  Se119  1  0.08173305  0.74677850  0.04847557  1
  Se  Se120  1  0.07785685  0.74932938  0.56247245  1
  Se  Se121  1  0.41536151  0.07793370  0.05904415  1
  Se  Se122  1  0.42340925  0.08106387  0.55996930  1
  Se  Se123  1  0.41705403  0.41703916  0.05137686  1
  Se  Se124  1  0.42110474  0.41699065  0.55563743  1
  Se  Se125  1  0.41986026  0.75089787  0.05960785  1
  Se  Se126  1  0.40956293  0.74709093  0.55939275  1
  Se  Se127  1  0.74136070  0.07892533  0.05735260  1
  Se  Se128  1  0.75278352  0.08531826  0.55526967  1
  Se  Se129  1  0.74585933  0.41836088  0.04651948  1
  Se  Se130  1  0.75533067  0.42019767  0.54998507  1
  Se  Se131  1  0.75624946  0.75436714  0.05254317  1
  Se  Se132  1  0.74473630  0.75312566  0.55428225  1
  Se  Se133  1  0.25958781  0.26032102  0.06073143  1
  Se  Se134  1  0.25666168  0.25658478  0.56696001  1
  Se  Se135  1  0.25089530  0.57832960  0.04879529  1
  Se  Se136  1  0.25232552  0.58435261  0.54716588  1
  Se  Se137  1  0.24818569  0.91487297  0.04949035  1
  Se  Se138  1  0.25221300  0.91661338  0.55760782  1
  Se  Se139  1  0.58455718  0.25942201  0.05241042  1
  Se  Se140  1  0.58310637  0.24829615  0.55637078  1
  Se  Se141  1  0.58333838  0.59858251  0.06741334  1
  Se  Se142  1  0.57917667  0.58282429  0.55170279  1
  Se  Se143  1  0.58070685  0.91500900  0.05170037  1
  Se  Se144  1  0.58246114  0.92519130  0.56711035  1
  Se  Se145  1  0.91764619  0.25432504  0.05900712  1
  Se  Se146  1  0.92012130  0.24906323  0.54804773  1
  Se  Se147  1  0.90993926  0.57992656  0.05344163  1
  Se  Se148  1  0.91525301  0.58683751  0.55466110  1
  Se  Se149  1  0.91273746  0.91410939  0.04822054  1
  Se  Se150  1  0.91030224  0.91067016  0.55867498  1
  Se  Se151  1  0.07570050  0.26292094  0.44432493  1
  Se  Se152  1  0.07113123  0.25140370  0.94165200  1
  Se  Se153  1  0.08796283  0.59388148  0.44526713  1
  Se  Se154  1  0.07924345  0.57704003  0.94502663  1
  Se  Se155  1  0.07427651  0.92740934  0.44348064  1
  Se  Se156  1  0.08889107  0.90919695  0.94423473  1
  Se  Se157  1  0.41969955  0.24195990  0.45262195  1
  Se  Se158  1  0.40619666  0.25723242  0.93533225  1
  Se  Se159  1  0.42487338  0.58111807  0.44283418  1
  Se  Se160  1  0.41128316  0.58931569  0.93779566  1
  Se  Se161  1  0.40603118  0.91730333  0.44064985  1
  Se  Se162  1  0.42439281  0.91880555  0.94074311  1
  Se  Se163  1  0.74946152  0.24727296  0.44890853  1
  Se  Se164  1  0.73617554  0.24925735  0.92963509  1
  Se  Se165  1  0.75379700  0.58128388  0.45028327  1
  Se  Se166  1  0.74017526  0.58161656  0.94862169  1
  Se  Se167  1  0.74543846  0.91296886  0.45280258  1
  Se  Se168  1  0.75907115  0.91315314  0.94790886  1
  Se  Se169  1  0.25080471  0.08125030  0.45136245  1
  Se  Se170  1  0.25612724  0.07748743  0.94293257  1
  Se  Se171  1  0.25526626  0.41554161  0.45099071  1
  Se  Se172  1  0.23748443  0.41811902  0.94586109  1
  Se  Se173  1  0.26829647  0.74808254  0.43112816  1
  Se  Se174  1  0.25253793  0.74812115  0.94974380  1
  Se  Se175  1  0.58046519  0.07752780  0.44830366  1
  Se  Se176  1  0.59131907  0.07086087  0.93385355  1
  Se  Se177  1  0.58427892  0.41544371  0.45249801  1
  Se  Se178  1  0.57905458  0.40630188  0.92748174  1
  Se  Se179  1  0.58794809  0.74128397  0.43747317  1
  Se  Se180  1  0.57977493  0.75397573  0.95159434  1
  Se  Se181  1  0.91231406  0.08381857  0.45268910  1
  Se  Se182  1  0.92572058  0.07817237  0.93718091  1
  Se  Se183  1  0.90904320  0.43012546  0.45183505  1
  Se  Se184  1  0.90647458  0.41692639  0.94127033  1
  Se  Se185  1  0.91508326  0.75544246  0.44978686  1
  Se  Se186  1  0.91535400  0.74599469  0.94521698  1
  Se  Se187  1  0.24360195  0.24473782  0.31801635  1
  Se  Se188  1  0.25023661  0.24863567  0.80316636  1
  Se  Se189  1  0.26011797  0.58056364  0.30084280  1
  Se  Se190  1  0.23645147  0.57751366  0.81118349  1
  Se  Se191  1  0.24049432  0.91647637  0.29684218  1
  Se  Se192  1  0.25303925  0.91423877  0.80667549  1
  Se  Se193  1  0.57292271  0.23624444  0.30888339  1
  Se  Se194  1  0.59993575  0.26768563  0.79078071  1
  Se  Se195  1  0.59273081  0.58085945  0.30587182  1
  Se  Se196  1  0.57494857  0.57714290  0.80194518  1
  Se  Se197  1  0.57112160  0.90269416  0.30693196  1
  Se  Se198  1  0.60406078  0.92214828  0.80440534  1
  Se  Se199  1  0.91349136  0.25609201  0.30597489  1
  Se  Se200  1  0.91948374  0.25430940  0.79634820  1
  Se  Se201  1  0.91602484  0.58096536  0.31414672  1
  Se  Se202  1  0.91477014  0.58201422  0.80275405  1
  Se  Se203  1  0.90976735  0.91785909  0.31136710  1
  Se  Se204  1  0.92341121  0.91440924  0.80592195  1
  Se  Se205  1  0.08366983  0.09170052  0.31854393  1
  Se  Se206  1  0.08876349  0.08240962  0.79928125  1
  Se  Se207  1  0.08289063  0.42445577  0.30539884  1
  Se  Se208  1  0.07680214  0.41124877  0.80365569  1
  Se  Se209  1  0.09590577  0.76161165  0.30654118  1
  Se  Se210  1  0.08222591  0.74325123  0.80436963  1
  Se  Se211  1  0.40400928  0.06915985  0.30529266  1
  Se  Se212  1  0.44828014  0.10932479  0.80630292  1
  Se  Se213  1  0.43038485  0.41636183  0.31399838  1
  Se  Se214  1  0.40628685  0.42163144  0.79674075  1
  Se  Se215  1  0.42176826  0.74582229  0.29042243  1
  Se  Se216  1  0.42321922  0.75550207  0.80870638  1
  Se  Se217  1  0.75795840  0.09251228  0.30946726  1
  Se  Se218  1  0.76094939  0.08661419  0.79988518  1
  Se  Se219  1  0.76157331  0.42488077  0.31576906  1
  Se  Se220  1  0.74934197  0.41746055  0.79716688  1
  Se  Se221  1  0.75294736  0.74980514  0.30586027  1
  Se  Se222  1  0.75691863  0.75040527  0.81463338  1
  Se  Se223  1  0.23772802  0.08978515  0.19866328  1
  Se  Se224  1  0.25981568  0.08012791  0.69924928  1
  Se  Se225  1  0.24517556  0.41926846  0.18808398  1
  Se  Se226  1  0.24704892  0.42011446  0.69778445  1
  Se  Se227  1  0.25849827  0.73591372  0.19196633  1
  Se  Se228  1  0.24176737  0.75677386  0.68652415  1
  Se  Se229  1  0.57373821  0.08874275  0.19375313  1
  Se  Se230  1  0.60668621  0.07083175  0.69956951  1
  Se  Se231  1  0.58644916  0.41497424  0.18873805  1
  Se  Se232  1  0.58394522  0.41831866  0.69299161  1
  Se  Se233  1  0.59920575  0.74528553  0.19892678  1
  Se  Se234  1  0.57203116  0.76450046  0.69826803  1
  Se  Se235  1  0.90558014  0.09603534  0.19514969  1
  Se  Se236  1  0.92003190  0.07820021  0.69512070  1
  Se  Se237  1  0.91758990  0.41683237  0.19518846  1
  Se  Se238  1  0.91983160  0.41450396  0.69012308  1
  Se  Se239  1  0.91328697  0.75721564  0.19227968  1
  Se  Se240  1  0.92018336  0.74335967  0.70002312  1
  Se  Se241  1  0.07521421  0.25802849  0.20464889  1
  Se  Se242  1  0.08331943  0.24936909  0.69567179  1
  Se  Se243  1  0.09021036  0.57841940  0.18590795  1
  Se  Se244  1  0.07765457  0.58495850  0.69510530  1
  Se  Se245  1  0.08634484  0.90581481  0.19014579  1
  Se  Se246  1  0.08585629  0.91611200  0.70203995  1
  Se  Se247  1  0.42326697  0.23963169  0.19825126  1
  Se  Se248  1  0.41309233  0.25888252  0.70011279  1
  Se  Se249  1  0.42478480  0.57208660  0.19909707  1
  Se  Se250  1  0.41449420  0.58336736  0.68514843  1
  Se  Se251  1  0.39918460  0.92441913  0.19431490  1
  Se  Se252  1  0.41630703  0.92096228  0.70942008  1
  Se  Se253  1  0.75512723  0.24652041  0.19074565  1
  Se  Se254  1  0.75401518  0.25415990  0.68825464  1
  Se  Se255  1  0.75332583  0.58408664  0.19816679  1
  Se  Se256  1  0.75580385  0.57713230  0.68442629  1
  Se  Se257  1  0.75399784  0.91627012  0.18905740  1
  Se  Se258  1  0.75607559  0.91249387  0.70039675  1
