# generated using pymatgen
data_In86Cu29Se144
_symmetry_space_group_name_H-M   'P 1'
_cell_length_a   17.57555809
_cell_length_b   17.57413413
_cell_length_c   23.44014171
_cell_angle_alpha   90.00873871
_cell_angle_beta   90.00016327
_cell_angle_gamma   89.99961067
_symmetry_Int_Tables_number   1
_chemical_formula_structural   In86Cu29Se144
_chemical_formula_sum   'In86 Cu29 Se144'
_cell_volume   7240.07873239
_cell_formula_units_Z   1
loop_
 _symmetry_equiv_pos_site_id
 _symmetry_equiv_pos_as_xyz
  1  'x, y, z'
loop_
 _atom_site_type_symbol
 _atom_site_label
 _atom_site_symmetry_multiplicity
 _atom_site_fract_x
 _atom_site_fract_y
 _atom_site_fract_z
 _atom_site_occupancy
  In  In0  1  0.01439723  0.17101423  0.11943712  1
  In  In1  1  -0.01716779  0.17506677  0.63612097  1
  In  In2  1  -0.00402042  0.50245003  0.12193543  1
  In  In3  1  -0.00952048  0.50580333  0.64571085  1
  In  In4  1  -0.01590125  0.81040959  0.12336061  1
  In  In5  1  0.00169962  0.82941382  0.62525889  1
  In  In6  1  0.34645261  0.19036853  0.12176883  1
  In  In7  1  0.32907504  0.16905009  0.63201802  1
  In  In8  1  0.33587382  0.49953584  0.12143054  1
  In  In9  1  0.34176326  0.49154600  0.63429539  1
  In  In10  1  0.32756069  0.81240900  0.12508525  1
  In  In11  1  0.32827908  0.83533959  0.63164238  1
  In  In12  1  0.65305075  0.16602160  0.13776621  1
  In  In13  1  0.67859936  0.16472163  0.64179689  1
  In  In14  1  0.65429740  0.49883609  0.10633310  1
  In  In15  1  0.65834171  0.51287599  0.63980865  1
  In  In16  1  0.67073861  0.84798496  0.12492057  1
  In  In17  1  0.67651747  0.81716160  0.62871871  1
  In  In18  1  0.15072986  -0.00524774  0.37999287  1
  In  In19  1  0.16421379  0.00014418  0.86530119  1
  In  In20  1  0.17845619  0.35339368  0.35516506  1
  In  In21  1  0.17890934  0.34234719  0.87363716  1
  In  In22  1  0.17341018  0.66604270  0.37126219  1
  In  In23  1  0.15832028  0.65400792  0.86955224  1
  In  In24  1  0.50813868  -0.01073634  0.37305744  1
  In  In25  1  0.50043963  -0.00579372  0.86877232  1
  In  In26  1  0.51581843  0.34703248  0.36575848  1
  In  In27  1  0.50715432  0.34696738  0.87319512  1
  In  In28  1  0.48655006  0.66943039  0.37459305  1
  In  In29  1  0.50169074  0.67057854  0.88107646  1
  In  In30  1  0.82388455  -0.00324074  0.37869729  1
  In  In31  1  0.83028723  0.00039250  0.85665270  1
  In  In32  1  0.83479097  0.33600286  0.36489551  1
  In  In33  1  0.85596744  0.36646676  0.84829516  1
  In  In34  1  0.84054304  0.66520460  0.37740665  1
  In  In35  1  0.81245227  0.62891241  0.84487740  1
  In  In36  1  -0.00469985  0.17139081  0.37496856  1
  In  In37  1  -0.00584307  0.17725084  0.86150550  1
  In  In38  1  0.00438744  0.50320605  0.35885883  1
  In  In39  1  0.00706977  0.50604567  0.87637159  1
  In  In40  1  0.00214083  0.82832491  0.38547268  1
  In  In41  1  -0.01240940  0.81926251  0.86365290  1
  In  In42  1  0.32575826  0.17457574  0.37694165  1
  In  In43  1  0.34148613  0.16990737  0.86823623  1
  In  In44  1  0.34020309  0.51365221  0.36574610  1
  In  In45  1  0.33457256  0.50044995  0.87599087  1
  In  In46  1  0.33162546  0.81747284  0.37276260  1
  In  In47  1  0.34339340  0.84133562  0.86822762  1
  In  In48  1  0.66828912  0.17065981  0.36481345  1
  In  In49  1  0.68056456  0.17507324  0.85789531  1
  In  In50  1  0.67109905  0.48808015  0.37510611  1
  In  In51  1  0.66619947  0.50336247  0.88217043  1
  In  In52  1  0.66352902  0.83982171  0.37646260  1
  In  In53  1  0.65671867  0.82002753  0.86908627  1
  In  In54  1  0.16019235  0.00082191  0.12455711  1
  In  In55  1  0.17410853  -0.01085361  0.63078035  1
  In  In56  1  0.14525727  0.36756100  0.14645098  1
  In  In57  1  0.16321923  0.33702866  0.63175897  1
  In  In58  1  0.18205038  0.63740785  0.14752311  1
  In  In59  1  0.15999384  0.67782435  0.63302031  1
  In  In60  1  0.51753586  0.00336528  0.12301810  1
  In  In61  1  0.49719159  -0.00212319  0.63377487  1
  In  In62  1  0.49051441  0.34198692  0.13699856  1
  In  In63  1  0.49473967  0.34247811  0.63315089  1
  In  In64  1  0.49590619  0.65741948  0.10894316  1
  In  In65  1  0.51085710  0.65008866  0.63251211  1
  In  In66  1  0.81342025  -0.01564469  0.12274344  1
  In  In67  1  0.84543008  -0.01118197  0.63604802  1
  In  In68  1  0.82063190  0.34143598  0.12582018  1
  In  In69  1  0.82449101  0.34764559  0.65087041  1
  In  In70  1  0.84363419  0.66952808  0.12685612  1
  In  In71  1  0.81744617  0.67457306  0.63857168  1
  In  In72  1  0.17786894  0.17785840  -0.00779837  1
  In  In73  1  0.66752809  0.66948144  0.24502066  1
  In  In74  1  0.34229566  0.00623148  0.25159975  1
  In  In75  1  0.49991851  0.82408107  0.50204353  1
  In  In76  1  0.50405363  0.16804032  0.50204909  1
  In  In77  1  0.82816948  0.17389061  -0.00767710  1
  In  In78  1  0.83149121  0.50283573  0.50638835  1
  In  In79  1  0.15943983  0.16911974  0.50705555  1
  In  In80  1  0.83467664  0.16682108  0.50107713  1
  In  In81  1  0.16766783  0.82191033  0.00037873  1
  In  In82  1  -0.00273044  0.00624943  0.24802087  1
  In  In83  1  0.82726588  0.82187688  -0.00630964  1
  In  In84  1  0.50540510  0.17111868  -0.00243988  1
  In  In85  1  0.16730130  0.50496214  0.50050841  1
  Cu  Cu86  1  -0.00300979  0.67149939  0.50377640  1
  Cu  Cu87  1  0.50165692  0.82630643  0.74813187  1
  Cu  Cu88  1  0.00238053  -0.01299365  0.51091448  1
  Cu  Cu89  1  0.34345245  -0.00804458  -0.00417050  1
  Cu  Cu90  1  0.83229601  0.49656287  0.24491267  1
  Cu  Cu91  1  0.83963887  0.16803215  0.24823857  1
  Cu  Cu92  1  0.16120771  0.82899379  0.25436203  1
  Cu  Cu93  1  -0.00364502  0.34533758  -0.00199418  1
  Cu  Cu94  1  0.17288475  0.49654236  0.75319670  1
  Cu  Cu95  1  -0.00468327  -0.00762222  -0.01173551  1
  Cu  Cu96  1  0.83635148  0.83591713  0.74678307  1
  Cu  Cu97  1  0.32862057  0.66501641  0.50117326  1
  Cu  Cu98  1  0.67248926  -0.00763483  0.50377903  1
  Cu  Cu99  1  0.33128181  0.66202690  -0.00099046  1
  Cu  Cu100  1  0.32711256  -0.00951162  0.50611462  1
  Cu  Cu101  1  0.66126888  0.33777144  0.50279028  1
  Cu  Cu102  1  0.34643219  0.34580920  0.50248912  1
  Cu  Cu103  1  0.00092316  0.33878943  0.49924620  1
  Cu  Cu104  1  0.00139489  0.65608621  0.00015873  1
  Cu  Cu105  1  0.66488777  -0.00129139  -0.00513591  1
  Cu  Cu106  1  0.49835034  0.50239460  0.75922211  1
  Cu  Cu107  1  0.49395403  0.16499246  0.75046364  1
  Cu  Cu108  1  0.17794065  0.17991094  0.24457576  1
  Cu  Cu109  1  0.16876724  0.83309574  0.75110010  1
  Cu  Cu110  1  0.16358231  0.16583227  0.74900609  1
  Cu  Cu111  1  0.33121759  0.34753796  0.00374646  1
  Cu  Cu112  1  0.49765520  0.82976957  0.24877015  1
  Cu  Cu113  1  0.50156454  0.50650894  0.24191776  1
  Cu  Cu114  1  0.66858636  0.33869578  -0.00371744  1
  Se  Se115  1  0.08082979  0.07591441  0.04414039  1
  Se  Se116  1  0.07201883  0.08023504  0.56924573  1
  Se  Se117  1  0.08471145  0.42092680  0.05428068  1
  Se  Se118  1  0.07285381  0.42119925  0.56344593  1
  Se  Se119  1  0.08257352  0.73250573  0.06321035  1
  Se  Se120  1  0.08715838  0.75047823  0.55373553  1
  Se  Se121  1  0.41248630  0.07960874  0.05853676  1
  Se  Se122  1  0.40804777  0.07684486  0.55895787  1
  Se  Se123  1  0.42680330  0.41886983  0.05509060  1
  Se  Se124  1  0.42743617  0.42767044  0.55651879  1
  Se  Se125  1  0.41240808  0.75222542  0.04803978  1
  Se  Se126  1  0.41122005  0.73893316  0.56543290  1
  Se  Se127  1  0.73957645  0.08320006  0.05607350  1
  Se  Se128  1  0.74803207  0.07690968  0.56374724  1
  Se  Se129  1  0.75510427  0.42136909  0.04742862  1
  Se  Se130  1  0.74558805  0.40916298  0.56594968  1
  Se  Se131  1  0.74071601  0.74251834  0.06218259  1
  Se  Se132  1  0.74573858  0.73420619  0.55445618  1
  Se  Se133  1  0.24714785  0.26929199  0.06292852  1
  Se  Se134  1  0.25946454  0.26398480  0.55753223  1
  Se  Se135  1  0.24748913  0.58435126  0.05680704  1
  Se  Se136  1  0.25414028  0.58707517  0.56736914  1
  Se  Se137  1  0.25503797  0.92241068  0.05802201  1
  Se  Se138  1  0.24459325  0.90542091  0.55520245  1
  Se  Se139  1  0.59153970  0.25921975  0.06054625  1
  Se  Se140  1  0.59200631  0.25220594  0.56707957  1
  Se  Se141  1  0.58844592  0.59375119  0.03894358  1
  Se  Se142  1  0.59384805  0.58317079  0.55706409  1
  Se  Se143  1  0.58354632  0.91546041  0.04924521  1
  Se  Se144  1  0.58472123  0.91882217  0.56209353  1
  Se  Se145  1  0.92312562  0.25671811  0.05615436  1
  Se  Se146  1  0.91460317  0.26684346  0.56015730  1
  Se  Se147  1  0.90883568  0.58133619  0.05224465  1
  Se  Se148  1  0.92369863  0.58976402  0.56623050  1
  Se  Se149  1  0.91872493  0.91764436  0.05416324  1
  Se  Se150  1  0.91000712  0.90750413  0.55738864  1
  Se  Se151  1  0.08343627  0.26191207  0.43892840  1
  Se  Se152  1  0.07348772  0.25941061  0.93854074  1
  Se  Se153  1  0.07080442  0.58816528  0.44089699  1
  Se  Se154  1  0.09350697  0.57797205  0.95109576  1
  Se  Se155  1  0.08793932  0.90924718  0.45515017  1
  Se  Se156  1  0.07995820  0.91077395  0.93506211  1
  Se  Se157  1  0.41780515  0.25982394  0.44072335  1
  Se  Se158  1  0.40814747  0.26188385  0.94394615  1
  Se  Se159  1  0.41284948  0.58421812  0.44682678  1
  Se  Se160  1  0.41713982  0.58159824  0.94581093  1
  Se  Se161  1  0.40876509  0.91846328  0.44134571  1
  Se  Se162  1  0.42754305  0.91129738  0.94424174  1
  Se  Se163  1  0.74410524  0.25979320  0.44156655  1
  Se  Se164  1  0.74839294  0.26778867  0.93113190  1
  Se  Se165  1  0.74268502  0.58681588  0.44173318  1
  Se  Se166  1  0.76103123  0.58604616  0.94117023  1
  Se  Se167  1  0.75281942  0.90848056  0.44980346  1
  Se  Se168  1  0.74738942  0.92209880  0.93403546  1
  Se  Se169  1  0.25137261  0.07623969  0.44544553  1
  Se  Se170  1  0.26176638  0.07313145  0.93857140  1
  Se  Se171  1  0.25746053  0.41497478  0.44064430  1
  Se  Se172  1  0.24586793  0.42655748  0.94941593  1
  Se  Se173  1  0.24701447  0.74777657  0.44675523  1
  Se  Se174  1  0.25722992  0.74314596  0.93345913  1
  Se  Se175  1  0.59530932  0.07495512  0.44299499  1
  Se  Se176  1  0.59329653  0.08566218  0.93325490  1
  Se  Se177  1  0.58082175  0.42148030  0.44840243  1
  Se  Se178  1  0.57769243  0.42242712  0.95129275  1
  Se  Se179  1  0.58927808  0.73815899  0.43998052  1
  Se  Se180  1  0.58582597  0.75285371  0.94987386  1
  Se  Se181  1  0.92969840  0.07163131  0.44626302  1
  Se  Se182  1  0.91692950  0.07792810  0.93393387  1
  Se  Se183  1  0.92146353  0.41805467  0.43747342  1
  Se  Se184  1  0.91441592  0.42374313  0.94028157  1
  Se  Se185  1  0.90986479  0.75107295  0.45133608  1
  Se  Se186  1  0.91988822  0.73214675  0.93837728  1
  Se  Se187  1  0.26402808  0.25801957  0.29903684  1
  Se  Se188  1  0.24777808  0.24724409  0.80536777  1
  Se  Se189  1  0.23075277  0.56560755  0.30421762  1
  Se  Se190  1  0.25516195  0.58321939  0.80419496  1
  Se  Se191  1  0.24319911  0.91626997  0.30937549  1
  Se  Se192  1  0.25310559  0.91920369  0.80129752  1
  Se  Se193  1  0.58650131  0.25349906  0.30006230  1
  Se  Se194  1  0.57283164  0.24896284  0.80610970  1
  Se  Se195  1  0.57954047  0.58130632  0.30938262  1
  Se  Se196  1  0.58222463  0.58583896  0.81104759  1
  Se  Se197  1  0.58392212  0.91138600  0.29902638  1
  Se  Se198  1  0.58474383  0.91259671  0.80048033  1
  Se  Se199  1  0.92252628  0.25138001  0.30088137  1
  Se  Se200  1  0.88890638  0.23688533  0.80155057  1
  Se  Se201  1  0.90803300  0.58356576  0.30062300  1
  Se  Se202  1  0.94368107  0.59977740  0.80407188  1
  Se  Se203  1  0.91796156  0.91592791  0.31343183  1
  Se  Se204  1  0.92446484  0.91883082  0.79679101  1
  Se  Se205  1  0.09676673  0.09650603  0.30525072  1
  Se  Se206  1  0.07770594  0.08424586  0.80126372  1
  Se  Se207  1  0.07295897  0.40849678  0.29360475  1
  Se  Se208  1  0.08642690  0.41631691  0.80768474  1
  Se  Se209  1  0.07965746  0.74912936  0.31141537  1
  Se  Se210  1  0.08615919  0.74714987  0.80191270  1
  Se  Se211  1  0.42755746  0.09287357  0.31682650  1
  Se  Se212  1  0.41335172  0.07656725  0.80235410  1
  Se  Se213  1  0.42219208  0.42433297  0.30200692  1
  Se  Se214  1  0.41165628  0.41384803  0.80492633  1
  Se  Se215  1  0.41243890  0.74568764  0.29752260  1
  Se  Se216  1  0.41935222  0.74648236  0.80525372  1
  Se  Se217  1  0.75945983  0.08558254  0.30520546  1
  Se  Se218  1  0.73323383  0.06878572  0.79368102  1
  Se  Se219  1  0.74664165  0.41469182  0.29796715  1
  Se  Se220  1  0.73022752  0.41362380  0.80692572  1
  Se  Se221  1  0.75333070  0.75420271  0.31109285  1
  Se  Se222  1  0.75463137  0.75269462  0.80144349  1
  Se  Se223  1  0.25015562  0.09172686  0.18549143  1
  Se  Se224  1  0.24912773  0.08149277  0.69722541  1
  Se  Se225  1  0.27222531  0.40342593  0.19170870  1
  Se  Se226  1  0.25363015  0.41038760  0.69968209  1
  Se  Se227  1  0.24904847  0.74635020  0.20436493  1
  Se  Se228  1  0.25426683  0.74686436  0.70169512  1
  Se  Se229  1  0.58677706  0.07038838  0.20435382  1
  Se  Se230  1  0.58000457  0.08333397  0.69857411  1
  Se  Se231  1  0.58981801  0.42612240  0.19049781  1
  Se  Se232  1  0.58082952  0.41899225  0.70300795  1
  Se  Se233  1  0.57382210  0.75306714  0.18296205  1
  Se  Se234  1  0.58758648  0.74212681  0.69807633  1
  Se  Se235  1  0.90891497  0.08859888  0.17847163  1
  Se  Se236  1  0.90744264  0.08742048  0.70244920  1
  Se  Se237  1  0.91569640  0.41402233  0.19069589  1
  Se  Se238  1  0.92993056  0.40681761  0.71204504  1
  Se  Se239  1  0.89740835  0.76274788  0.20267471  1
  Se  Se240  1  0.91983002  0.74817809  0.69629153  1
  Se  Se241  1  0.08030118  0.25155528  0.19670992  1
  Se  Se242  1  0.08037100  0.25161590  0.69723295  1
  Se  Se243  1  0.05555702  0.60070463  0.19279026  1
  Se  Se244  1  0.09118808  0.58296647  0.70124585  1
  Se  Se245  1  0.08327520  0.90526291  0.18958888  1
  Se  Se246  1  0.08243031  0.91336373  0.69615368  1
  Se  Se247  1  0.44059855  0.23059515  0.19828355  1
  Se  Se248  1  0.41313179  0.25216204  0.69736390  1
  Se  Se249  1  0.41856923  0.58858561  0.18830267  1
  Se  Se250  1  0.41613126  0.58342295  0.70154311  1
  Se  Se251  1  0.41796232  0.90995556  0.18580095  1
  Se  Se252  1  0.41535608  0.91334556  0.70007815  1
  Se  Se253  1  0.75124469  0.24705829  0.19381799  1
  Se  Se254  1  0.74020107  0.25930819  0.71046943  1
  Se  Se255  1  0.74911631  0.57335517  0.18456030  1
  Se  Se256  1  0.77230775  0.56080783  0.69959988  1
  Se  Se257  1  0.75333867  0.90848711  0.20403090  1
  Se  Se258  1  0.74460231  0.91384480  0.69515548  1
