# generated using pymatgen
data_In86Cu29Se144
_symmetry_space_group_name_H-M   'P 1'
_cell_length_a   17.58798550
_cell_length_b   17.58788672
_cell_length_c   23.44115408
_cell_angle_alpha   90.01397487
_cell_angle_beta   89.98786057
_cell_angle_gamma   89.98646993
_symmetry_Int_Tables_number   1
_chemical_formula_structural   In86Cu29Se144
_chemical_formula_sum   'In86 Cu29 Se144'
_cell_volume   7251.18046055
_cell_formula_units_Z   1
loop_
 _symmetry_equiv_pos_site_id
 _symmetry_equiv_pos_as_xyz
  1  'x, y, z'
loop_
 _atom_site_type_symbol
 _atom_site_label
 _atom_site_symmetry_multiplicity
 _atom_site_fract_x
 _atom_site_fract_y
 _atom_site_fract_z
 _atom_site_occupancy
  In  In0  1  -0.00939813  0.15369009  0.13092070  1
  In  In1  1  -0.01498314  0.17713436  0.63143462  1
  In  In2  1  -0.00477898  0.51879622  0.12485532  1
  In  In3  1  -0.00264440  0.50048299  0.61508786  1
  In  In4  1  0.01038495  0.82514241  0.12911894  1
  In  In5  1  -0.00092904  0.83235377  0.62296848  1
  In  In6  1  0.32386431  0.15914243  0.13121136  1
  In  In7  1  0.33590212  0.15400115  0.62501339  1
  In  In8  1  0.34722854  0.49633008  0.12840659  1
  In  In9  1  0.32967745  0.51665800  0.60774576  1
  In  In10  1  0.32388084  0.83974750  0.13657482  1
  In  In11  1  0.34128292  0.83642700  0.61007676  1
  In  In12  1  0.67103643  0.17470335  0.13012543  1
  In  In13  1  0.68672970  0.18719473  0.60052639  1
  In  In14  1  0.67944647  0.51347176  0.11298097  1
  In  In15  1  0.67332728  0.49946823  0.62248718  1
  In  In16  1  0.65307719  0.82614417  0.13175092  1
  In  In17  1  0.65875729  0.82283119  0.61878971  1
  In  In18  1  0.15357670  -0.01382623  0.37178773  1
  In  In19  1  0.15173395  -0.01893719  0.86042287  1
  In  In20  1  0.16896195  0.33954867  0.38069814  1
  In  In21  1  0.15805393  0.34607539  0.86859734  1
  In  In22  1  0.16402421  0.67428949  0.37861663  1
  In  In23  1  0.16697563  0.67940853  0.87578739  1
  In  In24  1  0.48955259  0.00072213  0.37981147  1
  In  In25  1  0.50086632  0.01449112  0.86705673  1
  In  In26  1  0.50761536  0.34199586  0.39450908  1
  In  In27  1  0.51539063  0.33971060  0.86204099  1
  In  In28  1  0.50014769  0.66250489  0.38342822  1
  In  In29  1  0.50153616  0.65376320  0.87324242  1
  In  In30  1  0.83671225  -0.00127582  0.38296676  1
  In  In31  1  0.84715860  -0.00914368  0.87425685  1
  In  In32  1  0.83185195  0.33950004  0.39709908  1
  In  In33  1  0.84131816  0.34515699  0.86423416  1
  In  In34  1  0.83709429  0.66567897  0.36896744  1
  In  In35  1  0.82432908  0.65953992  0.86169768  1
  In  In36  1  0.00003876  0.16082270  0.37949998  1
  In  In37  1  -0.00544152  0.16368403  0.86515252  1
  In  In38  1  -0.02856056  0.52161596  0.39064633  1
  In  In39  1  -0.00907341  0.49456390  0.86458427  1
  In  In40  1  -0.00263221  0.83560236  0.37804155  1
  In  In41  1  0.00711804  0.83886577  0.86565461  1
  In  In42  1  0.34690907  0.16695452  0.37574821  1
  In  In43  1  0.34343005  0.15364655  0.86596545  1
  In  In44  1  0.31944692  0.52507740  0.39957923  1
  In  In45  1  0.33639707  0.51869727  0.87584554  1
  In  In46  1  0.32660271  0.82490537  0.38226664  1
  In  In47  1  0.31759580  0.82993111  0.87462549  1
  In  In48  1  0.66937710  0.16822480  0.39140263  1
  In  In49  1  0.65626986  0.17656377  0.86554091  1
  In  In50  1  0.66433536  0.50239839  0.38488092  1
  In  In51  1  0.66969561  0.50235660  0.86693990  1
  In  In52  1  0.67876712  0.81639818  0.38463768  1
  In  In53  1  0.68416383  0.83639318  0.86900781  1
  In  In54  1  0.16984076  -0.00969656  0.12878997  1
  In  In55  1  0.17431672  -0.00743573  0.62966920  1
  In  In56  1  0.16419258  0.33249512  0.12829334  1
  In  In57  1  0.14568331  0.33882530  0.62027665  1
  In  In58  1  0.15282770  0.68159347  0.13624876  1
  In  In59  1  0.15834512  0.65711904  0.61024987  1
  In  In60  1  0.49219048  -0.01440875  0.13253800  1
  In  In61  1  0.49615873  -0.00162294  0.61716198  1
  In  In62  1  0.49448883  0.34616889  0.12730267  1
  In  In63  1  0.52308163  0.34959918  0.60673530  1
  In  In64  1  0.50998765  0.64974939  0.13804721  1
  In  In65  1  0.50538346  0.67558296  0.61497136  1
  In  In66  1  0.85469640  -0.00499642  0.13560693  1
  In  In67  1  0.84097590  0.00812200  0.61987305  1
  In  In68  1  0.82127947  0.33920499  0.12677996  1
  In  In69  1  0.83313785  0.33665802  0.61407315  1
  In  In70  1  0.84396264  0.64744201  0.14708785  1
  In  In71  1  0.83568991  0.66638732  0.62184870  1
  In  In72  1  0.49316384  0.82715191  0.00162494  1
  In  In73  1  0.16514684  0.16272034  0.50534557  1
  In  In74  1  0.32676260  0.33094301  0.74156063  1
  In  In75  1  -0.00293603  0.33563609  0.26011988  1
  In  In76  1  0.66770634  0.00300558  0.74606921  1
  In  In77  1  0.66918805  0.33924394  0.26773383  1
  In  In78  1  0.16650111  0.51162301  -0.00073873  1
  In  In79  1  0.66643331  -0.00491140  0.26907819  1
  In  In80  1  0.17220118  0.17129708  0.00343221  1
  In  In81  1  0.83812592  0.16959071  -0.00702415  1
  In  In82  1  0.50093235  0.17293028  -0.00301808  1
  In  In83  1  0.84604456  0.81397176  0.01277844  1
  In  In84  1  0.33841590  0.33290419  0.25810820  1
  In  In85  1  0.33068126  0.66992130  0.74528075  1
  Cu  Cu86  1  0.15621112  0.49849153  0.74006748  1
  Cu  Cu87  1  0.66574408  0.34809211  -0.00713557  1
  Cu  Cu88  1  0.16570846  0.83163794  0.25565388  1
  Cu  Cu89  1  -0.00814577  0.66919812  0.49762225  1
  Cu  Cu90  1  0.16457350  0.16424056  0.74291419  1
  Cu  Cu91  1  0.68032510  0.00286643  0.00505468  1
  Cu  Cu92  1  0.48995742  0.82259984  0.25745130  1
  Cu  Cu93  1  0.50276414  0.15679631  0.25559705  1
  Cu  Cu94  1  0.16673205  0.83163763  0.74392795  1
  Cu  Cu95  1  0.33361934  0.33354115  0.50119707  1
  Cu  Cu96  1  0.33394335  0.66836846  0.00803160  1
  Cu  Cu97  1  -0.00081612  -0.00112313  0.50104193  1
  Cu  Cu98  1  0.66572445  0.66338169  -0.00482227  1
  Cu  Cu99  1  0.50447376  0.16783688  0.73788820  1
  Cu  Cu100  1  0.83280000  0.83615771  0.25840108  1
  Cu  Cu101  1  0.50453200  0.49852673  0.74379727  1
  Cu  Cu102  1  0.34606009  0.34496053  -0.00274039  1
  Cu  Cu103  1  0.50188747  0.50014623  0.26096040  1
  Cu  Cu104  1  0.49358220  0.83585352  0.73969522  1
  Cu  Cu105  1  0.67338911  0.66795224  0.50024421  1
  Cu  Cu106  1  0.65962408  -0.01050179  0.49938510  1
  Cu  Cu107  1  0.32641391  -0.00307551  0.49732055  1
  Cu  Cu108  1  0.33026155  -0.00519677  0.00054259  1
  Cu  Cu109  1  -0.00441463  0.33917067  -0.00393871  1
  Cu  Cu110  1  0.83614024  0.82857583  0.74445867  1
  Cu  Cu111  1  0.83229336  0.49625365  0.73946768  1
  Cu  Cu112  1  0.17065666  0.50931457  0.25884194  1
  Cu  Cu113  1  0.16400431  0.15291418  0.25309402  1
  Cu  Cu114  1  0.82927997  0.17024262  0.74161926  1
  Se  Se115  1  0.08239868  0.07994104  0.06051990  1
  Se  Se116  1  0.07484560  0.07764060  0.56694191  1
  Se  Se117  1  0.07908287  0.41314502  0.05829944  1
  Se  Se118  1  0.09805663  0.43593840  0.54816897  1
  Se  Se119  1  0.07486907  0.73867619  0.05419887  1
  Se  Se120  1  0.07778969  0.75161383  0.54950440  1
  Se  Se121  1  0.41254649  0.07726500  0.05874896  1
  Se  Se122  1  0.41163539  0.08099165  0.54770447  1
  Se  Se123  1  0.42776773  0.42742446  0.05025262  1
  Se  Se124  1  0.41518527  0.42071608  0.55258366  1
  Se  Se125  1  0.41351033  0.74354271  0.07215983  1
  Se  Se126  1  0.40808638  0.73665647  0.54708799  1
  Se  Se127  1  0.75594240  0.08254355  0.06612396  1
  Se  Se128  1  0.74787044  0.07308336  0.54841947  1
  Se  Se129  1  0.75571032  0.42024444  0.04856068  1
  Se  Se130  1  0.73572088  0.40829237  0.54754575  1
  Se  Se131  1  0.73591074  0.74023157  0.06305067  1
  Se  Se132  1  0.75534986  0.75373458  0.55288510  1
  Se  Se133  1  0.26887726  0.26563142  0.05964071  1
  Se  Se134  1  0.25451676  0.25626421  0.56446060  1
  Se  Se135  1  0.25476127  0.58821417  0.06889159  1
  Se  Se136  1  0.26118325  0.60784210  0.53789822  1
  Se  Se137  1  0.25109122  0.91125550  0.05593142  1
  Se  Se138  1  0.24242785  0.91544289  0.55045501  1
  Se  Se139  1  0.59303262  0.26403515  0.05700484  1
  Se  Se140  1  0.55701509  0.22318150  0.55767351  1
  Se  Se141  1  0.57879859  0.58575478  0.05155740  1
  Se  Se142  1  0.59045053  0.58531829  0.55437890  1
  Se  Se143  1  0.58884885  0.92446437  0.05666418  1
  Se  Se144  1  0.57523098  0.90777219  0.55213552  1
  Se  Se145  1  0.92322215  0.25782812  0.06161221  1
  Se  Se146  1  0.91562767  0.24480051  0.55086947  1
  Se  Se147  1  0.90952481  0.59431331  0.05702924  1
  Se  Se148  1  0.90881622  0.58145235  0.54828826  1
  Se  Se149  1  0.93050192  0.92152853  0.05710440  1
  Se  Se150  1  0.91436248  0.91460128  0.55357390  1
  Se  Se151  1  0.07919680  0.25593033  0.44619880  1
  Se  Se152  1  0.07785958  0.25705553  0.93936413  1
  Se  Se153  1  0.08083388  0.58837368  0.44642154  1
  Se  Se154  1  0.07438334  0.58680640  0.93350565  1
  Se  Se155  1  0.08234656  0.91300551  0.45124003  1
  Se  Se156  1  0.08900513  0.90917483  0.94179000  1
  Se  Se157  1  0.41709670  0.24958131  0.44972179  1
  Se  Se158  1  0.41328589  0.25961854  0.93170047  1
  Se  Se159  1  0.44823383  0.55173031  0.44664305  1
  Se  Se160  1  0.41694050  0.58965501  0.95097464  1
  Se  Se161  1  0.41215342  0.91256713  0.44757501  1
  Se  Se162  1  0.41592249  0.92573588  0.93622168  1
  Se  Se163  1  0.74964274  0.24920269  0.45927023  1
  Se  Se164  1  0.74189563  0.25904673  0.93575750  1
  Se  Se165  1  0.75657025  0.58755657  0.44424112  1
  Se  Se166  1  0.74908809  0.58434481  0.93940590  1
  Se  Se167  1  0.75142185  0.91364002  0.44782649  1
  Se  Se168  1  0.75686244  0.91721990  0.94825783  1
  Se  Se169  1  0.24948870  0.07972469  0.43586640  1
  Se  Se170  1  0.25675846  0.08065512  0.93988339  1
  Se  Se171  1  0.24680677  0.41777758  0.45341545  1
  Se  Se172  1  0.25717118  0.41548559  0.93883298  1
  Se  Se173  1  0.25777174  0.73390160  0.45434518  1
  Se  Se174  1  0.25148434  0.74792129  0.95152504  1
  Se  Se175  1  0.57965688  0.07737845  0.44739552  1
  Se  Se176  1  0.59758887  0.07802547  0.94269393  1
  Se  Se177  1  0.61289626  0.40078727  0.45775513  1
  Se  Se178  1  0.57938950  0.42458389  0.93783918  1
  Se  Se179  1  0.58196649  0.74972572  0.45149312  1
  Se  Se180  1  0.59144498  0.75107656  0.93605701  1
  Se  Se181  1  0.91656491  0.08526906  0.45172975  1
  Se  Se182  1  0.93323354  0.07339952  0.94491323  1
  Se  Se183  1  0.93314042  0.41078069  0.45602027  1
  Se  Se184  1  0.91295438  0.42111851  0.94263294  1
  Se  Se185  1  0.90957787  0.75238568  0.44307027  1
  Se  Se186  1  0.91588740  0.74605588  0.92831674  1
  Se  Se187  1  0.24019503  0.23977838  0.31075788  1
  Se  Se188  1  0.24177518  0.24221834  0.80943629  1
  Se  Se189  1  0.25438365  0.58875724  0.31305203  1
  Se  Se190  1  0.23668014  0.57603434  0.80305648  1
  Se  Se191  1  0.25096308  0.91171723  0.30993540  1
  Se  Se192  1  0.25411475  0.91322834  0.79728438  1
  Se  Se193  1  0.57333102  0.24194926  0.31727557  1
  Se  Se194  1  0.58605047  0.25451613  0.78881862  1
  Se  Se195  1  0.58746217  0.58374732  0.31174002  1
  Se  Se196  1  0.58377886  0.58548225  0.79803454  1
  Se  Se197  1  0.57356751  0.89989503  0.31918163  1
  Se  Se198  1  0.57593999  0.90914602  0.80632606  1
  Se  Se199  1  0.90601377  0.25029541  0.32000652  1
  Se  Se200  1  0.91452633  0.24994030  0.79919825  1
  Se  Se201  1  0.92192628  0.58467754  0.30034225  1
  Se  Se202  1  0.91340324  0.58029773  0.79517953  1
  Se  Se203  1  0.91558697  0.92134120  0.30824436  1
  Se  Se204  1  0.91764206  0.91590821  0.79657876  1
  Se  Se205  1  0.07529248  0.07803235  0.30662767  1
  Se  Se206  1  0.08219771  0.08274336  0.79987194  1
  Se  Se207  1  0.08817567  0.42840244  0.31489783  1
  Se  Se208  1  0.07565595  0.41348956  0.79399544  1
  Se  Se209  1  0.07931361  0.75148872  0.30844106  1
  Se  Se210  1  0.08652319  0.74773972  0.79908388  1
  Se  Se211  1  0.41210505  0.07709476  0.30246038  1
  Se  Se212  1  0.42186353  0.08246822  0.78900768  1
  Se  Se213  1  0.42103641  0.42088958  0.32203543  1
  Se  Se214  1  0.41402642  0.42712725  0.80319231  1
  Se  Se215  1  0.41143828  0.74040936  0.31425124  1
  Se  Se216  1  0.42240194  0.75679418  0.80976568  1
  Se  Se217  1  0.75561316  0.09517119  0.31557776  1
  Se  Se218  1  0.75960651  0.08974566  0.81144583  1
  Se  Se219  1  0.76712562  0.42834337  0.31716351  1
  Se  Se220  1  0.74822616  0.41639696  0.79690984  1
  Se  Se221  1  0.74703635  0.74757618  0.30173367  1
  Se  Se222  1  0.74505714  0.74973478  0.79398382  1
  Se  Se223  1  0.25093169  0.07341400  0.20049968  1
  Se  Se224  1  0.25320599  0.08028118  0.69806620  1
  Se  Se225  1  0.24336794  0.42277980  0.19746686  1
  Se  Se226  1  0.24710291  0.42916874  0.68155284  1
  Se  Se227  1  0.25053154  0.74728796  0.20359458  1
  Se  Se228  1  0.24406626  0.75322740  0.68030379  1
  Se  Se229  1  0.58322931  0.08151110  0.19279513  1
  Se  Se230  1  0.58732382  0.08897108  0.67890537  1
  Se  Se231  1  0.58109519  0.42063328  0.19915188  1
  Se  Se232  1  0.58841867  0.41528220  0.69244907  1
  Se  Se233  1  0.57947743  0.74580766  0.20517374  1
  Se  Se234  1  0.57908001  0.74837253  0.69462675  1
  Se  Se235  1  0.90910505  0.09032203  0.20721838  1
  Se  Se236  1  0.91544908  0.08045048  0.69905324  1
  Se  Se237  1  0.91451741  0.42046839  0.19061490  1
  Se  Se238  1  0.91703435  0.41551408  0.68526265  1
  Se  Se239  1  0.91320271  0.75791441  0.19743510  1
  Se  Se240  1  0.92020105  0.74597323  0.69277804  1
  Se  Se241  1  0.08736657  0.24047271  0.19548779  1
  Se  Se242  1  0.08160310  0.25217664  0.69554232  1
  Se  Se243  1  0.08317382  0.58170631  0.19999511  1
  Se  Se244  1  0.07888131  0.58571349  0.68656777  1
  Se  Se245  1  0.08312469  0.91493934  0.19910275  1
  Se  Se246  1  0.08087356  0.91582319  0.69413329  1
  Se  Se247  1  0.42618627  0.24071053  0.19299509  1
  Se  Se248  1  0.42400603  0.25246509  0.68156509  1
  Se  Se249  1  0.41466457  0.57807363  0.20513984  1
  Se  Se250  1  0.42144816  0.57874752  0.68666774  1
  Se  Se251  1  0.41305856  0.91453181  0.20718490  1
  Se  Se252  1  0.41132836  0.91756922  0.68747723  1
  Se  Se253  1  0.75712183  0.24681616  0.20299265  1
  Se  Se254  1  0.74957310  0.25345012  0.68661848  1
  Se  Se255  1  0.73551468  0.58021830  0.20012317  1
  Se  Se256  1  0.74986583  0.58627495  0.69191228  1
  Se  Se257  1  0.74958409  0.91303494  0.19425798  1
  Se  Se258  1  0.75302688  0.91100630  0.68570798  1
