# generated using pymatgen
data_In86Cu29Se144
_symmetry_space_group_name_H-M   'P 1'
_cell_length_a   17.57961751
_cell_length_b   17.58008817
_cell_length_c   23.43976104
_cell_angle_alpha   90.00795403
_cell_angle_beta   89.99168501
_cell_angle_gamma   90.01301367
_symmetry_Int_Tables_number   1
_chemical_formula_structural   In86Cu29Se144
_chemical_formula_sum   'In86 Cu29 Se144'
_cell_volume   7244.08654967
_cell_formula_units_Z   1
loop_
 _symmetry_equiv_pos_site_id
 _symmetry_equiv_pos_as_xyz
  1  'x, y, z'
loop_
 _atom_site_type_symbol
 _atom_site_label
 _atom_site_symmetry_multiplicity
 _atom_site_fract_x
 _atom_site_fract_y
 _atom_site_fract_z
 _atom_site_occupancy
  In  In0  1  -0.00077688  0.16745320  0.11384789  1
  In  In1  1  -0.00206799  0.15576493  0.62264965  1
  In  In2  1  0.01075894  0.49620581  0.13170659  1
  In  In3  1  -0.00168430  0.51196499  0.61728069  1
  In  In4  1  -0.00742725  0.83085517  0.12821409  1
  In  In5  1  0.00908688  0.84085548  0.61719703  1
  In  In6  1  0.32703005  0.15590386  0.11951583  1
  In  In7  1  0.32225064  0.17080224  0.63822884  1
  In  In8  1  0.33462718  0.51736508  0.12536091  1
  In  In9  1  0.34126977  0.48877909  0.61951087  1
  In  In10  1  0.35088490  0.82021854  0.13092171  1
  In  In11  1  0.34399623  0.84303539  0.61541269  1
  In  In12  1  0.67270689  0.17496527  0.11753569  1
  In  In13  1  0.67054219  0.16253825  0.63339653  1
  In  In14  1  0.66757350  0.50025509  0.14163275  1
  In  In15  1  0.65820420  0.50370391  0.61958465  1
  In  In16  1  0.65279647  0.82912680  0.12727599  1
  In  In17  1  0.66104043  0.83727959  0.62556673  1
  In  In18  1  0.17415572  -0.01311616  0.39027372  1
  In  In19  1  0.19730830  0.03938407  0.83727276  1
  In  In20  1  0.15579965  0.32808793  0.37976758  1
  In  In21  1  0.18303418  0.31765865  0.87911651  1
  In  In22  1  0.18249433  0.67719842  0.36750982  1
  In  In23  1  0.16577949  0.66683791  0.88339145  1
  In  In24  1  0.48433071  -0.00122275  0.37656215  1
  In  In25  1  0.50298356  0.00061421  0.87365792  1
  In  In26  1  0.51868599  0.32764777  0.37262485  1
  In  In27  1  0.48595333  0.32529435  0.86495119  1
  In  In28  1  0.49908612  0.66770272  0.38806092  1
  In  In29  1  0.50767573  0.66311296  0.87919451  1
  In  In30  1  0.84298584  0.00391772  0.38375514  1
  In  In31  1  0.84503053  0.00797532  0.86331017  1
  In  In32  1  0.82514098  0.34158234  0.38559500  1
  In  In33  1  0.81459450  0.33415168  0.87033116  1
  In  In34  1  0.81192030  0.63722391  0.35508506  1
  In  In35  1  0.82684676  0.67975612  0.87291106  1
  In  In36  1  0.00157177  0.15685397  0.39245575  1
  In  In37  1  0.00904183  0.16077685  0.87796382  1
  In  In38  1  -0.01530278  0.50096926  0.37573037  1
  In  In39  1  0.00770679  0.51041992  0.87401407  1
  In  In40  1  0.02683953  0.82906084  0.38543002  1
  In  In41  1  -0.00669878  0.84092433  0.87320886  1
  In  In42  1  0.33793443  0.15054916  0.37179026  1
  In  In43  1  0.33908384  0.16889586  0.87265946  1
  In  In44  1  0.33671385  0.52039089  0.38891884  1
  In  In45  1  0.33974178  0.48709772  0.87630248  1
  In  In46  1  0.33322636  0.83164382  0.38503393  1
  In  In47  1  0.33009820  0.84735051  0.87575751  1
  In  In48  1  0.67147814  0.17842108  0.37599853  1
  In  In49  1  0.66478471  0.16726067  0.87451780  1
  In  In50  1  0.67126552  0.49878279  0.38022435  1
  In  In51  1  0.65927704  0.50110359  0.86492162  1
  In  In52  1  0.66174487  0.80709753  0.38403193  1
  In  In53  1  0.65910591  0.82660680  0.86963329  1
  In  In54  1  0.17072935  0.01203656  0.12057649  1
  In  In55  1  0.16657130  0.00628793  0.62851687  1
  In  In56  1  0.16412327  0.33009762  0.11693462  1
  In  In57  1  0.19040329  0.31921623  0.63284736  1
  In  In58  1  0.18275418  0.65998186  0.13365293  1
  In  In59  1  0.15574880  0.67311485  0.61608836  1
  In  In60  1  0.49232715  -0.01419436  0.11601235  1
  In  In61  1  0.50354397  -0.00325037  0.63278805  1
  In  In62  1  0.51171957  0.33637510  0.12606904  1
  In  In63  1  0.48722230  0.34482481  0.62734707  1
  In  In64  1  0.49119722  0.67576770  0.13468219  1
  In  In65  1  0.51099045  0.68562015  0.59890152  1
  In  In66  1  0.82760359  0.00582504  0.12052040  1
  In  In67  1  0.82210921  0.00550674  0.62974001  1
  In  In68  1  0.83665117  0.32950226  0.12682436  1
  In  In69  1  0.82248801  0.32880957  0.62307960  1
  In  In70  1  0.83415239  0.66052723  0.14415237  1
  In  In71  1  0.82628501  0.65277593  0.61345519  1
  In  In72  1  0.34103687  0.33900976  0.25046574  1
  In  In73  1  0.00761605  -0.00222138  0.25212670  1
  In  In74  1  0.33716067  0.66695167  0.74239802  1
  In  In75  1  -0.00732082  0.67382447  0.74309713  1
  In  In76  1  0.83331643  0.49331057  0.00240924  1
  In  In77  1  0.49659047  0.50077037  0.00381479  1
  In  In78  1  -0.00761142  0.33561532  0.25121452  1
  In  In79  1  0.16564311  0.49421970  0.50095428  1
  In  In80  1  0.83042212  0.83777933  0.00111018  1
  In  In81  1  0.49628972  0.17073953  0.50145549  1
  In  In82  1  0.83279182  0.82871929  0.49515825  1
  In  In83  1  0.66270404  -0.00580497  0.24644002  1
  In  In84  1  0.00185956  0.33077346  0.74216370  1
  In  In85  1  0.16712762  0.84308656  -0.00319496  1
  Cu  Cu86  1  0.66148160  0.00036407  0.50655786  1
  Cu  Cu87  1  0.32956263  0.32837909  -0.00401267  1
  Cu  Cu88  1  0.83843906  0.82877545  0.25668740  1
  Cu  Cu89  1  0.66799877  0.00488485  -0.00331312  1
  Cu  Cu90  1  0.50505661  0.50554367  0.74510427  1
  Cu  Cu91  1  0.50374356  0.16582600  0.75102797  1
  Cu  Cu92  1  0.17107915  0.50845675  0.25098386  1
  Cu  Cu93  1  0.49676646  0.82708761  0.25763510  1
  Cu  Cu94  1  0.82325326  0.83341545  0.74516796  1
  Cu  Cu95  1  0.17762826  0.83547493  0.25646676  1
  Cu  Cu96  1  0.00168933  0.32771362  0.50618004  1
  Cu  Cu97  1  0.66456302  0.66695816  0.00231375  1
  Cu  Cu98  1  0.67214043  0.33288210  0.50375409  1
  Cu  Cu99  1  0.16335998  0.83882895  0.74495725  1
  Cu  Cu100  1  -0.00302521  0.66735206  0.49031839  1
  Cu  Cu101  1  0.00849267  0.66073130  0.00623546  1
  Cu  Cu102  1  0.83316408  0.17182662  0.25199796  1
  Cu  Cu103  1  0.65872742  0.32781681  -0.00352369  1
  Cu  Cu104  1  0.50450463  0.50666609  0.25876537  1
  Cu  Cu105  1  0.82133951  0.50351302  0.74344201  1
  Cu  Cu106  1  0.17152256  0.16218240  0.24856834  1
  Cu  Cu107  1  0.50259193  0.16159568  0.25006223  1
  Cu  Cu108  1  -0.00170187  0.33037805  -0.00246508  1
  Cu  Cu109  1  0.82939159  0.16903489  0.74904546  1
  Cu  Cu110  1  0.00684962  0.00875577  -0.01207743  1
  Cu  Cu111  1  0.33537853  0.00381737  -0.00714199  1
  Cu  Cu112  1  0.50063481  0.83059200  0.74581834  1
  Cu  Cu113  1  0.32741071  0.00202868  0.50353834  1
  Cu  Cu114  1  0.17296212  0.49406680  0.75190336  1
  Se  Se115  1  0.08779672  0.08705167  0.04865578  1
  Se  Se116  1  0.08907055  0.08501615  0.55445010  1
  Se  Se117  1  0.07672202  0.41523936  0.05379226  1
  Se  Se118  1  0.08286198  0.40524104  0.56853652  1
  Se  Se119  1  0.08352093  0.75003412  0.06201750  1
  Se  Se120  1  0.07747725  0.75321280  0.54366191  1
  Se  Se121  1  0.41874188  0.08206114  0.05170741  1
  Se  Se122  1  0.41178957  0.07970037  0.56391125  1
  Se  Se123  1  0.40505832  0.40733226  0.06230339  1
  Se  Se124  1  0.41212963  0.40643459  0.54530597  1
  Se  Se125  1  0.42622791  0.74894123  0.05353684  1
  Se  Se126  1  0.39410233  0.73925102  0.54793298  1
  Se  Se127  1  0.75301258  0.08750266  0.04921799  1
  Se  Se128  1  0.74458775  0.08579458  0.55578010  1
  Se  Se129  1  0.73484052  0.41022363  0.06010740  1
  Se  Se130  1  0.75177079  0.42243478  0.55566667  1
  Se  Se131  1  0.75082889  0.74037231  0.06347004  1
  Se  Se132  1  0.73718122  0.74368851  0.55335249  1
  Se  Se133  1  0.24816768  0.24474558  0.05255914  1
  Se  Se134  1  0.26015234  0.24539754  0.55507863  1
  Se  Se135  1  0.24526632  0.58149664  0.05393730  1
  Se  Se136  1  0.25297359  0.58717641  0.55957605  1
  Se  Se137  1  0.26302274  0.92211976  0.06035468  1
  Se  Se138  1  0.24338729  0.91829667  0.55685917  1
  Se  Se139  1  0.57579437  0.24709815  0.05205598  1
  Se  Se140  1  0.58830210  0.25502362  0.56395294  1
  Se  Se141  1  0.59000925  0.58538826  0.06536619  1
  Se  Se142  1  0.56313078  0.56625271  0.54642744  1
  Se  Se143  1  0.59097269  0.91575262  0.05100279  1
  Se  Se144  1  0.57643945  0.91723457  0.55576917  1
  Se  Se145  1  0.91091591  0.25177788  0.05117210  1
  Se  Se146  1  0.91564277  0.24953054  0.56109275  1
  Se  Se147  1  0.91891726  0.58813236  0.06326114  1
  Se  Se148  1  0.91572562  0.58162474  0.54256113  1
  Se  Se149  1  0.93043283  0.93020515  0.05411912  1
  Se  Se150  1  0.91156321  0.92370254  0.55819184  1
  Se  Se151  1  0.08731745  0.24577155  0.45459118  1
  Se  Se152  1  0.08549452  0.24935591  0.94564633  1
  Se  Se153  1  0.08397217  0.58548321  0.43510768  1
  Se  Se154  1  0.08859384  0.57813130  0.95112940  1
  Se  Se155  1  0.05396154  0.94684931  0.44604186  1
  Se  Se156  1  0.08670571  0.92945475  0.92922775  1
  Se  Se157  1  0.41214566  0.25421374  0.43322162  1
  Se  Se158  1  0.41961443  0.24967748  0.94583538  1
  Se  Se159  1  0.43913626  0.56726708  0.45982836  1
  Se  Se160  1  0.40692759  0.59005341  0.94361114  1
  Se  Se161  1  0.41521539  0.91946446  0.45314914  1
  Se  Se162  1  0.42070146  0.91734070  0.94483507  1
  Se  Se163  1  0.75349734  0.24538672  0.45257710  1
  Se  Se164  1  0.74908259  0.24971688  0.94576188  1
  Se  Se165  1  0.75521065  0.58468961  0.44660507  1
  Se  Se166  1  0.74513465  0.58739867  0.94163439  1
  Se  Se167  1  0.73649489  0.92215049  0.43903692  1
  Se  Se168  1  0.74702412  0.92301140  0.93470514  1
  Se  Se169  1  0.25098928  0.08867624  0.44763266  1
  Se  Se170  1  0.24957845  0.08162075  0.93641295  1
  Se  Se171  1  0.25653025  0.40848692  0.43850358  1
  Se  Se172  1  0.24879943  0.41732453  0.94603566  1
  Se  Se173  1  0.23402231  0.76004959  0.44847995  1
  Se  Se174  1  0.26109717  0.74706779  0.94498485  1
  Se  Se175  1  0.58711236  0.07975530  0.43921009  1
  Se  Se176  1  0.58159932  0.08614410  0.94455637  1
  Se  Se177  1  0.58818071  0.41004633  0.44700527  1
  Se  Se178  1  0.58246195  0.41318987  0.93797545  1
  Se  Se179  1  0.56767088  0.76098871  0.45892648  1
  Se  Se180  1  0.58478146  0.75083651  0.94801647  1
  Se  Se181  1  0.89795645  0.09695112  0.45609003  1
  Se  Se182  1  0.91138131  0.08721552  0.94288301  1
  Se  Se183  1  0.92218674  0.41303221  0.45132067  1
  Se  Se184  1  0.92197946  0.41099288  0.93447416  1
  Se  Se185  1  0.91623236  0.74326723  0.42775153  1
  Se  Se186  1  0.92706756  0.74150735  0.94648322  1
  Se  Se187  1  0.24616079  0.24824105  0.30781125  1
  Se  Se188  1  0.25744792  0.25011939  0.80126649  1
  Se  Se189  1  0.26077179  0.58227295  0.30539082  1
  Se  Se190  1  0.24765439  0.58200206  0.80997505  1
  Se  Se191  1  0.25508466  0.91914571  0.31284438  1
  Se  Se192  1  0.25540774  0.91447576  0.79587645  1
  Se  Se193  1  0.58994574  0.24477467  0.29782484  1
  Se  Se194  1  0.58532793  0.25254700  0.80380302  1
  Se  Se195  1  0.58307978  0.58718800  0.31691245  1
  Se  Se196  1  0.58250998  0.59262631  0.79980005  1
  Se  Se197  1  0.57964541  0.90934832  0.31512700  1
  Se  Se198  1  0.58152662  0.91432369  0.80235682  1
  Se  Se199  1  0.91532416  0.24215823  0.31697157  1
  Se  Se200  1  0.91138386  0.24901566  0.80910157  1
  Se  Se201  1  0.92637283  0.58533801  0.29836760  1
  Se  Se202  1  0.90518503  0.57903200  0.80565881  1
  Se  Se203  1  0.91709238  0.91090794  0.31391172  1
  Se  Se204  1  0.91424994  0.91053509  0.79672337  1
  Se  Se205  1  0.09164542  0.08904453  0.31400099  1
  Se  Se206  1  0.06405018  0.07252293  0.80077986  1
  Se  Se207  1  0.09087296  0.42450882  0.30785900  1
  Se  Se208  1  0.08908747  0.41716590  0.81000665  1
  Se  Se209  1  0.08702088  0.75259228  0.30245531  1
  Se  Se210  1  0.08961386  0.75463043  0.80723719  1
  Se  Se211  1  0.41671526  0.07626660  0.29664183  1
  Se  Se212  1  0.42001271  0.08224728  0.80420536  1
  Se  Se213  1  0.42311852  0.42547888  0.31773942  1
  Se  Se214  1  0.41840044  0.42240117  0.79733800  1
  Se  Se215  1  0.41549135  0.74736616  0.31589521  1
  Se  Se216  1  0.42046539  0.75402502  0.81044379  1
  Se  Se217  1  0.75600206  0.08249056  0.30739908  1
  Se  Se218  1  0.74707781  0.08456125  0.80358675  1
  Se  Se219  1  0.74886322  0.41180732  0.30988303  1
  Se  Se220  1  0.74248296  0.41790047  0.79768347  1
  Se  Se221  1  0.74503152  0.75088270  0.30343359  1
  Se  Se222  1  0.74376062  0.74661917  0.79837085  1
  Se  Se223  1  0.25437243  0.07800527  0.19762477  1
  Se  Se224  1  0.25377087  0.07362759  0.70355799  1
  Se  Se225  1  0.24255926  0.41989271  0.19006194  1
  Se  Se226  1  0.25930323  0.41851745  0.69681338  1
  Se  Se227  1  0.25785398  0.75081256  0.20014006  1
  Se  Se228  1  0.24095173  0.75545076  0.68596855  1
  Se  Se229  1  0.57950185  0.08511765  0.18336556  1
  Se  Se230  1  0.58661968  0.07953474  0.70052348  1
  Se  Se231  1  0.57901112  0.41559228  0.20421167  1
  Se  Se232  1  0.58371541  0.41687250  0.69246155  1
  Se  Se233  1  0.58418285  0.74778658  0.20347100  1
  Se  Se234  1  0.57598935  0.74596130  0.68755395  1
  Se  Se235  1  0.91344372  0.08980085  0.19255682  1
  Se  Se236  1  0.91167202  0.08467646  0.69630088  1
  Se  Se237  1  0.90273283  0.43012109  0.19523250  1
  Se  Se238  1  0.91195319  0.42969632  0.68830756  1
  Se  Se239  1  0.92426568  0.74862125  0.20293446  1
  Se  Se240  1  0.90284346  0.75787300  0.67951350  1
  Se  Se241  1  0.08596226  0.24181380  0.19244011  1
  Se  Se242  1  0.09346345  0.23491692  0.69346800  1
  Se  Se243  1  0.08446260  0.58821860  0.19808103  1
  Se  Se244  1  0.09202440  0.57721690  0.69403524  1
  Se  Se245  1  0.09765121  0.90880597  0.18944112  1
  Se  Se246  1  0.07697314  0.91992012  0.69442353  1
  Se  Se247  1  0.42193989  0.24223733  0.18887345  1
  Se  Se248  1  0.42104695  0.24925027  0.69684708  1
  Se  Se249  1  0.41775954  0.58265024  0.20199688  1
  Se  Se250  1  0.42832101  0.58364266  0.68096386  1
  Se  Se251  1  0.42297384  0.91431646  0.19849078  1
  Se  Se252  1  0.41340020  0.91421276  0.69724370  1
  Se  Se253  1  0.75034626  0.24986321  0.19478778  1
  Se  Se254  1  0.74581189  0.25590539  0.70036132  1
  Se  Se255  1  0.74024355  0.59006980  0.20806115  1
  Se  Se256  1  0.74170868  0.58843080  0.68986453  1
  Se  Se257  1  0.76221826  0.90507929  0.19018619  1
  Se  Se258  1  0.73918939  0.92023600  0.69651755  1
