# generated using pymatgen
data_In86Cu29Se144
_symmetry_space_group_name_H-M   'P 1'
_cell_length_a   17.57917914
_cell_length_b   17.58008269
_cell_length_c   23.44225607
_cell_angle_alpha   89.98200318
_cell_angle_beta   90.00032165
_cell_angle_gamma   89.98652988
_symmetry_Int_Tables_number   1
_chemical_formula_structural   In86Cu29Se144
_chemical_formula_sum   'In86 Cu29 Se144'
_cell_volume   7244.67449741
_cell_formula_units_Z   1
loop_
 _symmetry_equiv_pos_site_id
 _symmetry_equiv_pos_as_xyz
  1  'x, y, z'
loop_
 _atom_site_type_symbol
 _atom_site_label
 _atom_site_symmetry_multiplicity
 _atom_site_fract_x
 _atom_site_fract_y
 _atom_site_fract_z
 _atom_site_occupancy
  In  In0  1  -0.02026681  0.16815601  0.12139911  1
  In  In1  1  -0.01566581  0.16945860  0.62814946  1
  In  In2  1  -0.00733563  0.50433818  0.11940789  1
  In  In3  1  0.00833628  0.50636063  0.60934498  1
  In  In4  1  0.00723709  0.82866217  0.12697045  1
  In  In5  1  0.00174859  0.83521729  0.63063187  1
  In  In6  1  0.34830311  0.16836260  0.12192603  1
  In  In7  1  0.34126038  0.17887815  0.62959889  1
  In  In8  1  0.34371446  0.49006973  0.13476752  1
  In  In9  1  0.32645062  0.49539242  0.62112723  1
  In  In10  1  0.31929749  0.83344931  0.12643396  1
  In  In11  1  0.32246952  0.83606652  0.62204852  1
  In  In12  1  0.66837153  0.17040294  0.12645461  1
  In  In13  1  0.67971803  0.15186279  0.62936003  1
  In  In14  1  0.66367072  0.49864753  0.12568156  1
  In  In15  1  0.68013476  0.51033719  0.61365405  1
  In  In16  1  0.67190562  0.83133036  0.13782474  1
  In  In17  1  0.67779047  0.81891569  0.63479450  1
  In  In18  1  0.14775299  -0.00041535  0.37550791  1
  In  In19  1  0.14962937  -0.00295196  0.86808475  1
  In  In20  1  0.17954365  0.33806325  0.37131100  1
  In  In21  1  0.16721972  0.32580273  0.86882724  1
  In  In22  1  0.17042463  0.65872363  0.38376768  1
  In  In23  1  0.16765739  0.67759482  0.87005980  1
  In  In24  1  0.50969143  -0.01317569  0.37473880  1
  In  In25  1  0.52453505  0.00068831  0.87500793  1
  In  In26  1  0.50942205  0.34162389  0.36824790  1
  In  In27  1  0.49514248  0.33874612  0.88375212  1
  In  In28  1  0.49673335  0.66340653  0.37048369  1
  In  In29  1  0.49981032  0.65330817  0.87617842  1
  In  In30  1  0.83581542  -0.00078391  0.37486056  1
  In  In31  1  0.83629956  0.01105543  0.86585010  1
  In  In32  1  0.82370694  0.34289084  0.38748337  1
  In  In33  1  0.83769623  0.33733926  0.88772557  1
  In  In34  1  0.82548115  0.66933082  0.37808092  1
  In  In35  1  0.82458764  0.66136446  0.86719405  1
  In  In36  1  -0.00295305  0.14926424  0.37210763  1
  In  In37  1  -0.00515974  0.16251293  0.87453084  1
  In  In38  1  -0.00615317  0.50169547  0.39178279  1
  In  In39  1  -0.01704441  0.49670991  0.87060997  1
  In  In40  1  -0.01471517  0.84153839  0.38370418  1
  In  In41  1  0.01000389  0.83710574  0.86374960  1
  In  In42  1  0.32875051  0.17701335  0.37150009  1
  In  In43  1  0.33234696  0.18010024  0.87672539  1
  In  In44  1  0.33706144  0.50382920  0.37663832  1
  In  In45  1  0.34657174  0.50643597  0.87731307  1
  In  In46  1  0.33598227  0.81832358  0.37753291  1
  In  In47  1  0.32812581  0.82307574  0.87775569  1
  In  In48  1  0.67210261  0.17494914  0.36851472  1
  In  In49  1  0.67711384  0.15945622  0.88346023  1
  In  In50  1  0.66355699  0.49899442  0.37587406  1
  In  In51  1  0.66644405  0.49886301  0.87944691  1
  In  In52  1  0.68982076  0.84249588  0.35555411  1
  In  In53  1  0.67156204  0.84502865  0.85846087  1
  In  In54  1  0.16561404  -0.01615438  0.12328112  1
  In  In55  1  0.15628502  -0.02007221  0.62549800  1
  In  In56  1  0.16975264  0.34751432  0.12895588  1
  In  In57  1  0.15715900  0.37757062  0.63450612  1
  In  In58  1  0.16102267  0.68104400  0.12657602  1
  In  In59  1  0.15630026  0.65960266  0.62756156  1
  In  In60  1  0.50723502  0.01407513  0.12073760  1
  In  In61  1  0.50443433  0.00072683  0.63049555  1
  In  In62  1  0.50072272  0.33505252  0.12631644  1
  In  In63  1  0.48755184  0.33809306  0.62637032  1
  In  In64  1  0.50883836  0.65490585  0.13120371  1
  In  In65  1  0.52127955  0.66682640  0.62590409  1
  In  In66  1  0.81978452  0.00847969  0.13506720  1
  In  In67  1  0.84106872  -0.00154372  0.62626406  1
  In  In68  1  0.82358544  0.31918854  0.11406852  1
  In  In69  1  0.83959498  0.32996758  0.60928595  1
  In  In70  1  0.83363220  0.65661254  0.12930578  1
  In  In71  1  0.83341690  0.67045889  0.62315331  1
  In  In72  1  0.33428401  0.00087696  0.74791795  1
  In  In73  1  0.50595021  0.16909259  0.50345716  1
  In  In74  1  0.83577039  0.83337041  0.00039051  1
  In  In75  1  -0.00277192  0.33504236  0.74903547  1
  In  In76  1  -0.00200839  0.33154661  0.25024597  1
  In  In77  1  0.33332004  0.66305954  0.74986797  1
  In  In78  1  0.33787495  0.00154305  0.24731371  1
  In  In79  1  0.16112822  0.17437164  0.50238221  1
  In  In80  1  -0.00542248  0.67123446  0.25422931  1
  In  In81  1  0.66930264  0.33229900  0.74643128  1
  In  In82  1  0.16495739  0.50329114  0.00188132  1
  In  In83  1  0.16022251  0.16556994  -0.00840619  1
  In  In84  1  0.50655631  0.82640619  0.49947084  1
  In  In85  1  0.50032418  0.82910444  -0.00473358  1
  Cu  Cu86  1  0.83839953  0.83431804  0.74701522  1
  Cu  Cu87  1  0.50433961  0.49858371  0.75442157  1
  Cu  Cu88  1  0.82375554  0.49218960  0.25161791  1
  Cu  Cu89  1  -0.00455855  -0.00379690  -0.00605970  1
  Cu  Cu90  1  0.33191995  -0.00203699  0.00274087  1
  Cu  Cu91  1  0.32217404  0.00008300  0.50327585  1
  Cu  Cu92  1  0.50339391  0.83023947  0.25063591  1
  Cu  Cu93  1  -0.00170742  0.66994581  -0.00013188  1
  Cu  Cu94  1  0.33162506  0.34398246  0.49984238  1
  Cu  Cu95  1  0.16597367  0.83271539  0.25281220  1
  Cu  Cu96  1  0.16671143  0.16683437  0.25180578  1
  Cu  Cu97  1  0.66092243  0.33559329  0.00333406  1
  Cu  Cu98  1  0.67068184  0.66679304  0.49505030  1
  Cu  Cu99  1  0.67124577  0.00544126  0.00375829  1
  Cu  Cu100  1  0.50411573  0.16974701  0.24501586  1
  Cu  Cu101  1  0.82880192  0.16648186  0.25016326  1
  Cu  Cu102  1  -0.00697704  -0.00688886  0.50096564  1
  Cu  Cu103  1  0.66640226  0.66082234  -0.00293750  1
  Cu  Cu104  1  0.67800310  -0.00686362  0.50038453  1
  Cu  Cu105  1  0.49819058  0.49977177  0.25152273  1
  Cu  Cu106  1  0.33569804  0.33438344  0.00343201  1
  Cu  Cu107  1  0.50475753  0.16938624  0.75300952  1
  Cu  Cu108  1  0.16547610  0.16786162  0.74824168  1
  Cu  Cu109  1  0.33081261  0.66223488  0.50049500  1
  Cu  Cu110  1  -0.00210795  0.67313415  0.50421589  1
  Cu  Cu111  1  0.66240719  0.33338308  0.49617865  1
  Cu  Cu112  1  0.33222130  0.66471638  0.00091620  1
  Cu  Cu113  1  0.17139686  0.50640954  0.25535542  1
  Cu  Cu114  1  0.83349337  0.50544524  0.74351187  1
  Se  Se115  1  0.07730160  0.07512024  0.05753769  1
  Se  Se116  1  0.07651471  0.07545385  0.55917633  1
  Se  Se117  1  0.07340294  0.40732350  0.05610968  1
  Se  Se118  1  0.07343820  0.40076104  0.54822498  1
  Se  Se119  1  0.08335485  0.75395563  0.04984027  1
  Se  Se120  1  0.08346547  0.75143855  0.55951778  1
  Se  Se121  1  0.41847775  0.08313910  0.04870377  1
  Se  Se122  1  0.40837917  0.07644213  0.55914130  1
  Se  Se123  1  0.41791902  0.41907285  0.05581758  1
  Se  Se124  1  0.42005686  0.42333200  0.55182547  1
  Se  Se125  1  0.41245002  0.74591084  0.06226423  1
  Se  Se126  1  0.41254056  0.74119261  0.56196343  1
  Se  Se127  1  0.75415239  0.08873096  0.05645184  1
  Se  Se128  1  0.75753408  0.08016286  0.55337590  1
  Se  Se129  1  0.74716386  0.41865250  0.05507265  1
  Se  Se130  1  0.75054246  0.41521848  0.54783748  1
  Se  Se131  1  0.74267440  0.74347119  0.05875633  1
  Se  Se132  1  0.74846066  0.75181941  0.55231257  1
  Se  Se133  1  0.24941544  0.25382061  0.05857176  1
  Se  Se134  1  0.25507596  0.26119332  0.56096076  1
  Se  Se135  1  0.25434406  0.58797033  0.06654476  1
  Se  Se136  1  0.24600895  0.58412163  0.55683349  1
  Se  Se137  1  0.24742578  0.91118724  0.04878887  1
  Se  Se138  1  0.24045619  0.91129268  0.54971074  1
  Se  Se139  1  0.58103910  0.24933652  0.05766338  1
  Se  Se140  1  0.59299534  0.25658498  0.56751364  1
  Se  Se141  1  0.58242812  0.58167388  0.05306153  1
  Se  Se142  1  0.58511240  0.58488643  0.54755282  1
  Se  Se143  1  0.59272982  0.91575792  0.05831807  1
  Se  Se144  1  0.59175009  0.91971778  0.56080517  1
  Se  Se145  1  0.91863417  0.25262016  0.04622633  1
  Se  Se146  1  0.92174107  0.24181236  0.54590499  1
  Se  Se147  1  0.91269599  0.58797121  0.05086520  1
  Se  Se148  1  0.91101734  0.58560222  0.55142262  1
  Se  Se149  1  0.91970752  0.92403356  0.06362549  1
  Se  Se150  1  0.91453389  0.90803074  0.55685409  1
  Se  Se151  1  0.08012694  0.25276197  0.42934689  1
  Se  Se152  1  0.07001102  0.26347638  0.94037918  1
  Se  Se153  1  0.08211178  0.58580185  0.45379380  1
  Se  Se154  1  0.07751920  0.58948982  0.93801416  1
  Se  Se155  1  0.08280467  0.91322761  0.44995830  1
  Se  Se156  1  0.08130319  0.91378075  0.94394237  1
  Se  Se157  1  0.41251853  0.25731440  0.44371580  1
  Se  Se158  1  0.41724242  0.24788227  0.95123636  1
  Se  Se159  1  0.41995422  0.58648320  0.44636784  1
  Se  Se160  1  0.42088620  0.58236777  0.95388005  1
  Se  Se161  1  0.40963549  0.92243261  0.44515246  1
  Se  Se162  1  0.41294147  0.92457754  0.93637209  1
  Se  Se163  1  0.74568817  0.24430550  0.44877575  1
  Se  Se164  1  0.74756293  0.25436246  0.94983131  1
  Se  Se165  1  0.75196995  0.57674332  0.44522751  1
  Se  Se166  1  0.75497078  0.58166131  0.94498667  1
  Se  Se167  1  0.75357581  0.90962349  0.44180971  1
  Se  Se168  1  0.74548195  0.92265799  0.94037486  1
  Se  Se169  1  0.25172319  0.08143408  0.43877510  1
  Se  Se170  1  0.25333273  0.07310261  0.93552126  1
  Se  Se171  1  0.24724748  0.42407581  0.44513276  1
  Se  Se172  1  0.25391268  0.41039699  0.94108321  1
  Se  Se173  1  0.24926082  0.75061943  0.45028195  1
  Se  Se174  1  0.24676049  0.74635106  0.94951233  1
  Se  Se175  1  0.59212076  0.07412368  0.44375923  1
  Se  Se176  1  0.58353555  0.08681824  0.95257704  1
  Se  Se177  1  0.57796757  0.41836185  0.44712335  1
  Se  Se178  1  0.58076136  0.42158303  0.94919661  1
  Se  Se179  1  0.59578724  0.74962593  0.43165516  1
  Se  Se180  1  0.59675574  0.74739386  0.93454106  1
  Se  Se181  1  0.91465141  0.08156341  0.44832888  1
  Se  Se182  1  0.91222967  0.08287133  0.94531562  1
  Se  Se183  1  0.92099093  0.40677023  0.45383373  1
  Se  Se184  1  0.91552420  0.42740441  0.95167599  1
  Se  Se185  1  0.91050131  0.74789894  0.44773241  1
  Se  Se186  1  0.92032979  0.74687189  0.93488650  1
  Se  Se187  1  0.25198742  0.25385357  0.29714026  1
  Se  Se188  1  0.25218382  0.24906022  0.79911339  1
  Se  Se189  1  0.25361041  0.59000262  0.30798846  1
  Se  Se190  1  0.24512722  0.57253246  0.81055994  1
  Se  Se191  1  0.24899557  0.91499852  0.31190902  1
  Se  Se192  1  0.24535377  0.90986259  0.80729260  1
  Se  Se193  1  0.58539585  0.25305904  0.30067184  1
  Se  Se194  1  0.58257459  0.25000204  0.81469131  1
  Se  Se195  1  0.58378310  0.58157444  0.30441543  1
  Se  Se196  1  0.58911760  0.58109944  0.80606480  1
  Se  Se197  1  0.58712381  0.91879607  0.29752172  1
  Se  Se198  1  0.57346251  0.91428207  0.79587213  1
  Se  Se199  1  0.90770020  0.24637485  0.31269326  1
  Se  Se200  1  0.90428463  0.24902460  0.80906528  1
  Se  Se201  1  0.91106857  0.56960121  0.30951412  1
  Se  Se202  1  0.91682812  0.58684870  0.79865523  1
  Se  Se203  1  0.92565303  0.92431379  0.30610210  1
  Se  Se204  1  0.91693116  0.91921600  0.80340830  1
  Se  Se205  1  0.08171554  0.07956411  0.29710960  1
  Se  Se206  1  0.07836654  0.08950242  0.80075861  1
  Se  Se207  1  0.08253762  0.42851453  0.31081354  1
  Se  Se208  1  0.08915505  0.42532744  0.80799936  1
  Se  Se209  1  0.08696823  0.75504612  0.31644123  1
  Se  Se210  1  0.08104362  0.74341599  0.79743780  1
  Se  Se211  1  0.42791214  0.09020304  0.31135868  1
  Se  Se212  1  0.42209930  0.08912909  0.81256250  1
  Se  Se213  1  0.41361982  0.41712256  0.30553790  1
  Se  Se214  1  0.41977784  0.41737890  0.80748776  1
  Se  Se215  1  0.41578520  0.74974295  0.30127958  1
  Se  Se216  1  0.42482954  0.75309616  0.81018871  1
  Se  Se217  1  0.74886688  0.08104435  0.30558524  1
  Se  Se218  1  0.73476169  0.07762288  0.80364802  1
  Se  Se219  1  0.74475504  0.40939661  0.30827514  1
  Se  Se220  1  0.76042659  0.42107227  0.80690690  1
  Se  Se221  1  0.75108307  0.73467243  0.29734886  1
  Se  Se222  1  0.75134205  0.75109227  0.79805069  1
  Se  Se223  1  0.24507914  0.08878254  0.18577233  1
  Se  Se224  1  0.24299078  0.08826948  0.68507612  1
  Se  Se225  1  0.25097792  0.41762356  0.20352618  1
  Se  Se226  1  0.26962093  0.40718775  0.69874336  1
  Se  Se227  1  0.24896709  0.74851339  0.20068832  1
  Se  Se228  1  0.24128294  0.75439878  0.69384909  1
  Se  Se229  1  0.58796381  0.08293582  0.19639766  1
  Se  Se230  1  0.58391230  0.08568725  0.69806663  1
  Se  Se231  1  0.58191736  0.41692451  0.19662297  1
  Se  Se232  1  0.58318384  0.42637036  0.68712275  1
  Se  Se233  1  0.58533119  0.74403818  0.19891447  1
  Se  Se234  1  0.58011796  0.75343198  0.70123088  1
  Se  Se235  1  0.91628191  0.08553460  0.19857625  1
  Se  Se236  1  0.91882540  0.08065510  0.69868807  1
  Se  Se237  1  0.90793441  0.41966297  0.18866397  1
  Se  Se238  1  0.91016469  0.42200983  0.68400462  1
  Se  Se239  1  0.90559335  0.76002272  0.19319781  1
  Se  Se240  1  0.91811472  0.74583543  0.69522016  1
  Se  Se241  1  0.08773552  0.24289018  0.18651151  1
  Se  Se242  1  0.09161231  0.25134672  0.68502560  1
  Se  Se243  1  0.08573694  0.57805711  0.19270623  1
  Se  Se244  1  0.09011049  0.55911447  0.69129911  1
  Se  Se245  1  0.08283606  0.91441472  0.19863521  1
  Se  Se246  1  0.07941663  0.91670500  0.70400778  1
  Se  Se247  1  0.41544361  0.25210536  0.19670060  1
  Se  Se248  1  0.42075521  0.25466401  0.70336117  1
  Se  Se249  1  0.41423819  0.58654303  0.20004161  1
  Se  Se250  1  0.42725426  0.57754770  0.68910216  1
  Se  Se251  1  0.42687090  0.91092153  0.18561080  1
  Se  Se252  1  0.42122621  0.90390746  0.69087713  1
  Se  Se253  1  0.75019285  0.25442167  0.19658336  1
  Se  Se254  1  0.76520839  0.24708760  0.68972185  1
  Se  Se255  1  0.74653135  0.58058450  0.19732235  1
  Se  Se256  1  0.74666777  0.58839008  0.69302640  1
  Se  Se257  1  0.75037022  0.91726571  0.20287481  1
  Se  Se258  1  0.75262656  0.91769540  0.69488776  1
