# generated using pymatgen
data_In86Cu29Se144
_symmetry_space_group_name_H-M   'P 1'
_cell_length_a   17.58615898
_cell_length_b   17.58523763
_cell_length_c   23.44178988
_cell_angle_alpha   89.99474354
_cell_angle_beta   90.01351244
_cell_angle_gamma   89.98835402
_symmetry_Int_Tables_number   1
_chemical_formula_structural   In86Cu29Se144
_chemical_formula_sum   'In86 Cu29 Se144'
_cell_volume   7249.53218403
_cell_formula_units_Z   1
loop_
 _symmetry_equiv_pos_site_id
 _symmetry_equiv_pos_as_xyz
  1  'x, y, z'
loop_
 _atom_site_type_symbol
 _atom_site_label
 _atom_site_symmetry_multiplicity
 _atom_site_fract_x
 _atom_site_fract_y
 _atom_site_fract_z
 _atom_site_occupancy
  In  In0  1  0.00003857  0.16787462  0.13865175  1
  In  In1  1  -0.00832039  0.15173323  0.61585128  1
  In  In2  1  0.00140000  0.48293525  0.12714031  1
  In  In3  1  0.02437350  0.50178253  0.62741752  1
  In  In4  1  -0.00284626  0.84763449  0.12915147  1
  In  In5  1  0.00250911  0.83365084  0.62476560  1
  In  In6  1  0.35030409  0.15627002  0.14581999  1
  In  In7  1  0.33254413  0.16775076  0.61947550  1
  In  In8  1  0.32767156  0.49893316  0.12910003  1
  In  In9  1  0.31301259  0.50295080  0.63718434  1
  In  In10  1  0.34348566  0.82423427  0.13992837  1
  In  In11  1  0.32225130  0.84446731  0.62882299  1
  In  In12  1  0.66443487  0.15167169  0.13503768  1
  In  In13  1  0.67505033  0.17277609  0.61859132  1
  In  In14  1  0.66591138  0.49633883  0.12604265  1
  In  In15  1  0.65358859  0.49016829  0.62452468  1
  In  In16  1  0.67267782  0.84493381  0.11764418  1
  In  In17  1  0.67752469  0.82858383  0.61795713  1
  In  In18  1  0.16505451  0.00181598  0.37828566  1
  In  In19  1  0.16819239  0.00548302  0.86193033  1
  In  In20  1  0.16646994  0.33534703  0.38367147  1
  In  In21  1  0.17994330  0.33175786  0.87366991  1
  In  In22  1  0.17654554  0.66117078  0.38421601  1
  In  In23  1  0.15837061  0.65577754  0.86436850  1
  In  In24  1  0.50960369  0.01367026  0.35740153  1
  In  In25  1  0.49085723  -0.00001515  0.87577526  1
  In  In26  1  0.47885561  0.30264545  0.35299519  1
  In  In27  1  0.49919662  0.32419708  0.86723017  1
  In  In28  1  0.48514789  0.68080343  0.36698280  1
  In  In29  1  0.50240654  0.68168515  0.87558037  1
  In  In30  1  0.83144090  0.00584759  0.37571944  1
  In  In31  1  0.82910103  -0.01256017  0.87415305  1
  In  In32  1  0.81709365  0.32063167  0.36677483  1
  In  In33  1  0.82988061  0.33977223  0.86868705  1
  In  In34  1  0.84576578  0.66719140  0.37859160  1
  In  In35  1  0.84620090  0.67590681  0.87195713  1
  In  In36  1  0.00019662  0.16518950  0.37976179  1
  In  In37  1  0.01021075  0.16741495  0.86578052  1
  In  In38  1  0.00991052  0.50530246  0.37909909  1
  In  In39  1  -0.00039624  0.51380119  0.87021903  1
  In  In40  1  -0.01014288  0.84698680  0.38334206  1
  In  In41  1  -0.00039900  0.83288643  0.87107161  1
  In  In42  1  0.33111368  0.16343558  0.37784867  1
  In  In43  1  0.33968547  0.16079168  0.86013990  1
  In  In44  1  0.32602287  0.49207709  0.37248561  1
  In  In45  1  0.32065400  0.49189839  0.86855490  1
  In  In46  1  0.33263681  0.82753121  0.36476547  1
  In  In47  1  0.33484079  0.83614885  0.86749714  1
  In  In48  1  0.66483673  0.16615104  0.37699086  1
  In  In49  1  0.65558733  0.16337930  0.86980817  1
  In  In50  1  0.66295536  0.47196661  0.36978787  1
  In  In51  1  0.67231648  0.49058183  0.87089362  1
  In  In52  1  0.66097433  0.86108746  0.36791225  1
  In  In53  1  0.66791318  0.84240201  0.88957334  1
  In  In54  1  0.16599061  -0.00059127  0.13617572  1
  In  In55  1  0.16687569  -0.00493018  0.61863362  1
  In  In56  1  0.16402619  0.33496712  0.13304406  1
  In  In57  1  0.17869262  0.34108720  0.61486650  1
  In  In58  1  0.18313577  0.66515378  0.12312716  1
  In  In59  1  0.16428374  0.66789232  0.62842653  1
  In  In60  1  0.51531135  -0.02056197  0.15639818  1
  In  In61  1  0.48470062  0.00448776  0.62558674  1
  In  In62  1  0.50831971  0.31793131  0.14324812  1
  In  In63  1  0.49786007  0.31827740  0.63097006  1
  In  In64  1  0.48587041  0.67020305  0.12484333  1
  In  In65  1  0.49236385  0.65326951  0.62650235  1
  In  In66  1  0.83531306  -0.00135177  0.12899422  1
  In  In67  1  0.84778955  0.01303211  0.61707541  1
  In  In68  1  0.83781158  0.33464841  0.14227116  1
  In  In69  1  0.83312997  0.31379767  0.62355905  1
  In  In70  1  0.82553174  0.67282906  0.12235430  1
  In  In71  1  0.83652178  0.68211069  0.62122869  1
  In  In72  1  0.00622972  0.66315023  0.25683619  1
  In  In73  1  0.49592844  0.49652962  0.50241369  1
  In  In74  1  0.49376942  0.50159650  0.00631025  1
  In  In75  1  0.83554272  0.16487813  0.00821880  1
  In  In76  1  0.00385882  0.33232239  0.74104769  1
  In  In77  1  0.66821593  0.66124082  0.24818028  1
  In  In78  1  0.49673650  0.84147175  0.49301231  1
  In  In79  1  0.16629696  0.83186414  -0.00018748  1
  In  In80  1  0.66437446  0.66207667  0.75194760  1
  In  In81  1  0.17453392  0.16776942  0.00276359  1
  In  In82  1  0.83830054  0.49730533  0.49663509  1
  In  In83  1  0.83455709  0.50989185  -0.00372736  1
  In  In84  1  0.49979089  0.15681648  0.00042058  1
  In  In85  1  0.66799207  0.00574352  0.74872921  1
  Cu  Cu86  1  0.67420691  0.67247402  0.49141757  1
  Cu  Cu87  1  0.16416030  0.83628634  0.25437842  1
  Cu  Cu88  1  0.66796256  0.33177010  0.00108420  1
  Cu  Cu89  1  0.48844542  0.49005899  0.74810093  1
  Cu  Cu90  1  0.00417830  0.67012340  -0.00596346  1
  Cu  Cu91  1  0.50165206  0.50095422  0.24551110  1
  Cu  Cu92  1  0.33134211  0.33239909  0.00363709  1
  Cu  Cu93  1  0.00144340  -0.00595680  0.49864636  1
  Cu  Cu94  1  0.49726362  0.83299807  0.74821366  1
  Cu  Cu95  1  0.33625872  0.33185901  0.49770770  1
  Cu  Cu96  1  0.33130169  0.00353284  0.49719746  1
  Cu  Cu97  1  0.83181720  0.15599682  0.25518207  1
  Cu  Cu98  1  0.00069296  0.32826313  0.50210241  1
  Cu  Cu99  1  0.83181012  0.49762359  0.74704198  1
  Cu  Cu100  1  0.16604396  0.15946638  0.73927152  1
  Cu  Cu101  1  0.66599744  0.68081568  -0.00063767  1
  Cu  Cu102  1  -0.00362999  0.00068849  0.00206192  1
  Cu  Cu103  1  0.32960336  0.67046245  0.50354359  1
  Cu  Cu104  1  0.66753180  0.00328502  0.49569520  1
  Cu  Cu105  1  0.33510012  -0.00765898  0.00047626  1
  Cu  Cu106  1  0.33545503  0.66974233  0.00036988  1
  Cu  Cu107  1  0.66262368  0.32192309  0.49746261  1
  Cu  Cu108  1  0.16177060  0.17353931  0.26190321  1
  Cu  Cu109  1  0.00778726  0.67165608  0.50115827  1
  Cu  Cu110  1  0.84077889  0.83541793  0.74841602  1
  Cu  Cu111  1  0.16625806  0.83381478  0.74690132  1
  Cu  Cu112  1  0.00847745  0.34202151  0.00600765  1
  Cu  Cu113  1  0.82913444  0.83753675  0.25308653  1
  Cu  Cu114  1  0.17286185  0.50002143  0.25603249  1
  Se  Se115  1  0.07745478  0.08085606  0.06106081  1
  Se  Se116  1  0.08553559  0.07988540  0.54932793  1
  Se  Se117  1  0.09630511  0.42124306  0.05605727  1
  Se  Se118  1  0.08406050  0.41710334  0.54915803  1
  Se  Se119  1  0.07619354  0.74511899  0.06421395  1
  Se  Se120  1  0.08963066  0.75401317  0.55618029  1
  Se  Se121  1  0.40962622  0.07378515  0.06268958  1
  Se  Se122  1  0.41731226  0.08533403  0.54882023  1
  Se  Se123  1  0.41857701  0.40088238  0.06642044  1
  Se  Se124  1  0.40610355  0.41391003  0.56571855  1
  Se  Se125  1  0.41208889  0.75723823  0.05439116  1
  Se  Se126  1  0.41572624  0.74870164  0.56016635  1
  Se  Se127  1  0.73945315  0.07273360  0.05743119  1
  Se  Se128  1  0.75146822  0.08369297  0.55100973  1
  Se  Se129  1  0.75348080  0.41009766  0.05738004  1
  Se  Se130  1  0.74125581  0.40943905  0.55445105  1
  Se  Se131  1  0.75575127  0.75825398  0.05064659  1
  Se  Se132  1  0.75777260  0.75405274  0.54408874  1
  Se  Se133  1  0.26235150  0.24870333  0.06883271  1
  Se  Se134  1  0.24941789  0.24743568  0.54744236  1
  Se  Se135  1  0.25653156  0.58018498  0.05143495  1
  Se  Se136  1  0.25000797  0.58562684  0.55808857  1
  Se  Se137  1  0.25197790  0.91968776  0.06295575  1
  Se  Se138  1  0.25159113  0.91382883  0.54760761  1
  Se  Se139  1  0.59020620  0.25062426  0.06028142  1
  Se  Se140  1  0.57694176  0.24591072  0.55437398  1
  Se  Se141  1  0.59244729  0.59425127  0.05875079  1
  Se  Se142  1  0.59421312  0.59449846  0.55305073  1
  Se  Se143  1  0.57086824  0.92409011  0.06450151  1
  Se  Se144  1  0.58899853  0.92405102  0.55927452  1
  Se  Se145  1  0.92682974  0.26146780  0.06297087  1
  Se  Se146  1  0.91357240  0.24346765  0.54865633  1
  Se  Se147  1  0.92800125  0.59097641  0.06086079  1
  Se  Se148  1  0.92529755  0.58763321  0.55981106  1
  Se  Se149  1  0.91415120  0.91784059  0.05484040  1
  Se  Se150  1  0.91656978  0.91286631  0.55395288  1
  Se  Se151  1  0.08544229  0.24602901  0.44901252  1
  Se  Se152  1  0.07930498  0.25637787  0.94357890  1
  Se  Se153  1  0.08897621  0.58258229  0.45224850  1
  Se  Se154  1  0.08480289  0.58245968  0.94480340  1
  Se  Se155  1  0.08942617  0.91211868  0.44864664  1
  Se  Se156  1  0.08302503  0.92965312  0.94034844  1
  Se  Se157  1  0.41941857  0.24797688  0.44517202  1
  Se  Se158  1  0.40776522  0.25052531  0.94175859  1
  Se  Se159  1  0.41137304  0.59281266  0.44201639  1
  Se  Se160  1  0.41288326  0.58831678  0.93822637  1
  Se  Se161  1  0.41110350  0.92967555  0.43101665  1
  Se  Se162  1  0.41479567  0.91093695  0.94351603  1
  Se  Se163  1  0.75341946  0.24312922  0.44812260  1
  Se  Se164  1  0.74796333  0.25289439  0.94094023  1
  Se  Se165  1  0.74197724  0.58003857  0.43393557  1
  Se  Se166  1  0.73943334  0.59790815  0.93574638  1
  Se  Se167  1  0.74979624  0.91700386  0.44442341  1
  Se  Se168  1  0.75830434  0.91836786  0.95359977  1
  Se  Se169  1  0.24426657  0.08742371  0.44818008  1
  Se  Se170  1  0.25980858  0.07642469  0.93913812  1
  Se  Se171  1  0.25156762  0.42135990  0.45138134  1
  Se  Se172  1  0.25064723  0.41487902  0.94890352  1
  Se  Se173  1  0.25641990  0.75690859  0.44497289  1
  Se  Se174  1  0.25184851  0.74310241  0.93695186  1
  Se  Se175  1  0.57883029  0.08017532  0.44220865  1
  Se  Se176  1  0.59430356  0.06787181  0.94306427  1
  Se  Se177  1  0.57561975  0.39992133  0.44187239  1
  Se  Se178  1  0.58537893  0.41156053  0.94396997  1
  Se  Se179  1  0.58885737  0.74916710  0.43391949  1
  Se  Se180  1  0.57538179  0.76002414  0.95083073  1
  Se  Se181  1  0.91683325  0.08029219  0.44794290  1
  Se  Se182  1  0.92529832  0.08510570  0.93904172  1
  Se  Se183  1  0.92193412  0.40457100  0.43639447  1
  Se  Se184  1  0.92459409  0.41224303  0.94092698  1
  Se  Se185  1  0.91831865  0.75065359  0.45028835  1
  Se  Se186  1  0.91942294  0.75641198  0.94644320  1
  Se  Se187  1  0.24833590  0.25471931  0.31296049  1
  Se  Se188  1  0.24268940  0.23999937  0.80145600  1
  Se  Se189  1  0.25398661  0.58878227  0.30639522  1
  Se  Se190  1  0.25916172  0.59086359  0.80231639  1
  Se  Se191  1  0.24744690  0.92106915  0.30619158  1
  Se  Se192  1  0.25143172  0.91809197  0.79916657  1
  Se  Se193  1  0.61089048  0.27486442  0.31232356  1
  Se  Se194  1  0.59002071  0.25353910  0.80057379  1
  Se  Se195  1  0.57641838  0.57738850  0.31308553  1
  Se  Se196  1  0.57003301  0.57072419  0.81002468  1
  Se  Se197  1  0.56366285  0.90441013  0.29445832  1
  Se  Se198  1  0.58298329  0.90708371  0.80771335  1
  Se  Se199  1  0.91422163  0.24180087  0.30752572  1
  Se  Se200  1  0.91140895  0.24724245  0.80418994  1
  Se  Se201  1  0.90943972  0.57117289  0.30752854  1
  Se  Se202  1  0.91091568  0.58483439  0.79942276  1
  Se  Se203  1  0.91406880  0.91992652  0.30610243  1
  Se  Se204  1  0.92016032  0.92066417  0.80318863  1
  Se  Se205  1  0.07981693  0.08209198  0.30836924  1
  Se  Se206  1  0.07914116  0.08075082  0.79348834  1
  Se  Se207  1  0.08819122  0.42023437  0.31052132  1
  Se  Se208  1  0.08588590  0.41775398  0.80990852  1
  Se  Se209  1  0.08746823  0.75665542  0.31853074  1
  Se  Se210  1  0.08209403  0.75222188  0.80248980  1
  Se  Se211  1  0.41888166  0.10030801  0.30130049  1
  Se  Se212  1  0.43229500  0.08401092  0.79854504  1
  Se  Se213  1  0.42019110  0.42249027  0.30495689  1
  Se  Se214  1  0.40963059  0.40763534  0.80587472  1
  Se  Se215  1  0.41723761  0.75683457  0.29027808  1
  Se  Se216  1  0.41650449  0.74716973  0.80083456  1
  Se  Se217  1  0.74060859  0.07773354  0.30546942  1
  Se  Se218  1  0.76172505  0.09148827  0.80936122  1
  Se  Se219  1  0.75906772  0.42106899  0.29840962  1
  Se  Se220  1  0.74635116  0.41333641  0.79544630  1
  Se  Se221  1  0.75331595  0.75311715  0.31307898  1
  Se  Se222  1  0.75063124  0.76157280  0.80755170  1
  Se  Se223  1  0.23944071  0.09253122  0.20158859  1
  Se  Se224  1  0.25197259  0.07751257  0.68687190  1
  Se  Se225  1  0.25222902  0.41444804  0.20054505  1
  Se  Se226  1  0.23902702  0.40876334  0.70074144  1
  Se  Se227  1  0.24434035  0.74913001  0.20091794  1
  Se  Se228  1  0.25232059  0.75048351  0.69593486  1
  Se  Se229  1  0.55906860  0.10529269  0.20221839  1
  Se  Se230  1  0.57910793  0.09022055  0.68612149  1
  Se  Se231  1  0.59014069  0.41728639  0.19867243  1
  Se  Se232  1  0.57740633  0.41159234  0.69640604  1
  Se  Se233  1  0.58588480  0.75033111  0.18442181  1
  Se  Se234  1  0.57860212  0.75463951  0.68697878  1
  Se  Se235  1  0.91814487  0.07719512  0.19990242  1
  Se  Se236  1  0.91262592  0.08962798  0.69627590  1
  Se  Se237  1  0.92727307  0.41394172  0.20474668  1
  Se  Se238  1  0.91068420  0.42365837  0.68138950  1
  Se  Se239  1  0.91105645  0.75353878  0.19665781  1
  Se  Se240  1  0.92068308  0.74837921  0.69616477  1
  Se  Se241  1  0.08072219  0.25541293  0.20331287  1
  Se  Se242  1  0.08849820  0.24161281  0.67847112  1
  Se  Se243  1  0.09326611  0.57728718  0.19087784  1
  Se  Se244  1  0.08916472  0.58451169  0.70191320  1
  Se  Se245  1  0.07858992  0.91901774  0.20315512  1
  Se  Se246  1  0.08413264  0.91839639  0.69288254  1
  Se  Se247  1  0.40436637  0.26491373  0.20793028  1
  Se  Se248  1  0.39670599  0.25585231  0.69483708  1
  Se  Se249  1  0.41494523  0.58231403  0.19466924  1
  Se  Se250  1  0.41071488  0.58148844  0.69893594  1
  Se  Se251  1  0.38367255  0.94354265  0.19503881  1
  Se  Se252  1  0.41431169  0.91781394  0.69714057  1
  Se  Se253  1  0.75290056  0.23866313  0.19595704  1
  Se  Se254  1  0.74301502  0.25366540  0.69590199  1
  Se  Se255  1  0.76496830  0.57224787  0.19143751  1
  Se  Se256  1  0.75290525  0.57829786  0.68390487  1
  Se  Se257  1  0.74719808  0.91868764  0.19666180  1
  Se  Se258  1  0.75797998  0.91345319  0.68839446  1
