# generated using pymatgen
data_In86Cu29Se144
_symmetry_space_group_name_H-M   'P 1'
_cell_length_a   17.57155963
_cell_length_b   17.57288109
_cell_length_c   23.43663744
_cell_angle_alpha   90.00583500
_cell_angle_beta   89.99527236
_cell_angle_gamma   90.00313814
_symmetry_Int_Tables_number   1
_chemical_formula_structural   In86Cu29Se144
_chemical_formula_sum   'In86 Cu29 Se144'
_cell_volume   7236.83345740
_cell_formula_units_Z   1
loop_
 _symmetry_equiv_pos_site_id
 _symmetry_equiv_pos_as_xyz
  1  'x, y, z'
loop_
 _atom_site_type_symbol
 _atom_site_label
 _atom_site_symmetry_multiplicity
 _atom_site_fract_x
 _atom_site_fract_y
 _atom_site_fract_z
 _atom_site_occupancy
  In  In0  1  -0.00021128  0.16673589  0.14240056  1
  In  In1  1  -0.00903219  0.16374152  0.60947918  1
  In  In2  1  -0.00379581  0.49624917  0.12061278  1
  In  In3  1  -0.00355253  0.49222756  0.62823931  1
  In  In4  1  0.00250305  0.83638074  0.12534813  1
  In  In5  1  0.00193004  0.84375523  0.61884736  1
  In  In6  1  0.33557015  0.16198481  0.12339732  1
  In  In7  1  0.33113015  0.16798851  0.62150302  1
  In  In8  1  0.35449902  0.51718384  0.11050785  1
  In  In9  1  0.34224165  0.49344704  0.63853793  1
  In  In10  1  0.33531302  0.83678154  0.12695290  1
  In  In11  1  0.34415258  0.82822215  0.63165917  1
  In  In12  1  0.65459346  0.16453510  0.13000562  1
  In  In13  1  0.66983906  0.17730973  0.60476034  1
  In  In14  1  0.66204504  0.49348554  0.11838592  1
  In  In15  1  0.64547405  0.49935531  0.62369631  1
  In  In16  1  0.66564915  0.83636388  0.12623975  1
  In  In17  1  0.66245015  0.83909097  0.60936122  1
  In  In18  1  0.17820364  0.00618370  0.36910134  1
  In  In19  1  0.17444520  -0.01430654  0.88255561  1
  In  In20  1  0.15448543  0.33117443  0.36997332  1
  In  In21  1  0.18959886  0.33000368  0.88136939  1
  In  In22  1  0.17335343  0.66006833  0.37156881  1
  In  In23  1  0.17792747  0.65665930  0.88558719  1
  In  In24  1  0.50076784  0.00071660  0.37363686  1
  In  In25  1  0.49100932  0.01101776  0.88275838  1
  In  In26  1  0.51388448  0.32760977  0.39340321  1
  In  In27  1  0.49740419  0.32988976  0.87737056  1
  In  In28  1  0.49982777  0.67088215  0.37641444  1
  In  In29  1  0.49124131  0.67617547  0.88286177  1
  In  In30  1  0.83121362  0.00268972  0.36557025  1
  In  In31  1  0.82478045  -0.00206917  0.87913869  1
  In  In32  1  0.82145860  0.28223061  0.36442713  1
  In  In33  1  0.83613883  0.34046997  0.87255505  1
  In  In34  1  0.83736008  0.69033118  0.37767267  1
  In  In35  1  0.82963330  0.66723966  0.88533891  1
  In  In36  1  0.00400183  0.16555419  0.37039887  1
  In  In37  1  -0.00275894  0.16572617  0.87271537  1
  In  In38  1  0.00967158  0.49617805  0.37190081  1
  In  In39  1  -0.00482433  0.50614184  0.88640582  1
  In  In40  1  -0.02862834  0.83798502  0.37726219  1
  In  In41  1  0.00528796  0.82560199  0.88794876  1
  In  In42  1  0.34689865  0.15572085  0.38557357  1
  In  In43  1  0.35013651  0.17900571  0.85985280  1
  In  In44  1  0.34489796  0.51292799  0.36696682  1
  In  In45  1  0.33644922  0.50041898  0.88010459  1
  In  In46  1  0.35842482  0.84510778  0.34963287  1
  In  In47  1  0.33786337  0.83375381  0.87647400  1
  In  In48  1  0.68192469  0.14112083  0.41215403  1
  In  In49  1  0.64739336  0.16310115  0.87244407  1
  In  In50  1  0.66214650  0.48417041  0.37801377  1
  In  In51  1  0.67137575  0.49069892  0.88141449  1
  In  In52  1  0.64705764  0.86507688  0.39366738  1
  In  In53  1  0.66677788  0.83109106  0.88524269  1
  In  In54  1  0.17734946  -0.00897278  0.13343926  1
  In  In55  1  0.16669643  0.01042198  0.62087513  1
  In  In56  1  0.16503652  0.33303980  0.12119696  1
  In  In57  1  0.17687775  0.34007335  0.62453676  1
  In  In58  1  0.17971986  0.67982395  0.11738559  1
  In  In59  1  0.18133733  0.67676452  0.62788519  1
  In  In60  1  0.49573020  -0.00461003  0.12876029  1
  In  In61  1  0.49710278  -0.00610175  0.61101149  1
  In  In62  1  0.50046786  0.33629869  0.11477337  1
  In  In63  1  0.49621867  0.33434679  0.62309119  1
  In  In64  1  0.48863303  0.66242760  0.12802294  1
  In  In65  1  0.49199797  0.66190711  0.62007241  1
  In  In66  1  0.84421442  -0.00559428  0.14206692  1
  In  In67  1  0.82018514  0.00124495  0.60686534  1
  In  In68  1  0.82777653  0.34113703  0.12739851  1
  In  In69  1  0.82760059  0.32055814  0.61770870  1
  In  In70  1  0.82629509  0.66308429  0.12124086  1
  In  In71  1  0.82468402  0.66858683  0.62019027  1
  In  In72  1  0.00670063  0.66241450  0.75159801  1
  In  In73  1  0.16683121  0.82888852  0.49447715  1
  In  In74  1  0.65741403  0.66561471  0.74862789  1
  In  In75  1  0.82906606  0.16492204  0.00816153  1
  In  In76  1  0.65817206  0.66786018  0.24674073  1
  In  In77  1  0.66279479  0.32429758  0.24914766  1
  In  In78  1  0.65585480  0.00213746  0.73705923  1
  In  In79  1  0.00472975  0.00169578  0.74469683  1
  In  In80  1  0.33488895  0.33524561  0.24972200  1
  In  In81  1  0.01234045  0.33140272  0.75337222  1
  In  In82  1  0.83692938  0.50268293  0.49426756  1
  In  In83  1  0.17302798  0.16447504  0.00785494  1
  In  In84  1  0.17223872  0.49834009  0.49434934  1
  In  In85  1  0.00417116  0.67031293  0.25335582  1
  Cu  Cu86  1  0.81856995  0.16667627  0.73752832  1
  Cu  Cu87  1  0.16466597  0.83544280  0.24651367  1
  Cu  Cu88  1  0.82246469  0.49042459  0.75539599  1
  Cu  Cu89  1  0.17404628  0.16468455  0.74515851  1
  Cu  Cu90  1  -0.00168036  -0.00777298  0.01171515  1
  Cu  Cu91  1  0.33282177  0.67097856  0.00011356  1
  Cu  Cu92  1  0.00148904  0.33727434  0.00039479  1
  Cu  Cu93  1  0.49424831  0.17300396  0.74465621  1
  Cu  Cu94  1  0.49950002  0.84088587  0.75221550  1
  Cu  Cu95  1  0.16953589  0.16577926  0.25031494  1
  Cu  Cu96  1  0.16991550  0.50171292  0.24411788  1
  Cu  Cu97  1  0.66642230  0.33091680  -0.00052757  1
  Cu  Cu98  1  0.33227964  -0.00417816  0.49390244  1
  Cu  Cu99  1  0.83911170  0.49282299  0.25123511  1
  Cu  Cu100  1  -0.00554234  0.32780484  0.49027757  1
  Cu  Cu101  1  0.82388749  0.84029330  0.25018726  1
  Cu  Cu102  1  0.49453118  0.49736211  0.75411019  1
  Cu  Cu103  1  0.50205279  0.15911648  0.25677424  1
  Cu  Cu104  1  0.66503204  -0.00883076  0.00378761  1
  Cu  Cu105  1  0.33946343  0.66915236  0.49737896  1
  Cu  Cu106  1  -0.00626573  0.67004526  0.00718953  1
  Cu  Cu107  1  0.66681278  0.67400950  0.49750833  1
  Cu  Cu108  1  0.33629316  -0.00196497  0.00364275  1
  Cu  Cu109  1  0.18436552  0.83076134  0.75573077  1
  Cu  Cu110  1  0.83857145  0.83529399  0.75143884  1
  Cu  Cu111  1  0.66040042  0.66557638  0.00391071  1
  Cu  Cu112  1  -0.00598744  0.00206446  0.49264953  1
  Cu  Cu113  1  0.33002795  0.33530514  0.50437187  1
  Cu  Cu114  1  0.17775258  0.50163036  0.75951179  1
  Se  Se115  1  0.07714980  0.07878243  0.06669077  1
  Se  Se116  1  0.08071923  0.07995775  0.54801930  1
  Se  Se117  1  0.08594919  0.41906389  0.05265528  1
  Se  Se118  1  0.07343377  0.40823394  0.55303367  1
  Se  Se119  1  0.08157587  0.75405112  0.05513812  1
  Se  Se120  1  0.08028543  0.73936057  0.56020875  1
  Se  Se121  1  0.42026177  0.08223778  0.05535555  1
  Se  Se122  1  0.40897829  0.08217202  0.55105298  1
  Se  Se123  1  0.41846227  0.41607123  0.04709280  1
  Se  Se124  1  0.41054013  0.42288277  0.55689216  1
  Se  Se125  1  0.41536255  0.75144757  0.05717345  1
  Se  Se126  1  0.41918060  0.75587642  0.55282428  1
  Se  Se127  1  0.74374188  0.07134973  0.06590636  1
  Se  Se128  1  0.74766271  0.08810520  0.53826391  1
  Se  Se129  1  0.75134383  0.41507408  0.05087595  1
  Se  Se130  1  0.74695401  0.42224313  0.56031922  1
  Se  Se131  1  0.74441797  0.74956183  0.05663670  1
  Se  Se132  1  0.75426360  0.75455929  0.54900679  1
  Se  Se133  1  0.26654474  0.26256193  0.05478897  1
  Se  Se134  1  0.24336710  0.25083294  0.55314707  1
  Se  Se135  1  0.24814621  0.58386868  0.05068172  1
  Se  Se136  1  0.26069240  0.58724873  0.55825453  1
  Se  Se137  1  0.24892041  0.91595662  0.05487573  1
  Se  Se138  1  0.25443943  0.91645905  0.55870603  1
  Se  Se139  1  0.58665553  0.24623710  0.05374425  1
  Se  Se140  1  0.57443307  0.25819202  0.54841842  1
  Se  Se141  1  0.57760390  0.58383280  0.05836649  1
  Se  Se142  1  0.58370634  0.59047024  0.55081431  1
  Se  Se143  1  0.57732774  0.91285465  0.05700479  1
  Se  Se144  1  0.59569996  0.93274349  0.54274854  1
  Se  Se145  1  0.92657491  0.25406460  0.06192484  1
  Se  Se146  1  0.90749324  0.24716422  0.54290585  1
  Se  Se147  1  0.91110764  0.58064122  0.05474063  1
  Se  Se148  1  0.92713791  0.58846935  0.56075060  1
  Se  Se149  1  0.90760280  0.91439011  0.06143927  1
  Se  Se150  1  0.91602935  0.91700753  0.54934581  1
  Se  Se151  1  0.08647223  0.24625831  0.44434394  1
  Se  Se152  1  0.07866860  0.25194127  0.94165537  1
  Se  Se153  1  0.07652305  0.59259915  0.44383286  1
  Se  Se154  1  0.07848637  0.59013741  0.95122465  1
  Se  Se155  1  0.07834452  0.92149508  0.43513443  1
  Se  Se156  1  0.08346657  0.91694178  0.95261705  1
  Se  Se157  1  0.41427230  0.25136502  0.45273909  1
  Se  Se158  1  0.42090395  0.23735885  0.94332578  1
  Se  Se159  1  0.42123436  0.58180324  0.44616597  1
  Se  Se160  1  0.41805974  0.58473537  0.95017447  1
  Se  Se161  1  0.41315576  0.91191638  0.43912365  1
  Se  Se162  1  0.41968973  0.91506682  0.94808842  1
  Se  Se163  1  0.72967519  0.27311633  0.44750674  1
  Se  Se164  1  0.74611045  0.24909272  0.93785912  1
  Se  Se165  1  0.74424369  0.59399289  0.43483559  1
  Se  Se166  1  0.74515506  0.58255624  0.94934722  1
  Se  Se167  1  0.78088116  0.89345686  0.43129347  1
  Se  Se168  1  0.75444434  0.91301465  0.95121677  1
  Se  Se169  1  0.24600691  0.08348244  0.44848481  1
  Se  Se170  1  0.26026220  0.08189479  0.94080136  1
  Se  Se171  1  0.26006240  0.41026526  0.43223803  1
  Se  Se172  1  0.24065841  0.43126459  0.94821362  1
  Se  Se173  1  0.26285518  0.74781320  0.43413804  1
  Se  Se174  1  0.25026176  0.75638047  0.94676011  1
  Se  Se175  1  0.55559410  0.09311413  0.45044117  1
  Se  Se176  1  0.58664500  0.08016603  0.95072569  1
  Se  Se177  1  0.58057107  0.42820818  0.45755185  1
  Se  Se178  1  0.58085871  0.41359289  0.94698913  1
  Se  Se179  1  0.57812537  0.75495865  0.44723177  1
  Se  Se180  1  0.57959320  0.75263377  0.95155925  1
  Se  Se181  1  0.91468815  0.08555822  0.43669599  1
  Se  Se182  1  0.92540321  0.07519410  0.94676967  1
  Se  Se183  1  0.91608263  0.40834845  0.43035244  1
  Se  Se184  1  0.91161875  0.41536569  0.94835084  1
  Se  Se185  1  0.93092737  0.74055486  0.45293941  1
  Se  Se186  1  0.91013673  0.75329277  0.95214132  1
  Se  Se187  1  0.25168439  0.24194304  0.31265207  1
  Se  Se188  1  0.25050640  0.25328765  0.79878748  1
  Se  Se189  1  0.25232449  0.58368401  0.29797953  1
  Se  Se190  1  0.25904516  0.58941552  0.80840456  1
  Se  Se191  1  0.25096599  0.91890860  0.29777762  1
  Se  Se192  1  0.25969454  0.92292175  0.80600374  1
  Se  Se193  1  0.58033374  0.23924483  0.31667829  1
  Se  Se194  1  0.57901215  0.25122849  0.80163748  1
  Se  Se195  1  0.58026627  0.57136898  0.30974327  1
  Se  Se196  1  0.57613838  0.57734190  0.81482595  1
  Se  Se197  1  0.58169496  0.91660061  0.30468642  1
  Se  Se198  1  0.58304373  0.91554813  0.81243796  1
  Se  Se199  1  0.93785049  0.26358788  0.30211030  1
  Se  Se200  1  0.90603124  0.23831569  0.80033499  1
  Se  Se201  1  0.90816333  0.58166744  0.31162157  1
  Se  Se202  1  0.90485606  0.57712006  0.80843007  1
  Se  Se203  1  0.91787871  0.92080099  0.29571190  1
  Se  Se204  1  0.91808761  0.91335025  0.81163915  1
  Se  Se205  1  0.08619775  0.08041937  0.30175972  1
  Se  Se206  1  0.09493366  0.08820260  0.80928353  1
  Se  Se207  1  0.08601057  0.41948907  0.29672829  1
  Se  Se208  1  0.08961755  0.42652538  0.81734923  1
  Se  Se209  1  0.08760058  0.76344327  0.31518211  1
  Se  Se210  1  0.09360218  0.75503815  0.81138000  1
  Se  Se211  1  0.41022542  0.07904241  0.30409341  1
  Se  Se212  1  0.42230568  0.07879875  0.79826602  1
  Se  Se213  1  0.43071020  0.41018154  0.31479510  1
  Se  Se214  1  0.41308375  0.41405745  0.80914382  1
  Se  Se215  1  0.40902424  0.72588537  0.29948518  1
  Se  Se216  1  0.42064702  0.75276493  0.80460515  1
  Se  Se217  1  0.74405962  0.10325068  0.31689003  1
  Se  Se218  1  0.75042836  0.08459452  0.80404074  1
  Se  Se219  1  0.75936248  0.41128428  0.31032700  1
  Se  Se220  1  0.73930764  0.40572918  0.80460530  1
  Se  Se221  1  0.74333502  0.75946595  0.30856541  1
  Se  Se222  1  0.75477229  0.75456502  0.80738160  1
  Se  Se223  1  0.25476305  0.08613478  0.19599435  1
  Se  Se224  1  0.25441475  0.07877583  0.69284449  1
  Se  Se225  1  0.25282963  0.42461429  0.18442491  1
  Se  Se226  1  0.25067504  0.41287471  0.70251583  1
  Se  Se227  1  0.25055184  0.75187434  0.19665497  1
  Se  Se228  1  0.26395055  0.74455268  0.70258336  1
  Se  Se229  1  0.58193087  0.07660446  0.19943066  1
  Se  Se230  1  0.57346140  0.09789199  0.67884635  1
  Se  Se231  1  0.57478103  0.41993801  0.19298321  1
  Se  Se232  1  0.57653091  0.41609389  0.69765842  1
  Se  Se233  1  0.56723848  0.76096263  0.19311560  1
  Se  Se234  1  0.57820931  0.76332175  0.68752098  1
  Se  Se235  1  0.91249012  0.08971876  0.20748258  1
  Se  Se236  1  0.90438401  0.08416741  0.68492402  1
  Se  Se237  1  0.92120262  0.41381963  0.19467910  1
  Se  Se238  1  0.90713813  0.41278444  0.69639031  1
  Se  Se239  1  0.90468689  0.75256265  0.19439120  1
  Se  Se240  1  0.91606986  0.75440353  0.69051967  1
  Se  Se241  1  0.09233287  0.25533720  0.19785747  1
  Se  Se242  1  0.08562136  0.23731993  0.68466620  1
  Se  Se243  1  0.08847390  0.58502455  0.18616896  1
  Se  Se244  1  0.09764712  0.57114852  0.69100586  1
  Se  Se245  1  0.07819019  0.91946697  0.19737261  1
  Se  Se246  1  0.09977230  0.90476384  0.69329997  1
  Se  Se247  1  0.42932865  0.24365363  0.19274317  1
  Se  Se248  1  0.40859083  0.25476420  0.69159124  1
  Se  Se249  1  0.41513840  0.57613174  0.19942586  1
  Se  Se250  1  0.41988173  0.58943707  0.70059804  1
  Se  Se251  1  0.40240967  0.92774873  0.19845400  1
  Se  Se252  1  0.42307754  0.92389648  0.69264502  1
  Se  Se253  1  0.75992942  0.23781677  0.19152087  1
  Se  Se254  1  0.73684710  0.25219793  0.68837373  1
  Se  Se255  1  0.75344848  0.56967645  0.19420532  1
  Se  Se256  1  0.75302865  0.57430797  0.69150592  1
  Se  Se257  1  0.73837310  0.92254203  0.19901099  1
  Se  Se258  1  0.75706307  0.90944923  0.68801005  1
