# generated using pymatgen
data_In86Cu29Se144
_symmetry_space_group_name_H-M   'P 1'
_cell_length_a   17.59119781
_cell_length_b   17.58700544
_cell_length_c   23.44751510
_cell_angle_alpha   90.00500637
_cell_angle_beta   89.99124103
_cell_angle_gamma   90.00011510
_symmetry_Int_Tables_number   1
_chemical_formula_structural   In86Cu29Se144
_chemical_formula_sum   'In86 Cu29 Se144'
_cell_volume   7254.10984714
_cell_formula_units_Z   1
loop_
 _symmetry_equiv_pos_site_id
 _symmetry_equiv_pos_as_xyz
  1  'x, y, z'
loop_
 _atom_site_type_symbol
 _atom_site_label
 _atom_site_symmetry_multiplicity
 _atom_site_fract_x
 _atom_site_fract_y
 _atom_site_fract_z
 _atom_site_occupancy
  In  In0  1  -0.03313985  0.12349446  0.07259251  1
  In  In1  1  -0.00082145  0.16186241  0.63015558  1
  In  In2  1  0.00790738  0.50184215  0.12650499  1
  In  In3  1  -0.01552697  0.50180113  0.62148605  1
  In  In4  1  -0.00327906  0.84228608  0.12604558  1
  In  In5  1  0.01225668  0.82821576  0.62351012  1
  In  In6  1  0.33127120  0.16107954  0.12039929  1
  In  In7  1  0.31547081  0.16099363  0.62600191  1
  In  In8  1  0.34329272  0.49610315  0.12469469  1
  In  In9  1  0.33546593  0.50192421  0.62554473  1
  In  In10  1  0.33224173  0.83914118  0.12750885  1
  In  In11  1  0.33433022  0.83763749  0.62019763  1
  In  In12  1  0.64876031  0.15365259  0.11897860  1
  In  In13  1  0.67836944  0.16763604  0.62727638  1
  In  In14  1  0.66032253  0.51106030  0.12805668  1
  In  In15  1  0.66899914  0.48198820  0.62751195  1
  In  In16  1  0.66616119  0.83468496  0.12812655  1
  In  In17  1  0.66240376  0.84627397  0.62125319  1
  In  In18  1  0.16203341  -0.00384591  0.37511563  1
  In  In19  1  0.16981780  0.00100871  0.87974474  1
  In  In20  1  0.15476775  0.32813430  0.37879885  1
  In  In21  1  0.14747884  0.31791207  0.87416058  1
  In  In22  1  0.18153226  0.68037204  0.36172674  1
  In  In23  1  0.17537097  0.67204036  0.87798210  1
  In  In24  1  0.48233832  -0.00936542  0.35772736  1
  In  In25  1  0.48966577  0.00871449  0.88378721  1
  In  In26  1  0.50804483  0.33017956  0.37378068  1
  In  In27  1  0.50959927  0.32512969  0.87996119  1
  In  In28  1  0.50955475  0.67582757  0.36585746  1
  In  In29  1  0.49972165  0.67415285  0.88557779  1
  In  In30  1  0.84597843  0.00275772  0.36921532  1
  In  In31  1  0.83679455  0.00089683  0.88498618  1
  In  In32  1  0.83854279  0.32328540  0.38528699  1
  In  In33  1  0.83230154  0.32655988  0.87661135  1
  In  In34  1  0.82569944  0.66278398  0.36733794  1
  In  In35  1  0.84338692  0.67541521  0.88103278  1
  In  In36  1  0.00179337  0.15591212  0.38194939  1
  In  In37  1  0.00585433  0.16314574  0.88301479  1
  In  In38  1  -0.01205456  0.49900398  0.37595634  1
  In  In39  1  0.01134720  0.49734819  0.87164364  1
  In  In40  1  0.00831745  0.84131454  0.36673507  1
  In  In41  1  -0.00954732  0.85460082  0.89690629  1
  In  In42  1  0.32602057  0.13809959  0.36701969  1
  In  In43  1  0.35504657  0.15363390  0.88447519  1
  In  In44  1  0.32460985  0.50495782  0.37169614  1
  In  In45  1  0.33970491  0.49890462  0.88084410  1
  In  In46  1  0.33297392  0.83787996  0.37107220  1
  In  In47  1  0.31951272  0.84902441  0.88817065  1
  In  In48  1  0.67852188  0.16592685  0.36864632  1
  In  In49  1  0.65394725  0.18156001  0.88361947  1
  In  In50  1  0.66671509  0.51181512  0.37506789  1
  In  In51  1  0.66409440  0.48772318  0.87126730  1
  In  In52  1  0.65689873  0.82614840  0.36805230  1
  In  In53  1  0.66157932  0.84517209  0.88867470  1
  In  In54  1  0.16389894  0.00995835  0.12081248  1
  In  In55  1  0.16143388  -0.00510833  0.62723727  1
  In  In56  1  0.16117427  0.31125542  0.11211226  1
  In  In57  1  0.16822491  0.31068261  0.62834820  1
  In  In58  1  0.15416262  0.68413898  0.13699763  1
  In  In59  1  0.15698218  0.68406306  0.61845934  1
  In  In60  1  0.50440966  0.00156039  0.12944709  1
  In  In61  1  0.50163593  -0.01342486  0.62307142  1
  In  In62  1  0.47359644  0.32390013  0.09668263  1
  In  In63  1  0.51222157  0.33746226  0.63802622  1
  In  In64  1  0.49740492  0.66890894  0.12566978  1
  In  In65  1  0.49059907  0.67208748  0.62274713  1
  In  In66  1  0.83006060  -0.00499413  0.12670638  1
  In  In67  1  0.82770651  0.01494049  0.62763797  1
  In  In68  1  0.84194423  0.31328845  0.11700454  1
  In  In69  1  0.83676090  0.32951597  0.62840717  1
  In  In70  1  0.82380936  0.67655893  0.13592455  1
  In  In71  1  0.85490229  0.65872647  0.61568539  1
  In  In72  1  0.32877730  0.33221020  0.23667750  1
  In  In73  1  0.33597680  0.66224841  0.74866751  1
  In  In74  1  0.67117228  0.66505997  0.75240232  1
  In  In75  1  0.00295183  0.33186148  0.24380422  1
  In  In76  1  0.50225894  0.50505288  0.50767413  1
  In  In77  1  0.00738286  0.66627894  0.74583289  1
  In  In78  1  0.49742386  0.16034967  0.49474601  1
  In  In79  1  0.66133607  0.01160611  0.75502482  1
  In  In80  1  0.16136213  0.50467515  0.50131232  1
  In  In81  1  0.82663974  0.50276584  -0.00471118  1
  In  In82  1  0.66435840  0.33651203  0.24424352  1
  In  In83  1  0.17123378  0.50347560  0.00375247  1
  In  In84  1  0.83688628  0.83424664  0.49336584  1
  In  In85  1  0.34083251  0.31935657  0.76268295  1
  Cu  Cu86  1  0.48923489  0.83493527  0.75054741  1
  Cu  Cu87  1  0.83584520  0.83631471  0.25109456  1
  Cu  Cu88  1  0.33599369  0.67880691  0.49276046  1
  Cu  Cu89  1  0.49775613  0.49918828  0.24570891  1
  Cu  Cu90  1  0.83900395  0.84193835  0.75910843  1
  Cu  Cu91  1  0.33247724  0.67306235  0.00716978  1
  Cu  Cu92  1  0.67425102  0.66861007  0.49392506  1
  Cu  Cu93  1  0.67661366  0.33045954  0.50445806  1
  Cu  Cu94  1  0.17013186  0.84724938  0.24567398  1
  Cu  Cu95  1  -0.00446368  0.67454184  0.00833581  1
  Cu  Cu96  1  0.84046384  0.15865597  0.24213357  1
  Cu  Cu97  1  0.33840329  -0.00549849  0.00629062  1
  Cu  Cu98  1  0.66807665  0.33403167  -0.00134821  1
  Cu  Cu99  1  0.16571573  0.48586322  0.74741988  1
  Cu  Cu100  1  0.16472219  0.16237055  0.24808741  1
  Cu  Cu101  1  -0.00125531  0.32371537  0.50533317  1
  Cu  Cu102  1  0.49896314  0.83309049  0.24423373  1
  Cu  Cu103  1  0.66119328  -0.00058271  0.49627988  1
  Cu  Cu104  1  0.16274861  0.84045438  0.75763751  1
  Cu  Cu105  1  0.83448791  0.49182741  0.74874029  1
  Cu  Cu106  1  0.82918856  0.50008485  0.25152652  1
  Cu  Cu107  1  0.83860620  0.17025034  0.75367897  1
  Cu  Cu108  1  0.33337361  0.32137470  0.50189330  1
  Cu  Cu109  1  -0.00338688  0.00440983  0.50078625  1
  Cu  Cu110  1  0.66387207  0.67309633  0.00851457  1
  Cu  Cu111  1  0.66937574  0.00036578  0.00562161  1
  Cu  Cu112  1  0.32276989  -0.00670180  0.49659926  1
  Cu  Cu113  1  0.15886086  0.15304536  0.75304367  1
  Cu  Cu114  1  0.16898787  0.51073717  0.24620284  1
  Se  Se115  1  0.11301991  0.11586833  0.05077255  1
  Se  Se116  1  0.08141070  0.08159920  0.55881577  1
  Se  Se117  1  0.07325716  0.40904455  0.05330732  1
  Se  Se118  1  0.08167964  0.40571206  0.56347495  1
  Se  Se119  1  0.08227487  0.75652723  0.05798836  1
  Se  Se120  1  0.07097921  0.74624665  0.54464638  1
  Se  Se121  1  0.42240141  0.08128344  0.05602997  1
  Se  Se122  1  0.40607681  0.07319209  0.55723420  1
  Se  Se123  1  0.41408784  0.43480816  0.04122743  1
  Se  Se124  1  0.41232297  0.40239326  0.56001686  1
  Se  Se125  1  0.41712956  0.75640171  0.05849905  1
  Se  Se126  1  0.41964257  0.75650422  0.55092010  1
  Se  Se127  1  0.75112590  0.08574474  0.05764702  1
  Se  Se128  1  0.74291778  0.08084071  0.55166581  1
  Se  Se129  1  0.74485431  0.41234334  0.06310586  1
  Se  Se130  1  0.75847817  0.41602586  0.55607420  1
  Se  Se131  1  0.75267470  0.75334612  0.05803564  1
  Se  Se132  1  0.74877144  0.74660620  0.56142103  1
  Se  Se133  1  0.28384411  0.27626602  0.05985413  1
  Se  Se134  1  0.24411504  0.24046154  0.54939828  1
  Se  Se135  1  0.25003859  0.59656785  0.06847245  1
  Se  Se136  1  0.26028929  0.59725107  0.55716050  1
  Se  Se137  1  0.24723612  0.91799706  0.05758953  1
  Se  Se138  1  0.24163434  0.91224310  0.55471320  1
  Se  Se139  1  0.58266364  0.24843981  0.04883659  1
  Se  Se140  1  0.58451937  0.25404720  0.55771112  1
  Se  Se141  1  0.57948320  0.58472132  0.05426553  1
  Se  Se142  1  0.59839005  0.59392607  0.56402600  1
  Se  Se143  1  0.58449088  0.91737116  0.05836432  1
  Se  Se144  1  0.57858676  0.91268968  0.54576480  1
  Se  Se145  1  0.92456595  0.25904148  0.03895695  1
  Se  Se146  1  0.91468517  0.24221708  0.55966375  1
  Se  Se147  1  0.91561977  0.58743173  0.06228481  1
  Se  Se148  1  0.93359666  0.58724830  0.54155901  1
  Se  Se149  1  0.92476765  0.93007932  0.05504504  1
  Se  Se150  1  0.91656040  0.92315685  0.56239735  1
  Se  Se151  1  0.08240144  0.24359635  0.44961878  1
  Se  Se152  1  0.10243792  0.22795652  0.95509303  1
  Se  Se153  1  0.08934365  0.58820106  0.42778228  1
  Se  Se154  1  0.07446089  0.59552773  0.94515459  1
  Se  Se155  1  0.07672689  0.91887509  0.44655341  1
  Se  Se156  1  0.10452673  0.90646448  0.95082261  1
  Se  Se157  1  0.40686645  0.24965733  0.43284065  1
  Se  Se158  1  0.41137425  0.26165510  0.94607146  1
  Se  Se159  1  0.41445533  0.58847055  0.43994440  1
  Se  Se160  1  0.41080419  0.59070054  0.94880324  1
  Se  Se161  1  0.41524717  0.92128703  0.44178064  1
  Se  Se162  1  0.42325986  0.91174532  0.95169677  1
  Se  Se163  1  0.74909811  0.24132758  0.44847358  1
  Se  Se164  1  0.75322484  0.24835319  0.94992400  1
  Se  Se165  1  0.75601770  0.58077229  0.44593119  1
  Se  Se166  1  0.73606329  0.59673689  0.93771672  1
  Se  Se167  1  0.74308150  0.92110062  0.43471915  1
  Se  Se168  1  0.75525802  0.91720045  0.95386595  1
  Se  Se169  1  0.24252258  0.08227496  0.44638535  1
  Se  Se170  1  0.26071096  0.07837893  0.94809650  1
  Se  Se171  1  0.25609580  0.40952341  0.44421980  1
  Se  Se172  1  0.24363105  0.41018555  0.93516362  1
  Se  Se173  1  0.24756829  0.75773700  0.44209592  1
  Se  Se174  1  0.24660088  0.75209353  0.95266778  1
  Se  Se175  1  0.58459540  0.07546411  0.43036565  1
  Se  Se176  1  0.58683183  0.08106103  0.94778080  1
  Se  Se177  1  0.59243211  0.41133446  0.44639700  1
  Se  Se178  1  0.58420498  0.41955268  0.94799462  1
  Se  Se179  1  0.58380872  0.74778583  0.44547549  1
  Se  Se180  1  0.58104773  0.75696391  0.95360637  1
  Se  Se181  1  0.90790420  0.08406178  0.44967828  1
  Se  Se182  1  0.92190900  0.08110765  0.95414346  1
  Se  Se183  1  0.92192435  0.41042576  0.44924769  1
  Se  Se184  1  0.92479251  0.41698990  0.94078452  1
  Se  Se185  1  0.92155909  0.74672064  0.43064171  1
  Se  Se186  1  0.91021352  0.75735532  0.95643427  1
  Se  Se187  1  0.24193053  0.24832879  0.30680165  1
  Se  Se188  1  0.24294113  0.23062586  0.81402423  1
  Se  Se189  1  0.25976074  0.58810340  0.29587677  1
  Se  Se190  1  0.24088194  0.57052003  0.80704398  1
  Se  Se191  1  0.25279358  0.92609586  0.30375914  1
  Se  Se192  1  0.25320564  0.92050621  0.80608740  1
  Se  Se193  1  0.57772427  0.24017144  0.30276205  1
  Se  Se194  1  0.58236879  0.24979183  0.80290957  1
  Se  Se195  1  0.58270799  0.57936373  0.30064131  1
  Se  Se196  1  0.57528401  0.58421149  0.81182764  1
  Se  Se197  1  0.58342352  0.91563090  0.29903197  1
  Se  Se198  1  0.57562737  0.91147817  0.80969881  1
  Se  Se199  1  0.91329254  0.24246678  0.30661240  1
  Se  Se200  1  0.92303211  0.24649534  0.81242354  1
  Se  Se201  1  0.91659972  0.58155099  0.30184378  1
  Se  Se202  1  0.91076370  0.57876798  0.80759030  1
  Se  Se203  1  0.92394499  0.92175550  0.29757066  1
  Se  Se204  1  0.92112899  0.92217898  0.81291069  1
  Se  Se205  1  0.08095258  0.08400691  0.30615091  1
  Se  Se206  1  0.07729712  0.07340596  0.81065124  1
  Se  Se207  1  0.09154882  0.42564979  0.30612513  1
  Se  Se208  1  0.07974090  0.40781126  0.80061345  1
  Se  Se209  1  0.08874179  0.75733246  0.29723089  1
  Se  Se210  1  0.08279331  0.75621015  0.81501627  1
  Se  Se211  1  0.42165104  0.09363770  0.29324922  1
  Se  Se212  1  0.42391856  0.08303912  0.80350486  1
  Se  Se213  1  0.41990411  0.41812214  0.30794066  1
  Se  Se214  1  0.42645484  0.42334311  0.80983258  1
  Se  Se215  1  0.41649502  0.75257567  0.30287138  1
  Se  Se216  1  0.41286670  0.75697050  0.81370565  1
  Se  Se217  1  0.75781095  0.08088655  0.30058950  1
  Se  Se218  1  0.75540357  0.09438859  0.81606624  1
  Se  Se219  1  0.75697705  0.41459532  0.31300274  1
  Se  Se220  1  0.75363644  0.41198235  0.80563876  1
  Se  Se221  1  0.74843058  0.75117119  0.30048355  1
  Se  Se222  1  0.75422007  0.76183409  0.81395164  1
  Se  Se223  1  0.25240520  0.08415765  0.19413876  1
  Se  Se224  1  0.24586087  0.07512957  0.69843240  1
  Se  Se225  1  0.23223368  0.42201042  0.18236404  1
  Se  Se226  1  0.25379354  0.41031441  0.69168898  1
  Se  Se227  1  0.25299519  0.75527388  0.19964575  1
  Se  Se228  1  0.24034199  0.75615372  0.69632610  1
  Se  Se229  1  0.58928986  0.07882611  0.20069459  1
  Se  Se230  1  0.57374643  0.09054917  0.68642421  1
  Se  Se231  1  0.56731203  0.41433892  0.18233718  1
  Se  Se232  1  0.58949906  0.42060653  0.70592625  1
  Se  Se233  1  0.58411354  0.74704395  0.19541791  1
  Se  Se234  1  0.57707948  0.75887153  0.69345865  1
  Se  Se235  1  0.92441092  0.09064471  0.17790002  1
  Se  Se236  1  0.91514472  0.08037631  0.70111579  1
  Se  Se237  1  0.90401276  0.42040200  0.18739589  1
  Se  Se238  1  0.92277097  0.41344595  0.69646506  1
  Se  Se239  1  0.91989703  0.75377810  0.19698077  1
  Se  Se240  1  0.90754211  0.75769059  0.69348593  1
  Se  Se241  1  0.08146582  0.23426882  0.18584844  1
  Se  Se242  1  0.08151972  0.24432179  0.70166042  1
  Se  Se243  1  0.07504775  0.58844737  0.19949717  1
  Se  Se244  1  0.09655955  0.57368624  0.68472177  1
  Se  Se245  1  0.08378411  0.92677112  0.19201721  1
  Se  Se246  1  0.07693653  0.91415334  0.69851041  1
  Se  Se247  1  0.42922480  0.24596267  0.18748647  1
  Se  Se248  1  0.41910371  0.23921466  0.68715713  1
  Se  Se249  1  0.41370974  0.58440863  0.19558247  1
  Se  Se250  1  0.43289273  0.57023052  0.69479692  1
  Se  Se251  1  0.41525111  0.92118530  0.19682930  1
  Se  Se252  1  0.41091404  0.91785860  0.69415489  1
  Se  Se253  1  0.75414696  0.24044449  0.18897004  1
  Se  Se254  1  0.75215921  0.25035561  0.69965826  1
  Se  Se255  1  0.74488416  0.58372407  0.20016688  1
  Se  Se256  1  0.76408264  0.58082415  0.68854151  1
  Se  Se257  1  0.74843708  0.91705514  0.19881543  1
  Se  Se258  1  0.75266653  0.91412029  0.69717168  1
