# generated using pymatgen
data_In86Cu29Se144
_symmetry_space_group_name_H-M   'P 1'
_cell_length_a   17.61469775
_cell_length_b   17.61243253
_cell_length_c   23.47009723
_cell_angle_alpha   89.95786864
_cell_angle_beta   89.99507981
_cell_angle_gamma   89.99733001
_symmetry_Int_Tables_number   1
_chemical_formula_structural   In86Cu29Se144
_chemical_formula_sum   'In86 Cu29 Se144'
_cell_volume   7281.30641067
_cell_formula_units_Z   1
loop_
 _symmetry_equiv_pos_site_id
 _symmetry_equiv_pos_as_xyz
  1  'x, y, z'
loop_
 _atom_site_type_symbol
 _atom_site_label
 _atom_site_symmetry_multiplicity
 _atom_site_fract_x
 _atom_site_fract_y
 _atom_site_fract_z
 _atom_site_occupancy
  In  In0  1  -0.00602781  0.15650613  0.11666606  1
  In  In1  1  -0.00392676  0.16318375  0.62662114  1
  In  In2  1  0.01085705  0.50423361  0.12545289  1
  In  In3  1  0.00302185  0.48857905  0.62089617  1
  In  In4  1  0.02142436  0.82853256  0.13978282  1
  In  In5  1  0.01457544  0.85991286  0.62161598  1
  In  In6  1  0.33486057  0.17910802  0.11363033  1
  In  In7  1  0.33007420  0.16796376  0.63065889  1
  In  In8  1  0.34132836  0.48881262  0.12924644  1
  In  In9  1  0.32377504  0.48574980  0.61650369  1
  In  In10  1  0.30713675  0.83820386  0.12892245  1
  In  In11  1  0.33656807  0.83927153  0.62200094  1
  In  In12  1  0.66595733  0.17131102  0.11492045  1
  In  In13  1  0.66629566  0.17512502  0.63536358  1
  In  In14  1  0.66223565  0.50787455  0.12351035  1
  In  In15  1  0.66393711  0.49671279  0.62743924  1
  In  In16  1  0.66124902  0.82857350  0.12675353  1
  In  In17  1  0.66343082  0.83084023  0.63018884  1
  In  In18  1  0.16326341  0.01264731  0.37702488  1
  In  In19  1  0.17101440  0.00482163  0.87098090  1
  In  In20  1  0.17621495  0.31660993  0.38203762  1
  In  In21  1  0.15602948  0.31434431  0.85303378  1
  In  In22  1  0.15897792  0.66262946  0.36574081  1
  In  In23  1  0.17593459  0.66406761  0.88657368  1
  In  In24  1  0.50356185  0.00358376  0.38153232  1
  In  In25  1  0.51623611  0.01064462  0.86605736  1
  In  In26  1  0.49877952  0.33981139  0.38550846  1
  In  In27  1  0.49610624  0.33267600  0.87443951  1
  In  In28  1  0.48899374  0.65128868  0.36458538  1
  In  In29  1  0.50141003  0.65086856  0.88154982  1
  In  In30  1  0.83983843  0.00863156  0.37895315  1
  In  In31  1  0.85618260  0.03207634  0.84266367  1
  In  In32  1  0.83118887  0.32232838  0.38221171  1
  In  In33  1  0.81912087  0.30750997  0.85248894  1
  In  In34  1  0.84055277  0.67532857  0.36258831  1
  In  In35  1  0.82958156  0.67792300  0.87677705  1
  In  In36  1  -0.00118584  0.16235163  0.37992092  1
  In  In37  1  0.00671543  0.16679974  0.86687274  1
  In  In38  1  0.00191924  0.51130439  0.37329556  1
  In  In39  1  0.01110926  0.48859177  0.87734440  1
  In  In40  1  0.00836790  0.84087072  0.36317548  1
  In  In41  1  0.00031101  0.84602253  0.87812551  1
  In  In42  1  0.32938452  0.17486983  0.37988893  1
  In  In43  1  0.33331222  0.17690086  0.87021670  1
  In  In44  1  0.33521742  0.49118694  0.37569551  1
  In  In45  1  0.34507133  0.49354203  0.88107127  1
  In  In46  1  0.33858796  0.83148544  0.37017310  1
  In  In47  1  0.32102451  0.83290716  0.88477795  1
  In  In48  1  0.66422802  0.16379143  0.38820804  1
  In  In49  1  0.66565519  0.16551885  0.87244691  1
  In  In50  1  0.65712124  0.49440937  0.37567315  1
  In  In51  1  0.65789933  0.48807078  0.86685694  1
  In  In52  1  0.67833477  0.83222328  0.37448179  1
  In  In53  1  0.67786380  0.83895120  0.86501963  1
  In  In54  1  0.15394060  -0.00314874  0.11616378  1
  In  In55  1  0.13779284  0.05321475  0.68364618  1
  In  In56  1  0.18228630  0.33346782  0.12212700  1
  In  In57  1  0.16354940  0.32642836  0.62779904  1
  In  In58  1  0.15676562  0.68184718  0.14078503  1
  In  In59  1  0.17797383  0.66431185  0.61772116  1
  In  In60  1  0.49207770  0.00597707  0.11965646  1
  In  In61  1  0.47877746  0.01502174  0.64007847  1
  In  In62  1  0.48122673  0.32802419  0.10533899  1
  In  In63  1  0.49706202  0.33226706  0.62797220  1
  In  In64  1  0.50427112  0.65323484  0.12947661  1
  In  In65  1  0.51273522  0.65882031  0.62116402  1
  In  In66  1  0.84851071  0.02045562  0.11886455  1
  In  In67  1  0.82477196  0.01365242  0.63807013  1
  In  In68  1  0.83883183  0.32044656  0.12050979  1
  In  In69  1  0.85734401  0.30612767  0.65193011  1
  In  In70  1  0.83628644  0.66817171  0.12884276  1
  In  In71  1  0.83011876  0.65700786  0.62514270  1
  In  In72  1  0.82734237  0.48946915  0.50273264  1
  In  In73  1  0.83438235  0.49329741  0.00314318  1
  In  In74  1  0.32673327  -0.00013681  0.24913230  1
  In  In75  1  0.49977268  0.83211442  0.49722900  1
  In  In76  1  0.83271827  0.84239977  0.50393517  1
  In  In77  1  0.66876223  -0.00462945  0.25420938  1
  In  In78  1  0.83807309  0.84322076  -0.00478408  1
  In  In79  1  -0.00751058  0.66869266  0.75137226  1
  In  In80  1  0.33919907  0.66530464  0.75654996  1
  In  In81  1  0.49608773  0.83515442  0.00242876  1
  In  In82  1  0.17018952  0.84079681  0.49397797  1
  In  In83  1  0.00436742  0.33377445  0.25259137  1
  In  In84  1  0.66556052  0.33339474  0.24808957  1
  In  In85  1  0.17397631  0.49539637  0.00292537  1
  Cu  Cu86  1  0.17026762  0.83401093  0.75796242  1
  Cu  Cu87  1  0.49872026  0.82045104  0.24603780  1
  Cu  Cu88  1  0.49906044  0.49987721  0.74998032  1
  Cu  Cu89  1  0.67328320  0.00682349  -0.00901077  1
  Cu  Cu90  1  0.49774465  0.17173752  0.24581785  1
  Cu  Cu91  1  0.83152464  0.83534422  0.24747780  1
  Cu  Cu92  1  0.00541927  0.66839678  0.49115594  1
  Cu  Cu93  1  0.33628661  0.65106108  0.49388040  1
  Cu  Cu94  1  0.32384621  0.01124955  0.50963544  1
  Cu  Cu95  1  0.82579032  0.50584259  0.74928988  1
  Cu  Cu96  1  0.67110983  0.32720907  0.51115816  1
  Cu  Cu97  1  0.00488440  0.32765494  0.50787211  1
  Cu  Cu98  1  0.16614132  0.49603870  0.74607125  1
  Cu  Cu99  1  0.17418125  0.50106468  0.24904067  1
  Cu  Cu100  1  0.32695672  0.66950168  0.01085255  1
  Cu  Cu101  1  0.33692607  0.32850306  0.50431725  1
  Cu  Cu102  1  0.16852659  0.16837510  0.25056375  1
  Cu  Cu103  1  0.49793916  0.49394033  0.25176985  1
  Cu  Cu104  1  0.33351456  0.01320153  -0.00402534  1
  Cu  Cu105  1  0.66441724  0.65755307  0.49495192  1
  Cu  Cu106  1  0.65640695  0.00943866  0.51362016  1
  Cu  Cu107  1  0.66298835  0.66339506  -0.00081943  1
  Cu  Cu108  1  0.50250505  0.82836586  0.75060748  1
  Cu  Cu109  1  0.83247216  0.50425471  0.24785577  1
  Cu  Cu110  1  0.83133786  0.82741029  0.74639702  1
  Cu  Cu111  1  0.49871220  0.17375864  0.75211829  1
  Cu  Cu112  1  -0.00427113  0.32267557  -0.00846712  1
  Cu  Cu113  1  0.66096568  0.33117018  -0.01142243  1
  Cu  Cu114  1  0.00474965  0.00602875  -0.00844671  1
  Se  Se115  1  0.08714008  0.09049858  0.04605917  1
  Se  Se116  1  0.09562116  0.07297220  0.57939006  1
  Se  Se117  1  0.07168444  0.40354196  0.05523122  1
  Se  Se118  1  0.09070675  0.41522100  0.55268654  1
  Se  Se119  1  0.08434574  0.75065133  0.06048834  1
  Se  Se120  1  0.07772820  0.74824272  0.55721101  1
  Se  Se121  1  0.42055678  0.09102914  0.04949701  1
  Se  Se122  1  0.41633229  0.08930048  0.55752563  1
  Se  Se123  1  0.40676109  0.42408341  0.04429231  1
  Se  Se124  1  0.42161943  0.41549251  0.55298107  1
  Se  Se125  1  0.41124355  0.74929759  0.06855988  1
  Se  Se126  1  0.40982523  0.73672607  0.55581548  1
  Se  Se127  1  0.75260119  0.08655379  0.05106222  1
  Se  Se128  1  0.74494605  0.08851027  0.56387341  1
  Se  Se129  1  0.73756614  0.40330021  0.05918073  1
  Se  Se130  1  0.75636616  0.39955647  0.57279711  1
  Se  Se131  1  0.74590889  0.74647562  0.05371483  1
  Se  Se132  1  0.74126014  0.74058770  0.55419194  1
  Se  Se133  1  0.24653802  0.25383219  0.04533133  1
  Se  Se134  1  0.25006220  0.24836313  0.55795526  1
  Se  Se135  1  0.24849295  0.58815399  0.07122242  1
  Se  Se136  1  0.24723602  0.57573669  0.54805383  1
  Se  Se137  1  0.25361352  0.92727302  0.05136041  1
  Se  Se138  1  0.24527114  0.92640468  0.56493632  1
  Se  Se139  1  0.58031800  0.24963205  0.04735463  1
  Se  Se140  1  0.58149201  0.24721634  0.56101186  1
  Se  Se141  1  0.57845420  0.58042958  0.04980405  1
  Se  Se142  1  0.58622881  0.57333107  0.55004198  1
  Se  Se143  1  0.59589163  0.92788192  0.05528850  1
  Se  Se144  1  0.57657315  0.92140021  0.56597448  1
  Se  Se145  1  0.91239676  0.24148338  0.04677626  1
  Se  Se146  1  0.91359595  0.25091371  0.55858862  1
  Se  Se147  1  0.92413045  0.58960819  0.05696635  1
  Se  Se148  1  0.92425154  0.58885682  0.55213684  1
  Se  Se149  1  0.93127169  0.92487881  0.05701986  1
  Se  Se150  1  0.91847648  0.93686023  0.55949290  1
  Se  Se151  1  0.08244777  0.24497797  0.44810587  1
  Se  Se152  1  0.08629511  0.24910041  0.93816956  1
  Se  Se153  1  0.08998745  0.58236297  0.44451495  1
  Se  Se154  1  0.07519110  0.58623541  0.94774122  1
  Se  Se155  1  0.06981310  0.92851866  0.44297717  1
  Se  Se156  1  0.09080400  0.92088323  0.94324260  1
  Se  Se157  1  0.42049644  0.24664306  0.44867545  1
  Se  Se158  1  0.41667481  0.25001651  0.94371207  1
  Se  Se159  1  0.42533531  0.57185643  0.44393222  1
  Se  Se160  1  0.40691527  0.58904582  0.95251532  1
  Se  Se161  1  0.40073011  0.92781971  0.44660431  1
  Se  Se162  1  0.41534592  0.92823412  0.93926908  1
  Se  Se163  1  0.75159134  0.24549621  0.45396554  1
  Se  Se164  1  0.75080157  0.24990512  0.94054803  1
  Se  Se165  1  0.75430101  0.58804563  0.43512701  1
  Se  Se166  1  0.74508361  0.58351637  0.94013454  1
  Se  Se167  1  0.73397296  0.93147822  0.44803676  1
  Se  Se168  1  0.75529699  0.93166587  0.93115025  1
  Se  Se169  1  0.24673960  0.08971483  0.44690541  1
  Se  Se170  1  0.24985785  0.09096066  0.93933700  1
  Se  Se171  1  0.25417969  0.40884288  0.44623660  1
  Se  Se172  1  0.24079513  0.40881228  0.92901718  1
  Se  Se173  1  0.25855997  0.74150716  0.43974306  1
  Se  Se174  1  0.24464956  0.75304067  0.95819850  1
  Se  Se175  1  0.57345195  0.08698121  0.45477179  1
  Se  Se176  1  0.58150867  0.08830165  0.94614398  1
  Se  Se177  1  0.59393863  0.41107796  0.45256776  1
  Se  Se178  1  0.57788949  0.42107039  0.94380452  1
  Se  Se179  1  0.58719223  0.74146037  0.43526555  1
  Se  Se180  1  0.59061420  0.75177710  0.93948864  1
  Se  Se181  1  0.90705373  0.09411061  0.45051153  1
  Se  Se182  1  0.91977272  0.08381409  0.93438357  1
  Se  Se183  1  0.92842482  0.40886893  0.44225581  1
  Se  Se184  1  0.91267560  0.40410720  0.93476594  1
  Se  Se185  1  0.92185070  0.75315460  0.43976702  1
  Se  Se186  1  0.92880200  0.74346227  0.94413251  1
  Se  Se187  1  0.25475519  0.24983390  0.30216886  1
  Se  Se188  1  0.25320271  0.24441905  0.79100465  1
  Se  Se189  1  0.25517719  0.58016928  0.30821086  1
  Se  Se190  1  0.24308572  0.57391279  0.81042071  1
  Se  Se191  1  0.23853248  0.91175840  0.31122406  1
  Se  Se192  1  0.25741521  0.91542151  0.80759956  1
  Se  Se193  1  0.57953252  0.24316396  0.31126297  1
  Se  Se194  1  0.58383255  0.25477526  0.80603887  1
  Se  Se195  1  0.58665111  0.57691213  0.30119002  1
  Se  Se196  1  0.58113406  0.58471094  0.80337472  1
  Se  Se197  1  0.57072739  0.90427949  0.30978125  1
  Se  Se198  1  0.58645565  0.91500121  0.79991108  1
  Se  Se199  1  0.90952592  0.24441096  0.30664271  1
  Se  Se200  1  0.93204590  0.25480953  0.79649363  1
  Se  Se201  1  0.92056833  0.58430456  0.29937326  1
  Se  Se202  1  0.90932359  0.57543053  0.81466378  1
  Se  Se203  1  0.90613324  0.91800301  0.30756872  1
  Se  Se204  1  0.91511473  0.90747704  0.80156300  1
  Se  Se205  1  0.08278340  0.09028322  0.30474709  1
  Se  Se206  1  0.08997660  0.08286007  0.79866319  1
  Se  Se207  1  0.09544363  0.42074247  0.31304392  1
  Se  Se208  1  0.07730354  0.41630758  0.79639814  1
  Se  Se209  1  0.08070625  0.74872452  0.29940657  1
  Se  Se210  1  0.09121154  0.74787894  0.81376549  1
  Se  Se211  1  0.42376976  0.08706967  0.30753868  1
  Se  Se212  1  0.41952104  0.08669601  0.80587139  1
  Se  Se213  1  0.42015423  0.40776999  0.30702974  1
  Se  Se214  1  0.41496638  0.41756971  0.80296961  1
  Se  Se215  1  0.41186883  0.74428554  0.30076181  1
  Se  Se216  1  0.42554020  0.75630637  0.81879989  1
  Se  Se217  1  0.75061101  0.09353710  0.31023405  1
  Se  Se218  1  0.73112715  0.07475558  0.79919372  1
  Se  Se219  1  0.76063115  0.42084158  0.30998973  1
  Se  Se220  1  0.74657603  0.41498943  0.79832749  1
  Se  Se221  1  0.74630383  0.75124785  0.29823635  1
  Se  Se222  1  0.74901593  0.74268533  0.79876371  1
  Se  Se223  1  0.24695163  0.09228486  0.18512569  1
  Se  Se224  1  0.28228003  0.05936284  0.69782148  1
  Se  Se225  1  0.25295650  0.41219462  0.19873661  1
  Se  Se226  1  0.25008621  0.41311422  0.69441482  1
  Se  Se227  1  0.25669856  0.74754482  0.20461533  1
  Se  Se228  1  0.24585577  0.75353433  0.69466381  1
  Se  Se229  1  0.57946006  0.08757220  0.19117076  1
  Se  Se230  1  0.57975623  0.08640995  0.69973201  1
  Se  Se231  1  0.57332699  0.41563344  0.18562908  1
  Se  Se232  1  0.58174098  0.41555068  0.69675357  1
  Se  Se233  1  0.58719072  0.74176768  0.19524314  1
  Se  Se234  1  0.58077791  0.74372985  0.69547709  1
  Se  Se235  1  0.92246034  0.08799038  0.19774735  1
  Se  Se236  1  0.91893700  0.08327553  0.70305495  1
  Se  Se237  1  0.91013425  0.42147749  0.18851555  1
  Se  Se238  1  0.91448399  0.42964904  0.69598715  1
  Se  Se239  1  0.91713630  0.75287554  0.19578875  1
  Se  Se240  1  0.91574209  0.75927670  0.68073524  1
  Se  Se241  1  0.08909529  0.24697232  0.18695568  1
  Se  Se242  1  0.06399609  0.26292275  0.69327453  1
  Se  Se243  1  0.08232901  0.58059199  0.20159632  1
  Se  Se244  1  0.08909887  0.58456837  0.68989679  1
  Se  Se245  1  0.08504106  0.93266672  0.19973155  1
  Se  Se246  1  0.08166977  0.91516741  0.70890780  1
  Se  Se247  1  0.41823287  0.25196155  0.18851511  1
  Se  Se248  1  0.41288838  0.25398921  0.69828288  1
  Se  Se249  1  0.41563857  0.57881125  0.19841065  1
  Se  Se250  1  0.41763486  0.57716614  0.68752243  1
  Se  Se251  1  0.42304974  0.90995050  0.18994158  1
  Se  Se252  1  0.41424181  0.90768395  0.69999862  1
  Se  Se253  1  0.75570860  0.23887288  0.19287045  1
  Se  Se254  1  0.74861218  0.24772527  0.70988252  1
  Se  Se255  1  0.74879868  0.58378540  0.19253852  1
  Se  Se256  1  0.74269075  0.58716741  0.69533537  1
  Se  Se257  1  0.75788366  0.91676264  0.18388475  1
  Se  Se258  1  0.74739406  0.91281958  0.69618673  1
