# generated using pymatgen
data_In86Cu29Se144
_symmetry_space_group_name_H-M   'P 1'
_cell_length_a   17.59149456
_cell_length_b   17.58923286
_cell_length_c   23.44898191
_cell_angle_alpha   90.00049596
_cell_angle_beta   89.97084244
_cell_angle_gamma   89.99390611
_symmetry_Int_Tables_number   1
_chemical_formula_structural   In86Cu29Se144
_chemical_formula_sum   'In86 Cu29 Se144'
_cell_volume   7255.60396782
_cell_formula_units_Z   1
loop_
 _symmetry_equiv_pos_site_id
 _symmetry_equiv_pos_as_xyz
  1  'x, y, z'
loop_
 _atom_site_type_symbol
 _atom_site_label
 _atom_site_symmetry_multiplicity
 _atom_site_fract_x
 _atom_site_fract_y
 _atom_site_fract_z
 _atom_site_occupancy
  In  In0  1  -0.00474699  0.17104819  0.12055009  1
  In  In1  1  -0.00230764  0.18290250  0.62835418  1
  In  In2  1  -0.00123958  0.49999050  0.11894182  1
  In  In3  1  -0.00318112  0.50015399  0.63961216  1
  In  In4  1  0.00859704  0.82152918  0.12826334  1
  In  In5  1  -0.01150842  0.82837206  0.63785872  1
  In  In6  1  0.33023731  0.17714193  0.12052366  1
  In  In7  1  0.33248621  0.17455911  0.63495913  1
  In  In8  1  0.34276396  0.51020092  0.11599277  1
  In  In9  1  0.33534542  0.50459690  0.63284489  1
  In  In10  1  0.31623907  0.82782036  0.11986746  1
  In  In11  1  0.35709943  0.79585752  0.64774247  1
  In  In12  1  0.68140345  0.16260325  0.12884353  1
  In  In13  1  0.67564876  0.16068173  0.62743273  1
  In  In14  1  0.66483965  0.50187201  0.12316085  1
  In  In15  1  0.65341707  0.50762582  0.62672273  1
  In  In16  1  0.66980683  0.82882188  0.13166968  1
  In  In17  1  0.66659955  0.84384326  0.62951076  1
  In  In18  1  0.16049004  0.00641808  0.36879179  1
  In  In19  1  0.15918588  0.00432956  0.88613724  1
  In  In20  1  0.16566182  0.34510739  0.36933842  1
  In  In21  1  0.16568700  0.33326423  0.87346743  1
  In  In22  1  0.16571526  0.66414440  0.36427782  1
  In  In23  1  0.16537379  0.66496685  0.87557097  1
  In  In24  1  0.49741561  -0.01514181  0.37518636  1
  In  In25  1  0.50710109  -0.01646862  0.86535639  1
  In  In26  1  0.51546634  0.33091150  0.37711890  1
  In  In27  1  0.51415703  0.34514247  0.86858188  1
  In  In28  1  0.49911188  0.66364435  0.37573981  1
  In  In29  1  0.49046925  0.66684723  0.87158797  1
  In  In30  1  0.84019613  0.00666091  0.36699004  1
  In  In31  1  0.83328892  0.01013025  0.87767167  1
  In  In32  1  0.82791426  0.32871579  0.37135827  1
  In  In33  1  0.83012382  0.33674596  0.87493683  1
  In  In34  1  0.83478261  0.66641834  0.36233264  1
  In  In35  1  0.83167053  0.64365361  0.87480904  1
  In  In36  1  -0.00819411  0.15801621  0.36540713  1
  In  In37  1  -0.00935097  0.17309831  0.88203623  1
  In  In38  1  0.00114494  0.49966683  0.36121308  1
  In  In39  1  -0.00171131  0.50404389  0.87408256  1
  In  In40  1  -0.00201830  0.83106992  0.36479692  1
  In  In41  1  0.01520433  0.83064708  0.87363090  1
  In  In42  1  0.33126799  0.16539131  0.37733040  1
  In  In43  1  0.31537420  0.17216388  0.87292336  1
  In  In44  1  0.33554590  0.51542344  0.37410497  1
  In  In45  1  0.33371111  0.49912538  0.87645231  1
  In  In46  1  0.34804928  0.82248015  0.38266726  1
  In  In47  1  0.32502286  0.81188647  0.86307441  1
  In  In48  1  0.68246380  0.17853054  0.36905508  1
  In  In49  1  0.67722843  0.17588949  0.87015728  1
  In  In50  1  0.65926960  0.49278431  0.37153690  1
  In  In51  1  0.68313403  0.48702968  0.89660209  1
  In  In52  1  0.65947911  0.82437411  0.36506698  1
  In  In53  1  0.65266369  0.83135953  0.86729028  1
  In  In54  1  0.15448532  -0.00645116  0.11655566  1
  In  In55  1  0.16750542  -0.00051991  0.62571765  1
  In  In56  1  0.15290303  0.32491830  0.11171465  1
  In  In57  1  0.15919679  0.34193068  0.64513343  1
  In  In58  1  0.16726953  0.66467156  0.12099672  1
  In  In59  1  0.17309923  0.67151412  0.63984011  1
  In  In60  1  0.51009949  0.00378591  0.12952998  1
  In  In61  1  0.51541036  0.00242814  0.62186089  1
  In  In62  1  0.50349317  0.35236949  0.12296278  1
  In  In63  1  0.49131800  0.34449455  0.63474697  1
  In  In64  1  0.50871923  0.65274733  0.13435997  1
  In  In65  1  0.49444086  0.65790606  0.61511545  1
  In  In66  1  0.82517130  0.00794696  0.12690846  1
  In  In67  1  0.81561198  0.00070129  0.62508845  1
  In  In68  1  0.83475716  0.33670151  0.12192733  1
  In  In69  1  0.84479528  0.32614386  0.63415651  1
  In  In70  1  0.83559855  0.66163525  0.12369200  1
  In  In71  1  0.83802280  0.67366604  0.63766672  1
  In  In72  1  0.33198831  0.00631747  0.75065149  1
  In  In73  1  0.50730432  0.16687421  0.49870627  1
  In  In74  1  0.67186990  0.65939724  0.75254696  1
  In  In75  1  -0.00423091  0.00137294  0.75954245  1
  In  In76  1  0.49351434  0.82809569  -0.00938100  1
  In  In77  1  0.16614209  0.17069045  0.50198423  1
  In  In78  1  0.33211912  0.33767184  0.24309556  1
  In  In79  1  0.83457565  0.82753622  0.00336071  1
  In  In80  1  0.49879160  0.16737436  -0.00382454  1
  In  In81  1  0.17095761  0.83206491  0.50377040  1
  In  In82  1  0.83007706  0.83385528  0.50300016  1
  In  In83  1  0.16738692  0.50242244  0.51343723  1
  In  In84  1  0.82935229  0.49920361  0.50182731  1
  In  In85  1  0.33136312  -0.00487120  0.25416942  1
  Cu  Cu86  1  0.16130492  0.49832931  0.24053472  1
  Cu  Cu87  1  0.66771509  0.00055517  0.00100469  1
  Cu  Cu88  1  0.65952588  0.67025570  0.49614501  1
  Cu  Cu89  1  0.82935392  0.16736885  0.75385082  1
  Cu  Cu90  1  0.66604303  0.33606934  0.50005524  1
  Cu  Cu91  1  0.16497805  0.82636761  0.24587260  1
  Cu  Cu92  1  0.83303668  0.83976754  0.24552954  1
  Cu  Cu93  1  -0.00715179  0.32688133  0.50066872  1
  Cu  Cu94  1  0.49686299  0.82852673  0.25156351  1
  Cu  Cu95  1  0.32768678  -0.00143825  -0.00243753  1
  Cu  Cu96  1  -0.00749266  0.00391686  0.49323427  1
  Cu  Cu97  1  0.83398346  0.50098975  0.24314532  1
  Cu  Cu98  1  0.49881323  0.50481716  0.75164701  1
  Cu  Cu99  1  0.00455449  0.66429882  0.00083785  1
  Cu  Cu100  1  0.51526582  0.16832532  0.24990436  1
  Cu  Cu101  1  0.83738277  0.17343764  0.24576990  1
  Cu  Cu102  1  0.50371241  0.50290135  0.25022375  1
  Cu  Cu103  1  -0.00262639  0.00376579  0.00014962  1
  Cu  Cu104  1  0.00343359  0.66446514  0.49992872  1
  Cu  Cu105  1  0.32668444  0.33463680  -0.00382186  1
  Cu  Cu106  1  0.50464487  0.16930407  0.74890114  1
  Cu  Cu107  1  0.32995056  0.66540839  -0.00316561  1
  Cu  Cu108  1  0.15837985  0.16498730  0.24165959  1
  Cu  Cu109  1  0.66857770  0.33312591  0.00010158  1
  Cu  Cu110  1  0.33665481  0.34388469  0.50957969  1
  Cu  Cu111  1  0.17270431  0.50273230  0.75939158  1
  Cu  Cu112  1  0.66818907  -0.00239794  0.49793626  1
  Cu  Cu113  1  0.33721782  -0.00894533  0.50805091  1
  Cu  Cu114  1  -0.00353275  0.33873844  -0.00432901  1
  Se  Se115  1  0.08221681  0.08898019  0.05207367  1
  Se  Se116  1  0.07319464  0.07779642  0.55772162  1
  Se  Se117  1  0.08290806  0.42160314  0.04703474  1
  Se  Se118  1  0.07206188  0.40605468  0.56207571  1
  Se  Se119  1  0.08743386  0.75155618  0.05099344  1
  Se  Se120  1  0.07613980  0.74540102  0.56350930  1
  Se  Se121  1  0.41072032  0.07316145  0.05891894  1
  Se  Se122  1  0.41023920  0.08491295  0.56122718  1
  Se  Se123  1  0.41342767  0.41403373  0.04946816  1
  Se  Se124  1  0.41941015  0.42698313  0.56002702  1
  Se  Se125  1  0.41234525  0.74236905  0.05996995  1
  Se  Se126  1  0.41748071  0.75536588  0.55422572  1
  Se  Se127  1  0.75144849  0.08616996  0.04968846  1
  Se  Se128  1  0.74911391  0.08452301  0.54883354  1
  Se  Se129  1  0.74912671  0.41873995  0.05455404  1
  Se  Se130  1  0.74460149  0.41093008  0.56538845  1
  Se  Se131  1  0.73654462  0.74014468  0.05660959  1
  Se  Se132  1  0.74394106  0.73847466  0.56105984  1
  Se  Se133  1  0.24681855  0.24642528  0.04742042  1
  Se  Se134  1  0.25115762  0.26356513  0.56412746  1
  Se  Se135  1  0.24708718  0.58093889  0.05018288  1
  Se  Se136  1  0.25802828  0.59945309  0.56229463  1
  Se  Se137  1  0.24414112  0.91488249  0.04993935  1
  Se  Se138  1  0.26190367  0.91191330  0.56960178  1
  Se  Se139  1  0.58748173  0.25189005  0.06119365  1
  Se  Se140  1  0.58615114  0.25818515  0.56394199  1
  Se  Se141  1  0.56771986  0.57065287  0.05631396  1
  Se  Se142  1  0.58248747  0.57947592  0.54684608  1
  Se  Se143  1  0.58560554  0.91715153  0.05547321  1
  Se  Se144  1  0.58710224  0.91371073  0.55113350  1
  Se  Se145  1  0.91434998  0.25361422  0.05036830  1
  Se  Se146  1  0.90922572  0.24557677  0.55337159  1
  Se  Se147  1  0.91507752  0.58383281  0.05037026  1
  Se  Se148  1  0.92180045  0.58872777  0.56147831  1
  Se  Se149  1  0.92115442  0.92096895  0.06307839  1
  Se  Se150  1  0.92411006  0.92278832  0.56035318  1
  Se  Se151  1  0.07864147  0.25651414  0.43728332  1
  Se  Se152  1  0.08196359  0.25320546  0.94564568  1
  Se  Se153  1  0.08009410  0.58266279  0.44052491  1
  Se  Se154  1  0.08563990  0.58058230  0.94529869  1
  Se  Se155  1  0.07677474  0.92050069  0.44055560  1
  Se  Se156  1  0.07918174  0.91518269  0.95135292  1
  Se  Se157  1  0.40782626  0.25987213  0.44473929  1
  Se  Se158  1  0.41234364  0.25775814  0.93572013  1
  Se  Se159  1  0.41927853  0.58164941  0.44683664  1
  Se  Se160  1  0.41674327  0.58451885  0.94511099  1
  Se  Se161  1  0.42035987  0.91272960  0.45183960  1
  Se  Se162  1  0.40312022  0.92121636  0.93371793  1
  Se  Se163  1  0.75173410  0.25386130  0.44883821  1
  Se  Se164  1  0.75199153  0.24954415  0.94747006  1
  Se  Se165  1  0.74669474  0.59261521  0.43854463  1
  Se  Se166  1  0.75436454  0.58605979  0.95702195  1
  Se  Se167  1  0.74741395  0.91898203  0.43466103  1
  Se  Se168  1  0.74228471  0.91516397  0.94042297  1
  Se  Se169  1  0.25680457  0.06921843  0.44656234  1
  Se  Se170  1  0.24743686  0.08905400  0.94915759  1
  Se  Se171  1  0.25360482  0.41458828  0.44472624  1
  Se  Se172  1  0.24530938  0.41946489  0.94361997  1
  Se  Se173  1  0.25105553  0.73611863  0.44199412  1
  Se  Se174  1  0.24821711  0.75175718  0.94544367  1
  Se  Se175  1  0.59168282  0.07824454  0.43400727  1
  Se  Se176  1  0.58683564  0.07495252  0.93659226  1
  Se  Se177  1  0.58163654  0.41987630  0.44978491  1
  Se  Se178  1  0.57710696  0.41487907  0.95377137  1
  Se  Se179  1  0.58014244  0.75547569  0.44230309  1
  Se  Se180  1  0.59166781  0.73700652  0.94194231  1
  Se  Se181  1  0.91099522  0.08942399  0.44317177  1
  Se  Se182  1  0.91084554  0.08671370  0.95128501  1
  Se  Se183  1  0.92458215  0.41616448  0.43988586  1
  Se  Se184  1  0.91269813  0.42163651  0.94294209  1
  Se  Se185  1  0.92128821  0.74332431  0.44114525  1
  Se  Se186  1  0.92356883  0.74299065  0.93928597  1
  Se  Se187  1  0.24278456  0.24050819  0.30381337  1
  Se  Se188  1  0.25099797  0.25868573  0.80047090  1
  Se  Se189  1  0.24605490  0.57553697  0.29863495  1
  Se  Se190  1  0.25805384  0.58892189  0.80725848  1
  Se  Se191  1  0.24303403  0.90172660  0.31360633  1
  Se  Se192  1  0.24199637  0.92041183  0.81269456  1
  Se  Se193  1  0.59255686  0.25723713  0.30209121  1
  Se  Se194  1  0.58830668  0.25220756  0.80259203  1
  Se  Se195  1  0.58576864  0.58606961  0.30535889  1
  Se  Se196  1  0.58371622  0.57321384  0.81617047  1
  Se  Se197  1  0.58022556  0.91721521  0.29979175  1
  Se  Se198  1  0.59319752  0.91911418  0.79191243  1
  Se  Se199  1  0.91909632  0.25541289  0.30272031  1
  Se  Se200  1  0.91300496  0.24951837  0.80708535  1
  Se  Se201  1  0.91965203  0.58521657  0.29575499  1
  Se  Se202  1  0.91745006  0.58113051  0.80024699  1
  Se  Se203  1  0.91939961  0.91966251  0.29945318  1
  Se  Se204  1  0.90771498  0.90750002  0.81572390  1
  Se  Se205  1  0.07877764  0.07935638  0.29629620  1
  Se  Se206  1  0.08672411  0.09414235  0.81331347  1
  Se  Se207  1  0.08183544  0.41184196  0.29464081  1
  Se  Se208  1  0.08335842  0.41945427  0.80619866  1
  Se  Se209  1  0.07852894  0.74438480  0.29871275  1
  Se  Se210  1  0.09019275  0.74934553  0.80264916  1
  Se  Se211  1  0.42667372  0.09299531  0.30767626  1
  Se  Se212  1  0.42503946  0.09300417  0.81341760  1
  Se  Se213  1  0.42296799  0.41800992  0.30973863  1
  Se  Se214  1  0.41746110  0.41828685  0.80498975  1
  Se  Se215  1  0.41385830  0.74454548  0.30396214  1
  Se  Se216  1  0.44039240  0.77139665  0.80368076  1
  Se  Se217  1  0.75404096  0.08800828  0.29993378  1
  Se  Se218  1  0.74751947  0.07868608  0.80323736  1
  Se  Se219  1  0.75481036  0.42231158  0.30550487  1
  Se  Se220  1  0.73463925  0.41299636  0.81162070  1
  Se  Se221  1  0.75151445  0.75208109  0.29785750  1
  Se  Se222  1  0.75825737  0.75086144  0.81374671  1
  Se  Se223  1  0.24751505  0.08584324  0.18822237  1
  Se  Se224  1  0.23327905  0.09644229  0.69611307  1
  Se  Se225  1  0.24274470  0.41991228  0.17923801  1
  Se  Se226  1  0.25606342  0.42077556  0.70276593  1
  Se  Se227  1  0.25053552  0.74357109  0.19521933  1
  Se  Se228  1  0.24093738  0.76488715  0.70826968  1
  Se  Se229  1  0.59424010  0.08140267  0.19728427  1
  Se  Se230  1  0.58645497  0.08405077  0.69622299  1
  Se  Se231  1  0.58702317  0.41822445  0.19849088  1
  Se  Se232  1  0.58407427  0.42092835  0.69984470  1
  Se  Se233  1  0.58328900  0.74799404  0.19805772  1
  Se  Se234  1  0.58428299  0.74321964  0.68585003  1
  Se  Se235  1  0.91652328  0.08631762  0.19184509  1
  Se  Se236  1  0.90903109  0.08683685  0.69105668  1
  Se  Se237  1  0.91891930  0.41795398  0.19126202  1
  Se  Se238  1  0.92194389  0.40915107  0.70328651  1
  Se  Se239  1  0.91197853  0.75099747  0.19250887  1
  Se  Se240  1  0.92922237  0.73538097  0.70914369  1
  Se  Se241  1  0.07916703  0.25351684  0.19126955  1
  Se  Se242  1  0.07939232  0.24807334  0.70323447  1
  Se  Se243  1  0.07975500  0.58520883  0.18904942  1
  Se  Se244  1  0.08984458  0.58108299  0.70039839  1
  Se  Se245  1  0.08516332  0.91493421  0.19473365  1
  Se  Se246  1  0.08664850  0.91492026  0.69533904  1
  Se  Se247  1  0.43000312  0.24366465  0.19001295  1
  Se  Se248  1  0.41622887  0.25364504  0.70247554  1
  Se  Se249  1  0.41154560  0.57966309  0.19924706  1
  Se  Se250  1  0.41932215  0.59197774  0.69805452  1
  Se  Se251  1  0.41889087  0.90854476  0.18811073  1
  Se  Se252  1  0.42393965  0.92079512  0.68968698  1
  Se  Se253  1  0.75168012  0.25742401  0.19501945  1
  Se  Se254  1  0.74824556  0.24982012  0.69692216  1
  Se  Se255  1  0.74806573  0.58473980  0.19302915  1
  Se  Se256  1  0.76117901  0.56721733  0.69230076  1
  Se  Se257  1  0.74567219  0.92185019  0.19551626  1
  Se  Se258  1  0.77601739  0.89314188  0.69196150  1
