# generated using pymatgen
data_In86Cu29Se144
_symmetry_space_group_name_H-M   'P 1'
_cell_length_a   17.58917270
_cell_length_b   17.58758266
_cell_length_c   23.45426999
_cell_angle_alpha   90.02461651
_cell_angle_beta   89.99747016
_cell_angle_gamma   89.98001029
_symmetry_Int_Tables_number   1
_chemical_formula_structural   In86Cu29Se144
_chemical_formula_sum   'In86 Cu29 Se144'
_cell_volume   7255.60143598
_cell_formula_units_Z   1
loop_
 _symmetry_equiv_pos_site_id
 _symmetry_equiv_pos_as_xyz
  1  'x, y, z'
loop_
 _atom_site_type_symbol
 _atom_site_label
 _atom_site_symmetry_multiplicity
 _atom_site_fract_x
 _atom_site_fract_y
 _atom_site_fract_z
 _atom_site_occupancy
  In  In0  1  0.00027958  0.17550916  0.13962155  1
  In  In1  1  -0.01544331  0.16339933  0.62337341  1
  In  In2  1  -0.01507895  0.48271102  0.10954855  1
  In  In3  1  0.01000876  0.49717191  0.61637138  1
  In  In4  1  0.00125427  0.84808084  0.12625279  1
  In  In5  1  -0.00246738  0.83231709  0.63351650  1
  In  In6  1  0.34696256  0.17107838  0.11840540  1
  In  In7  1  0.32902036  0.16987160  0.63525213  1
  In  In8  1  0.31881049  0.48340809  0.10386331  1
  In  In9  1  0.33516598  0.49579370  0.62800312  1
  In  In10  1  0.34154897  0.82545992  0.12191892  1
  In  In11  1  0.34077300  0.82336078  0.63420887  1
  In  In12  1  0.66391350  0.18352377  0.12760577  1
  In  In13  1  0.68803844  0.17651410  0.62339815  1
  In  In14  1  0.66866353  0.49889104  0.12618505  1
  In  In15  1  0.65687162  0.48755530  0.62389022  1
  In  In16  1  0.65148966  0.81138505  0.11968991  1
  In  In17  1  0.66207439  0.84256487  0.62203226  1
  In  In18  1  0.14623192  0.01515893  0.37731160  1
  In  In19  1  0.16689178  -0.00151891  0.86668254  1
  In  In20  1  0.17759490  0.33662933  0.36292801  1
  In  In21  1  0.17823736  0.33684772  0.87909163  1
  In  In22  1  0.15371603  0.65723294  0.37706132  1
  In  In23  1  0.16243379  0.65506672  0.86893067  1
  In  In24  1  0.49165997  -0.00689504  0.37769766  1
  In  In25  1  0.49456004  0.01011256  0.88178728  1
  In  In26  1  0.50977858  0.34642825  0.36304818  1
  In  In27  1  0.49675532  0.33061496  0.88011746  1
  In  In28  1  0.50322521  0.65765981  0.37853963  1
  In  In29  1  0.49302819  0.67417140  0.87789830  1
  In  In30  1  0.84878195  0.00450151  0.37863609  1
  In  In31  1  0.82645311  -0.00721452  0.87368563  1
  In  In32  1  0.83460771  0.33846906  0.37715621  1
  In  In33  1  0.83944174  0.34840748  0.87504765  1
  In  In34  1  0.81885574  0.65889812  0.37120035  1
  In  In35  1  0.84149570  0.66056558  0.87899600  1
  In  In36  1  -0.00700081  0.15946962  0.36922795  1
  In  In37  1  0.01014106  0.17156000  0.87170154  1
  In  In38  1  0.01608562  0.48157245  0.39400450  1
  In  In39  1  -0.01007120  0.50073665  0.88379897  1
  In  In40  1  -0.01280386  0.84095813  0.37400560  1
  In  In41  1  -0.00135004  0.82799668  0.87170015  1
  In  In42  1  0.31434786  0.17572690  0.37161365  1
  In  In43  1  0.34847916  0.18040641  0.86435440  1
  In  In44  1  0.34432774  0.49397934  0.37954462  1
  In  In45  1  0.33189361  0.49709266  0.87788118  1
  In  In46  1  0.33819329  0.83501397  0.37756637  1
  In  In47  1  0.34101315  0.83950817  0.86787342  1
  In  In48  1  0.66529296  0.18876701  0.37334652  1
  In  In49  1  0.65359184  0.16367024  0.87597918  1
  In  In50  1  0.66594261  0.49782852  0.37431526  1
  In  In51  1  0.67351738  0.48920540  0.87942237  1
  In  In52  1  0.66367819  0.81621856  0.37009391  1
  In  In53  1  0.66626542  0.83636480  0.88488438  1
  In  In54  1  0.15822275  0.00081739  0.12762962  1
  In  In55  1  0.16426004  0.00355252  0.63331608  1
  In  In56  1  0.16130536  0.34166140  0.13192805  1
  In  In57  1  0.16452335  0.34579527  0.62256157  1
  In  In58  1  0.17783556  0.66149703  0.12561106  1
  In  In59  1  0.17596863  0.65592852  0.63379234  1
  In  In60  1  0.49471096  -0.00749801  0.11652341  1
  In  In61  1  0.50298732  -0.01159579  0.62459534  1
  In  In62  1  0.49950788  0.34072688  0.12154879  1
  In  In63  1  0.49100769  0.33959826  0.63166793  1
  In  In64  1  0.50989288  0.66610226  0.12069647  1
  In  In65  1  0.49329662  0.65442786  0.62259937  1
  In  In66  1  0.84475920  0.00031489  0.12527531  1
  In  In67  1  0.84113254  0.01563513  0.61988169  1
  In  In68  1  0.83053254  0.33776734  0.13196856  1
  In  In69  1  0.82918602  0.32229471  0.61709241  1
  In  In70  1  0.82166288  0.65334728  0.12005184  1
  In  In71  1  0.84821945  0.66441611  0.62991064  1
  In  In72  1  -0.00625119  0.66131307  0.24885470  1
  In  In73  1  0.00014640  0.33177087  0.74512702  1
  In  In74  1  0.15796160  0.17346364  0.50345896  1
  In  In75  1  0.83205998  0.17248008  0.00633502  1
  In  In76  1  0.16991534  0.82771366  0.49609647  1
  In  In77  1  0.66760535  -0.00025866  0.24849500  1
  In  In78  1  0.66929996  0.00686141  0.74556884  1
  In  In79  1  0.16989006  0.17332045  -0.00280232  1
  In  In80  1  0.16895112  0.82820005  0.00384901  1
  In  In81  1  0.33175116  0.00690291  0.24362430  1
  In  In82  1  0.82799771  0.82519855  0.49940578  1
  In  In83  1  0.33880561  0.66439518  0.24559351  1
  In  In84  1  0.66493029  0.66486353  0.75738469  1
  In  In85  1  0.50136600  0.16980470  0.49668542  1
  Cu  Cu86  1  0.83646822  0.50211065  0.75376412  1
  Cu  Cu87  1  0.66615571  -0.00483323  0.00108977  1
  Cu  Cu88  1  0.66806983  -0.00209811  0.50092368  1
  Cu  Cu89  1  0.50047626  0.16944261  0.75258881  1
  Cu  Cu90  1  0.16177678  0.84826330  0.25439939  1
  Cu  Cu91  1  0.67014757  0.66141001  -0.00267678  1
  Cu  Cu92  1  0.33916050  0.66600548  -0.00258448  1
  Cu  Cu93  1  0.33930445  0.34240212  0.49616868  1
  Cu  Cu94  1  0.66338224  0.33597228  0.00314447  1
  Cu  Cu95  1  0.16706248  0.83046637  0.75035779  1
  Cu  Cu96  1  0.49971075  0.83518633  0.75203414  1
  Cu  Cu97  1  0.83344373  0.49476158  0.25155363  1
  Cu  Cu98  1  0.66809835  0.33957923  0.49705282  1
  Cu  Cu99  1  0.49208543  0.49395221  0.75188655  1
  Cu  Cu100  1  0.33398625  -0.00484019  0.50404131  1
  Cu  Cu101  1  0.84316048  0.83622057  0.75237047  1
  Cu  Cu102  1  0.50007425  0.50108652  0.24535110  1
  Cu  Cu103  1  0.83187337  0.17238908  0.25196343  1
  Cu  Cu104  1  0.83074158  0.83471816  0.24994259  1
  Cu  Cu105  1  0.16922293  0.49859675  0.74933693  1
  Cu  Cu106  1  0.49618979  0.17376174  0.24657178  1
  Cu  Cu107  1  -0.00355340  0.66768152  -0.00482249  1
  Cu  Cu108  1  0.33642815  0.00033157  -0.00789906  1
  Cu  Cu109  1  0.00237602  0.66072002  0.50491339  1
  Cu  Cu110  1  0.16865716  0.16126587  0.75180338  1
  Cu  Cu111  1  -0.00542421  0.00125720  -0.00003634  1
  Cu  Cu112  1  0.65978608  0.66100869  0.49765268  1
  Cu  Cu113  1  0.33683269  0.65849222  0.50971777  1
  Cu  Cu114  1  0.16609050  0.49886393  0.24774921  1
  Se  Se115  1  0.07378735  0.08467986  0.05777613  1
  Se  Se116  1  0.07606175  0.07227897  0.55803603  1
  Se  Se117  1  0.09961193  0.42864538  0.05552016  1
  Se  Se118  1  0.07598761  0.40228066  0.54770614  1
  Se  Se119  1  0.07386855  0.74109632  0.06304392  1
  Se  Se120  1  0.08146152  0.74444485  0.56262162  1
  Se  Se121  1  0.41845754  0.08122769  0.04896444  1
  Se  Se122  1  0.41136959  0.08225538  0.56036370  1
  Se  Se123  1  0.43210923  0.42977655  0.04858892  1
  Se  Se124  1  0.42121939  0.41984415  0.55494860  1
  Se  Se125  1  0.42215259  0.74824747  0.05169429  1
  Se  Se126  1  0.41781204  0.74937718  0.55725218  1
  Se  Se127  1  0.74058358  0.07848743  0.06407631  1
  Se  Se128  1  0.75024226  0.08450377  0.54970356  1
  Se  Se129  1  0.75159451  0.41388501  0.05708244  1
  Se  Se130  1  0.75012038  0.41803443  0.55542809  1
  Se  Se131  1  0.75055927  0.74750607  0.05237564  1
  Se  Se132  1  0.74008953  0.73613978  0.56357439  1
  Se  Se133  1  0.25534163  0.26092400  0.05945072  1
  Se  Se134  1  0.26271763  0.25786990  0.55627400  1
  Se  Se135  1  0.24690281  0.58836190  0.04634490  1
  Se  Se136  1  0.24896231  0.57641881  0.55818460  1
  Se  Se137  1  0.25844846  0.92683099  0.05950434  1
  Se  Se138  1  0.25285726  0.91635928  0.56321001  1
  Se  Se139  1  0.57964215  0.24970626  0.05310676  1
  Se  Se140  1  0.58838308  0.25802003  0.55942418  1
  Se  Se141  1  0.58836026  0.57912803  0.05302551  1
  Se  Se142  1  0.58121572  0.57732357  0.55551857  1
  Se  Se143  1  0.58309689  0.90995631  0.05327332  1
  Se  Se144  1  0.58049836  0.91447797  0.54768756  1
  Se  Se145  1  0.92660888  0.25873207  0.06273412  1
  Se  Se146  1  0.92820048  0.25709334  0.55190849  1
  Se  Se147  1  0.91357811  0.58422608  0.05000869  1
  Se  Se148  1  0.91458509  0.58008142  0.55521152  1
  Se  Se149  1  0.91458111  0.91420485  0.05113618  1
  Se  Se150  1  0.92005023  0.91422975  0.55698501  1
  Se  Se151  1  0.08288719  0.25555887  0.43073186  1
  Se  Se152  1  0.07331233  0.26473210  0.94450165  1
  Se  Se153  1  0.09206005  0.57866712  0.45671159  1
  Se  Se154  1  0.08225689  0.58477637  0.94512207  1
  Se  Se155  1  0.07222794  0.92080349  0.44678010  1
  Se  Se156  1  0.08211219  0.92268320  0.94440284  1
  Se  Se157  1  0.41244404  0.25749009  0.43441769  1
  Se  Se158  1  0.41715456  0.24264222  0.94735590  1
  Se  Se159  1  0.41962691  0.58016501  0.44974082  1
  Se  Se160  1  0.42025211  0.58096038  0.94423298  1
  Se  Se161  1  0.41728058  0.91197578  0.45156384  1
  Se  Se162  1  0.42017661  0.91151961  0.94462106  1
  Se  Se163  1  0.75148053  0.25270124  0.44749930  1
  Se  Se164  1  0.74338253  0.25609663  0.94075189  1
  Se  Se165  1  0.74694659  0.58028838  0.44682349  1
  Se  Se166  1  0.75437416  0.57906553  0.94405809  1
  Se  Se167  1  0.74354413  0.91807116  0.43547342  1
  Se  Se168  1  0.75514777  0.91595137  0.95105529  1
  Se  Se169  1  0.25312054  0.07668005  0.44589583  1
  Se  Se170  1  0.25545310  0.08103326  0.93496700  1
  Se  Se171  1  0.24878001  0.41631004  0.44149528  1
  Se  Se172  1  0.24626097  0.42356464  0.95033999  1
  Se  Se173  1  0.26117973  0.73213250  0.43998627  1
  Se  Se174  1  0.25606783  0.74634586  0.93713691  1
  Se  Se175  1  0.59194802  0.07861288  0.43632659  1
  Se  Se176  1  0.58392069  0.08304421  0.95174969  1
  Se  Se177  1  0.57929311  0.41748628  0.44441899  1
  Se  Se178  1  0.58132790  0.41715221  0.94677513  1
  Se  Se179  1  0.58073095  0.74943417  0.44635579  1
  Se  Se180  1  0.58461724  0.74663326  0.94684374  1
  Se  Se181  1  0.92023096  0.08798514  0.44944364  1
  Se  Se182  1  0.91881675  0.08439317  0.94002699  1
  Se  Se183  1  0.89824521  0.43468933  0.44675117  1
  Se  Se184  1  0.91503055  0.41444267  0.95328464  1
  Se  Se185  1  0.92314953  0.73558278  0.43998154  1
  Se  Se186  1  0.91520836  0.75531909  0.94537947  1
  Se  Se187  1  0.25377350  0.25236044  0.29203983  1
  Se  Se188  1  0.24559031  0.25076632  0.80427240  1
  Se  Se189  1  0.24472611  0.58022245  0.30844996  1
  Se  Se190  1  0.25453603  0.58008506  0.80329827  1
  Se  Se191  1  0.24526907  0.92200366  0.31483732  1
  Se  Se192  1  0.25156662  0.91608125  0.80074383  1
  Se  Se193  1  0.58498975  0.25491202  0.29575317  1
  Se  Se194  1  0.58212641  0.25256961  0.80659847  1
  Se  Se195  1  0.58153988  0.58085572  0.30436226  1
  Se  Se196  1  0.57406685  0.57257389  0.81279109  1
  Se  Se197  1  0.57598112  0.91055551  0.30733142  1
  Se  Se198  1  0.58259765  0.91638523  0.80940541  1
  Se  Se199  1  0.91453515  0.25420842  0.30658449  1
  Se  Se200  1  0.90983082  0.24621871  0.80870472  1
  Se  Se201  1  0.91597693  0.57030615  0.31455217  1
  Se  Se202  1  0.92192673  0.58292813  0.80577566  1
  Se  Se203  1  0.91310967  0.92060731  0.30016231  1
  Se  Se204  1  0.92106536  0.92205095  0.80709911  1
  Se  Se205  1  0.08762355  0.09406159  0.29864144  1
  Se  Se206  1  0.07984317  0.08157784  0.80190346  1
  Se  Se207  1  0.08113020  0.42206666  0.30513514  1
  Se  Se208  1  0.08584300  0.42064051  0.81002807  1
  Se  Se209  1  0.08520583  0.75858260  0.30899743  1
  Se  Se210  1  0.08401867  0.74739952  0.80461694  1
  Se  Se211  1  0.42171124  0.09383375  0.31036620  1
  Se  Se212  1  0.41914542  0.07904691  0.80162043  1
  Se  Se213  1  0.41324029  0.41957251  0.29875883  1
  Se  Se214  1  0.41256318  0.41076158  0.80889757  1
  Se  Se215  1  0.42373745  0.75428323  0.30829939  1
  Se  Se216  1  0.41662075  0.74729824  0.80050163  1
  Se  Se217  1  0.75297359  0.08967700  0.31223967  1
  Se  Se218  1  0.75619496  0.09445844  0.80869324  1
  Se  Se219  1  0.74704302  0.41380238  0.30494411  1
  Se  Se220  1  0.75134600  0.41652753  0.80185375  1
  Se  Se221  1  0.74983104  0.74531904  0.29771784  1
  Se  Se222  1  0.75691342  0.76021296  0.81103445  1
  Se  Se223  1  0.24387669  0.09698317  0.18475333  1
  Se  Se224  1  0.25501838  0.07761357  0.70101900  1
  Se  Se225  1  0.25649671  0.42350970  0.19376371  1
  Se  Se226  1  0.25053747  0.41233320  0.69688420  1
  Se  Se227  1  0.24055634  0.76500772  0.19566099  1
  Se  Se228  1  0.25247321  0.74522280  0.70052640  1
  Se  Se229  1  0.57240853  0.08642935  0.18847005  1
  Se  Se230  1  0.57816571  0.09584332  0.68432721  1
  Se  Se231  1  0.58497843  0.41567831  0.19447429  1
  Se  Se232  1  0.58142490  0.41357746  0.70117299  1
  Se  Se233  1  0.57842790  0.74387369  0.19936509  1
  Se  Se234  1  0.58028151  0.75506170  0.69178637  1
  Se  Se235  1  0.91271257  0.08602147  0.19892383  1
  Se  Se236  1  0.91649844  0.08106758  0.69881171  1
  Se  Se237  1  0.92204088  0.41791170  0.19701890  1
  Se  Se238  1  0.91121822  0.42381848  0.68732472  1
  Se  Se239  1  0.91007530  0.75492692  0.18690268  1
  Se  Se240  1  0.92212015  0.74492731  0.70353154  1
  Se  Se241  1  0.08832005  0.25501832  0.20228562  1
  Se  Se242  1  0.09250985  0.23972751  0.68645008  1
  Se  Se243  1  0.08543445  0.57655011  0.18695964  1
  Se  Se244  1  0.08055467  0.57616274  0.69462385  1
  Se  Se245  1  0.07593218  0.92728740  0.20142458  1
  Se  Se246  1  0.08309655  0.91562686  0.69863263  1
  Se  Se247  1  0.41620040  0.25678790  0.19181074  1
  Se  Se248  1  0.41411322  0.25247964  0.70064077  1
  Se  Se249  1  0.41737637  0.57276871  0.18125204  1
  Se  Se250  1  0.41423444  0.58218126  0.69849705  1
  Se  Se251  1  0.42352841  0.90727169  0.19536953  1
  Se  Se252  1  0.41775804  0.91950793  0.69789293  1
  Se  Se253  1  0.74713873  0.25482570  0.20046889  1
  Se  Se254  1  0.75439432  0.25716325  0.69869277  1
  Se  Se255  1  0.75041510  0.58030805  0.19926382  1
  Se  Se256  1  0.75209474  0.57826922  0.69226663  1
  Se  Se257  1  0.75107630  0.90935783  0.18480195  1
  Se  Se258  1  0.76141362  0.91097267  0.68923738  1
