# generated using pymatgen
data_In86Cu29Se144
_symmetry_space_group_name_H-M   'P 1'
_cell_length_a   17.58583312
_cell_length_b   17.58171166
_cell_length_c   23.44545386
_cell_angle_alpha   89.99614086
_cell_angle_beta   89.98979284
_cell_angle_gamma   90.01194445
_symmetry_Int_Tables_number   1
_chemical_formula_structural   In86Cu29Se144
_chemical_formula_sum   'In86 Cu29 Se144'
_cell_volume   7249.07725152
_cell_formula_units_Z   1
loop_
 _symmetry_equiv_pos_site_id
 _symmetry_equiv_pos_as_xyz
  1  'x, y, z'
loop_
 _atom_site_type_symbol
 _atom_site_label
 _atom_site_symmetry_multiplicity
 _atom_site_fract_x
 _atom_site_fract_y
 _atom_site_fract_z
 _atom_site_occupancy
  In  In0  1  -0.00895228  0.15880823  0.11470030  1
  In  In1  1  0.00607465  0.16401888  0.62388094  1
  In  In2  1  0.02110247  0.50098212  0.12398382  1
  In  In3  1  0.00120834  0.48170426  0.62647439  1
  In  In4  1  0.00755358  0.83233555  0.13304814  1
  In  In5  1  0.01972055  0.83842132  0.62187666  1
  In  In6  1  0.33036346  0.18031169  0.12972736  1
  In  In7  1  0.32903902  0.16058917  0.63204675  1
  In  In8  1  0.33156806  0.49788546  0.12986743  1
  In  In9  1  0.32606924  0.50804548  0.62663406  1
  In  In10  1  0.32728602  0.82609123  0.11693812  1
  In  In11  1  0.33191124  0.83785890  0.62712755  1
  In  In12  1  0.66289160  0.14545606  0.12574177  1
  In  In13  1  0.65477562  0.13416842  0.60062150  1
  In  In14  1  0.66436293  0.50135802  0.12351135  1
  In  In15  1  0.67755812  0.50120573  0.62757083  1
  In  In16  1  0.67314289  0.85154924  0.12290725  1
  In  In17  1  0.64464828  0.86555861  0.64073751  1
  In  In18  1  0.15733774  0.00252056  0.39138277  1
  In  In19  1  0.16691777  0.00434090  0.87324910  1
  In  In20  1  0.17882498  0.32209071  0.38259059  1
  In  In21  1  0.15786896  0.31504117  0.85581462  1
  In  In22  1  0.16674577  0.66915818  0.37709596  1
  In  In23  1  0.17892733  0.66214562  0.87477918  1
  In  In24  1  0.50299709  -0.00466251  0.38311298  1
  In  In25  1  0.48496133  -0.01071542  0.86908117  1
  In  In26  1  0.48022352  0.32954538  0.37446803  1
  In  In27  1  0.49190778  0.33815795  0.87113323  1
  In  In28  1  0.49482577  0.68386411  0.37562765  1
  In  In29  1  0.50508975  0.67642296  0.86703134  1
  In  In30  1  0.84289123  0.00455621  0.37589265  1
  In  In31  1  0.85400101  0.01213817  0.84959630  1
  In  In32  1  0.82642744  0.32543501  0.37462378  1
  In  In33  1  0.84085146  0.31160615  0.88224299  1
  In  In34  1  0.83922534  0.65774012  0.37493768  1
  In  In35  1  0.83638952  0.69708003  0.86666157  1
  In  In36  1  0.00458537  0.15032096  0.39370848  1
  In  In37  1  0.00241228  0.16126109  0.86889293  1
  In  In38  1  0.00054044  0.51521082  0.37259624  1
  In  In39  1  0.01482539  0.49438540  0.87409411  1
  In  In40  1  0.00965181  0.84553467  0.37266614  1
  In  In41  1  0.00554461  0.87104674  0.86445621  1
  In  In42  1  0.32555274  0.16738985  0.38123858  1
  In  In43  1  0.32139748  0.16316699  0.86284616  1
  In  In44  1  0.32094802  0.49237303  0.37149753  1
  In  In45  1  0.32521815  0.49712109  0.86090670  1
  In  In46  1  0.33918806  0.83007054  0.37814367  1
  In  In47  1  0.33366502  0.83469434  0.87668399  1
  In  In48  1  0.67624422  0.14915840  0.39100667  1
  In  In49  1  0.67962508  0.16281497  0.87292237  1
  In  In50  1  0.67370693  0.50082154  0.37809562  1
  In  In51  1  0.65268111  0.50169180  0.87206987  1
  In  In52  1  0.64935360  0.83880395  0.38317394  1
  In  In53  1  0.66491050  0.83365806  0.86222415  1
  In  In54  1  0.16114408  -0.00840888  0.12052009  1
  In  In55  1  0.17103257  0.00905965  0.63172810  1
  In  In56  1  0.17353991  0.32806816  0.12244716  1
  In  In57  1  0.16443369  0.32922359  0.62749282  1
  In  In58  1  0.16861158  0.67127352  0.13267628  1
  In  In59  1  0.18166473  0.67775543  0.61732445  1
  In  In60  1  0.51696427  0.00668351  0.12454810  1
  In  In61  1  0.49599427  -0.00343390  0.62247830  1
  In  In62  1  0.47178076  0.32307524  0.12406983  1
  In  In63  1  0.50352988  0.31102395  0.62565124  1
  In  In64  1  0.48651125  0.66784231  0.12710773  1
  In  In65  1  0.48774778  0.68272161  0.62920309  1
  In  In66  1  0.83217129  0.00622292  0.13024260  1
  In  In67  1  0.83014637  0.00209731  0.62590120  1
  In  In68  1  0.84686277  0.30791606  0.12159315  1
  In  In69  1  0.85797966  0.31701297  0.63864045  1
  In  In70  1  0.83887467  0.68762326  0.12521109  1
  In  In71  1  0.82617994  0.66057825  0.63106096  1
  In  In72  1  0.00464737  0.66760635  0.74871131  1
  In  In73  1  0.83915996  0.84861288  -0.01147336  1
  In  In74  1  0.65691216  0.33235911  0.25272362  1
  In  In75  1  0.33677644  -0.00128118  0.25265603  1
  In  In76  1  0.17323785  0.48773424  0.00001501  1
  In  In77  1  0.83237708  0.50130840  -0.00942694  1
  In  In78  1  0.00458316  0.33427173  0.24769856  1
  In  In79  1  0.49430831  0.16264945  -0.00127737  1
  In  In80  1  0.49673805  0.49584297  0.49605909  1
  In  In81  1  0.83225477  0.83382147  0.50753619  1
  In  In82  1  0.49692218  0.50079368  0.00356664  1
  In  In83  1  0.67029922  0.33032313  0.74986946  1
  In  In84  1  0.66464646  0.67558610  0.26144866  1
  In  In85  1  0.83786232  0.49171367  0.49879082  1
  Cu  Cu86  1  0.66778387  -0.00247964  -0.00337176  1
  Cu  Cu87  1  0.49919270  0.15752090  0.74466672  1
  Cu  Cu88  1  0.33046226  0.00023536  0.50582537  1
  Cu  Cu89  1  0.00582992  0.66474450  0.50104512  1
  Cu  Cu90  1  0.66294631  0.67936732  -0.01280493  1
  Cu  Cu91  1  0.32945450  0.67280071  0.50199157  1
  Cu  Cu92  1  0.48741665  0.49953299  0.25112143  1
  Cu  Cu93  1  0.16732304  0.49861431  0.74509046  1
  Cu  Cu94  1  0.67209778  0.32405881  0.00572219  1
  Cu  Cu95  1  0.33076067  0.32860799  0.50550903  1
  Cu  Cu96  1  0.17258887  0.83871387  0.74962807  1
  Cu  Cu97  1  0.49744841  0.50626584  0.74570857  1
  Cu  Cu98  1  0.32990015  0.00030665  -0.00461082  1
  Cu  Cu99  1  0.67193189  0.32562098  0.50448327  1
  Cu  Cu100  1  0.83146502  0.16716230  0.74468082  1
  Cu  Cu101  1  0.00847967  0.32908203  0.50349435  1
  Cu  Cu102  1  0.83709424  0.16131638  0.25461548  1
  Cu  Cu103  1  0.16806675  0.50564493  0.25203113  1
  Cu  Cu104  1  0.65639219  0.67447197  0.50914381  1
  Cu  Cu105  1  0.00585087  0.00435399  -0.00601695  1
  Cu  Cu106  1  0.83876897  0.84074719  0.25227644  1
  Cu  Cu107  1  0.16384410  0.16140545  0.25941106  1
  Cu  Cu108  1  0.84142918  0.50878497  0.24339007  1
  Cu  Cu109  1  0.49916247  0.83770319  0.25237620  1
  Cu  Cu110  1  0.82808383  0.50460420  0.75702971  1
  Cu  Cu111  1  0.33938879  0.66982846  -0.00460165  1
  Cu  Cu112  1  0.49418677  0.83626728  0.74997836  1
  Cu  Cu113  1  0.16701479  0.83320985  0.25286842  1
  Cu  Cu114  1  0.00158046  0.67145745  0.00784773  1
  Se  Se115  1  0.08765707  0.08316544  0.05227452  1
  Se  Se116  1  0.09310512  0.08666287  0.55644042  1
  Se  Se117  1  0.07334188  0.39920392  0.05282700  1
  Se  Se118  1  0.08891111  0.41741853  0.55302736  1
  Se  Se119  1  0.08704447  0.75142806  0.06122482  1
  Se  Se120  1  0.08990203  0.75108601  0.54957084  1
  Se  Se121  1  0.40634331  0.07486367  0.06347448  1
  Se  Se122  1  0.41260550  0.08563635  0.55814586  1
  Se  Se123  1  0.39674129  0.40867793  0.05016868  1
  Se  Se124  1  0.41545237  0.40853522  0.56371405  1
  Se  Se125  1  0.42248408  0.75150836  0.05021909  1
  Se  Se126  1  0.41337885  0.75749464  0.55259029  1
  Se  Se127  1  0.75100072  0.07784025  0.05305082  1
  Se  Se128  1  0.77415829  0.08848790  0.54572165  1
  Se  Se129  1  0.75107306  0.41043718  0.06158850  1
  Se  Se130  1  0.75417139  0.40276891  0.56468469  1
  Se  Se131  1  0.74719991  0.75360426  0.05016247  1
  Se  Se132  1  0.73921418  0.74938560  0.56867369  1
  Se  Se133  1  0.25242637  0.24815027  0.05263416  1
  Se  Se134  1  0.25002198  0.24641289  0.56056415  1
  Se  Se135  1  0.25762630  0.58992102  0.05668563  1
  Se  Se136  1  0.24965828  0.58112909  0.54893046  1
  Se  Se137  1  0.24882477  0.91573367  0.05135464  1
  Se  Se138  1  0.24620376  0.91943668  0.56027114  1
  Se  Se139  1  0.58335579  0.25270866  0.06451902  1
  Se  Se140  1  0.58033232  0.24191575  0.54786707  1
  Se  Se141  1  0.59305540  0.59812993  0.05451018  1
  Se  Se142  1  0.58187143  0.58313423  0.56392607  1
  Se  Se143  1  0.58313141  0.91708260  0.05046037  1
  Se  Se144  1  0.58937736  0.92737302  0.55209852  1
  Se  Se145  1  0.91760811  0.24217747  0.04182063  1
  Se  Se146  1  0.91984986  0.24910435  0.55364335  1
  Se  Se147  1  0.91819818  0.58836073  0.06135809  1
  Se  Se148  1  0.92300328  0.58554126  0.56036161  1
  Se  Se149  1  0.92672090  0.92459728  0.05994595  1
  Se  Se150  1  0.92882428  0.92381733  0.55853996  1
  Se  Se151  1  0.09041092  0.24463622  0.44991838  1
  Se  Se152  1  0.08426034  0.24711935  0.93533795  1
  Se  Se153  1  0.08666343  0.58037106  0.44674977  1
  Se  Se154  1  0.08086195  0.58947857  0.94778364  1
  Se  Se155  1  0.07900633  0.91071247  0.45515590  1
  Se  Se156  1  0.08967172  0.91624144  0.94676142  1
  Se  Se157  1  0.41407282  0.24712643  0.45063189  1
  Se  Se158  1  0.40814173  0.25118455  0.93689011  1
  Se  Se159  1  0.40819628  0.59111522  0.43904270  1
  Se  Se160  1  0.41218243  0.58393612  0.93440313  1
  Se  Se161  1  0.41203709  0.91738643  0.44890327  1
  Se  Se162  1  0.41670683  0.91475415  0.94954449  1
  Se  Se163  1  0.75796843  0.24655394  0.45064402  1
  Se  Se164  1  0.75083445  0.23934190  0.95134936  1
  Se  Se165  1  0.74161732  0.59510417  0.45151440  1
  Se  Se166  1  0.74500134  0.59581572  0.93234131  1
  Se  Se167  1  0.74690765  0.92018349  0.44213190  1
  Se  Se168  1  0.74720700  0.93119026  0.92738706  1
  Se  Se169  1  0.24823978  0.08483163  0.45276556  1
  Se  Se170  1  0.25134032  0.08666754  0.94222151  1
  Se  Se171  1  0.25258994  0.41500566  0.45044786  1
  Se  Se172  1  0.25074621  0.40550513  0.92884135  1
  Se  Se173  1  0.24776887  0.75473363  0.44533951  1
  Se  Se174  1  0.24959234  0.74951161  0.94589525  1
  Se  Se175  1  0.58011870  0.07852540  0.45484488  1
  Se  Se176  1  0.58526708  0.07691198  0.93609253  1
  Se  Se177  1  0.59522418  0.40544287  0.44098821  1
  Se  Se178  1  0.59052965  0.40409298  0.94651199  1
  Se  Se179  1  0.57325089  0.75328304  0.45343707  1
  Se  Se180  1  0.57947429  0.76295073  0.93813358  1
  Se  Se181  1  0.89724076  0.09239252  0.45572486  1
  Se  Se182  1  0.91515149  0.07645763  0.93748365  1
  Se  Se183  1  0.92977391  0.40556056  0.43678557  1
  Se  Se184  1  0.92850276  0.40849689  0.94195886  1
  Se  Se185  1  0.92083460  0.74331763  0.44367245  1
  Se  Se186  1  0.93528072  0.75188409  0.94017333  1
  Se  Se187  1  0.25157138  0.24771819  0.30390330  1
  Se  Se188  1  0.25609852  0.25289329  0.78945961  1
  Se  Se189  1  0.25084902  0.58841763  0.30567467  1
  Se  Se190  1  0.24868697  0.58835433  0.79493601  1
  Se  Se191  1  0.24303676  0.91591976  0.31495640  1
  Se  Se192  1  0.25365424  0.91945083  0.80738750  1
  Se  Se193  1  0.58452942  0.24519814  0.32296847  1
  Se  Se194  1  0.57599584  0.23988744  0.80888438  1
  Se  Se195  1  0.57291217  0.57394928  0.31230927  1
  Se  Se196  1  0.58334341  0.58604271  0.79931806  1
  Se  Se197  1  0.58261645  0.91924921  0.30565365  1
  Se  Se198  1  0.57973304  0.92252082  0.79969310  1
  Se  Se199  1  0.92009179  0.24311034  0.31188133  1
  Se  Se200  1  0.91475953  0.24748344  0.80090052  1
  Se  Se201  1  0.92168749  0.59156683  0.29797342  1
  Se  Se202  1  0.91390877  0.58170964  0.81573749  1
  Se  Se203  1  0.92301878  0.92413567  0.30418516  1
  Se  Se204  1  0.88879077  0.88433070  0.80058125  1
  Se  Se205  1  0.08206463  0.08085329  0.31450294  1
  Se  Se206  1  0.06104563  0.05558313  0.80500760  1
  Se  Se207  1  0.09108023  0.42088729  0.31282462  1
  Se  Se208  1  0.08081451  0.41677174  0.79647799  1
  Se  Se209  1  0.08259731  0.75036082  0.30690108  1
  Se  Se210  1  0.09042182  0.75872246  0.81205013  1
  Se  Se211  1  0.42144906  0.08738921  0.31540530  1
  Se  Se212  1  0.41343486  0.08067242  0.80098124  1
  Se  Se213  1  0.40645083  0.41248037  0.30214636  1
  Se  Se214  1  0.41840945  0.41796170  0.79741694  1
  Se  Se215  1  0.41318204  0.75206963  0.29942436  1
  Se  Se216  1  0.41121104  0.75147204  0.80317833  1
  Se  Se217  1  0.75120429  0.08220638  0.30899523  1
  Se  Se218  1  0.74524635  0.08279167  0.79476384  1
  Se  Se219  1  0.76201880  0.42678649  0.30284492  1
  Se  Se220  1  0.75690278  0.41652830  0.81782622  1
  Se  Se221  1  0.75977335  0.76451307  0.31797430  1
  Se  Se222  1  0.73975672  0.74354862  0.79411725  1
  Se  Se223  1  0.24235304  0.08534038  0.19319738  1
  Se  Se224  1  0.24210677  0.09360181  0.70640529  1
  Se  Se225  1  0.24167658  0.41788629  0.19441597  1
  Se  Se226  1  0.25152336  0.41570859  0.69312239  1
  Se  Se227  1  0.25404370  0.75578580  0.19812904  1
  Se  Se228  1  0.25182210  0.75119997  0.69731104  1
  Se  Se229  1  0.58012110  0.08615280  0.20315104  1
  Se  Se230  1  0.58556809  0.08050866  0.68935939  1
  Se  Se231  1  0.56811586  0.42322272  0.18790550  1
  Se  Se232  1  0.57755747  0.42036579  0.68878314  1
  Se  Se233  1  0.58205461  0.75796576  0.18939928  1
  Se  Se234  1  0.58070469  0.75412073  0.69675260  1
  Se  Se235  1  0.92226348  0.08506054  0.19637476  1
  Se  Se236  1  0.91673563  0.08433189  0.69298815  1
  Se  Se237  1  0.91275867  0.42181416  0.18308095  1
  Se  Se238  1  0.91188441  0.42376736  0.70301272  1
  Se  Se239  1  0.91957833  0.75281212  0.20187323  1
  Se  Se240  1  0.91970774  0.75369022  0.68415385  1
  Se  Se241  1  0.08809926  0.23703880  0.19073930  1
  Se  Se242  1  0.05854742  0.26996588  0.69091084  1
  Se  Se243  1  0.08274945  0.58734605  0.19964594  1
  Se  Se244  1  0.09002681  0.58106324  0.68349929  1
  Se  Se245  1  0.08653465  0.92021293  0.20043051  1
  Se  Se246  1  0.08570004  0.92000418  0.69921832  1
  Se  Se247  1  0.42493656  0.23656936  0.20349508  1
  Se  Se248  1  0.41652761  0.24788126  0.69934740  1
  Se  Se249  1  0.40828622  0.58695717  0.19816626  1
  Se  Se250  1  0.41282361  0.58849882  0.69377743  1
  Se  Se251  1  0.42252172  0.91235648  0.18525437  1
  Se  Se252  1  0.41320688  0.92132640  0.69641658  1
  Se  Se253  1  0.75432949  0.24245771  0.19526867  1
  Se  Se254  1  0.74318687  0.23840048  0.68163989  1
  Se  Se255  1  0.75100343  0.58873465  0.19098257  1
  Se  Se256  1  0.74403637  0.58437144  0.70406476  1
  Se  Se257  1  0.75208080  0.92048740  0.19969833  1
  Se  Se258  1  0.76063523  0.91206914  0.69666323  1
