# generated using pymatgen
data_In86Cu29Se144
_symmetry_space_group_name_H-M   'P 1'
_cell_length_a   17.58230637
_cell_length_b   17.58459512
_cell_length_c   23.44830246
_cell_angle_alpha   90.00639079
_cell_angle_beta   90.02651037
_cell_angle_gamma   90.01203999
_symmetry_Int_Tables_number   1
_chemical_formula_structural   In86Cu29Se144
_chemical_formula_sum   'In86 Cu29 Se144'
_cell_volume   7249.69215559
_cell_formula_units_Z   1
loop_
 _symmetry_equiv_pos_site_id
 _symmetry_equiv_pos_as_xyz
  1  'x, y, z'
loop_
 _atom_site_type_symbol
 _atom_site_label
 _atom_site_symmetry_multiplicity
 _atom_site_fract_x
 _atom_site_fract_y
 _atom_site_fract_z
 _atom_site_occupancy
  In  In0  1  -0.00408415  0.16382557  0.12186975  1
  In  In1  1  0.01742660  0.16869145  0.62658620  1
  In  In2  1  0.01872721  0.49762537  0.12041672  1
  In  In3  1  -0.00831930  0.50900340  0.63110404  1
  In  In4  1  -0.01229726  0.84202982  0.12683915  1
  In  In5  1  -0.00719883  0.82582846  0.63110144  1
  In  In6  1  0.35281981  0.18375724  0.12447120  1
  In  In7  1  0.34260325  0.17995611  0.60220374  1
  In  In8  1  0.33560567  0.49934941  0.12625667  1
  In  In9  1  0.35713352  0.51010402  0.62492819  1
  In  In10  1  0.33582710  0.81594098  0.12695093  1
  In  In11  1  0.33847248  0.82110682  0.62743766  1
  In  In12  1  0.64410882  0.18277036  0.14870711  1
  In  In13  1  0.65259599  0.16831733  0.62346454  1
  In  In14  1  0.65544579  0.51522718  0.13252714  1
  In  In15  1  0.66144278  0.49429108  0.61395740  1
  In  In16  1  0.66386598  0.83432633  0.12480396  1
  In  In17  1  0.66427993  0.84542036  0.62824449  1
  In  In18  1  0.17261303  0.01699574  0.36861733  1
  In  In19  1  0.18016362  0.00770911  0.87827163  1
  In  In20  1  0.17246332  0.31621749  0.37617640  1
  In  In21  1  0.15421572  0.34521553  0.88944149  1
  In  In22  1  0.16584062  0.66177349  0.36471874  1
  In  In23  1  0.15871444  0.65738175  0.87177976  1
  In  In24  1  0.49974871  -0.01048423  0.38390256  1
  In  In25  1  0.51116072  -0.00688306  0.88341669  1
  In  In26  1  0.50117714  0.32975265  0.37026904  1
  In  In27  1  0.49257439  0.33586722  0.88387451  1
  In  In28  1  0.50023902  0.66424604  0.37389892  1
  In  In29  1  0.49338381  0.66756278  0.87632814  1
  In  In30  1  0.83013241  -0.00346541  0.36750234  1
  In  In31  1  0.80890754  0.00666976  0.87534925  1
  In  In32  1  0.82845413  0.34945397  0.37771506  1
  In  In33  1  0.84134237  0.31714284  0.86933125  1
  In  In34  1  0.82211353  0.65606086  0.36615444  1
  In  In35  1  0.84708412  0.66910595  0.87930492  1
  In  In36  1  0.01194388  0.16451809  0.37030261  1
  In  In37  1  -0.00250231  0.18787842  0.87403456  1
  In  In38  1  -0.01231958  0.49816553  0.37424194  1
  In  In39  1  0.00269114  0.50411939  0.87306437  1
  In  In40  1  -0.00168227  0.82971499  0.36683986  1
  In  In41  1  0.00199296  0.82089677  0.87996991  1
  In  In42  1  0.33332695  0.16907149  0.38213103  1
  In  In43  1  0.33137933  0.17095650  0.88449634  1
  In  In44  1  0.34485224  0.50557230  0.36842482  1
  In  In45  1  0.33145162  0.50113242  0.87755992  1
  In  In46  1  0.35044754  0.83552117  0.37489708  1
  In  In47  1  0.35608765  0.82760461  0.87666221  1
  In  In48  1  0.64610482  0.15015617  0.35438003  1
  In  In49  1  0.67154887  0.15206490  0.87563783  1
  In  In50  1  0.66224763  0.49960323  0.37126949  1
  In  In51  1  0.65775323  0.49198777  0.88033778  1
  In  In52  1  0.65744641  0.82069923  0.36746128  1
  In  In53  1  0.64895851  0.84905205  0.88544755  1
  In  In54  1  0.15474014  0.00057344  0.12581685  1
  In  In55  1  0.17191620  0.01391095  0.62196063  1
  In  In56  1  0.17699678  0.34847808  0.11308289  1
  In  In57  1  0.17529468  0.32309819  0.62430657  1
  In  In58  1  0.17980423  0.65508730  0.13173106  1
  In  In59  1  0.16661862  0.66483906  0.63389332  1
  In  In60  1  0.51247960  0.01167331  0.12558379  1
  In  In61  1  0.49922861  0.00757685  0.61907799  1
  In  In62  1  0.49447769  0.33483736  0.13116401  1
  In  In63  1  0.50033619  0.33627845  0.61306340  1
  In  In64  1  0.49847209  0.66609724  0.12343116  1
  In  In65  1  0.49372327  0.65730005  0.62173864  1
  In  In66  1  0.83271850  -0.00051104  0.12684883  1
  In  In67  1  0.83088120  -0.01239057  0.62861297  1
  In  In68  1  0.83152846  0.32206864  0.12317662  1
  In  In69  1  0.82612312  0.34721477  0.62441692  1
  In  In70  1  0.82111278  0.67857886  0.12902693  1
  In  In71  1  0.83849636  0.66878568  0.62833923  1
  In  In72  1  0.66615127  0.66877814  0.75537956  1
  In  In73  1  0.83202524  0.16212041  0.00174130  1
  In  In74  1  -0.00064942  -0.00288371  0.74860517  1
  In  In75  1  -0.00056919  0.33327399  0.24855975  1
  In  In76  1  0.16899199  0.83017967  0.00351582  1
  In  In77  1  0.82865409  0.17425256  0.49806581  1
  In  In78  1  0.83117473  0.49955333  -0.00216942  1
  In  In79  1  0.33370660  0.33792610  0.74428770  1
  In  In80  1  0.17353670  0.49254886  0.49917266  1
  In  In81  1  0.82947623  0.82947027  0.50543537  1
  In  In82  1  0.33476212  -0.00063179  0.74655904  1
  In  In83  1  0.17352322  0.83779634  0.50477646  1
  In  In84  1  0.66484143  0.32920045  0.74458834  1
  In  In85  1  0.33482542  -0.00149976  0.25249179  1
  Cu  Cu86  1  0.49951989  0.50173456  0.24945420  1
  Cu  Cu87  1  0.16836737  0.82646651  0.75202735  1
  Cu  Cu88  1  0.83526317  0.49987778  0.75126897  1
  Cu  Cu89  1  0.16875379  0.16655360  0.24752403  1
  Cu  Cu90  1  0.33805918  0.33291325  0.00397358  1
  Cu  Cu91  1  0.33550103  0.66046179  0.00150891  1
  Cu  Cu92  1  0.66163089  -0.00116520  0.49793166  1
  Cu  Cu93  1  0.00041960  0.33623838  0.49758560  1
  Cu  Cu94  1  0.50306959  0.15972679  0.74986847  1
  Cu  Cu95  1  0.83304293  0.83022655  0.75402438  1
  Cu  Cu96  1  0.16422686  0.49910694  0.75469284  1
  Cu  Cu97  1  0.17256827  0.49488843  0.24760537  1
  Cu  Cu98  1  0.66375334  0.00456451  0.00734360  1
  Cu  Cu99  1  -0.00761905  0.66001458  0.50095364  1
  Cu  Cu100  1  0.66191926  0.33499380  0.49099136  1
  Cu  Cu101  1  0.83465571  0.50555569  0.24918577  1
  Cu  Cu102  1  0.66104508  0.67188352  0.00563545  1
  Cu  Cu103  1  0.65900271  0.66171254  0.49202398  1
  Cu  Cu104  1  0.00121803  0.66547636  0.00215128  1
  Cu  Cu105  1  0.16149653  0.82832751  0.24422255  1
  Cu  Cu106  1  0.00985530  0.00549931  0.49559482  1
  Cu  Cu107  1  0.33874343  0.67004993  0.49715857  1
  Cu  Cu108  1  0.83453847  0.83431697  0.24709804  1
  Cu  Cu109  1  0.16805694  0.17497078  0.75143529  1
  Cu  Cu110  1  0.50377151  0.82915564  0.24973853  1
  Cu  Cu111  1  0.33790771  0.00360409  0.00327296  1
  Cu  Cu112  1  0.65751009  0.33207326  0.00673444  1
  Cu  Cu113  1  -0.00328319  0.00237036  0.00351308  1
  Cu  Cu114  1  0.83384304  0.16361071  0.24697137  1
  Se  Se115  1  0.08222466  0.08515847  0.05280982  1
  Se  Se116  1  0.08908108  0.08976855  0.54984595  1
  Se  Se117  1  0.08030970  0.41296324  0.04546680  1
  Se  Se118  1  0.07673385  0.41454907  0.56275734  1
  Se  Se119  1  0.08083265  0.74311920  0.06629958  1
  Se  Se120  1  0.07525243  0.74213387  0.55779616  1
  Se  Se121  1  0.42104106  0.08574779  0.05788753  1
  Se  Se122  1  0.42411820  0.08666139  0.54575493  1
  Se  Se123  1  0.42011065  0.41812021  0.05710209  1
  Se  Se124  1  0.39616307  0.40497403  0.55589958  1
  Se  Se125  1  0.41750119  0.74894731  0.05071763  1
  Se  Se126  1  0.42135568  0.75098101  0.55238339  1
  Se  Se127  1  0.73692899  0.09057699  0.06870453  1
  Se  Se128  1  0.74663925  0.07429167  0.55788708  1
  Se  Se129  1  0.74166305  0.41374505  0.06257044  1
  Se  Se130  1  0.74791652  0.41494017  0.54590040  1
  Se  Se131  1  0.74881553  0.75567638  0.05221123  1
  Se  Se132  1  0.73520834  0.73795335  0.56044734  1
  Se  Se133  1  0.25484670  0.24785941  0.05610037  1
  Se  Se134  1  0.23984340  0.24972527  0.54420951  1
  Se  Se135  1  0.24980570  0.57823294  0.05375267  1
  Se  Se136  1  0.25446668  0.59313964  0.55769285  1
  Se  Se137  1  0.25857210  0.92155933  0.06359277  1
  Se  Se138  1  0.26464179  0.92639880  0.56293559  1
  Se  Se139  1  0.57926793  0.24801962  0.06253487  1
  Se  Se140  1  0.58422424  0.25026865  0.54813407  1
  Se  Se141  1  0.57949214  0.58198062  0.05232472  1
  Se  Se142  1  0.57721284  0.57960253  0.54993683  1
  Se  Se143  1  0.57918783  0.91685980  0.05610611  1
  Se  Se144  1  0.58187278  0.91570103  0.55387637  1
  Se  Se145  1  0.92697091  0.26066295  0.04994554  1
  Se  Se146  1  0.92245885  0.25666707  0.56117907  1
  Se  Se147  1  0.91716881  0.58780062  0.06288339  1
  Se  Se148  1  0.90821243  0.58095178  0.55576999  1
  Se  Se149  1  0.91032677  0.91947617  0.05209711  1
  Se  Se150  1  0.93100355  0.92379949  0.55571901  1
  Se  Se151  1  0.07897469  0.24891990  0.44586421  1
  Se  Se152  1  0.09790810  0.23135980  0.94523696  1
  Se  Se153  1  0.07925180  0.58594329  0.44228879  1
  Se  Se154  1  0.08206528  0.58167732  0.94795451  1
  Se  Se155  1  0.08236146  0.91827818  0.43708187  1
  Se  Se156  1  0.08092406  0.92423610  0.94223865  1
  Se  Se157  1  0.42429458  0.25004642  0.44401231  1
  Se  Se158  1  0.42080881  0.24585766  0.95287231  1
  Se  Se159  1  0.41878503  0.58228300  0.44549128  1
  Se  Se160  1  0.41926172  0.57894672  0.94648667  1
  Se  Se161  1  0.40764998  0.91905442  0.45235553  1
  Se  Se162  1  0.41839782  0.91785690  0.95018607  1
  Se  Se163  1  0.73803355  0.25041211  0.43088820  1
  Se  Se164  1  0.74093345  0.25832517  0.94348953  1
  Se  Se165  1  0.74796629  0.58068830  0.44291353  1
  Se  Se166  1  0.73993660  0.59410357  0.94067671  1
  Se  Se167  1  0.74373323  0.91712455  0.44053445  1
  Se  Se168  1  0.74554982  0.92160694  0.95183256  1
  Se  Se169  1  0.24747641  0.08304864  0.44622362  1
  Se  Se170  1  0.25084494  0.08634139  0.95405133  1
  Se  Se171  1  0.26093490  0.41021525  0.43518003  1
  Se  Se172  1  0.25527040  0.41654023  0.94901918  1
  Se  Se173  1  0.25133888  0.74332959  0.43861429  1
  Se  Se174  1  0.25578612  0.74273165  0.93952437  1
  Se  Se175  1  0.58506555  0.08541470  0.44274641  1
  Se  Se176  1  0.58349839  0.08809837  0.95021789  1
  Se  Se177  1  0.57759849  0.42076860  0.44099117  1
  Se  Se178  1  0.57694525  0.41736381  0.95296369  1
  Se  Se179  1  0.57813182  0.75204299  0.44494439  1
  Se  Se180  1  0.57732603  0.74898795  0.94613845  1
  Se  Se181  1  0.91921166  0.07893051  0.43962662  1
  Se  Se182  1  0.92122855  0.07734448  0.93488293  1
  Se  Se183  1  0.91403676  0.42113862  0.45077374  1
  Se  Se184  1  0.91916131  0.40831817  0.93883852  1
  Se  Se185  1  0.91655746  0.74341759  0.44025705  1
  Se  Se186  1  0.91677219  0.75287743  0.95484425  1
  Se  Se187  1  0.25437897  0.24351984  0.30289196  1
  Se  Se188  1  0.24751971  0.25457054  0.81249002  1
  Se  Se189  1  0.25408475  0.58152900  0.30033962  1
  Se  Se190  1  0.25041078  0.58124085  0.80600880  1
  Se  Se191  1  0.24144106  0.90507351  0.30952238  1
  Se  Se192  1  0.24753841  0.90721298  0.81106978  1
  Se  Se193  1  0.59799700  0.26669880  0.30009054  1
  Se  Se194  1  0.57579418  0.24542505  0.81189339  1
  Se  Se195  1  0.58369583  0.58651511  0.30212960  1
  Se  Se196  1  0.57705470  0.57188109  0.80802711  1
  Se  Se197  1  0.57933422  0.91643045  0.30647283  1
  Se  Se198  1  0.58509277  0.92408963  0.80447447  1
  Se  Se199  1  0.90851054  0.24576581  0.31166366  1
  Se  Se200  1  0.91437572  0.24194522  0.79398790  1
  Se  Se201  1  0.92183337  0.58629895  0.30113508  1
  Se  Se202  1  0.91633349  0.58488345  0.80510382  1
  Se  Se203  1  0.91820432  0.91757370  0.30111190  1
  Se  Se204  1  0.91273451  0.91233717  0.81522058  1
  Se  Se205  1  0.08149054  0.08131378  0.29520888  1
  Se  Se206  1  0.09172475  0.08693740  0.80770000  1
  Se  Se207  1  0.09130113  0.41935162  0.31202134  1
  Se  Se208  1  0.08275349  0.41393662  0.80704809  1
  Se  Se209  1  0.07940967  0.74459246  0.29972275  1
  Se  Se210  1  0.08052002  0.74804860  0.80464210  1
  Se  Se211  1  0.42317434  0.08447811  0.31339067  1
  Se  Se212  1  0.41861303  0.08816997  0.81286711  1
  Se  Se213  1  0.41741582  0.41431588  0.30031755  1
  Se  Se214  1  0.42480431  0.42201701  0.80654152  1
  Se  Se215  1  0.41772422  0.74763439  0.30268831  1
  Se  Se216  1  0.42292827  0.74893300  0.80034988  1
  Se  Se217  1  0.75029599  0.07747044  0.29728164  1
  Se  Se218  1  0.75193773  0.09040295  0.79702867  1
  Se  Se219  1  0.75136765  0.42113883  0.30112487  1
  Se  Se220  1  0.75476355  0.41945908  0.81014818  1
  Se  Se221  1  0.75031766  0.75007145  0.30007886  1
  Se  Se222  1  0.75241419  0.75764835  0.81921518  1
  Se  Se223  1  0.24968703  0.08677790  0.18675566  1
  Se  Se224  1  0.25418380  0.10293711  0.68993408  1
  Se  Se225  1  0.25432566  0.41111049  0.19463717  1
  Se  Se226  1  0.24417529  0.43154042  0.68600733  1
  Se  Se227  1  0.25315946  0.74529834  0.20112017  1
  Se  Se228  1  0.25379673  0.74652206  0.69884761  1
  Se  Se229  1  0.58450115  0.07512450  0.20810386  1
  Se  Se230  1  0.58462116  0.07842911  0.69487168  1
  Se  Se231  1  0.58436950  0.41868303  0.19666990  1
  Se  Se232  1  0.57346080  0.42280124  0.69027852  1
  Se  Se233  1  0.58429972  0.74662426  0.19293751  1
  Se  Se234  1  0.58010717  0.75159265  0.68907400  1
  Se  Se235  1  0.91917707  0.08317098  0.19398574  1
  Se  Se236  1  0.91467715  0.08713373  0.68567767  1
  Se  Se237  1  0.91158371  0.42455683  0.18623980  1
  Se  Se238  1  0.91533591  0.41517134  0.69658993  1
  Se  Se239  1  0.91774991  0.74870695  0.19534078  1
  Se  Se240  1  0.91682454  0.74519885  0.70368285  1
  Se  Se241  1  0.09078402  0.24921554  0.18633535  1
  Se  Se242  1  0.08527507  0.25860249  0.69859152  1
  Se  Se243  1  0.08593273  0.57854327  0.19753416  1
  Se  Se244  1  0.08053264  0.58418674  0.70004961  1
  Se  Se245  1  0.07920956  0.91612371  0.19584089  1
  Se  Se246  1  0.09638283  0.91017158  0.68837666  1
  Se  Se247  1  0.42446135  0.24849728  0.20532542  1
  Se  Se248  1  0.42470658  0.24182103  0.68880830  1
  Se  Se249  1  0.41606894  0.58545465  0.19462404  1
  Se  Se250  1  0.41264289  0.59580677  0.70236397  1
  Se  Se251  1  0.42252689  0.90942041  0.18932138  1
  Se  Se252  1  0.42751856  0.91052311  0.69126947  1
  Se  Se253  1  0.75306495  0.25583154  0.20128979  1
  Se  Se254  1  0.75672658  0.24055524  0.68642434  1
  Se  Se255  1  0.74821664  0.58921261  0.19868901  1
  Se  Se256  1  0.74987638  0.57365070  0.69048067  1
  Se  Se257  1  0.74897014  0.91601182  0.19404144  1
  Se  Se258  1  0.75020155  0.91470428  0.70254320  1
