# generated using pymatgen
data_In86Cu29Se144
_symmetry_space_group_name_H-M   'P 1'
_cell_length_a   17.59856897
_cell_length_b   17.59061603
_cell_length_c   23.46585212
_cell_angle_alpha   90.00292090
_cell_angle_beta   89.98505074
_cell_angle_gamma   90.02010182
_symmetry_Int_Tables_number   1
_chemical_formula_structural   In86Cu29Se144
_chemical_formula_sum   'In86 Cu29 Se144'
_cell_volume   7264.31538162
_cell_formula_units_Z   1
loop_
 _symmetry_equiv_pos_site_id
 _symmetry_equiv_pos_as_xyz
  1  'x, y, z'
loop_
 _atom_site_type_symbol
 _atom_site_label
 _atom_site_symmetry_multiplicity
 _atom_site_fract_x
 _atom_site_fract_y
 _atom_site_fract_z
 _atom_site_occupancy
  In  In0  1  0.00004648  0.16643853  0.12480855  1
  In  In1  1  -0.00127816  0.15528096  0.62081883  1
  In  In2  1  -0.00287202  0.49792119  0.12730186  1
  In  In3  1  -0.00883146  0.50340307  0.61876036  1
  In  In4  1  -0.00984927  0.84185090  0.13588652  1
  In  In5  1  0.00225328  0.80351338  0.61115966  1
  In  In6  1  0.33244564  0.18343115  0.12129240  1
  In  In7  1  0.34161025  0.17885750  0.61411759  1
  In  In8  1  0.34235909  0.51434117  0.11550550  1
  In  In9  1  0.36098623  0.48313524  0.64868377  1
  In  In10  1  0.33289593  0.81337760  0.12744601  1
  In  In11  1  0.33050817  0.82523273  0.61732824  1
  In  In12  1  0.66709841  0.15353793  0.12646372  1
  In  In13  1  0.66058684  0.18479748  0.63281817  1
  In  In14  1  0.67286037  0.50419733  0.11700592  1
  In  In15  1  0.65498247  0.48974129  0.62048909  1
  In  In16  1  0.66709200  0.83098469  0.12523811  1
  In  In17  1  0.66319510  0.84263058  0.61985277  1
  In  In18  1  0.16168020  0.00437435  0.37509500  1
  In  In19  1  0.17627325  0.01108421  0.87849075  1
  In  In20  1  0.15467679  0.33487036  0.37559330  1
  In  In21  1  0.17213135  0.33303306  0.87813923  1
  In  In22  1  0.17047313  0.67065899  0.36750949  1
  In  In23  1  0.16705105  0.65599521  0.87793982  1
  In  In24  1  0.51031249  -0.01045397  0.37889760  1
  In  In25  1  0.49619197  -0.00051512  0.88037616  1
  In  In26  1  0.49966140  0.34387184  0.38308814  1
  In  In27  1  0.51954990  0.35654910  0.84040998  1
  In  In28  1  0.50644476  0.66683645  0.37502031  1
  In  In29  1  0.49569313  0.67027080  0.87831925  1
  In  In30  1  0.83168729  -0.00431655  0.36287821  1
  In  In31  1  0.83101794  0.00211312  0.88348980  1
  In  In32  1  0.84230480  0.34082494  0.37100567  1
  In  In33  1  0.80015853  0.36108880  0.91061575  1
  In  In34  1  0.82571852  0.65554808  0.36771400  1
  In  In35  1  0.83111880  0.66161880  0.88763723  1
  In  In36  1  0.00236834  0.16982663  0.36826258  1
  In  In37  1  -0.00251455  0.17123678  0.88311367  1
  In  In38  1  -0.00757703  0.49222937  0.36596805  1
  In  In39  1  -0.00371071  0.50492486  0.88506869  1
  In  In40  1  0.00468304  0.83922420  0.36434321  1
  In  In41  1  -0.00178479  0.81790262  0.88230128  1
  In  In42  1  0.33464960  0.17112514  0.38474105  1
  In  In43  1  0.32821853  0.17137458  0.87630764  1
  In  In44  1  0.34071566  0.51315316  0.37073554  1
  In  In45  1  0.33733665  0.49946082  0.87339347  1
  In  In46  1  0.34811760  0.81675696  0.38057632  1
  In  In47  1  0.34694065  0.84077950  0.87809151  1
  In  In48  1  0.66865053  0.15939272  0.37331434  1
  In  In49  1  0.65781927  0.21161017  0.88774086  1
  In  In50  1  0.65294149  0.52841695  0.39940049  1
  In  In51  1  0.66270691  0.49639269  0.88319057  1
  In  In52  1  0.65744277  0.82047576  0.36514938  1
  In  In53  1  0.66718496  0.83004845  0.88356215  1
  In  In54  1  0.15575976  0.00253939  0.12850162  1
  In  In55  1  0.16685554  -0.00234507  0.61321568  1
  In  In56  1  0.16065195  0.32745513  0.11943582  1
  In  In57  1  0.18344350  0.33850547  0.62227189  1
  In  In58  1  0.17493453  0.65331026  0.13393709  1
  In  In59  1  0.17562480  0.67254058  0.61592257  1
  In  In60  1  0.51905221  -0.00245217  0.13131541  1
  In  In61  1  0.49356626  -0.00220484  0.61358976  1
  In  In62  1  0.50127237  0.34200962  0.11857203  1
  In  In63  1  0.49909675  0.33208119  0.62870161  1
  In  In64  1  0.49771457  0.66460281  0.12619297  1
  In  In65  1  0.48839910  0.64652010  0.61042181  1
  In  In66  1  0.83372392  -0.00416223  0.12569896  1
  In  In67  1  0.83290467  0.00181452  0.62478016  1
  In  In68  1  0.84011018  0.34658255  0.11282197  1
  In  In69  1  0.81807768  0.33760980  0.63346127  1
  In  In70  1  0.82955642  0.66762703  0.12702959  1
  In  In71  1  0.82469421  0.64877473  0.61293536  1
  In  In72  1  0.67405727  0.34240065  0.24080926  1
  In  In73  1  -0.00093645  -0.00487900  0.74155574  1
  In  In74  1  0.65902557  0.65917609  0.74066976  1
  In  In75  1  0.33231147  0.00467569  0.75384247  1
  In  In76  1  0.33166187  0.34379522  0.25574234  1
  In  In77  1  -0.00301032  0.65668775  0.75084930  1
  In  In78  1  0.33421359  -0.00283937  0.25825686  1
  In  In79  1  0.00267262  0.33103824  0.75428390  1
  In  In80  1  0.82931531  0.16888347  0.50196527  1
  In  In81  1  0.16305511  0.83405654  0.00995237  1
  In  In82  1  0.66564491  0.00820530  0.74787158  1
  In  In83  1  0.17439724  0.50395645  0.49548178  1
  In  In84  1  0.49721561  0.17179193  -0.00154683  1
  In  In85  1  0.83223849  0.82997147  0.49073245  1
  Cu  Cu86  1  0.65999646  0.66811618  0.00485754  1
  Cu  Cu87  1  0.65630226  0.00240938  0.49622716  1
  Cu  Cu88  1  0.33744425  0.65947085  0.50030002  1
  Cu  Cu89  1  0.15964747  0.16415433  0.24783778  1
  Cu  Cu90  1  0.16620177  0.82795039  0.24857882  1
  Cu  Cu91  1  0.00029297  0.33004912  0.49331134  1
  Cu  Cu92  1  0.82578420  0.17870634  0.76335124  1
  Cu  Cu93  1  0.00241340  -0.00042178  0.00849125  1
  Cu  Cu94  1  0.66578829  0.33870029  0.50641095  1
  Cu  Cu95  1  0.32902891  0.34091370  -0.00399881  1
  Cu  Cu96  1  0.84074347  0.16461205  0.24590203  1
  Cu  Cu97  1  0.00730050  0.33356406  0.00223520  1
  Cu  Cu98  1  0.16207263  0.49447967  0.24863801  1
  Cu  Cu99  1  0.82869959  0.49989424  0.24481176  1
  Cu  Cu100  1  0.33694930  0.00248587  0.00100492  1
  Cu  Cu101  1  0.32554356  -0.00315398  0.49577352  1
  Cu  Cu102  1  0.33741522  0.33331579  0.50509101  1
  Cu  Cu103  1  0.17185534  0.82742159  0.73997948  1
  Cu  Cu104  1  0.50680170  0.17078840  0.25238842  1
  Cu  Cu105  1  0.49596080  0.82983041  0.75198289  1
  Cu  Cu106  1  0.17472070  0.50670802  0.75120482  1
  Cu  Cu107  1  0.67027425  -0.00262721  0.00268947  1
  Cu  Cu108  1  0.16862309  0.16651007  0.74845213  1
  Cu  Cu109  1  0.33476385  0.66528179  0.00038218  1
  Cu  Cu110  1  0.83098039  0.83024062  0.24820489  1
  Cu  Cu111  1  0.83620770  0.82281447  0.75627074  1
  Cu  Cu112  1  0.50220016  0.82761726  0.25213597  1
  Cu  Cu113  1  0.00122348  -0.00383306  0.49403371  1
  Cu  Cu114  1  -0.00667900  0.66584607  0.00936581  1
  Se  Se115  1  0.08803768  0.08676508  0.05423441  1
  Se  Se116  1  0.08106334  0.08263199  0.54822962  1
  Se  Se117  1  0.08507584  0.42223616  0.05586519  1
  Se  Se118  1  0.08023767  0.41087647  0.55576625  1
  Se  Se119  1  0.07649066  0.74365311  0.07000430  1
  Se  Se120  1  0.09516836  0.74333640  0.54118559  1
  Se  Se121  1  0.41645245  0.07866249  0.06637953  1
  Se  Se122  1  0.40982351  0.08143306  0.54800283  1
  Se  Se123  1  0.41561068  0.41891784  0.05046834  1
  Se  Se124  1  0.41767210  0.41840220  0.55884639  1
  Se  Se125  1  0.41820711  0.74947890  0.05263242  1
  Se  Se126  1  0.42010843  0.74985974  0.54950792  1
  Se  Se127  1  0.75306052  0.08076539  0.05533550  1
  Se  Se128  1  0.73584528  0.07820910  0.56095217  1
  Se  Se129  1  0.73840219  0.40818544  0.04880236  1
  Se  Se130  1  0.75588691  0.41914772  0.55522290  1
  Se  Se131  1  0.74909957  0.74956156  0.05491093  1
  Se  Se132  1  0.74070606  0.74659552  0.55391172  1
  Se  Se133  1  0.24909577  0.25243195  0.04804878  1
  Se  Se134  1  0.24467326  0.24931736  0.54749490  1
  Se  Se135  1  0.24432861  0.58555555  0.05033446  1
  Se  Se136  1  0.26838210  0.57331277  0.56498721  1
  Se  Se137  1  0.25947550  0.92420637  0.06604447  1
  Se  Se138  1  0.24752723  0.90905226  0.54951327  1
  Se  Se139  1  0.59364059  0.25325126  0.05968342  1
  Se  Se140  1  0.58201874  0.25106051  0.55496930  1
  Se  Se141  1  0.57691202  0.58134825  0.05446440  1
  Se  Se142  1  0.59886465  0.59107696  0.55297771  1
  Se  Se143  1  0.58410865  0.91568708  0.05445794  1
  Se  Se144  1  0.57793567  0.91386352  0.54772682  1
  Se  Se145  1  0.92179165  0.25055630  0.05398595  1
  Se  Se146  1  0.92013508  0.25922083  0.56226677  1
  Se  Se147  1  0.91010520  0.57916953  0.05917767  1
  Se  Se148  1  0.94332888  0.61223767  0.55565221  1
  Se  Se149  1  0.91781833  0.91275896  0.05557012  1
  Se  Se150  1  0.92225427  0.91900938  0.55815627  1
  Se  Se151  1  0.08242207  0.24366436  0.44445472  1
  Se  Se152  1  0.08845108  0.25048607  0.94625877  1
  Se  Se153  1  0.08094312  0.58164525  0.43241820  1
  Se  Se154  1  0.07930888  0.59053969  0.95131290  1
  Se  Se155  1  0.08361867  0.91286774  0.44131399  1
  Se  Se156  1  0.07999918  0.92348231  0.94065749  1
  Se  Se157  1  0.42217623  0.25306638  0.44892177  1
  Se  Se158  1  0.41418508  0.26335953  0.93708593  1
  Se  Se159  1  0.42333769  0.58091669  0.44565908  1
  Se  Se160  1  0.41657710  0.58215385  0.94554060  1
  Se  Se161  1  0.41450691  0.91809608  0.44362134  1
  Se  Se162  1  0.42227988  0.91714648  0.95386139  1
  Se  Se163  1  0.74312525  0.26092656  0.44068847  1
  Se  Se164  1  0.77229594  0.22813728  0.95224158  1
  Se  Se165  1  0.77327741  0.57374081  0.45079984  1
  Se  Se166  1  0.74251726  0.58230974  0.95222272  1
  Se  Se167  1  0.74082888  0.92522004  0.43664657  1
  Se  Se168  1  0.75302118  0.91235930  0.94898924  1
  Se  Se169  1  0.24574845  0.08452313  0.44428213  1
  Se  Se170  1  0.25395322  0.08816267  0.95138365  1
  Se  Se171  1  0.26267691  0.40871833  0.43562908  1
  Se  Se172  1  0.24584912  0.42615970  0.94402599  1
  Se  Se173  1  0.25386311  0.73951088  0.44438781  1
  Se  Se174  1  0.25322492  0.75203355  0.94325034  1
  Se  Se175  1  0.57819149  0.09089047  0.44386562  1
  Se  Se176  1  0.59403169  0.08188432  0.94048023  1
  Se  Se177  1  0.58047032  0.42234832  0.45486760  1
  Se  Se178  1  0.57585441  0.39868109  0.93619765  1
  Se  Se179  1  0.57636284  0.76105273  0.44353488  1
  Se  Se180  1  0.57857981  0.75131265  0.94839976  1
  Se  Se181  1  0.91483688  0.07677344  0.43972578  1
  Se  Se182  1  0.92217910  0.07888700  0.94829852  1
  Se  Se183  1  0.91811268  0.41847345  0.44631659  1
  Se  Se184  1  0.92064786  0.42121478  0.95617474  1
  Se  Se185  1  0.92184164  0.74595565  0.42986748  1
  Se  Se186  1  0.91214325  0.74938738  0.95425596  1
  Se  Se187  1  0.24307689  0.24218473  0.30809693  1
  Se  Se188  1  0.24637448  0.24972128  0.80442293  1
  Se  Se189  1  0.24672952  0.57752628  0.30131810  1
  Se  Se190  1  0.25482634  0.59003916  0.80583194  1
  Se  Se191  1  0.24632392  0.90303501  0.31414845  1
  Se  Se192  1  0.23948294  0.90841790  0.80840843  1
  Se  Se193  1  0.58428232  0.25686803  0.30960181  1
  Se  Se194  1  0.57823026  0.23350537  0.79939729  1
  Se  Se195  1  0.59716525  0.58771418  0.30950085  1
  Se  Se196  1  0.57609651  0.57871574  0.81057509  1
  Se  Se197  1  0.58453960  0.91800886  0.29985468  1
  Se  Se198  1  0.57931878  0.91060796  0.80833620  1
  Se  Se199  1  0.91590296  0.25135686  0.30244724  1
  Se  Se200  1  0.90895630  0.25679788  0.81996700  1
  Se  Se201  1  0.91565410  0.58106378  0.29819303  1
  Se  Se202  1  0.90296188  0.57336824  0.81102496  1
  Se  Se203  1  0.91742034  0.91724717  0.29580683  1
  Se  Se204  1  0.91592608  0.90734253  0.81115093  1
  Se  Se205  1  0.07937866  0.07900791  0.30147399  1
  Se  Se206  1  0.08529962  0.08625786  0.80517779  1
  Se  Se207  1  0.07927207  0.40856217  0.29952208  1
  Se  Se208  1  0.08814114  0.43065620  0.81037899  1
  Se  Se209  1  0.07990599  0.74465185  0.29896945  1
  Se  Se210  1  0.08977791  0.75423198  0.80515691  1
  Se  Se211  1  0.42458771  0.09313617  0.31222491  1
  Se  Se212  1  0.42664546  0.09287370  0.80972356  1
  Se  Se213  1  0.43376447  0.43043237  0.30413340  1
  Se  Se214  1  0.39785556  0.40976682  0.79758604  1
  Se  Se215  1  0.41839289  0.74189851  0.30189603  1
  Se  Se216  1  0.41223728  0.75066457  0.80652257  1
  Se  Se217  1  0.75182731  0.08770155  0.29992857  1
  Se  Se218  1  0.74676643  0.09131977  0.81809202  1
  Se  Se219  1  0.74947469  0.42815587  0.31222200  1
  Se  Se220  1  0.75052720  0.41518467  0.81714526  1
  Se  Se221  1  0.74864189  0.74483683  0.30008380  1
  Se  Se222  1  0.74995737  0.74511073  0.81058109  1
  Se  Se223  1  0.25221651  0.09166849  0.19214791  1
  Se  Se224  1  0.24403221  0.08572512  0.68610014  1
  Se  Se225  1  0.24652315  0.42182362  0.18550491  1
  Se  Se226  1  0.25075594  0.41310586  0.70171229  1
  Se  Se227  1  0.25259946  0.74244731  0.20201753  1
  Se  Se228  1  0.25678416  0.74334391  0.69219835  1
  Se  Se229  1  0.58932771  0.08283696  0.20457087  1
  Se  Se230  1  0.56887345  0.08700933  0.68740916  1
  Se  Se231  1  0.57498110  0.43011418  0.18961228  1
  Se  Se232  1  0.58120277  0.41657292  0.69680896  1
  Se  Se233  1  0.58371603  0.74783270  0.19363478  1
  Se  Se234  1  0.57576642  0.75953098  0.68650240  1
  Se  Se235  1  0.92101322  0.07873243  0.19274736  1
  Se  Se236  1  0.90015915  0.09814429  0.69862064  1
  Se  Se237  1  0.91275052  0.41274227  0.19551536  1
  Se  Se238  1  0.91414237  0.42357144  0.69472100  1
  Se  Se239  1  0.91583769  0.74509329  0.19810841  1
  Se  Se240  1  0.90687228  0.74645517  0.68857997  1
  Se  Se241  1  0.08207878  0.25169879  0.19435063  1
  Se  Se242  1  0.08769682  0.24372643  0.68634927  1
  Se  Se243  1  0.07857000  0.58090298  0.19805043  1
  Se  Se244  1  0.09298816  0.57702120  0.68676611  1
  Se  Se245  1  0.08536416  0.91771782  0.20047305  1
  Se  Se246  1  0.08548370  0.90068549  0.68190900  1
  Se  Se247  1  0.42592680  0.25070544  0.19492570  1
  Se  Se248  1  0.40814990  0.25075541  0.69320809  1
  Se  Se249  1  0.40610317  0.59078012  0.19449758  1
  Se  Se250  1  0.42714824  0.59308749  0.70074480  1
  Se  Se251  1  0.42050395  0.91008535  0.19235027  1
  Se  Se252  1  0.41786447  0.91282882  0.69152153  1
  Se  Se253  1  0.76101021  0.24509295  0.18546533  1
  Se  Se254  1  0.74278276  0.25724448  0.70666780  1
  Se  Se255  1  0.74396143  0.58344786  0.19394134  1
  Se  Se256  1  0.75673027  0.56857922  0.69129048  1
  Se  Se257  1  0.74851987  0.91562229  0.19482655  1
  Se  Se258  1  0.76010922  0.90734391  0.69619653  1
