# generated using pymatgen
data_In86Cu29Se144
_symmetry_space_group_name_H-M   'P 1'
_cell_length_a   17.58281723
_cell_length_b   17.58678122
_cell_length_c   23.44301733
_cell_angle_alpha   89.99769585
_cell_angle_beta   89.97023608
_cell_angle_gamma   90.00829856
_symmetry_Int_Tables_number   1
_chemical_formula_structural   In86Cu29Se144
_chemical_formula_sum   'In86 Cu29 Se144'
_cell_volume   7249.16972040
_cell_formula_units_Z   1
loop_
 _symmetry_equiv_pos_site_id
 _symmetry_equiv_pos_as_xyz
  1  'x, y, z'
loop_
 _atom_site_type_symbol
 _atom_site_label
 _atom_site_symmetry_multiplicity
 _atom_site_fract_x
 _atom_site_fract_y
 _atom_site_fract_z
 _atom_site_occupancy
  In  In0  1  -0.01621952  0.15707888  0.13544187  1
  In  In1  1  -0.01447654  0.15452754  0.60932689  1
  In  In2  1  0.00273884  0.50601951  0.12704865  1
  In  In3  1  -0.00411170  0.49912568  0.61381790  1
  In  In4  1  -0.01336859  0.84490093  0.13160906  1
  In  In5  1  -0.00757282  0.84278449  0.62885376  1
  In  In6  1  0.34929708  0.15632359  0.13206495  1
  In  In7  1  0.33424822  0.17766327  0.61914965  1
  In  In8  1  0.32725459  0.50811054  0.13394184  1
  In  In9  1  0.34688003  0.51722375  0.60743767  1
  In  In10  1  0.33232032  0.83873705  0.13207842  1
  In  In11  1  0.31976830  0.82135748  0.62424835  1
  In  In12  1  0.66099903  0.17405215  0.13703963  1
  In  In13  1  0.66865277  0.15135886  0.62118377  1
  In  In14  1  0.67250526  0.50350018  0.13166896  1
  In  In15  1  0.66424756  0.50641724  0.61675907  1
  In  In16  1  0.68344048  0.82035748  0.13041623  1
  In  In17  1  0.67109137  0.82995505  0.62264803  1
  In  In18  1  0.17017921  0.00505906  0.37004478  1
  In  In19  1  0.15993344  0.01057681  0.87274779  1
  In  In20  1  0.17087380  0.32478197  0.37738012  1
  In  In21  1  0.17743543  0.33910974  0.87883776  1
  In  In22  1  0.15715752  0.65836135  0.36878193  1
  In  In23  1  0.16941800  0.65284955  0.87813509  1
  In  In24  1  0.51042054  0.00590944  0.36774817  1
  In  In25  1  0.51538505  -0.00955567  0.88118692  1
  In  In26  1  0.51572183  0.34515720  0.36495012  1
  In  In27  1  0.49071113  0.33298734  0.87991110  1
  In  In28  1  0.49584837  0.66240245  0.36917612  1
  In  In29  1  0.50680290  0.66855697  0.86347872  1
  In  In30  1  0.82851275  -0.01078187  0.37784592  1
  In  In31  1  0.82565436  -0.01235069  0.86794493  1
  In  In32  1  0.82146450  0.34544618  0.37636083  1
  In  In33  1  0.83862610  0.34124115  0.87717352  1
  In  In34  1  0.83324388  0.66105714  0.37359603  1
  In  In35  1  0.81946469  0.68059658  0.89317877  1
  In  In36  1  0.00186254  0.15976373  0.37742074  1
  In  In37  1  0.00863341  0.15908167  0.87314190  1
  In  In38  1  -0.01154911  0.51220417  0.37934861  1
  In  In39  1  -0.00768501  0.50674293  0.88564060  1
  In  In40  1  -0.01121036  0.81673510  0.36598022  1
  In  In41  1  -0.01761351  0.83093282  0.87717566  1
  In  In42  1  0.32756888  0.16289275  0.36778366  1
  In  In43  1  0.33267142  0.17809959  0.88075083  1
  In  In44  1  0.33492168  0.49813857  0.37219632  1
  In  In45  1  0.33241263  0.49739075  0.87609615  1
  In  In46  1  0.33560675  0.83602498  0.36429720  1
  In  In47  1  0.34992343  0.82920603  0.87699736  1
  In  In48  1  0.67910801  0.16741523  0.36970588  1
  In  In49  1  0.67594777  0.14920559  0.87797853  1
  In  In50  1  0.67169363  0.50123972  0.37188688  1
  In  In51  1  0.66650935  0.52211433  0.87602427  1
  In  In52  1  0.67374770  0.83405907  0.37357864  1
  In  In53  1  0.66820216  0.83430296  0.87051794  1
  In  In54  1  0.16667659  0.00186039  0.13099203  1
  In  In55  1  0.15019923  -0.00807358  0.62082217  1
  In  In56  1  0.16387618  0.35134370  0.12819023  1
  In  In57  1  0.16540030  0.33307183  0.61252054  1
  In  In58  1  0.17668867  0.66057023  0.13240612  1
  In  In59  1  0.17720664  0.66291539  0.62447716  1
  In  In60  1  0.49265469  0.01212564  0.12917135  1
  In  In61  1  0.50463625  0.00876116  0.62760148  1
  In  In62  1  0.51069394  0.32356564  0.13571587  1
  In  In63  1  0.48979795  0.34172891  0.62202829  1
  In  In64  1  0.50911632  0.66077429  0.13288392  1
  In  In65  1  0.51153436  0.65034407  0.63796188  1
  In  In66  1  0.83953766  -0.00272920  0.13857688  1
  In  In67  1  0.82935525  -0.00263438  0.61761861  1
  In  In68  1  0.81556386  0.34317297  0.14105753  1
  In  In69  1  0.83400264  0.33599991  0.61268133  1
  In  In70  1  0.82781257  0.67173452  0.12607901  1
  In  In71  1  0.80700006  0.66022448  0.59936549  1
  In  In72  1  0.50579409  0.82871216  0.50317627  1
  In  In73  1  0.33210279  0.33724278  0.75219841  1
  In  In74  1  0.51052932  0.17341112  0.48600745  1
  In  In75  1  -0.00388192  0.33526804  0.25263716  1
  In  In76  1  0.66668682  0.33308731  0.74136296  1
  In  In77  1  0.33537602  -0.00215913  0.75215843  1
  In  In78  1  -0.00534510  0.67055671  0.74908263  1
  In  In79  1  0.50482205  0.49943304  0.00860988  1
  In  In80  1  0.00098009  0.32978084  0.75104635  1
  In  In81  1  0.50679166  0.83252068  0.00095270  1
  In  In82  1  0.16903218  0.17239104  0.00130656  1
  In  In83  1  0.16108621  0.83125108  0.50127936  1
  In  In84  1  0.16490366  0.83298258  0.01117295  1
  In  In85  1  0.83071758  0.16959620  0.00874841  1
  Cu  Cu86  1  -0.00259081  0.66392119  0.49437120  1
  Cu  Cu87  1  -0.00089491  -0.00041196  0.49522426  1
  Cu  Cu88  1  -0.00268714  0.34079458  0.00847930  1
  Cu  Cu89  1  0.82694215  0.50920644  0.74404890  1
  Cu  Cu90  1  0.00049382  0.33489159  0.49024332  1
  Cu  Cu91  1  0.17307119  0.49985789  0.75021141  1
  Cu  Cu92  1  0.66376891  0.33875578  0.49408463  1
  Cu  Cu93  1  0.33421923  0.66183607  0.00564443  1
  Cu  Cu94  1  0.83270463  0.83108944  0.25343045  1
  Cu  Cu95  1  0.32964017  0.66056881  0.49352698  1
  Cu  Cu96  1  -0.00412921  0.66380853  0.00568851  1
  Cu  Cu97  1  0.33369982  0.33720790  0.00393621  1
  Cu  Cu98  1  0.50453617  0.83391192  0.24858169  1
  Cu  Cu99  1  -0.00751842  -0.00188405  0.00280328  1
  Cu  Cu100  1  0.50331846  0.83004726  0.74891141  1
  Cu  Cu101  1  0.50027083  0.49893454  0.25029361  1
  Cu  Cu102  1  0.15649602  0.15712896  0.74154174  1
  Cu  Cu103  1  0.50977885  0.16145596  0.75591002  1
  Cu  Cu104  1  0.33110409  0.33719994  0.49451091  1
  Cu  Cu105  1  0.33579950  0.00575377  0.48989539  1
  Cu  Cu106  1  0.66323401  0.33318295  0.01142695  1
  Cu  Cu107  1  0.16988549  0.50149510  0.25390152  1
  Cu  Cu108  1  0.49765783  0.16495090  0.25484639  1
  Cu  Cu109  1  0.16697863  0.82810902  0.74856244  1
  Cu  Cu110  1  0.16831965  0.16789180  0.25228972  1
  Cu  Cu111  1  0.83058153  0.83114800  0.74689526  1
  Cu  Cu112  1  0.83790176  0.15107589  0.74373521  1
  Cu  Cu113  1  0.16492406  0.83733244  0.24810974  1
  Cu  Cu114  1  0.66553045  -0.00256146  0.00263913  1
  Se  Se115  1  0.07286517  0.08231372  0.05865245  1
  Se  Se116  1  0.08653127  0.08107855  0.54779652  1
  Se  Se117  1  0.08506869  0.42589354  0.05403210  1
  Se  Se118  1  0.08175485  0.41784409  0.54751597  1
  Se  Se119  1  0.07467173  0.74300290  0.06840470  1
  Se  Se120  1  0.07221669  0.74057329  0.56298470  1
  Se  Se121  1  0.42008225  0.08739255  0.05148089  1
  Se  Se122  1  0.41682655  0.08392286  0.55183392  1
  Se  Se123  1  0.41396189  0.41151403  0.06837966  1
  Se  Se124  1  0.41925789  0.41865273  0.54496084  1
  Se  Se125  1  0.41364680  0.74402402  0.06309315  1
  Se  Se126  1  0.40627530  0.74089291  0.55630171  1
  Se  Se127  1  0.74295562  0.07664988  0.06579220  1
  Se  Se128  1  0.76253322  0.09513385  0.55036124  1
  Se  Se129  1  0.74850148  0.41715027  0.05958303  1
  Se  Se130  1  0.74696693  0.42037533  0.55063155  1
  Se  Se131  1  0.75717970  0.75556964  0.04998353  1
  Se  Se132  1  0.75556714  0.77482199  0.54092247  1
  Se  Se133  1  0.25445233  0.25792492  0.06646212  1
  Se  Se134  1  0.25112629  0.24902661  0.54664283  1
  Se  Se135  1  0.24844308  0.57934326  0.05575965  1
  Se  Se136  1  0.24065594  0.58060100  0.54597699  1
  Se  Se137  1  0.25936402  0.92970990  0.05789095  1
  Se  Se138  1  0.25945190  0.92563005  0.55449910  1
  Se  Se139  1  0.58211218  0.24440024  0.05837719  1
  Se  Se140  1  0.58850896  0.25884276  0.56066769  1
  Se  Se141  1  0.59776438  0.59577328  0.05588024  1
  Se  Se142  1  0.58047266  0.59324703  0.55252544  1
  Se  Se143  1  0.58940316  0.91928248  0.06749665  1
  Se  Se144  1  0.58919911  0.93003088  0.55719893  1
  Se  Se145  1  0.91983896  0.26135806  0.06849940  1
  Se  Se146  1  0.91647026  0.25296314  0.54567192  1
  Se  Se147  1  0.91231266  0.58226537  0.05994107  1
  Se  Se148  1  0.91127511  0.58093123  0.54718960  1
  Se  Se149  1  0.90678757  0.92058533  0.05711400  1
  Se  Se150  1  0.91944895  0.91544254  0.55099468  1
  Se  Se151  1  0.08445111  0.24526710  0.44508339  1
  Se  Se152  1  0.07254396  0.26264104  0.94255711  1
  Se  Se153  1  0.08637945  0.58170110  0.44703896  1
  Se  Se154  1  0.08244292  0.58529530  0.95109862  1
  Se  Se155  1  0.07721427  0.91641943  0.43486488  1
  Se  Se156  1  0.07758641  0.92147524  0.94344075  1
  Se  Se157  1  0.41315606  0.25984619  0.43205578  1
  Se  Se158  1  0.41667260  0.25135099  0.95326513  1
  Se  Se159  1  0.41771991  0.58107240  0.44225769  1
  Se  Se160  1  0.41860245  0.58954566  0.94259691  1
  Se  Se161  1  0.41761244  0.92046881  0.43830625  1
  Se  Se162  1  0.41028876  0.92665819  0.94820622  1
  Se  Se163  1  0.74749208  0.25241232  0.44513008  1
  Se  Se164  1  0.74246681  0.25861348  0.94339190  1
  Se  Se165  1  0.75400838  0.57833972  0.44378832  1
  Se  Se166  1  0.76648197  0.56500248  0.94767263  1
  Se  Se167  1  0.76079438  0.89603832  0.45095522  1
  Se  Se168  1  0.74547333  0.91662863  0.94413217  1
  Se  Se169  1  0.24735607  0.08756054  0.44302332  1
  Se  Se170  1  0.25603676  0.07626269  0.94331043  1
  Se  Se171  1  0.24688915  0.41957483  0.44179283  1
  Se  Se172  1  0.25199109  0.42168706  0.95081054  1
  Se  Se173  1  0.25355005  0.74891550  0.43730506  1
  Se  Se174  1  0.25676627  0.74631824  0.94514566  1
  Se  Se175  1  0.60063489  0.07157684  0.44321319  1
  Se  Se176  1  0.58473658  0.08404788  0.94999063  1
  Se  Se177  1  0.58127178  0.42384636  0.44368660  1
  Se  Se178  1  0.59142608  0.41183526  0.94184035  1
  Se  Se179  1  0.58816744  0.74043160  0.43897124  1
  Se  Se180  1  0.59171981  0.73949944  0.94126095  1
  Se  Se181  1  0.91235548  0.07954326  0.44295897  1
  Se  Se182  1  0.91606511  0.08062044  0.94080176  1
  Se  Se183  1  0.91234214  0.41994600  0.44455951  1
  Se  Se184  1  0.91206998  0.41902731  0.95225291  1
  Se  Se185  1  0.91360729  0.74874898  0.44527042  1
  Se  Se186  1  0.91603614  0.75482242  0.95649357  1
  Se  Se187  1  0.25178300  0.25462131  0.30047354  1
  Se  Se188  1  0.23537888  0.23822492  0.80327841  1
  Se  Se189  1  0.25480814  0.58709885  0.30434437  1
  Se  Se190  1  0.25474680  0.58198216  0.80518176  1
  Se  Se191  1  0.25008398  0.92078413  0.30049807  1
  Se  Se192  1  0.24434007  0.90762581  0.81356193  1
  Se  Se193  1  0.58761409  0.24594061  0.30370473  1
  Se  Se194  1  0.58458480  0.24774852  0.81419964  1
  Se  Se195  1  0.58400124  0.58264247  0.30271408  1
  Se  Se196  1  0.58466302  0.58066187  0.79812465  1
  Se  Se197  1  0.58816587  0.91375399  0.30433592  1
  Se  Se198  1  0.58398759  0.91675214  0.80154261  1
  Se  Se199  1  0.91042091  0.24856335  0.31537043  1
  Se  Se200  1  0.90638936  0.23685280  0.80863183  1
  Se  Se201  1  0.93110360  0.59882984  0.30324860  1
  Se  Se202  1  0.90769801  0.58056224  0.81032078  1
  Se  Se203  1  0.91769146  0.91652752  0.30463279  1
  Se  Se204  1  0.91702163  0.91279327  0.79984810  1
  Se  Se205  1  0.08269989  0.08451732  0.30222933  1
  Se  Se206  1  0.07504761  0.07553854  0.79666345  1
  Se  Se207  1  0.08682961  0.42293218  0.31374455  1
  Se  Se208  1  0.08901313  0.42436503  0.81107920  1
  Se  Se209  1  0.08530828  0.74854539  0.29933740  1
  Se  Se210  1  0.08790101  0.75347953  0.81471731  1
  Se  Se211  1  0.41357390  0.07764166  0.30358651  1
  Se  Se212  1  0.42182928  0.08835754  0.81517881  1
  Se  Se213  1  0.41556695  0.41437377  0.30139098  1
  Se  Se214  1  0.42958658  0.42680011  0.80520675  1
  Se  Se215  1  0.41823118  0.75012322  0.29970647  1
  Se  Se216  1  0.41544263  0.74916587  0.79975167  1
  Se  Se217  1  0.74155868  0.06411151  0.30725701  1
  Se  Se218  1  0.74886295  0.07672153  0.79950004  1
  Se  Se219  1  0.73755297  0.40869658  0.29976425  1
  Se  Se220  1  0.75424169  0.42213856  0.80510008  1
  Se  Se221  1  0.74964334  0.74551474  0.30456199  1
  Se  Se222  1  0.75469409  0.74680765  0.80708325  1
  Se  Se223  1  0.25105858  0.08523216  0.19660415  1
  Se  Se224  1  0.24826093  0.08471853  0.68509133  1
  Se  Se225  1  0.25212003  0.41597918  0.20200083  1
  Se  Se226  1  0.24547373  0.41967653  0.68529602  1
  Se  Se227  1  0.25193107  0.75272548  0.19844947  1
  Se  Se228  1  0.25015698  0.74177657  0.70111379  1
  Se  Se229  1  0.58184107  0.08180377  0.20090226  1
  Se  Se230  1  0.59008213  0.08079944  0.69973788  1
  Se  Se231  1  0.58765890  0.41762469  0.19782680  1
  Se  Se232  1  0.57299206  0.42614663  0.69041443  1
  Se  Se233  1  0.58875217  0.74893038  0.19798781  1
  Se  Se234  1  0.58873392  0.75110259  0.69433824  1
  Se  Se235  1  0.91259359  0.08225659  0.21094048  1
  Se  Se236  1  0.92172344  0.07312324  0.68819195  1
  Se  Se237  1  0.90816860  0.43310012  0.19933421  1
  Se  Se238  1  0.91023618  0.42247975  0.69171520  1
  Se  Se239  1  0.91597728  0.74968442  0.19696119  1
  Se  Se240  1  0.90099569  0.74595591  0.68318847  1
  Se  Se241  1  0.08754274  0.24536683  0.18943865  1
  Se  Se242  1  0.08228444  0.24294781  0.68283227  1
  Se  Se243  1  0.08652160  0.58258022  0.19882242  1
  Se  Se244  1  0.08469936  0.57417261  0.69158075  1
  Se  Se245  1  0.08016220  0.92143604  0.19654584  1
  Se  Se246  1  0.08320616  0.91315130  0.69936534  1
  Se  Se247  1  0.41577716  0.25067490  0.20165990  1
  Se  Se248  1  0.42726037  0.24070301  0.69651492  1
  Se  Se249  1  0.41728061  0.58636002  0.19932043  1
  Se  Se250  1  0.40313438  0.58522903  0.69362742  1
  Se  Se251  1  0.41969547  0.91912427  0.19746395  1
  Se  Se252  1  0.42049814  0.90691956  0.68703650  1
  Se  Se253  1  0.77029556  0.22869051  0.19810474  1
  Se  Se254  1  0.76350864  0.24241572  0.68814687  1
  Se  Se255  1  0.73964026  0.59920769  0.19748365  1
  Se  Se256  1  0.74752486  0.58899265  0.68638838  1
  Se  Se257  1  0.74815016  0.91500393  0.20081443  1
  Se  Se258  1  0.75061699  0.91626155  0.69149049  1
