# generated using pymatgen
data_In86Cu29Se144
_symmetry_space_group_name_H-M   'P 1'
_cell_length_a   17.56241704
_cell_length_b   17.56179941
_cell_length_c   23.42181197
_cell_angle_alpha   90.00517544
_cell_angle_beta   89.97888491
_cell_angle_gamma   90.01520607
_symmetry_Int_Tables_number   1
_chemical_formula_structural   In86Cu29Se144
_chemical_formula_sum   'In86 Cu29 Se144'
_cell_volume   7223.93353834
_cell_formula_units_Z   1
loop_
 _symmetry_equiv_pos_site_id
 _symmetry_equiv_pos_as_xyz
  1  'x, y, z'
loop_
 _atom_site_type_symbol
 _atom_site_label
 _atom_site_symmetry_multiplicity
 _atom_site_fract_x
 _atom_site_fract_y
 _atom_site_fract_z
 _atom_site_occupancy
  In  In0  1  -0.00626528  0.17129445  0.13249151  1
  In  In1  1  -0.00676676  0.15926883  0.62718632  1
  In  In2  1  -0.00207891  0.50724573  0.13377683  1
  In  In3  1  0.00665649  0.51406398  0.61149394  1
  In  In4  1  -0.01328179  0.84255500  0.14097016  1
  In  In5  1  -0.00140100  0.83178015  0.62377897  1
  In  In6  1  0.34040599  0.17399480  0.12381130  1
  In  In7  1  0.33417915  0.15161492  0.62547703  1
  In  In8  1  0.33878870  0.49522474  0.13675109  1
  In  In9  1  0.33260394  0.50228170  0.61548513  1
  In  In10  1  0.32970792  0.82427836  0.12453858  1
  In  In11  1  0.33247776  0.84815669  0.62500515  1
  In  In12  1  0.67314906  0.17449318  0.11649959  1
  In  In13  1  0.65774948  0.16872921  0.62670997  1
  In  In14  1  0.65461245  0.48772264  0.12123948  1
  In  In15  1  0.66528492  0.50162842  0.61343642  1
  In  In16  1  0.68033441  0.84962656  0.10302803  1
  In  In17  1  0.67704938  0.83338752  0.62850357  1
  In  In18  1  0.14906796  0.00591861  0.37272815  1
  In  In19  1  0.16188736  -0.01793876  0.86162320  1
  In  In20  1  0.17940745  0.33833202  0.36137479  1
  In  In21  1  0.16821353  0.33467725  0.87573267  1
  In  In22  1  0.16151716  0.66988388  0.37465328  1
  In  In23  1  0.15692375  0.68207679  0.86936933  1
  In  In24  1  0.51401745  0.00247557  0.37950630  1
  In  In25  1  0.49936643  -0.00273568  0.87200424  1
  In  In26  1  0.50011427  0.33729076  0.37157596  1
  In  In27  1  0.51167675  0.31093432  0.89278173  1
  In  In28  1  0.48317773  0.66364353  0.37064483  1
  In  In29  1  0.50076927  0.66301325  0.88312257  1
  In  In30  1  0.84546324  -0.00951293  0.38081401  1
  In  In31  1  0.83526932  -0.00489209  0.88251624  1
  In  In32  1  0.84472331  0.34132912  0.36188624  1
  In  In33  1  0.82445678  0.33360505  0.88863928  1
  In  In34  1  0.84384917  0.66139967  0.37841413  1
  In  In35  1  0.83653648  0.66491534  0.87819878  1
  In  In36  1  0.01279517  0.16713114  0.35333006  1
  In  In37  1  -0.00006134  0.14629382  0.88455588  1
  In  In38  1  0.00001113  0.50463548  0.37319001  1
  In  In39  1  -0.01319968  0.50286061  0.87644729  1
  In  In40  1  0.00389738  0.83353420  0.37421260  1
  In  In41  1  -0.00049342  0.82594481  0.87078020  1
  In  In42  1  0.33248951  0.18340786  0.37152541  1
  In  In43  1  0.37101412  0.14712199  0.89230787  1
  In  In44  1  0.33065837  0.50046777  0.37541933  1
  In  In45  1  0.34039242  0.50501089  0.87755247  1
  In  In46  1  0.33116585  0.81746345  0.36847072  1
  In  In47  1  0.33343318  0.84232813  0.87116643  1
  In  In48  1  0.65556662  0.16677783  0.37306295  1
  In  In49  1  0.67836306  0.14199606  0.89745170  1
  In  In50  1  0.67750826  0.49247248  0.37659066  1
  In  In51  1  0.66721194  0.49644079  0.88301365  1
  In  In52  1  0.67544674  0.84776672  0.37718798  1
  In  In53  1  0.64915185  0.85873047  0.89853666  1
  In  In54  1  0.14838921  -0.00631198  0.13167281  1
  In  In55  1  0.17286372  -0.01431368  0.63450000  1
  In  In56  1  0.16470467  0.32678918  0.14507871  1
  In  In57  1  0.15837679  0.34202811  0.61746075  1
  In  In58  1  0.16574204  0.68484839  0.14514310  1
  In  In59  1  0.15793573  0.66104617  0.61611678  1
  In  In60  1  0.51076894  0.00976767  0.10486739  1
  In  In61  1  0.48854428  0.00628754  0.63336994  1
  In  In62  1  0.49504304  0.33885525  0.12935047  1
  In  In63  1  0.49884751  0.33080886  0.61566873  1
  In  In64  1  0.49544355  0.66116283  0.12068575  1
  In  In65  1  0.50811102  0.66296593  0.62301664  1
  In  In66  1  0.84572762  0.01656522  0.09376293  1
  In  In67  1  0.85296919  -0.01353957  0.64162386  1
  In  In68  1  0.83075476  0.33357923  0.12883043  1
  In  In69  1  0.82243127  0.33629784  0.62212548  1
  In  In70  1  0.84240041  0.67172781  0.11926357  1
  In  In71  1  0.84007164  0.68123915  0.61527049  1
  In  In72  1  0.17023973  0.16546310  0.00732180  1
  In  In73  1  0.33199302  0.00087205  0.24455764  1
  In  In74  1  0.66895738  0.33132416  0.75731568  1
  In  In75  1  0.33381926  0.32604537  0.75861683  1
  In  In76  1  0.49802782  0.83069221  0.50192842  1
  In  In77  1  0.16936213  0.50018646  0.01456130  1
  In  In78  1  -0.00378634  0.32539869  0.74534311  1
  In  In79  1  0.83250081  0.16808744  0.50067355  1
  In  In80  1  0.17011320  0.17144436  0.49589806  1
  In  In81  1  0.32866903  0.67371626  0.75316619  1
  In  In82  1  0.16376291  0.83187140  -0.00287845  1
  In  In83  1  0.67553429  0.00534943  0.23774552  1
  In  In84  1  0.66599599  0.66747485  0.24161372  1
  In  In85  1  0.67333252  0.67559226  0.74854468  1
  Cu  Cu86  1  0.00101486  0.66199412  0.00171480  1
  Cu  Cu87  1  0.33983499  0.66149106  0.00523473  1
  Cu  Cu88  1  0.83085371  0.83448181  0.75577863  1
  Cu  Cu89  1  0.50270145  0.83443854  0.23832221  1
  Cu  Cu90  1  0.66341518  0.66466584  0.49639706  1
  Cu  Cu91  1  0.66198194  0.33610564  0.00868782  1
  Cu  Cu92  1  -0.00554547  0.67167979  0.49435448  1
  Cu  Cu93  1  0.49651471  0.50004750  0.24852050  1
  Cu  Cu94  1  0.84292698  0.51167661  0.74776032  1
  Cu  Cu95  1  0.83087588  0.15843293  0.24107669  1
  Cu  Cu96  1  -0.00059153  -0.00365327  0.50210410  1
  Cu  Cu97  1  0.33571475  0.00191206  0.50342914  1
  Cu  Cu98  1  0.83152793  0.15793616  0.76512977  1
  Cu  Cu99  1  0.17236959  0.15660419  0.75408851  1
  Cu  Cu100  1  0.66581120  0.33678007  0.49536235  1
  Cu  Cu101  1  0.49554268  0.17640855  0.24999405  1
  Cu  Cu102  1  -0.00854861  0.32883067  0.00705620  1
  Cu  Cu103  1  0.50224180  0.15369549  0.75319061  1
  Cu  Cu104  1  0.67125349  0.00466766  0.50505863  1
  Cu  Cu105  1  0.33097991  0.00040247  -0.00363062  1
  Cu  Cu106  1  0.50065674  0.49567571  0.75095777  1
  Cu  Cu107  1  -0.00067112  0.34186598  0.48926442  1
  Cu  Cu108  1  0.32364071  0.66217368  0.49486781  1
  Cu  Cu109  1  0.16565310  0.50568226  0.25607198  1
  Cu  Cu110  1  0.84140105  0.83180271  0.25105907  1
  Cu  Cu111  1  0.67493475  0.66185304  0.00175191  1
  Cu  Cu112  1  0.16035199  0.50217632  0.74095916  1
  Cu  Cu113  1  0.33862418  0.33802856  0.49240649  1
  Cu  Cu114  1  0.83325681  0.49625405  0.24932050  1
  Se  Se115  1  0.07137182  0.07743244  0.05826832  1
  Se  Se116  1  0.08263806  0.08065850  0.55836704  1
  Se  Se117  1  0.07680896  0.40451696  0.06686175  1
  Se  Se118  1  0.08421228  0.42241952  0.54493766  1
  Se  Se119  1  0.08086286  0.74187610  0.06179529  1
  Se  Se120  1  0.07867421  0.75176036  0.55114058  1
  Se  Se121  1  0.40951469  0.08946947  0.04920401  1
  Se  Se122  1  0.42266531  0.08514442  0.55215043  1
  Se  Se123  1  0.42127284  0.43016603  0.06092909  1
  Se  Se124  1  0.41994115  0.41968986  0.55056060  1
  Se  Se125  1  0.41867031  0.75394494  0.05375181  1
  Se  Se126  1  0.40463854  0.73918706  0.55962799  1
  Se  Se127  1  0.71530969  0.05821644  0.05649790  1
  Se  Se128  1  0.75429789  0.07833905  0.56836006  1
  Se  Se129  1  0.75298510  0.41768381  0.05627764  1
  Se  Se130  1  0.75194797  0.41852189  0.54785120  1
  Se  Se131  1  0.76062410  0.74923691  0.04749203  1
  Se  Se132  1  0.74212750  0.75211199  0.55009146  1
  Se  Se133  1  0.25098810  0.26741039  0.06180884  1
  Se  Se134  1  0.26232020  0.25915069  0.55994264  1
  Se  Se135  1  0.25357424  0.59767308  0.07096760  1
  Se  Se136  1  0.24218806  0.57692359  0.54903020  1
  Se  Se137  1  0.25096851  0.92553260  0.05942414  1
  Se  Se138  1  0.24735812  0.91938674  0.55150790  1
  Se  Se139  1  0.57442504  0.25297462  0.05809050  1
  Se  Se140  1  0.58794190  0.24993807  0.55068462  1
  Se  Se141  1  0.58550992  0.58347103  0.05432169  1
  Se  Se142  1  0.57705036  0.58171477  0.54700816  1
  Se  Se143  1  0.57260092  0.90774299  0.04231358  1
  Se  Se144  1  0.58682956  0.92212354  0.56146526  1
  Se  Se145  1  0.90914296  0.24453648  0.05910597  1
  Se  Se146  1  0.92785110  0.26243655  0.55735422  1
  Se  Se147  1  0.91978799  0.57637417  0.05463502  1
  Se  Se148  1  0.90999377  0.58623461  0.54751782  1
  Se  Se149  1  0.92585463  0.90557745  0.05400764  1
  Se  Se150  1  0.91202611  0.91698124  0.55501031  1
  Se  Se151  1  0.07799283  0.25609618  0.43372336  1
  Se  Se152  1  0.07602797  0.25657364  0.94400653  1
  Se  Se153  1  0.08028832  0.58599323  0.44492371  1
  Se  Se154  1  0.08602956  0.58551596  0.94204605  1
  Se  Se155  1  0.08441194  0.91740971  0.44667154  1
  Se  Se156  1  0.07315576  0.92482844  0.94219061  1
  Se  Se157  1  0.42166775  0.25050457  0.44366082  1
  Se  Se158  1  0.39124550  0.27035349  0.94750459  1
  Se  Se159  1  0.41499525  0.58199300  0.44670054  1
  Se  Se160  1  0.42171347  0.57668979  0.95219451  1
  Se  Se161  1  0.41155897  0.92058099  0.43802993  1
  Se  Se162  1  0.41491171  0.91617326  0.94438130  1
  Se  Se163  1  0.74841833  0.25686862  0.43566723  1
  Se  Se164  1  0.74500282  0.24873863  0.95650449  1
  Se  Se165  1  0.75067706  0.58479927  0.44356033  1
  Se  Se166  1  0.75658080  0.57772959  0.94645782  1
  Se  Se167  1  0.75462800  0.92112264  0.45225814  1
  Se  Se168  1  0.76405544  0.90692997  0.95473029  1
  Se  Se169  1  0.25873778  0.07822609  0.43670247  1
  Se  Se170  1  0.24620055  0.07461120  0.93505253  1
  Se  Se171  1  0.24608794  0.41396265  0.44255855  1
  Se  Se172  1  0.25350626  0.41637561  0.94472381  1
  Se  Se173  1  0.24677719  0.75326938  0.44504806  1
  Se  Se174  1  0.26012156  0.73883675  0.94127105  1
  Se  Se175  1  0.58736970  0.08664546  0.45179286  1
  Se  Se176  1  0.54659467  0.10824186  0.93860898  1
  Se  Se177  1  0.58170784  0.42032126  0.44239448  1
  Se  Se178  1  0.58103168  0.41675430  0.95003687  1
  Se  Se179  1  0.58649789  0.74651843  0.43384197  1
  Se  Se180  1  0.58690121  0.74262949  0.95014183  1
  Se  Se181  1  0.93273279  0.08885284  0.44058298  1
  Se  Se182  1  0.89981461  0.09347145  0.95249598  1
  Se  Se183  1  0.91019416  0.42221165  0.44059346  1
  Se  Se184  1  0.91755828  0.41667394  0.94925071  1
  Se  Se185  1  0.91188412  0.75932777  0.44401611  1
  Se  Se186  1  0.92300384  0.74708386  0.94552773  1
  Se  Se187  1  0.24054268  0.23555089  0.29709825  1
  Se  Se188  1  0.24798140  0.23341035  0.81836986  1
  Se  Se189  1  0.25143374  0.58835011  0.30805664  1
  Se  Se190  1  0.23924596  0.57420080  0.80915914  1
  Se  Se191  1  0.24799310  0.91782558  0.31244242  1
  Se  Se192  1  0.24328999  0.89785561  0.79593172  1
  Se  Se193  1  0.58516271  0.25414364  0.30221756  1
  Se  Se194  1  0.58445624  0.23369303  0.81273905  1
  Se  Se195  1  0.58083805  0.58010196  0.30800356  1
  Se  Se196  1  0.58380785  0.57763108  0.80702919  1
  Se  Se197  1  0.58167242  0.91332915  0.30067784  1
  Se  Se198  1  0.59018846  0.91672278  0.80847917  1
  Se  Se199  1  0.91212479  0.24332560  0.29621321  1
  Se  Se200  1  0.91117791  0.24729736  0.81803053  1
  Se  Se201  1  0.91461219  0.58300225  0.30133564  1
  Se  Se202  1  0.92351197  0.59323916  0.80289421  1
  Se  Se203  1  0.92180328  0.91978053  0.30347344  1
  Se  Se204  1  0.91604695  0.91746782  0.80849730  1
  Se  Se205  1  0.07866059  0.06886305  0.28950778  1
  Se  Se206  1  0.07990546  0.08122163  0.80533267  1
  Se  Se207  1  0.08018406  0.41807088  0.30416531  1
  Se  Se208  1  0.08477811  0.42071403  0.80479732  1
  Se  Se209  1  0.07643710  0.74553582  0.30401789  1
  Se  Se210  1  0.08907921  0.76246956  0.79557429  1
  Se  Se211  1  0.42651175  0.08544463  0.30976226  1
  Se  Se212  1  0.40926325  0.07522643  0.80123556  1
  Se  Se213  1  0.41279753  0.41820538  0.30465843  1
  Se  Se214  1  0.43064742  0.41375245  0.81495706  1
  Se  Se215  1  0.42273814  0.75341219  0.29538868  1
  Se  Se216  1  0.42959954  0.75344720  0.80970549  1
  Se  Se217  1  0.75873598  0.08444335  0.31299600  1
  Se  Se218  1  0.74450722  0.07501005  0.81322005  1
  Se  Se219  1  0.74538120  0.41323782  0.29818403  1
  Se  Se220  1  0.76441027  0.42839337  0.80755648  1
  Se  Se221  1  0.75269695  0.75615949  0.30815382  1
  Se  Se222  1  0.74898758  0.76117803  0.81928313  1
  Se  Se223  1  0.24184445  0.09026230  0.18510308  1
  Se  Se224  1  0.25569338  0.07597878  0.69844003  1
  Se  Se225  1  0.24853654  0.41968109  0.20437598  1
  Se  Se226  1  0.24834038  0.41879841  0.69171075  1
  Se  Se227  1  0.26272094  0.75777594  0.20755659  1
  Se  Se228  1  0.24322243  0.75172240  0.68346292  1
  Se  Se229  1  0.57292539  0.09319045  0.18909450  1
  Se  Se230  1  0.58895894  0.07832159  0.69663090  1
  Se  Se231  1  0.58309387  0.41473567  0.20087754  1
  Se  Se232  1  0.58175037  0.41811008  0.69017507  1
  Se  Se233  1  0.58940240  0.76351355  0.17773334  1
  Se  Se234  1  0.57279092  0.76000774  0.69254054  1
  Se  Se235  1  0.90742631  0.07113207  0.18620735  1
  Se  Se236  1  0.92089855  0.08704857  0.70632722  1
  Se  Se237  1  0.91885079  0.41320232  0.19694536  1
  Se  Se238  1  0.91372342  0.42428493  0.68596469  1
  Se  Se239  1  0.91743602  0.73822169  0.20099626  1
  Se  Se240  1  0.91044639  0.75317182  0.69536332  1
  Se  Se241  1  0.07736565  0.24261274  0.20533813  1
  Se  Se242  1  0.09874478  0.23859579  0.68993197  1
  Se  Se243  1  0.08285559  0.58796904  0.20165763  1
  Se  Se244  1  0.07673833  0.58700397  0.69225965  1
  Se  Se245  1  0.10510597  0.88601112  0.19744146  1
  Se  Se246  1  0.05861194  0.93474997  0.69007612  1
  Se  Se247  1  0.40880566  0.25756132  0.19945482  1
  Se  Se248  1  0.42695050  0.24250660  0.69385311  1
  Se  Se249  1  0.41728721  0.59142264  0.19948807  1
  Se  Se250  1  0.41964037  0.57650354  0.69376014  1
  Se  Se251  1  0.42853274  0.92185336  0.18029481  1
  Se  Se252  1  0.41954193  0.91052787  0.69839384  1
  Se  Se253  1  0.74546135  0.24716422  0.19597387  1
  Se  Se254  1  0.76148985  0.23953230  0.69784142  1
  Se  Se255  1  0.75540363  0.57487492  0.18470086  1
  Se  Se256  1  0.75529360  0.58024091  0.68572023  1
  Se  Se257  1  0.76489052  0.90930756  0.18618827  1
  Se  Se258  1  0.74825089  0.91830373  0.70168635  1
