# generated using pymatgen
data_In86Cu29Se144
_symmetry_space_group_name_H-M   'P 1'
_cell_length_a   17.58186686
_cell_length_b   17.58138792
_cell_length_c   23.43911395
_cell_angle_alpha   89.96398011
_cell_angle_beta   89.99760635
_cell_angle_gamma   89.98849039
_symmetry_Int_Tables_number   1
_chemical_formula_structural   In86Cu29Se144
_chemical_formula_sum   'In86 Cu29 Se144'
_cell_volume   7245.34781528
_cell_formula_units_Z   1
loop_
 _symmetry_equiv_pos_site_id
 _symmetry_equiv_pos_as_xyz
  1  'x, y, z'
loop_
 _atom_site_type_symbol
 _atom_site_label
 _atom_site_symmetry_multiplicity
 _atom_site_fract_x
 _atom_site_fract_y
 _atom_site_fract_z
 _atom_site_occupancy
  In  In0  1  -0.00326434  0.16856372  0.13283576  1
  In  In1  1  0.01291545  0.16000227  0.62282129  1
  In  In2  1  -0.00225437  0.50421590  0.13082920  1
  In  In3  1  -0.00250469  0.49867531  0.61612641  1
  In  In4  1  0.01574870  0.82015085  0.14363663  1
  In  In5  1  0.00458648  0.82509848  0.61821521  1
  In  In6  1  0.33015388  0.17131012  0.13502521  1
  In  In7  1  0.32763314  0.15593672  0.62033723  1
  In  In8  1  0.33564910  0.50154004  0.13095648  1
  In  In9  1  0.32606847  0.50987145  0.61913270  1
  In  In10  1  0.33833863  0.83294252  0.12921153  1
  In  In11  1  0.33413670  0.84040277  0.61995185  1
  In  In12  1  0.66935803  0.14908930  0.12109849  1
  In  In13  1  0.65536034  0.16119128  0.62086295  1
  In  In14  1  0.67360883  0.50759497  0.12001858  1
  In  In15  1  0.67597728  0.49404903  0.62524150  1
  In  In16  1  0.65201321  0.84135732  0.12834040  1
  In  In17  1  0.65714895  0.83821404  0.63393044  1
  In  In18  1  0.17193429  0.00181570  0.37090229  1
  In  In19  1  0.17224606  -0.01416228  0.88048175  1
  In  In20  1  0.16939079  0.33335417  0.37610401  1
  In  In21  1  0.15914649  0.34227396  0.86735688  1
  In  In22  1  0.16633014  0.67063108  0.37076574  1
  In  In23  1  0.18086439  0.67331807  0.88142140  1
  In  In24  1  0.49971536  0.00211565  0.37422804  1
  In  In25  1  0.48790361  -0.00524090  0.86297598  1
  In  In26  1  0.48241615  0.32954194  0.37511779  1
  In  In27  1  0.51270642  0.33846921  0.87619950  1
  In  In28  1  0.49921966  0.67022421  0.36608199  1
  In  In29  1  0.51011983  0.65213264  0.89413674  1
  In  In30  1  0.82594602  -0.00746723  0.36757541  1
  In  In31  1  0.83296506  0.01636117  0.87978312  1
  In  In32  1  0.84988103  0.33485818  0.37558804  1
  In  In33  1  0.83603195  0.32439045  0.88117469  1
  In  In34  1  0.83511974  0.66525528  0.36844877  1
  In  In35  1  0.81550884  0.67031725  0.88011001  1
  In  In36  1  0.00639185  0.18032674  0.37071453  1
  In  In37  1  -0.01528171  0.16758863  0.87185920  1
  In  In38  1  0.00399609  0.50040337  0.37323999  1
  In  In39  1  0.00114086  0.48273916  0.87419498  1
  In  In40  1  0.02518914  0.85104126  0.34868448  1
  In  In41  1  0.01149496  0.84124181  0.88367172  1
  In  In42  1  0.33277442  0.16449448  0.37601639  1
  In  In43  1  0.34560870  0.15065240  0.87363931  1
  In  In44  1  0.32779326  0.49779555  0.37239251  1
  In  In45  1  0.34568082  0.50587862  0.87612336  1
  In  In46  1  0.30528276  0.81478214  0.35302598  1
  In  In47  1  0.33294251  0.83829569  0.88417949  1
  In  In48  1  0.66061131  0.14733150  0.38067175  1
  In  In49  1  0.68068745  0.16740168  0.86967320  1
  In  In50  1  0.66875057  0.51735393  0.37736532  1
  In  In51  1  0.65812821  0.51286468  0.88443750  1
  In  In52  1  0.66694040  0.83364941  0.36823008  1
  In  In53  1  0.65327832  0.82018284  0.87046238  1
  In  In54  1  0.18669181  -0.02471567  0.15082898  1
  In  In55  1  0.17142557  0.00754880  0.61166769  1
  In  In56  1  0.16512155  0.33711192  0.13770010  1
  In  In57  1  0.15920340  0.32559281  0.61862878  1
  In  In58  1  0.16853578  0.67551568  0.13623727  1
  In  In59  1  0.17599294  0.66890166  0.60211606  1
  In  In60  1  0.50655884  -0.00615613  0.12875669  1
  In  In61  1  0.49542768  0.00277235  0.63184670  1
  In  In62  1  0.48498590  0.33569736  0.12374720  1
  In  In63  1  0.51255982  0.32559459  0.62515490  1
  In  In64  1  0.49673135  0.67324728  0.12816190  1
  In  In65  1  0.49654626  0.67583789  0.62792666  1
  In  In66  1  0.82951163  0.00168272  0.12848946  1
  In  In67  1  0.82778877  -0.00129647  0.62755844  1
  In  In68  1  0.84274561  0.33761776  0.11815254  1
  In  In69  1  0.83087667  0.35113463  0.62352403  1
  In  In70  1  0.84243511  0.65434709  0.13020602  1
  In  In71  1  0.83357022  0.65470926  0.62359588  1
  In  In72  1  0.66648404  0.33168405  0.24622614  1
  In  In73  1  0.33432585  0.32421443  0.75239002  1
  In  In74  1  0.50623630  0.16894298  -0.00498515  1
  In  In75  1  -0.00285345  0.66405737  0.74706475  1
  In  In76  1  0.83716288  0.82833157  0.48952386  1
  In  In77  1  0.83591654  0.83257266  0.00391560  1
  In  In78  1  0.16651900  0.51053850  0.01201262  1
  In  In79  1  -0.00425626  0.00023303  0.75023960  1
  In  In80  1  0.49772415  0.49426599  0.49725558  1
  In  In81  1  0.49033253  0.83776538  0.49994803  1
  In  In82  1  0.33745248  0.66801569  0.75039151  1
  In  In83  1  0.15904773  0.16690998  0.01385167  1
  In  In84  1  0.67128697  0.32941921  0.75049707  1
  In  In85  1  0.83949369  0.17014486  0.50281680  1
  Cu  Cu86  1  0.00832323  0.34139013  0.49519307  1
  Cu  Cu87  1  0.33471210  0.34709635  0.00075001  1
  Cu  Cu88  1  -0.00797494  0.32793307  0.00006490  1
  Cu  Cu89  1  0.33608663  -0.00157428  0.00675033  1
  Cu  Cu90  1  0.32946473  0.32437519  0.49944943  1
  Cu  Cu91  1  0.32981892  -0.00590976  0.49388108  1
  Cu  Cu92  1  0.00250679  -0.00372158  0.48858962  1
  Cu  Cu93  1  0.00382689  0.66290894  0.01010253  1
  Cu  Cu94  1  0.49961613  0.83831842  0.24877181  1
  Cu  Cu95  1  0.66792104  0.33971823  -0.00038442  1
  Cu  Cu96  1  0.00530242  -0.00100673  0.00838851  1
  Cu  Cu97  1  0.82831895  0.50255618  0.75091456  1
  Cu  Cu98  1  0.16046075  0.49815050  0.74374014  1
  Cu  Cu99  1  0.17171912  0.83830713  0.75069812  1
  Cu  Cu100  1  0.67046571  0.33253419  0.50162621  1
  Cu  Cu101  1  0.49830395  0.50521346  0.25194972  1
  Cu  Cu102  1  0.50125500  0.83140895  0.75176240  1
  Cu  Cu103  1  0.00460414  0.66901623  0.49013111  1
  Cu  Cu104  1  0.16599090  0.16817051  0.25553332  1
  Cu  Cu105  1  0.16684729  0.15862367  0.74346753  1
  Cu  Cu106  1  0.83495816  0.49507553  0.24768649  1
  Cu  Cu107  1  0.82632889  0.82872284  0.24417564  1
  Cu  Cu108  1  0.17019426  0.49799664  0.25468840  1
  Cu  Cu109  1  0.66930974  -0.00216157  -0.00076389  1
  Cu  Cu110  1  0.82329021  0.83651877  0.75330683  1
  Cu  Cu111  1  0.49790062  0.16469782  0.25033497  1
  Cu  Cu112  1  0.83133473  0.16451394  0.25522483  1
  Cu  Cu113  1  0.66381694  0.66849535  0.00617287  1
  Cu  Cu114  1  0.67025686  0.66650070  0.50113081  1
  Se  Se115  1  0.08537050  0.06866680  0.07545709  1
  Se  Se116  1  0.08114166  0.08338846  0.54400863  1
  Se  Se117  1  0.07694963  0.40652961  0.05923659  1
  Se  Se118  1  0.09133490  0.42295634  0.55177353  1
  Se  Se119  1  0.08434108  0.74903733  0.06099262  1
  Se  Se120  1  0.08533759  0.75568192  0.54321690  1
  Se  Se121  1  0.41372879  0.08771903  0.06121301  1
  Se  Se122  1  0.41217982  0.07078426  0.55438253  1
  Se  Se123  1  0.41768047  0.42817022  0.05383522  1
  Se  Se124  1  0.41007062  0.40402216  0.56154352  1
  Se  Se125  1  0.43267734  0.76861988  0.05857633  1
  Se  Se126  1  0.40327787  0.73657295  0.55354402  1
  Se  Se127  1  0.75656091  0.07917653  0.04876742  1
  Se  Se128  1  0.74535437  0.07533076  0.55249937  1
  Se  Se129  1  0.75366487  0.41925986  0.05394491  1
  Se  Se130  1  0.75235086  0.42348111  0.54659996  1
  Se  Se131  1  0.74696133  0.74589619  0.06676985  1
  Se  Se132  1  0.74575507  0.75131891  0.56134042  1
  Se  Se133  1  0.25711252  0.26463086  0.06029776  1
  Se  Se134  1  0.24561779  0.24195427  0.55386381  1
  Se  Se135  1  0.26092876  0.60056959  0.06346219  1
  Se  Se136  1  0.25036804  0.57457525  0.54032238  1
  Se  Se137  1  0.25138238  0.91850041  0.06111551  1
  Se  Se138  1  0.24631456  0.91099900  0.54848291  1
  Se  Se139  1  0.59080507  0.25755137  0.06213328  1
  Se  Se140  1  0.58343306  0.24804103  0.54802608  1
  Se  Se141  1  0.57843351  0.58575497  0.05862512  1
  Se  Se142  1  0.58596038  0.58788112  0.55938230  1
  Se  Se143  1  0.58078157  0.91940718  0.05035233  1
  Se  Se144  1  0.58595201  0.92207749  0.55774959  1
  Se  Se145  1  0.91628077  0.23962246  0.05462911  1
  Se  Se146  1  0.92904014  0.26308757  0.56047139  1
  Se  Se147  1  0.91707930  0.57595987  0.05392787  1
  Se  Se148  1  0.92135565  0.59096709  0.54936075  1
  Se  Se149  1  0.92673011  0.91438752  0.06725039  1
  Se  Se150  1  0.92203111  0.92407441  0.55473288  1
  Se  Se151  1  0.08710113  0.24965704  0.44711894  1
  Se  Se152  1  0.08069420  0.25456576  0.94126131  1
  Se  Se153  1  0.08852208  0.58182460  0.44143885  1
  Se  Se154  1  0.07741581  0.58756872  0.93881651  1
  Se  Se155  1  0.08711808  0.91346773  0.43745521  1
  Se  Se156  1  0.09078367  0.91614267  0.95713060  1
  Se  Se157  1  0.41730115  0.24294865  0.44941337  1
  Se  Se158  1  0.40724598  0.25993823  0.93980765  1
  Se  Se159  1  0.41495212  0.58954156  0.43877063  1
  Se  Se160  1  0.39289606  0.60217958  0.94882604  1
  Se  Se161  1  0.40099040  0.91140557  0.42960984  1
  Se  Se162  1  0.42121186  0.92513413  0.94699374  1
  Se  Se163  1  0.74736290  0.25377562  0.43700386  1
  Se  Se164  1  0.74536331  0.24862450  0.94869437  1
  Se  Se165  1  0.75772371  0.58924743  0.44722373  1
  Se  Se166  1  0.74964432  0.58456695  0.95480849  1
  Se  Se167  1  0.73783283  0.92254653  0.44459629  1
  Se  Se168  1  0.74692246  0.91507573  0.93749175  1
  Se  Se169  1  0.24728124  0.08355789  0.44510371  1
  Se  Se170  1  0.25424606  0.08216547  0.94943357  1
  Se  Se171  1  0.25408434  0.41410991  0.44600248  1
  Se  Se172  1  0.24705878  0.41813717  0.94101595  1
  Se  Se173  1  0.24940183  0.75096110  0.44133261  1
  Se  Se174  1  0.24020265  0.76568610  0.95124097  1
  Se  Se175  1  0.57019256  0.08271878  0.45084345  1
  Se  Se176  1  0.59041687  0.07582710  0.93476360  1
  Se  Se177  1  0.59120754  0.40818983  0.43518998  1
  Se  Se178  1  0.57895199  0.42180258  0.95160980  1
  Se  Se179  1  0.58772258  0.74580940  0.44300708  1
  Se  Se180  1  0.58224749  0.75489957  0.95378189  1
  Se  Se181  1  0.91798530  0.07838112  0.43443448  1
  Se  Se182  1  0.92636540  0.08084904  0.95068013  1
  Se  Se183  1  0.91869010  0.42260206  0.44707315  1
  Se  Se184  1  0.91384954  0.41671147  0.94768917  1
  Se  Se185  1  0.93331962  0.75309225  0.42690111  1
  Se  Se186  1  0.92658379  0.74018560  0.94278745  1
  Se  Se187  1  0.25282420  0.25124999  0.30688404  1
  Se  Se188  1  0.24067297  0.23499969  0.81284752  1
  Se  Se189  1  0.25332310  0.58588483  0.30302897  1
  Se  Se190  1  0.24097380  0.57391681  0.80685219  1
  Se  Se191  1  0.24140843  0.91987381  0.29384420  1
  Se  Se192  1  0.25598797  0.91643879  0.80622906  1
  Se  Se193  1  0.57949132  0.24435564  0.31104333  1
  Se  Se194  1  0.57488178  0.23960302  0.80666825  1
  Se  Se195  1  0.58685056  0.58605191  0.30194306  1
  Se  Se196  1  0.57632206  0.58512814  0.81101924  1
  Se  Se197  1  0.58294481  0.91987460  0.30432304  1
  Se  Se198  1  0.58563975  0.91654787  0.80301692  1
  Se  Se199  1  0.91697598  0.25297457  0.29967198  1
  Se  Se200  1  0.91621078  0.25782235  0.80358279  1
  Se  Se201  1  0.91739699  0.57846080  0.30254586  1
  Se  Se202  1  0.90906523  0.58027487  0.81377066  1
  Se  Se203  1  0.90826932  0.91330064  0.29816552  1
  Se  Se204  1  0.91064070  0.90715061  0.81430340  1
  Se  Se205  1  0.08016988  0.08523175  0.30665057  1
  Se  Se206  1  0.09020538  0.08393702  0.81322834  1
  Se  Se207  1  0.08494413  0.41326685  0.30547365  1
  Se  Se208  1  0.07579021  0.41356324  0.79351428  1
  Se  Se209  1  0.07536926  0.73384973  0.29630343  1
  Se  Se210  1  0.08950374  0.75543133  0.80741872  1
  Se  Se211  1  0.41475283  0.08258190  0.30490245  1
  Se  Se212  1  0.41677413  0.08493420  0.79363931  1
  Se  Se213  1  0.41615887  0.41875085  0.30332000  1
  Se  Se214  1  0.42575156  0.42115257  0.80517816  1
  Se  Se215  1  0.41632887  0.75021474  0.29728988  1
  Se  Se216  1  0.42227497  0.75363688  0.81510684  1
  Se  Se217  1  0.74333900  0.08197185  0.30339484  1
  Se  Se218  1  0.75920693  0.08443571  0.80119594  1
  Se  Se219  1  0.75275683  0.42044451  0.31071185  1
  Se  Se220  1  0.75091881  0.42418529  0.81503898  1
  Se  Se221  1  0.74648705  0.74608006  0.30234245  1
  Se  Se222  1  0.74443441  0.74498627  0.80202329  1
  Se  Se223  1  0.25308379  0.08698950  0.20418982  1
  Se  Se224  1  0.24815822  0.07335252  0.69276748  1
  Se  Se225  1  0.25593741  0.41640303  0.20039703  1
  Se  Se226  1  0.24736250  0.41744755  0.68988728  1
  Se  Se227  1  0.24627497  0.76531599  0.20095553  1
  Se  Se228  1  0.24162797  0.75166412  0.68793586  1
  Se  Se229  1  0.58384412  0.08454528  0.19648535  1
  Se  Se230  1  0.58942705  0.07838557  0.69570983  1
  Se  Se231  1  0.57578912  0.42422516  0.18928670  1
  Se  Se232  1  0.57804212  0.42364339  0.69442235  1
  Se  Se233  1  0.58429125  0.75030474  0.19950725  1
  Se  Se234  1  0.58295635  0.74500706  0.70013189  1
  Se  Se235  1  0.91275294  0.08220861  0.19842252  1
  Se  Se236  1  0.90975746  0.09369409  0.69050921  1
  Se  Se237  1  0.91874938  0.41148959  0.19555040  1
  Se  Se238  1  0.91564148  0.42844816  0.69365980  1
  Se  Se239  1  0.91547617  0.74197622  0.20051259  1
  Se  Se240  1  0.90592184  0.76076058  0.69098966  1
  Se  Se241  1  0.08176187  0.25036937  0.20094190  1
  Se  Se242  1  0.08462818  0.24664632  0.69515870  1
  Se  Se243  1  0.08863731  0.57908162  0.19670287  1
  Se  Se244  1  0.09362387  0.58756172  0.68300403  1
  Se  Se245  1  0.06638356  0.93110488  0.20420993  1
  Se  Se246  1  0.08723854  0.91209624  0.68856695  1
  Se  Se247  1  0.41709977  0.25429530  0.20034289  1
  Se  Se248  1  0.42197396  0.23902038  0.68838563  1
  Se  Se249  1  0.41541167  0.58865102  0.19834556  1
  Se  Se250  1  0.42321166  0.57194519  0.69127849  1
  Se  Se251  1  0.41577794  0.92429663  0.19821170  1
  Se  Se252  1  0.41533327  0.90898906  0.69552223  1
  Se  Se253  1  0.75610927  0.24124925  0.18718238  1
  Se  Se254  1  0.75583949  0.24636583  0.68200686  1
  Se  Se255  1  0.74938446  0.58028463  0.19800846  1
  Se  Se256  1  0.74624648  0.58484753  0.69618207  1
  Se  Se257  1  0.74448163  0.91754353  0.19440073  1
  Se  Se258  1  0.74541111  0.92148221  0.69812516  1
