# generated using pymatgen
data_In86Cu29Se144
_symmetry_space_group_name_H-M   'P 1'
_cell_length_a   17.58161434
_cell_length_b   17.58565041
_cell_length_c   23.44733117
_cell_angle_alpha   89.99560026
_cell_angle_beta   90.02164905
_cell_angle_gamma   90.03662918
_symmetry_Int_Tables_number   1
_chemical_formula_structural   In86Cu29Se144
_chemical_formula_sum   'In86 Cu29 Se144'
_cell_volume   7249.54051645
_cell_formula_units_Z   1
loop_
 _symmetry_equiv_pos_site_id
 _symmetry_equiv_pos_as_xyz
  1  'x, y, z'
loop_
 _atom_site_type_symbol
 _atom_site_label
 _atom_site_symmetry_multiplicity
 _atom_site_fract_x
 _atom_site_fract_y
 _atom_site_fract_z
 _atom_site_occupancy
  In  In0  1  0.00236598  0.14955968  0.12771181  1
  In  In1  1  -0.01135597  0.17994968  0.63684519  1
  In  In2  1  0.01482657  0.49960097  0.12353813  1
  In  In3  1  0.00289701  0.49919473  0.62836729  1
  In  In4  1  0.00228962  0.83076006  0.12071915  1
  In  In5  1  0.00797129  0.82369213  0.63013174  1
  In  In6  1  0.33045950  0.16787023  0.12668726  1
  In  In7  1  0.33929903  0.17485423  0.62728990  1
  In  In8  1  0.32745786  0.49199242  0.11990105  1
  In  In9  1  0.32257527  0.48940688  0.61832157  1
  In  In10  1  0.32734265  0.85038390  0.12810672  1
  In  In11  1  0.30758624  0.82998607  0.61763314  1
  In  In12  1  0.66180180  0.17603645  0.12232783  1
  In  In13  1  0.66925141  0.15517242  0.63274453  1
  In  In14  1  0.66410245  0.51317307  0.12365187  1
  In  In15  1  0.67707972  0.50779855  0.61910373  1
  In  In16  1  0.66386139  0.81956122  0.12479886  1
  In  In17  1  0.68064209  0.82352519  0.63410596  1
  In  In18  1  0.15418310  0.00181703  0.36607068  1
  In  In19  1  0.16267751  0.00123147  0.88245668  1
  In  In20  1  0.17859884  0.33240458  0.37263508  1
  In  In21  1  0.16401248  0.33542750  0.87108013  1
  In  In22  1  0.15476747  0.67505752  0.38718787  1
  In  In23  1  0.16206763  0.66683208  0.88036266  1
  In  In24  1  0.48639359  0.01261225  0.37231946  1
  In  In25  1  0.51481062  0.00379588  0.87714834  1
  In  In26  1  0.49209214  0.33742566  0.37493503  1
  In  In27  1  0.48960309  0.34415062  0.88145770  1
  In  In28  1  0.50389037  0.64893030  0.37280156  1
  In  In29  1  0.49753910  0.65795895  0.87619265  1
  In  In30  1  0.84715573  -0.00903908  0.37894854  1
  In  In31  1  0.82541057  0.00077190  0.86804686  1
  In  In32  1  0.83030556  0.33577223  0.38998054  1
  In  In33  1  0.85340576  0.33299582  0.86073780  1
  In  In34  1  0.83434998  0.66416232  0.37213782  1
  In  In35  1  0.84729188  0.67831929  0.86203094  1
  In  In36  1  0.00137631  0.15392790  0.37716131  1
  In  In37  1  0.00926442  0.17136268  0.86288526  1
  In  In38  1  -0.00807888  0.51269335  0.38860078  1
  In  In39  1  0.01253482  0.51454507  0.85510808  1
  In  In40  1  0.00474407  0.83675615  0.37206160  1
  In  In41  1  -0.00271997  0.83334777  0.87700264  1
  In  In42  1  0.30945468  0.15875176  0.34675897  1
  In  In43  1  0.32076682  0.17796406  0.88415485  1
  In  In44  1  0.33608594  0.49283699  0.38155972  1
  In  In45  1  0.33353494  0.49745559  0.87795735  1
  In  In46  1  0.31749845  0.84043539  0.37504770  1
  In  In47  1  0.32672730  0.82185581  0.88109154  1
  In  In48  1  0.66377009  0.17745146  0.37900957  1
  In  In49  1  0.67248853  0.15917930  0.87770965  1
  In  In50  1  0.66179717  0.49852744  0.37946971  1
  In  In51  1  0.66134493  0.49814445  0.86928451  1
  In  In52  1  0.68478174  0.82913384  0.37196406  1
  In  In53  1  0.67642335  0.84638787  0.87054770  1
  In  In54  1  0.16778339  -0.00004525  0.12117016  1
  In  In55  1  0.15842712  -0.01530228  0.62020267  1
  In  In56  1  0.17874746  0.34079298  0.12148643  1
  In  In57  1  0.15148258  0.35425151  0.64501224  1
  In  In58  1  0.15602544  0.65676538  0.12067212  1
  In  In59  1  0.13596214  0.64194882  0.59702518  1
  In  In60  1  0.48295124  0.00743120  0.13096914  1
  In  In61  1  0.49890679  0.01033939  0.62649330  1
  In  In62  1  0.48011207  0.31792404  0.10845459  1
  In  In63  1  0.48403549  0.33468116  0.62894604  1
  In  In64  1  0.51272944  0.66963799  0.12529606  1
  In  In65  1  0.51702333  0.66338353  0.62486711  1
  In  In66  1  0.85206450  -0.00022852  0.12507258  1
  In  In67  1  0.83212098  0.00992404  0.63402773  1
  In  In68  1  0.83369818  0.32578353  0.12264645  1
  In  In69  1  0.84755797  0.34803499  0.62007299  1
  In  In70  1  0.82749612  0.67427981  0.12605154  1
  In  In71  1  0.86094298  0.63088603  0.65685432  1
  In  In72  1  0.16823975  0.16929191  0.49629719  1
  In  In73  1  0.83385402  0.50262425  -0.01351771  1
  In  In74  1  0.32861842  0.66232959  0.75193561  1
  In  In75  1  0.83573085  0.16783926  -0.01124509  1
  In  In76  1  0.65766003  0.33957840  0.25562256  1
  In  In77  1  0.00616599  0.33148546  0.25050652  1
  In  In78  1  0.67013192  0.33547580  0.75258829  1
  In  In79  1  0.33447991  0.00071453  0.74827052  1
  In  In80  1  0.49485094  0.17420668  0.49775897  1
  In  In81  1  0.66513077  -0.00361617  0.24563515  1
  In  In82  1  0.50044729  0.82924511  0.49615470  1
  In  In83  1  0.84268337  0.82236414  0.50628757  1
  In  In84  1  0.49618082  0.83786842  0.00664507  1
  In  In85  1  0.33313969  0.66721625  0.25379283  1
  Cu  Cu86  1  0.50002204  0.16836235  0.75188617  1
  Cu  Cu87  1  0.33137140  0.33246764  -0.00196447  1
  Cu  Cu88  1  0.33052351  0.00544509  0.00438977  1
  Cu  Cu89  1  -0.00277740  0.66346773  -0.00614540  1
  Cu  Cu90  1  0.00395314  -0.00833584  0.00005120  1
  Cu  Cu91  1  0.66977858  0.00154520  -0.00137311  1
  Cu  Cu92  1  0.32571146  0.66361371  0.00223057  1
  Cu  Cu93  1  0.66531164  0.67091688  -0.00033895  1
  Cu  Cu94  1  0.83201172  0.83925591  0.75043900  1
  Cu  Cu95  1  0.16094775  0.83653987  0.24813470  1
  Cu  Cu96  1  0.50407909  0.82941314  0.24967607  1
  Cu  Cu97  1  0.83958627  0.50779583  0.25014094  1
  Cu  Cu98  1  0.49961555  0.50222569  0.75245586  1
  Cu  Cu99  1  0.83518163  0.16073795  0.25651187  1
  Cu  Cu100  1  0.00056243  0.33643979  0.50925954  1
  Cu  Cu101  1  0.00033668  0.00157588  0.49932317  1
  Cu  Cu102  1  0.17160873  0.16656451  0.75511328  1
  Cu  Cu103  1  0.66834145  0.33199696  0.50491929  1
  Cu  Cu104  1  0.66060377  0.34244071  -0.00363218  1
  Cu  Cu105  1  0.32930407  0.33323016  0.50056278  1
  Cu  Cu106  1  0.66750030  -0.00066306  0.51090064  1
  Cu  Cu107  1  0.01369072  0.32984602  -0.00439427  1
  Cu  Cu108  1  0.84538914  0.82792739  0.24917896  1
  Cu  Cu109  1  0.16288633  0.50749128  0.25095050  1
  Cu  Cu110  1  0.50370516  0.83920916  0.74697624  1
  Cu  Cu111  1  0.50250158  0.49729750  0.25044551  1
  Cu  Cu112  1  0.33773228  0.66609823  0.49388180  1
  Cu  Cu113  1  0.15841001  0.82719894  0.75232573  1
  Cu  Cu114  1  0.67475692  0.65632085  0.50044560  1
  Se  Se115  1  0.08274351  0.08170856  0.05102568  1
  Se  Se116  1  0.07638532  0.08617853  0.56011005  1
  Se  Se117  1  0.08917373  0.41693981  0.05182667  1
  Se  Se118  1  0.08929151  0.41746223  0.55775799  1
  Se  Se119  1  0.08103462  0.74421407  0.05074933  1
  Se  Se120  1  0.09679778  0.76945665  0.55254266  1
  Se  Se121  1  0.41751623  0.08827576  0.05376411  1
  Se  Se122  1  0.40518763  0.07805457  0.55456086  1
  Se  Se123  1  0.41574037  0.42234213  0.04712541  1
  Se  Se124  1  0.41767615  0.41513096  0.55095881  1
  Se  Se125  1  0.40528916  0.74382778  0.06469051  1
  Se  Se126  1  0.41236675  0.74279737  0.56165880  1
  Se  Se127  1  0.75091708  0.08200224  0.06055298  1
  Se  Se128  1  0.75250319  0.08533921  0.55769491  1
  Se  Se129  1  0.74748191  0.41460739  0.05682986  1
  Se  Se130  1  0.75370906  0.41901882  0.55202503  1
  Se  Se131  1  0.75099421  0.75345564  0.05065884  1
  Se  Se132  1  0.75197586  0.73311862  0.56349798  1
  Se  Se133  1  0.24996662  0.24881107  0.05309801  1
  Se  Se134  1  0.24771457  0.25951606  0.56416992  1
  Se  Se135  1  0.24390157  0.57754842  0.05411576  1
  Se  Se136  1  0.25524587  0.58285623  0.54868874  1
  Se  Se137  1  0.24774268  0.91401607  0.04928882  1
  Se  Se138  1  0.25528869  0.92987671  0.54923290  1
  Se  Se139  1  0.58499602  0.25056192  0.04763542  1
  Se  Se140  1  0.58647207  0.25315665  0.56554290  1
  Se  Se141  1  0.58084867  0.58589169  0.04920335  1
  Se  Se142  1  0.58213989  0.57772860  0.54931810  1
  Se  Se143  1  0.58934670  0.92833100  0.06549128  1
  Se  Se144  1  0.58721458  0.91478610  0.56472038  1
  Se  Se145  1  0.92832373  0.25280555  0.05463647  1
  Se  Se146  1  0.91630593  0.24723543  0.55454256  1
  Se  Se147  1  0.91876326  0.58353707  0.05767019  1
  Se  Se148  1  0.91666395  0.58405130  0.56276401  1
  Se  Se149  1  0.91527100  0.91198460  0.05108300  1
  Se  Se150  1  0.92288686  0.92290088  0.56371382  1
  Se  Se151  1  0.07382284  0.26122940  0.43928122  1
  Se  Se152  1  0.08873836  0.24223272  0.94016808  1
  Se  Se153  1  0.09256391  0.57612649  0.45351561  1
  Se  Se154  1  0.07810847  0.57513507  0.94307160  1
  Se  Se155  1  0.08257306  0.92169637  0.44276607  1
  Se  Se156  1  0.08746414  0.90772616  0.94734543  1
  Se  Se157  1  0.39664221  0.24888157  0.43471986  1
  Se  Se158  1  0.41958117  0.24861351  0.94811975  1
  Se  Se159  1  0.42223128  0.57887171  0.44687609  1
  Se  Se160  1  0.41176098  0.58605334  0.94701608  1
  Se  Se161  1  0.40959905  0.92428590  0.44326921  1
  Se  Se162  1  0.40953854  0.92594141  0.94044379  1
  Se  Se163  1  0.74884891  0.24443907  0.45317290  1
  Se  Se164  1  0.74804220  0.26896535  0.93591861  1
  Se  Se165  1  0.75601039  0.57809151  0.44152424  1
  Se  Se166  1  0.74322020  0.59739500  0.93319709  1
  Se  Se167  1  0.74728368  0.91921768  0.44983807  1
  Se  Se168  1  0.75448541  0.92068781  0.94650631  1
  Se  Se169  1  0.25446693  0.08066999  0.43384032  1
  Se  Se170  1  0.24562386  0.08557315  0.94936187  1
  Se  Se171  1  0.24454379  0.41706408  0.44869164  1
  Se  Se172  1  0.24718025  0.41432231  0.94346205  1
  Se  Se173  1  0.25190621  0.75314849  0.44811471  1
  Se  Se174  1  0.24263014  0.74907332  0.95202699  1
  Se  Se175  1  0.58858181  0.07434010  0.44516561  1
  Se  Se176  1  0.58558336  0.08842113  0.95109735  1
  Se  Se177  1  0.58375548  0.40715430  0.44481970  1
  Se  Se178  1  0.57953503  0.42819616  0.94488519  1
  Se  Se179  1  0.59781808  0.74069913  0.43964832  1
  Se  Se180  1  0.58399077  0.75426858  0.94005111  1
  Se  Se181  1  0.91277071  0.08403378  0.44939867  1
  Se  Se182  1  0.92808875  0.07417314  0.93707811  1
  Se  Se183  1  0.91634831  0.41908271  0.45388789  1
  Se  Se184  1  0.93100441  0.41008630  0.93779063  1
  Se  Se185  1  0.93060696  0.73990431  0.44166168  1
  Se  Se186  1  0.91214012  0.74937761  0.94580062  1
  Se  Se187  1  0.24639662  0.26586603  0.29014600  1
  Se  Se188  1  0.25423344  0.25358950  0.80411573  1
  Se  Se189  1  0.24354850  0.58174675  0.31572566  1
  Se  Se190  1  0.23754446  0.57276962  0.80927458  1
  Se  Se191  1  0.24534481  0.92011286  0.30046553  1
  Se  Se192  1  0.24688184  0.90616999  0.80799741  1
  Se  Se193  1  0.56831827  0.24004586  0.30654512  1
  Se  Se194  1  0.57739844  0.24913235  0.81441717  1
  Se  Se195  1  0.59082339  0.57831713  0.30087282  1
  Se  Se196  1  0.58238114  0.58782202  0.80268847  1
  Se  Se197  1  0.57933594  0.91056822  0.31467401  1
  Se  Se198  1  0.58476136  0.92202560  0.80238101  1
  Se  Se199  1  0.90832481  0.25043469  0.31350656  1
  Se  Se200  1  0.89016000  0.21372101  0.80473528  1
  Se  Se201  1  0.92452433  0.58506187  0.30560770  1
  Se  Se202  1  0.90990677  0.58098717  0.79509778  1
  Se  Se203  1  0.92126150  0.91814255  0.30181080  1
  Se  Se204  1  0.91710142  0.91766711  0.80688573  1
  Se  Se205  1  0.08901867  0.10080027  0.30052748  1
  Se  Se206  1  0.09120911  0.07554126  0.80331234  1
  Se  Se207  1  0.08416012  0.42722988  0.31377058  1
  Se  Se208  1  0.06130123  0.39485251  0.80398630  1
  Se  Se209  1  0.08657228  0.74936501  0.30551468  1
  Se  Se210  1  0.07883687  0.74500098  0.80948861  1
  Se  Se211  1  0.41662696  0.08580577  0.29542806  1
  Se  Se212  1  0.41861445  0.08902495  0.81425115  1
  Se  Se213  1  0.41435459  0.42039315  0.30368190  1
  Se  Se214  1  0.41517447  0.41975302  0.80444043  1
  Se  Se215  1  0.42401344  0.75634536  0.31575383  1
  Se  Se216  1  0.42344771  0.75913588  0.80728404  1
  Se  Se217  1  0.75027123  0.08325020  0.31458000  1
  Se  Se218  1  0.75375362  0.09534530  0.80123539  1
  Se  Se219  1  0.76199417  0.42196399  0.30864587  1
  Se  Se220  1  0.76480016  0.43010455  0.80385442  1
  Se  Se221  1  0.75608370  0.74678598  0.29905785  1
  Se  Se222  1  0.74724211  0.75430457  0.80239596  1
  Se  Se223  1  0.26451079  0.06466947  0.18862283  1
  Se  Se224  1  0.24248027  0.08717191  0.68719352  1
  Se  Se225  1  0.24708678  0.42468385  0.19816610  1
  Se  Se226  1  0.26458791  0.41160037  0.70016245  1
  Se  Se227  1  0.24283455  0.75260962  0.19014294  1
  Se  Se228  1  0.23534569  0.74604914  0.69136700  1
  Se  Se229  1  0.57751730  0.09522990  0.19353501  1
  Se  Se230  1  0.58037571  0.08065080  0.70205790  1
  Se  Se231  1  0.57564794  0.41867502  0.18332686  1
  Se  Se232  1  0.57844813  0.42183055  0.69001855  1
  Se  Se233  1  0.58905535  0.74461747  0.20216962  1
  Se  Se234  1  0.58481397  0.74953799  0.69863634  1
  Se  Se235  1  0.91904726  0.08003258  0.20307257  1
  Se  Se236  1  0.93652196  0.06887946  0.69690182  1
  Se  Se237  1  0.91065118  0.42095363  0.18885477  1
  Se  Se238  1  0.92689749  0.41112458  0.69858675  1
  Se  Se239  1  0.92349601  0.74487415  0.19189178  1
  Se  Se240  1  0.91718748  0.75406076  0.70098647  1
  Se  Se241  1  0.09025609  0.24601030  0.18534706  1
  Se  Se242  1  0.08419869  0.24914827  0.70375298  1
  Se  Se243  1  0.07691226  0.58774879  0.19945250  1
  Se  Se244  1  0.09047180  0.58689457  0.69133395  1
  Se  Se245  1  0.08108987  0.91775511  0.18974070  1
  Se  Se246  1  0.08156284  0.91637936  0.69917415  1
  Se  Se247  1  0.41205704  0.25769822  0.19211260  1
  Se  Se248  1  0.41327800  0.25172457  0.70380338  1
  Se  Se249  1  0.42229512  0.58017208  0.19012152  1
  Se  Se250  1  0.42071352  0.57892822  0.68777095  1
  Se  Se251  1  0.41837223  0.91347109  0.20143027  1
  Se  Se252  1  0.41674649  0.90606332  0.68451950  1
  Se  Se253  1  0.75541061  0.24360575  0.19873466  1
  Se  Se254  1  0.75649775  0.25410162  0.68575351  1
  Se  Se255  1  0.75157949  0.58375503  0.19475409  1
  Se  Se256  1  0.73037020  0.59435603  0.69771439  1
  Se  Se257  1  0.76042714  0.90710180  0.18937900  1
  Se  Se258  1  0.74706910  0.92317549  0.69848200  1
