# generated using pymatgen
data_In86Cu29Se144
_symmetry_space_group_name_H-M   'P 1'
_cell_length_a   17.57754520
_cell_length_b   17.58221992
_cell_length_c   23.43128715
_cell_angle_alpha   89.98663213
_cell_angle_beta   90.00222075
_cell_angle_gamma   89.98161792
_symmetry_Int_Tables_number   1
_chemical_formula_structural   In86Cu29Se144
_chemical_formula_sum   'In86 Cu29 Se144'
_cell_volume   7241.49179813
_cell_formula_units_Z   1
loop_
 _symmetry_equiv_pos_site_id
 _symmetry_equiv_pos_as_xyz
  1  'x, y, z'
loop_
 _atom_site_type_symbol
 _atom_site_label
 _atom_site_symmetry_multiplicity
 _atom_site_fract_x
 _atom_site_fract_y
 _atom_site_fract_z
 _atom_site_occupancy
  In  In0  1  -0.00513827  0.15607692  0.12335274  1
  In  In1  1  0.00877450  0.15989945  0.61891329  1
  In  In2  1  0.00257645  0.51728413  0.13309212  1
  In  In3  1  0.01096844  0.49249012  0.62548503  1
  In  In4  1  -0.00982442  0.83338792  0.12692002  1
  In  In5  1  -0.01631267  0.83277575  0.62070964  1
  In  In6  1  0.34621020  0.17408060  0.11905421  1
  In  In7  1  0.34648298  0.18440015  0.61680381  1
  In  In8  1  0.36987693  0.46982666  0.17223810  1
  In  In9  1  0.33485848  0.49705912  0.62414174  1
  In  In10  1  0.33752635  0.82034726  0.12490318  1
  In  In11  1  0.32802256  0.82655830  0.62747201  1
  In  In12  1  0.65889264  0.17353400  0.13720601  1
  In  In13  1  0.64597099  0.16785665  0.62622840  1
  In  In14  1  0.66199375  0.50008369  0.12740938  1
  In  In15  1  0.66217434  0.51358394  0.61904481  1
  In  In16  1  0.67053196  0.83508084  0.12268520  1
  In  In17  1  0.67754698  0.83312263  0.62050434  1
  In  In18  1  0.16529430  0.01416166  0.37564988  1
  In  In19  1  0.17675742  0.00887651  0.87644436  1
  In  In20  1  0.17776056  0.32706047  0.37644918  1
  In  In21  1  0.17020500  0.32190357  0.87964343  1
  In  In22  1  0.15203864  0.65068807  0.36144074  1
  In  In23  1  0.16577175  0.65807172  0.86862235  1
  In  In24  1  0.52567739  0.00691730  0.37787747  1
  In  In25  1  0.50378279  -0.00698656  0.88312920  1
  In  In26  1  0.49091814  0.34046895  0.36877159  1
  In  In27  1  0.49467504  0.34056992  0.88073183  1
  In  In28  1  0.48619541  0.64376004  0.34656546  1
  In  In29  1  0.50075255  0.66824703  0.88114187  1
  In  In30  1  0.80754679  -0.01265097  0.35932518  1
  In  In31  1  0.81887659  0.00039310  0.87619454  1
  In  In32  1  0.82216625  0.34492293  0.36495871  1
  In  In33  1  0.83897567  0.34358336  0.88254319  1
  In  In34  1  0.83568205  0.66366539  0.36594791  1
  In  In35  1  0.84067357  0.66224598  0.88839436  1
  In  In36  1  0.01326973  0.16538337  0.37135819  1
  In  In37  1  0.00988277  0.17858486  0.87952827  1
  In  In38  1  -0.00494059  0.51246301  0.37050061  1
  In  In39  1  -0.01311082  0.51042734  0.88158556  1
  In  In40  1  -0.02052916  0.82143048  0.37091826  1
  In  In41  1  0.00270348  0.81459721  0.87813270  1
  In  In42  1  0.32934014  0.18054779  0.37798937  1
  In  In43  1  0.33220831  0.17512047  0.88202516  1
  In  In44  1  0.33268498  0.49824197  0.36857526  1
  In  In45  1  0.34424219  0.50515429  0.87064829  1
  In  In46  1  0.33839728  0.82021729  0.37506134  1
  In  In47  1  0.34653418  0.82633642  0.87749958  1
  In  In48  1  0.65407055  0.15895567  0.36610743  1
  In  In49  1  0.66333111  0.15154135  0.87345019  1
  In  In50  1  0.64737948  0.48053398  0.34330179  1
  In  In51  1  0.66764099  0.49875668  0.88656374  1
  In  In52  1  0.67278621  0.83912308  0.37343029  1
  In  In53  1  0.66253445  0.84005105  0.88546577  1
  In  In54  1  0.14974210  0.00007172  0.12653909  1
  In  In55  1  0.15919078  0.00284712  0.62020959  1
  In  In56  1  0.19274102  0.34089280  0.13301271  1
  In  In57  1  0.17639468  0.34735348  0.61403563  1
  In  In58  1  0.17855501  0.64855864  0.14582563  1
  In  In59  1  0.17794216  0.65123912  0.62917992  1
  In  In60  1  0.51045204  0.00824486  0.11744098  1
  In  In61  1  0.50212919  0.01811104  0.62681020  1
  In  In62  1  0.50667916  0.33060490  0.12821876  1
  In  In63  1  0.48769665  0.32433734  0.62154488  1
  In  In64  1  0.49939811  0.66321981  0.12510745  1
  In  In65  1  0.49745324  0.65200844  0.61945505  1
  In  In66  1  0.84518588  -0.00160560  0.13432529  1
  In  In67  1  0.83214866  -0.01500545  0.62128933  1
  In  In68  1  0.80615465  0.33172789  0.13639516  1
  In  In69  1  0.84250306  0.33584112  0.62385784  1
  In  In70  1  0.82327253  0.66251109  0.12963000  1
  In  In71  1  0.82440253  0.67679088  0.62273687  1
  In  In72  1  0.33337243  -0.00463323  0.75119900  1
  In  In73  1  0.16505216  0.83383792  0.00397750  1
  In  In74  1  0.33140406  -0.00279616  0.25483658  1
  In  In75  1  0.82912041  0.15884607  0.48859657  1
  In  In76  1  0.00030589  0.33362581  0.24845610  1
  In  In77  1  0.66598638  0.66826064  0.74989644  1
  In  In78  1  0.16518429  0.83165087  0.50308189  1
  In  In79  1  0.17236770  0.49964302  0.01093781  1
  In  In80  1  0.00401567  0.33831229  0.75309549  1
  In  In81  1  0.82789009  0.16989339  0.00234775  1
  In  In82  1  0.66273499  0.33725053  0.76084746  1
  In  In83  1  0.50922297  0.83477289  0.49321157  1
  In  In84  1  -0.00334504  -0.00498156  0.74391733  1
  In  In85  1  0.82736318  0.50836302  0.49170413  1
  Cu  Cu86  1  -0.00283985  0.00030584  0.00483719  1
  Cu  Cu87  1  0.49475220  0.49457644  0.74797375  1
  Cu  Cu88  1  0.66103478  0.66489928  0.48725111  1
  Cu  Cu89  1  0.00902031  0.33127178  0.49301986  1
  Cu  Cu90  1  0.34095655  0.01080570  0.49547026  1
  Cu  Cu91  1  0.17178153  0.49481528  0.74775285  1
  Cu  Cu92  1  0.66789938  -0.00099826  0.00341281  1
  Cu  Cu93  1  0.16747406  0.81725229  0.75003941  1
  Cu  Cu94  1  0.33825419  0.65996264  0.00356142  1
  Cu  Cu95  1  -0.00362212  0.67193576  0.01140572  1
  Cu  Cu96  1  0.00100240  0.33719106  0.00394600  1
  Cu  Cu97  1  -0.00042029  -0.00129776  0.49708985  1
  Cu  Cu98  1  0.66554144  0.66705477  0.00751414  1
  Cu  Cu99  1  0.33696602  0.65497521  0.49391247  1
  Cu  Cu100  1  0.17376297  0.17085735  0.74791091  1
  Cu  Cu101  1  0.15474426  0.83484720  0.24883692  1
  Cu  Cu102  1  0.83186816  0.82883564  0.74958077  1
  Cu  Cu103  1  0.65726946  0.34134452  0.49280760  1
  Cu  Cu104  1  0.51025389  0.83936489  0.24719519  1
  Cu  Cu105  1  0.33854733  0.33887479  0.49673470  1
  Cu  Cu106  1  0.83208430  0.83253557  0.24622295  1
  Cu  Cu107  1  0.16935545  0.16623809  0.25016991  1
  Cu  Cu108  1  0.50406902  0.82957173  0.75809035  1
  Cu  Cu109  1  0.34067044  0.33812919  0.00913613  1
  Cu  Cu110  1  0.82412439  0.16864278  0.74972479  1
  Cu  Cu111  1  0.33353239  0.00454876  -0.00129387  1
  Cu  Cu112  1  -0.00168998  0.66505660  0.49443522  1
  Cu  Cu113  1  0.65776222  0.33495389  0.00702001  1
  Cu  Cu114  1  0.49476780  0.17056448  0.24985179  1
  Se  Se115  1  0.08369506  0.08626633  0.05073093  1
  Se  Se116  1  0.08680264  0.08281046  0.54467759  1
  Se  Se117  1  0.07955139  0.41101479  0.06981741  1
  Se  Se118  1  0.08443190  0.42126941  0.54654648  1
  Se  Se119  1  0.08856217  0.74077201  0.06967900  1
  Se  Se120  1  0.07655772  0.73886828  0.56188525  1
  Se  Se121  1  0.42069239  0.08593307  0.05041508  1
  Se  Se122  1  0.42262572  0.09072875  0.55164331  1
  Se  Se123  1  0.41366115  0.42108941  0.07157348  1
  Se  Se124  1  0.42122858  0.42038944  0.55340953  1
  Se  Se125  1  0.42082563  0.74946869  0.05161262  1
  Se  Se126  1  0.41053499  0.74560669  0.55196195  1
  Se  Se127  1  0.74525720  0.07961345  0.06572299  1
  Se  Se128  1  0.74766098  0.08502137  0.56466791  1
  Se  Se129  1  0.74633137  0.41541100  0.05733226  1
  Se  Se130  1  0.74450861  0.41119653  0.55635143  1
  Se  Se131  1  0.75401384  0.75073259  0.05489677  1
  Se  Se132  1  0.74249008  0.74433298  0.54574123  1
  Se  Se133  1  0.25164481  0.25338214  0.05556168  1
  Se  Se134  1  0.25225237  0.25390814  0.54932356  1
  Se  Se135  1  0.26575811  0.58307940  0.06925036  1
  Se  Se136  1  0.25196292  0.57749408  0.55149802  1
  Se  Se137  1  0.25596366  0.92568631  0.06304301  1
  Se  Se138  1  0.26328042  0.92685986  0.55556258  1
  Se  Se139  1  0.58222214  0.24229597  0.05718597  1
  Se  Se140  1  0.58231230  0.25608656  0.55162335  1
  Se  Se141  1  0.58043304  0.58037505  0.05490324  1
  Se  Se142  1  0.57982670  0.58257718  0.54361721  1
  Se  Se143  1  0.58228784  0.91282217  0.05216373  1
  Se  Se144  1  0.58725263  0.92470931  0.56018365  1
  Se  Se145  1  0.91520113  0.26016846  0.06377335  1
  Se  Se146  1  0.92402530  0.25248770  0.55151005  1
  Se  Se147  1  0.91360451  0.58379843  0.06040924  1
  Se  Se148  1  0.92007433  0.58576074  0.56008857  1
  Se  Se149  1  0.91301013  0.91782887  0.05529407  1
  Se  Se150  1  0.91333525  0.91395435  0.54549844  1
  Se  Se151  1  0.09147126  0.24438020  0.44416116  1
  Se  Se152  1  0.08634653  0.25207431  0.95534235  1
  Se  Se153  1  0.08252008  0.58091409  0.44457980  1
  Se  Se154  1  0.08025553  0.59240263  0.95094844  1
  Se  Se155  1  0.07833329  0.91515596  0.43621013  1
  Se  Se156  1  0.07748415  0.92502336  0.93888424  1
  Se  Se157  1  0.42215228  0.25408908  0.44464342  1
  Se  Se158  1  0.41857849  0.25319136  0.95133134  1
  Se  Se159  1  0.42323391  0.58072268  0.43567809  1
  Se  Se160  1  0.42104454  0.57833948  0.94744078  1
  Se  Se161  1  0.41350638  0.92623516  0.43521243  1
  Se  Se162  1  0.41387607  0.91393519  0.94989893  1
  Se  Se163  1  0.74196692  0.26077135  0.43752138  1
  Se  Se164  1  0.73692056  0.25881744  0.93990662  1
  Se  Se165  1  0.73284718  0.57928896  0.42493054  1
  Se  Se166  1  0.74978915  0.58376984  0.95283431  1
  Se  Se167  1  0.74270217  0.92596334  0.44576190  1
  Se  Se168  1  0.75481655  0.91651104  0.95256589  1
  Se  Se169  1  0.25121946  0.08923676  0.44475654  1
  Se  Se170  1  0.24770003  0.08993470  0.95010869  1
  Se  Se171  1  0.25293102  0.41935931  0.44293237  1
  Se  Se172  1  0.25875847  0.41345410  0.94392242  1
  Se  Se173  1  0.25021909  0.73894009  0.44215727  1
  Se  Se174  1  0.25321042  0.73849250  0.94417170  1
  Se  Se175  1  0.59092875  0.09182843  0.45166497  1
  Se  Se176  1  0.58396484  0.08257463  0.95045876  1
  Se  Se177  1  0.58249008  0.42455973  0.43328751  1
  Se  Se178  1  0.57808256  0.41979947  0.95119999  1
  Se  Se179  1  0.57762236  0.73913962  0.42514019  1
  Se  Se180  1  0.58363732  0.74915034  0.94972267  1
  Se  Se181  1  0.92145480  0.07168133  0.43042490  1
  Se  Se182  1  0.92171623  0.08162735  0.93902650  1
  Se  Se183  1  0.92009767  0.40982093  0.43879634  1
  Se  Se184  1  0.91715793  0.42272225  0.95466331  1
  Se  Se185  1  0.90604895  0.74237261  0.44645278  1
  Se  Se186  1  0.91669259  0.75546266  0.95553137  1
  Se  Se187  1  0.25418727  0.25207606  0.29872563  1
  Se  Se188  1  0.25337517  0.25121652  0.80524061  1
  Se  Se189  1  0.26875710  0.60453939  0.30648860  1
  Se  Se190  1  0.25379273  0.58009886  0.80248685  1
  Se  Se191  1  0.23844332  0.90593482  0.31363167  1
  Se  Se192  1  0.24127003  0.90202617  0.81127850  1
  Se  Se193  1  0.57832920  0.25440672  0.30329406  1
  Se  Se194  1  0.57303769  0.24211517  0.81295767  1
  Se  Se195  1  0.60365382  0.60059439  0.28739031  1
  Se  Se196  1  0.57928262  0.57244004  0.80830755  1
  Se  Se197  1  0.59064328  0.92226784  0.30198437  1
  Se  Se198  1  0.58474713  0.91556153  0.80915190  1
  Se  Se199  1  0.91334849  0.24584534  0.31215412  1
  Se  Se200  1  0.90763072  0.24381756  0.80967329  1
  Se  Se201  1  0.90983004  0.57631448  0.29631706  1
  Se  Se202  1  0.92029102  0.59649718  0.80950181  1
  Se  Se203  1  0.91374000  0.91722469  0.30213782  1
  Se  Se204  1  0.91266823  0.90918123  0.81150477  1
  Se  Se205  1  0.08461165  0.07950723  0.29702685  1
  Se  Se206  1  0.08778703  0.09010287  0.80339590  1
  Se  Se207  1  0.08771616  0.41796652  0.31363398  1
  Se  Se208  1  0.09145615  0.42595654  0.81763982  1
  Se  Se209  1  0.07377793  0.74984881  0.30380735  1
  Se  Se210  1  0.07858745  0.74010169  0.80224483  1
  Se  Se211  1  0.42200530  0.08717246  0.31392821  1
  Se  Se212  1  0.41727677  0.08247984  0.81551940  1
  Se  Se213  1  0.41556595  0.42270221  0.29351100  1
  Se  Se214  1  0.41439644  0.41039244  0.80272162  1
  Se  Se215  1  0.42066925  0.75927204  0.29709500  1
  Se  Se216  1  0.41946400  0.74225329  0.80470623  1
  Se  Se217  1  0.75534595  0.09930990  0.29879989  1
  Se  Se218  1  0.74676866  0.07852178  0.79972297  1
  Se  Se219  1  0.75367958  0.41547474  0.28491712  1
  Se  Se220  1  0.76053945  0.43014605  0.81052773  1
  Se  Se221  1  0.75048839  0.75357332  0.30411972  1
  Se  Se222  1  0.75250852  0.75435794  0.81481253  1
  Se  Se223  1  0.24894401  0.08573165  0.18762660  1
  Se  Se224  1  0.24722359  0.08542756  0.68725162  1
  Se  Se225  1  0.23212829  0.44147873  0.20521607  1
  Se  Se226  1  0.25396557  0.41116261  0.69465351  1
  Se  Se227  1  0.24737471  0.75914338  0.19887384  1
  Se  Se228  1  0.25623837  0.74004129  0.69754645  1
  Se  Se229  1  0.57638956  0.08130900  0.19986119  1
  Se  Se230  1  0.58445861  0.08270668  0.70254454  1
  Se  Se231  1  0.59742169  0.40345021  0.19652748  1
  Se  Se232  1  0.58194616  0.42196445  0.68797538  1
  Se  Se233  1  0.58363223  0.75366509  0.18935047  1
  Se  Se234  1  0.57555777  0.75440882  0.68604916  1
  Se  Se235  1  0.92221306  0.08648505  0.20162280  1
  Se  Se236  1  0.90758703  0.09312071  0.68784655  1
  Se  Se237  1  0.90968506  0.41991754  0.18730574  1
  Se  Se238  1  0.90891768  0.42770538  0.69679485  1
  Se  Se239  1  0.91376251  0.74516412  0.19497903  1
  Se  Se240  1  0.91400755  0.74749955  0.69443427  1
  Se  Se241  1  0.09249948  0.24553374  0.18596930  1
  Se  Se242  1  0.09020611  0.24885543  0.68800148  1
  Se  Se243  1  0.07907283  0.58537380  0.21096770  1
  Se  Se244  1  0.08526356  0.57755892  0.69674414  1
  Se  Se245  1  0.07224443  0.91797698  0.19654211  1
  Se  Se246  1  0.09236405  0.90147363  0.68916367  1
  Se  Se247  1  0.41256025  0.25381399  0.19696533  1
  Se  Se248  1  0.42080583  0.24478531  0.69889317  1
  Se  Se249  1  0.40999199  0.60426507  0.20225347  1
  Se  Se250  1  0.41558386  0.58288288  0.69481708  1
  Se  Se251  1  0.42212718  0.91649041  0.18884075  1
  Se  Se252  1  0.42647423  0.90669597  0.69063862  1
  Se  Se253  1  0.76650262  0.22239700  0.20378410  1
  Se  Se254  1  0.75129004  0.25338277  0.68958138  1
  Se  Se255  1  0.72155754  0.60179365  0.19727106  1
  Se  Se256  1  0.75722999  0.57597097  0.69250842  1
  Se  Se257  1  0.74929769  0.91883588  0.19459906  1
  Se  Se258  1  0.74986569  0.91363535  0.69675022  1
