# generated using pymatgen
data_In86Cu29Se144
_symmetry_space_group_name_H-M   'P 1'
_cell_length_a   17.57621339
_cell_length_b   17.57540354
_cell_length_c   23.43209608
_cell_angle_alpha   90.03538679
_cell_angle_beta   90.01787508
_cell_angle_gamma   90.02641890
_symmetry_Int_Tables_number   1
_chemical_formula_structural   In86Cu29Se144
_chemical_formula_sum   'In86 Cu29 Se144'
_cell_volume   7238.38387082
_cell_formula_units_Z   1
loop_
 _symmetry_equiv_pos_site_id
 _symmetry_equiv_pos_as_xyz
  1  'x, y, z'
loop_
 _atom_site_type_symbol
 _atom_site_label
 _atom_site_symmetry_multiplicity
 _atom_site_fract_x
 _atom_site_fract_y
 _atom_site_fract_z
 _atom_site_occupancy
  In  In0  1  -0.00068934  0.14815767  0.12290360  1
  In  In1  1  0.00760650  0.17487173  0.61537075  1
  In  In2  1  -0.00863956  0.51298686  0.13298175  1
  In  In3  1  -0.01360540  0.50226018  0.62281485  1
  In  In4  1  -0.00752823  0.84000024  0.13239247  1
  In  In5  1  -0.00100292  0.82122554  0.60957433  1
  In  In6  1  0.34241378  0.17604014  0.11901570  1
  In  In7  1  0.32372249  0.17460596  0.61930595  1
  In  In8  1  0.33836020  0.49080991  0.13608860  1
  In  In9  1  0.34107566  0.48977880  0.62044534  1
  In  In10  1  0.32366623  0.82296841  0.12936638  1
  In  In11  1  0.33180544  0.82972048  0.61354885  1
  In  In12  1  0.65850471  0.17592235  0.13328996  1
  In  In13  1  0.67358758  0.16036929  0.63101683  1
  In  In14  1  0.66808492  0.50403922  0.12219889  1
  In  In15  1  0.66733966  0.50029152  0.62547739  1
  In  In16  1  0.68154299  0.81718240  0.13506489  1
  In  In17  1  0.66159733  0.83786958  0.62769974  1
  In  In18  1  0.15115166  0.00542841  0.38374253  1
  In  In19  1  0.17772012  0.00299748  0.87528258  1
  In  In20  1  0.16648893  0.31965356  0.37033255  1
  In  In21  1  0.14667923  0.33582558  0.87470391  1
  In  In22  1  0.17405487  0.66734465  0.36446107  1
  In  In23  1  0.17188003  0.66688906  0.87747987  1
  In  In24  1  0.50370795  -0.01534903  0.37486855  1
  In  In25  1  0.51824604  -0.00172971  0.88050208  1
  In  In26  1  0.51593560  0.34720061  0.36927850  1
  In  In27  1  0.50787709  0.32757129  0.88196726  1
  In  In28  1  0.50201296  0.66162921  0.37417583  1
  In  In29  1  0.50405201  0.64638853  0.88500811  1
  In  In30  1  0.84302656  0.00897216  0.37016392  1
  In  In31  1  0.82157350  0.00810125  0.87770181  1
  In  In32  1  0.82568552  0.34363005  0.38252903  1
  In  In33  1  0.84202475  0.34356252  0.87124662  1
  In  In34  1  0.82973524  0.65222594  0.36290238  1
  In  In35  1  0.82934046  0.67803893  0.88555195  1
  In  In36  1  0.00078406  0.15640400  0.38557264  1
  In  In37  1  -0.01045530  0.18005678  0.87913148  1
  In  In38  1  -0.01359639  0.50120229  0.37264676  1
  In  In39  1  -0.00061074  0.48639011  0.87574938  1
  In  In40  1  0.00587655  0.83837541  0.37253490  1
  In  In41  1  -0.00202123  0.81971229  0.87749317  1
  In  In42  1  0.32143140  0.16721704  0.37191855  1
  In  In43  1  0.33172637  0.17467954  0.88449794  1
  In  In44  1  0.34470004  0.51252813  0.35978847  1
  In  In45  1  0.34114887  0.50934139  0.87993310  1
  In  In46  1  0.34287397  0.82483162  0.37700725  1
  In  In47  1  0.32146770  0.82970540  0.87732207  1
  In  In48  1  0.68010775  0.17884277  0.36932846  1
  In  In49  1  0.66497338  0.16255913  0.87284096  1
  In  In50  1  0.67091168  0.49785335  0.37513209  1
  In  In51  1  0.66968127  0.50162899  0.87606951  1
  In  In52  1  0.65853572  0.81979864  0.36762169  1
  In  In53  1  0.67755300  0.84061997  0.87141845  1
  In  In54  1  0.14875522  0.00147804  0.12372837  1
  In  In55  1  0.15594603  -0.00489323  0.60842150  1
  In  In56  1  0.18040731  0.33828549  0.13041531  1
  In  In57  1  0.16975370  0.32272740  0.62235573  1
  In  In58  1  0.16564177  0.64756250  0.15075761  1
  In  In59  1  0.14692144  0.66766240  0.61290576  1
  In  In60  1  0.49923716  0.01443352  0.12591084  1
  In  In61  1  0.51362047  -0.00338386  0.62385322  1
  In  In62  1  0.50346887  0.33656587  0.12477120  1
  In  In63  1  0.49990198  0.34651036  0.62293938  1
  In  In64  1  0.51052239  0.65556752  0.12821856  1
  In  In65  1  0.50885190  0.67470407  0.61762995  1
  In  In66  1  0.84533634  -0.01348880  0.13447278  1
  In  In67  1  0.82032734  -0.00572516  0.62260720  1
  In  In68  1  0.81359033  0.33412134  0.12859161  1
  In  In69  1  0.83125717  0.33590437  0.62533378  1
  In  In70  1  0.83050668  0.66791052  0.12491335  1
  In  In71  1  0.83036475  0.65006306  0.61773016  1
  In  In72  1  0.15932295  0.83187883  0.00490169  1
  In  In73  1  0.83498414  0.83660128  0.49089219  1
  In  In74  1  0.33502984  0.33219526  0.74420958  1
  In  In75  1  -0.00537332  0.33370019  0.25195752  1
  In  In76  1  -0.00822546  0.65879925  0.73970760  1
  In  In77  1  0.33243755  -0.00217392  0.25130402  1
  In  In78  1  0.16957357  0.49943418  0.49042732  1
  In  In79  1  0.50381503  0.83559264  0.00882939  1
  In  In80  1  0.16786586  0.49910735  0.00577539  1
  In  In81  1  -0.00815371  0.00298380  0.74659456  1
  In  In82  1  0.49849407  0.16514675  0.50277581  1
  In  In83  1  0.83103836  0.16576153  0.00308923  1
  In  In84  1  0.33669278  0.66393952  0.75738406  1
  In  In85  1  0.34301676  0.00799341  0.74035626  1
  Cu  Cu86  1  0.16428823  0.83466500  0.25139390  1
  Cu  Cu87  1  0.50813853  0.50006561  0.75065134  1
  Cu  Cu88  1  -0.00366436  0.33464480  0.49623342  1
  Cu  Cu89  1  -0.00289922  0.66961408  0.00970535  1
  Cu  Cu90  1  0.83295158  0.16307402  0.25135146  1
  Cu  Cu91  1  0.15651865  0.17091987  0.74661705  1
  Cu  Cu92  1  0.16699580  0.82931731  0.74086655  1
  Cu  Cu93  1  0.82415280  0.83277722  0.75105947  1
  Cu  Cu94  1  0.16631724  0.16449527  0.25099592  1
  Cu  Cu95  1  0.67266428  0.33883681  0.49896544  1
  Cu  Cu96  1  0.66534589  0.66443340  0.49468473  1
  Cu  Cu97  1  0.33721428  0.33383783  0.49667899  1
  Cu  Cu98  1  0.66443291  -0.00206105  0.49933036  1
  Cu  Cu99  1  0.49955607  0.17128954  0.24736697  1
  Cu  Cu100  1  0.67125579  0.00212236  0.00288126  1
  Cu  Cu101  1  0.33503322  0.00597087  0.00079670  1
  Cu  Cu102  1  -0.00123662  0.33316723  0.00146935  1
  Cu  Cu103  1  0.33578627  0.66314120  0.49063933  1
  Cu  Cu104  1  0.66206662  0.33757409  0.00126411  1
  Cu  Cu105  1  0.83369961  0.83224304  0.25512995  1
  Cu  Cu106  1  0.50847916  0.16527029  0.75508399  1
  Cu  Cu107  1  0.50796259  0.49821253  0.24851220  1
  Cu  Cu108  1  0.82689351  0.50052001  0.74964699  1
  Cu  Cu109  1  0.32952423  -0.00433380  0.49216704  1
  Cu  Cu110  1  0.83089728  0.17567380  0.75014351  1
  Cu  Cu111  1  0.50176846  0.82680272  0.25249111  1
  Cu  Cu112  1  0.51021078  0.82591094  0.75223581  1
  Cu  Cu113  1  0.33631859  0.33588498  0.00488267  1
  Cu  Cu114  1  0.66990192  0.66710422  0.00360926  1
  Se  Se115  1  0.08723172  0.08700090  0.04839307  1
  Se  Se116  1  0.08583792  0.09139627  0.54682131  1
  Se  Se117  1  0.07400332  0.41286727  0.06647733  1
  Se  Se118  1  0.08086400  0.41338352  0.55687740  1
  Se  Se119  1  0.08446502  0.73793877  0.07237046  1
  Se  Se120  1  0.09296059  0.76022413  0.53956673  1
  Se  Se121  1  0.42181515  0.08868526  0.05056391  1
  Se  Se122  1  0.40591554  0.07108614  0.56087033  1
  Se  Se123  1  0.41698785  0.42074430  0.05793377  1
  Se  Se124  1  0.42230433  0.41859922  0.54555521  1
  Se  Se125  1  0.41301262  0.74239737  0.06264777  1
  Se  Se126  1  0.41701813  0.74616184  0.54889551  1
  Se  Se127  1  0.74714784  0.07935424  0.06926954  1
  Se  Se128  1  0.74514684  0.08241733  0.55315918  1
  Se  Se129  1  0.74965731  0.41818033  0.05187571  1
  Se  Se130  1  0.75395038  0.42321627  0.55513201  1
  Se  Se131  1  0.75428428  0.75463310  0.05154655  1
  Se  Se132  1  0.74516682  0.74821626  0.55544407  1
  Se  Se133  1  0.24831040  0.25403495  0.05498423  1
  Se  Se134  1  0.24824693  0.25135309  0.54447794  1
  Se  Se135  1  0.25206298  0.58729304  0.06939992  1
  Se  Se136  1  0.25787738  0.58785639  0.55777225  1
  Se  Se137  1  0.25706925  0.92449706  0.06039680  1
  Se  Se138  1  0.24743944  0.91239123  0.54779353  1
  Se  Se139  1  0.58395409  0.24965596  0.05501967  1
  Se  Se140  1  0.59127533  0.25678687  0.55931772  1
  Se  Se141  1  0.58259752  0.58143887  0.04928700  1
  Se  Se142  1  0.58537177  0.58162230  0.55348909  1
  Se  Se143  1  0.59544511  0.92295395  0.06809032  1
  Se  Se144  1  0.58244376  0.91116701  0.55019311  1
  Se  Se145  1  0.91930363  0.25668195  0.06562246  1
  Se  Se146  1  0.91345284  0.25459301  0.55399958  1
  Se  Se147  1  0.91216382  0.58100503  0.05530891  1
  Se  Se148  1  0.93729041  0.60293582  0.55263040  1
  Se  Se149  1  0.92955855  0.92606570  0.05648100  1
  Se  Se150  1  0.92118520  0.92758887  0.55496217  1
  Se  Se151  1  0.08304548  0.25200600  0.44570122  1
  Se  Se152  1  0.08195680  0.24924027  0.94967308  1
  Se  Se153  1  0.07913029  0.58960989  0.43478010  1
  Se  Se154  1  0.07530120  0.59117978  0.94484393  1
  Se  Se155  1  0.07808936  0.91458023  0.45022502  1
  Se  Se156  1  0.07964403  0.92101868  0.93661941  1
  Se  Se157  1  0.41716637  0.25305467  0.43544049  1
  Se  Se158  1  0.42002703  0.25148230  0.95103633  1
  Se  Se159  1  0.41931275  0.57590786  0.44289433  1
  Se  Se160  1  0.41150486  0.58527760  0.95586231  1
  Se  Se161  1  0.41943915  0.91263216  0.44719253  1
  Se  Se162  1  0.41056002  0.92088857  0.94090733  1
  Se  Se163  1  0.75298580  0.24855042  0.45027129  1
  Se  Se164  1  0.74655947  0.25821868  0.94047501  1
  Se  Se165  1  0.75332707  0.58390502  0.44385358  1
  Se  Se166  1  0.75178997  0.58325097  0.94756620  1
  Se  Se167  1  0.73939152  0.92137062  0.43260227  1
  Se  Se168  1  0.75191718  0.91800054  0.94857947  1
  Se  Se169  1  0.24852474  0.08505516  0.44463537  1
  Se  Se170  1  0.24824676  0.08678392  0.94843672  1
  Se  Se171  1  0.26106615  0.41142991  0.43117809  1
  Se  Se172  1  0.25400486  0.40906057  0.93957033  1
  Se  Se173  1  0.25003573  0.74575969  0.44055932  1
  Se  Se174  1  0.25919952  0.73760220  0.95286283  1
  Se  Se175  1  0.58795034  0.08181074  0.43788941  1
  Se  Se176  1  0.58833556  0.08736877  0.95101936  1
  Se  Se177  1  0.58565353  0.42103345  0.44901744  1
  Se  Se178  1  0.58205228  0.42275924  0.94586613  1
  Se  Se179  1  0.57988923  0.74928388  0.44517168  1
  Se  Se180  1  0.59046945  0.75024535  0.94198488  1
  Se  Se181  1  0.90541386  0.08558605  0.45091782  1
  Se  Se182  1  0.92367423  0.07580193  0.94405555  1
  Se  Se183  1  0.91361164  0.42375178  0.44976885  1
  Se  Se184  1  0.91514016  0.41821352  0.95064255  1
  Se  Se185  1  0.91642934  0.74201841  0.43149334  1
  Se  Se186  1  0.91722630  0.75537241  0.95525924  1
  Se  Se187  1  0.25383702  0.25075248  0.29597233  1
  Se  Se188  1  0.24376626  0.24445290  0.80681047  1
  Se  Se189  1  0.24599702  0.57726853  0.29527670  1
  Se  Se190  1  0.23968500  0.56974194  0.80783082  1
  Se  Se191  1  0.24367369  0.91360359  0.31497598  1
  Se  Se192  1  0.24750241  0.91185106  0.79789221  1
  Se  Se193  1  0.58497510  0.25042038  0.30327891  1
  Se  Se194  1  0.58710387  0.25404357  0.80616584  1
  Se  Se195  1  0.58784775  0.58162215  0.30574361  1
  Se  Se196  1  0.58618119  0.58589569  0.80586538  1
  Se  Se197  1  0.58553836  0.91515419  0.29969430  1
  Se  Se198  1  0.58650766  0.91793131  0.80390091  1
  Se  Se199  1  0.91069636  0.24332595  0.31555069  1
  Se  Se200  1  0.91929205  0.25539456  0.80141321  1
  Se  Se201  1  0.92541132  0.58422468  0.29357858  1
  Se  Se202  1  0.90871797  0.58002541  0.81198219  1
  Se  Se203  1  0.91932561  0.91800587  0.30373482  1
  Se  Se204  1  0.90985758  0.90870149  0.81047081  1
  Se  Se205  1  0.08155567  0.08655151  0.30684151  1
  Se  Se206  1  0.08438592  0.08794373  0.80992177  1
  Se  Se207  1  0.08736184  0.42002675  0.31144509  1
  Se  Se208  1  0.08282987  0.42118998  0.80088322  1
  Se  Se209  1  0.08087881  0.75016322  0.30277749  1
  Se  Se210  1  0.08888810  0.74945881  0.80196603  1
  Se  Se211  1  0.42511638  0.08805031  0.31068024  1
  Se  Se212  1  0.42300112  0.08959055  0.81400843  1
  Se  Se213  1  0.42177653  0.41392874  0.29959752  1
  Se  Se214  1  0.42241255  0.42136258  0.80841953  1
  Se  Se215  1  0.41706132  0.74339219  0.30344927  1
  Se  Se216  1  0.42717286  0.75638698  0.81702718  1
  Se  Se217  1  0.74710727  0.07977227  0.30325451  1
  Se  Se218  1  0.75100608  0.08600881  0.80139231  1
  Se  Se219  1  0.74254505  0.40580765  0.30612731  1
  Se  Se220  1  0.74736699  0.41550312  0.80523076  1
  Se  Se221  1  0.74781803  0.74408623  0.30027999  1
  Se  Se222  1  0.74920072  0.74368622  0.80586048  1
  Se  Se223  1  0.24743523  0.08746222  0.18757304  1
  Se  Se224  1  0.23595323  0.08837925  0.68772486  1
  Se  Se225  1  0.23765187  0.42980851  0.20347598  1
  Se  Se226  1  0.24251296  0.42441258  0.68954901  1
  Se  Se227  1  0.25006845  0.74722868  0.20518909  1
  Se  Se228  1  0.24748516  0.74502600  0.68618944  1
  Se  Se229  1  0.58354391  0.08209063  0.20074759  1
  Se  Se230  1  0.58449997  0.07939798  0.69775080  1
  Se  Se231  1  0.59026775  0.41602538  0.19279728  1
  Se  Se232  1  0.58654789  0.41392391  0.69605772  1
  Se  Se233  1  0.58491629  0.74412912  0.19822550  1
  Se  Se234  1  0.58928296  0.74342815  0.69562441  1
  Se  Se235  1  0.92018832  0.08093781  0.20111396  1
  Se  Se236  1  0.90644325  0.09421915  0.68572705  1
  Se  Se237  1  0.90087152  0.42130694  0.19451972  1
  Se  Se238  1  0.91329362  0.42001032  0.69628143  1
  Se  Se239  1  0.91346210  0.75006238  0.19624192  1
  Se  Se240  1  0.90485423  0.75928224  0.68612729  1
  Se  Se241  1  0.08492817  0.24355773  0.18913677  1
  Se  Se242  1  0.07719831  0.25596381  0.69340710  1
  Se  Se243  1  0.06016866  0.58654907  0.21321714  1
  Se  Se244  1  0.09315285  0.57237875  0.68923144  1
  Se  Se245  1  0.08166380  0.92027226  0.20019323  1
  Se  Se246  1  0.08113278  0.90850452  0.68651512  1
  Se  Se247  1  0.41678144  0.25447153  0.19431315  1
  Se  Se248  1  0.42797979  0.23731299  0.68865194  1
  Se  Se249  1  0.42129706  0.58256009  0.19850997  1
  Se  Se250  1  0.42381983  0.57781783  0.69112441  1
  Se  Se251  1  0.42359354  0.90802375  0.18991804  1
  Se  Se252  1  0.42564863  0.90124146  0.69079878  1
  Se  Se253  1  0.74713935  0.24942946  0.20393518  1
  Se  Se254  1  0.74553958  0.25606741  0.69591509  1
  Se  Se255  1  0.73516581  0.59817753  0.19131737  1
  Se  Se256  1  0.74788008  0.58677624  0.69575892  1
  Se  Se257  1  0.74979714  0.91579647  0.20064246  1
  Se  Se258  1  0.74391698  0.91974023  0.69864182  1
