# generated using pymatgen
data_In86Cu29Se144
_symmetry_space_group_name_H-M   'P 1'
_cell_length_a   17.62066067
_cell_length_b   17.61481708
_cell_length_c   23.47931287
_cell_angle_alpha   89.99609317
_cell_angle_beta   89.95447445
_cell_angle_gamma   89.95493387
_symmetry_Int_Tables_number   1
_chemical_formula_structural   In86Cu29Se144
_chemical_formula_sum   'In86 Cu29 Se144'
_cell_volume   7287.61525323
_cell_formula_units_Z   1
loop_
 _symmetry_equiv_pos_site_id
 _symmetry_equiv_pos_as_xyz
  1  'x, y, z'
loop_
 _atom_site_type_symbol
 _atom_site_label
 _atom_site_symmetry_multiplicity
 _atom_site_fract_x
 _atom_site_fract_y
 _atom_site_fract_z
 _atom_site_occupancy
  In  In0  1  0.00237132  0.16516090  0.12946354  1
  In  In1  1  -0.01195992  0.17324988  0.63239382  1
  In  In2  1  0.00075810  0.50061685  0.11406396  1
  In  In3  1  -0.01076670  0.49980293  0.63054836  1
  In  In4  1  -0.00031225  0.84250169  0.12385465  1
  In  In5  1  -0.00006343  0.84763840  0.62836016  1
  In  In6  1  0.34521546  0.16955991  0.12445038  1
  In  In7  1  0.35098562  0.17188261  0.62051760  1
  In  In8  1  0.32052131  0.51139106  0.13299855  1
  In  In9  1  0.34007849  0.49228559  0.62949134  1
  In  In10  1  0.31915764  0.82869738  0.12468043  1
  In  In11  1  0.33662983  0.82323373  0.62197022  1
  In  In12  1  0.66190164  0.17921554  0.12118583  1
  In  In13  1  0.66613404  0.16584976  0.62741069  1
  In  In14  1  0.67925887  0.50746952  0.11774956  1
  In  In15  1  0.66009098  0.51190591  0.63709824  1
  In  In16  1  0.69112132  0.81809839  0.11889807  1
  In  In17  1  0.66980800  0.83256666  0.62597376  1
  In  In18  1  0.16150772  0.00838649  0.37117007  1
  In  In19  1  0.15012291  -0.00486139  0.87956857  1
  In  In20  1  0.16913836  0.33561611  0.36195397  1
  In  In21  1  0.16872241  0.34227242  0.87217772  1
  In  In22  1  0.16615668  0.66936902  0.36354525  1
  In  In23  1  0.16743652  0.65898663  0.89202270  1
  In  In24  1  0.49306214  -0.00064724  0.39614023  1
  In  In25  1  0.51542453  -0.00034219  0.86664239  1
  In  In26  1  0.49289031  0.34489313  0.39134645  1
  In  In27  1  0.49000856  0.32834135  0.86615013  1
  In  In28  1  0.48515500  0.67580503  0.39122288  1
  In  In29  1  0.49883676  0.66687603  0.86321678  1
  In  In30  1  0.84073418  -0.00200245  0.37769112  1
  In  In31  1  0.83014191  -0.00664852  0.87141346  1
  In  In32  1  0.82910667  0.32713493  0.37377448  1
  In  In33  1  0.84198868  0.34349556  0.86917449  1
  In  In34  1  0.84365722  0.66956469  0.37404228  1
  In  In35  1  0.82559593  0.66509514  0.89029050  1
  In  In36  1  -0.00506845  0.16369261  0.36825293  1
  In  In37  1  -0.00437830  0.16230774  0.86987102  1
  In  In38  1  0.00360286  0.50435063  0.36204743  1
  In  In39  1  0.01069155  0.49111029  0.89953108  1
  In  In40  1  -0.00459487  0.82887789  0.36603538  1
  In  In41  1  -0.01265266  0.83698167  0.89685439  1
  In  In42  1  0.33189801  0.17249499  0.37644792  1
  In  In43  1  0.33001309  0.18572542  0.87078692  1
  In  In44  1  0.34007305  0.50304274  0.36901978  1
  In  In45  1  0.32827458  0.50122507  0.87010558  1
  In  In46  1  0.34151120  0.82701549  0.37823010  1
  In  In47  1  0.33415786  0.81888580  0.87196247  1
  In  In48  1  0.66928213  0.17788119  0.38853518  1
  In  In49  1  0.65944210  0.15769163  0.86535822  1
  In  In50  1  0.65556857  0.49092965  0.37850072  1
  In  In51  1  0.67816277  0.50903738  0.86328319  1
  In  In52  1  0.66673256  0.83206229  0.38473749  1
  In  In53  1  0.67229371  0.83143344  0.86764582  1
  In  In54  1  0.15995741  -0.01749373  0.11885979  1
  In  In55  1  0.15611672  -0.00585304  0.63156550  1
  In  In56  1  0.15378862  0.34989198  0.12930171  1
  In  In57  1  0.16172796  0.33789233  0.63800205  1
  In  In58  1  0.16016757  0.67085773  0.11869805  1
  In  In59  1  0.17837995  0.66893400  0.62865542  1
  In  In60  1  0.49375363  0.00164888  0.12158948  1
  In  In61  1  0.51389175  0.01645204  0.61326961  1
  In  In62  1  0.50697779  0.32925822  0.12469016  1
  In  In63  1  0.50400855  0.33123038  0.62674935  1
  In  In64  1  0.50116118  0.65627095  0.13100836  1
  In  In65  1  0.49807322  0.66782703  0.62281569  1
  In  In66  1  0.84755059  0.00072660  0.12154476  1
  In  In67  1  0.83148105  -0.00195628  0.62763684  1
  In  In68  1  0.84684772  0.35005186  0.11437554  1
  In  In69  1  0.84015804  0.32757897  0.63415101  1
  In  In70  1  0.87777838  0.69498479  0.07373413  1
  In  In71  1  0.82346896  0.66454500  0.62668048  1
  In  In72  1  0.17254460  0.50037154  0.50288716  1
  In  In73  1  0.66909201  0.33544666  0.25025356  1
  In  In74  1  0.83127464  0.16802677  -0.00261344  1
  In  In75  1  0.50446653  0.49679679  0.00214798  1
  In  In76  1  0.82464304  0.49820178  0.50014318  1
  In  In77  1  0.50244106  0.83945375  -0.00642540  1
  In  In78  1  0.66590329  -0.00049636  0.26506576  1
  In  In79  1  -0.00186717  0.66767785  0.77139632  1
  In  In80  1  0.33261628  0.00199627  0.73856373  1
  In  In81  1  0.66832595  0.66206834  0.25049568  1
  In  In82  1  0.16823697  0.16409131  0.49330099  1
  In  In83  1  0.32671247  -0.00277756  0.25402170  1
  In  In84  1  0.17016736  0.83412496  0.49589797  1
  In  In85  1  0.16617411  0.16921660  0.00132716  1
  Cu  Cu86  1  0.83412971  0.49364145  0.75381723  1
  Cu  Cu87  1  0.65355893  0.32286840  -0.00802325  1
  Cu  Cu88  1  0.49463360  0.82382259  0.25631238  1
  Cu  Cu89  1  0.50238286  0.16847260  0.25125098  1
  Cu  Cu90  1  0.16431434  0.83360425  0.75237057  1
  Cu  Cu91  1  0.00175399  0.67536278  0.49490994  1
  Cu  Cu92  1  0.33736906  0.32903480  0.50347254  1
  Cu  Cu93  1  0.67802211  0.00036564  0.50360561  1
  Cu  Cu94  1  0.83944972  0.82727539  0.75453165  1
  Cu  Cu95  1  -0.00982376  0.00544476  0.50077552  1
  Cu  Cu96  1  0.49199227  0.49694969  0.25481872  1
  Cu  Cu97  1  0.83002984  0.15885385  0.75002186  1
  Cu  Cu98  1  0.66287994  0.66758173  0.50822365  1
  Cu  Cu99  1  0.49613714  0.49878825  0.74777908  1
  Cu  Cu100  1  0.84143870  0.17249826  0.24855807  1
  Cu  Cu101  1  0.16031184  0.51090750  0.76027903  1
  Cu  Cu102  1  0.50011241  0.16762505  0.74358224  1
  Cu  Cu103  1  0.33099558  0.33905583  -0.00382915  1
  Cu  Cu104  1  -0.00624724  0.33163650  0.50109860  1
  Cu  Cu105  1  0.50553040  0.83065855  0.74467110  1
  Cu  Cu106  1  0.33482677  0.66615447  0.00326430  1
  Cu  Cu107  1  0.15978710  0.82502158  0.24359247  1
  Cu  Cu108  1  0.84285091  0.50618877  0.24018175  1
  Cu  Cu109  1  0.33921493  0.01052238  -0.00150440  1
  Cu  Cu110  1  0.16632064  0.16482869  0.24733422  1
  Cu  Cu111  1  0.84110364  0.83106557  0.24044514  1
  Cu  Cu112  1  0.16114585  0.16994280  0.75524542  1
  Cu  Cu113  1  0.16359499  0.50116134  0.24059955  1
  Cu  Cu114  1  0.66653757  -0.00288464  -0.00804286  1
  Se  Se115  1  0.07476086  0.07495284  0.05528811  1
  Se  Se116  1  0.07626923  0.08183625  0.55885080  1
  Se  Se117  1  0.08884536  0.41928544  0.04765802  1
  Se  Se118  1  0.07370463  0.41264153  0.55932395  1
  Se  Se119  1  0.10567036  0.78260245  0.05938044  1
  Se  Se120  1  0.07984229  0.74661069  0.56176804  1
  Se  Se121  1  0.42387870  0.09003529  0.05096031  1
  Se  Se122  1  0.40580671  0.07374302  0.55238632  1
  Se  Se123  1  0.40875120  0.41497304  0.06309329  1
  Se  Se124  1  0.41864545  0.41354598  0.55694846  1
  Se  Se125  1  0.41877591  0.74661148  0.06031189  1
  Se  Se126  1  0.41806433  0.74861924  0.55125493  1
  Se  Se127  1  0.73989751  0.07719568  0.05906877  1
  Se  Se128  1  0.75504893  0.08619664  0.55897269  1
  Se  Se129  1  0.73080038  0.39674104  0.05642035  1
  Se  Se130  1  0.74748298  0.41763258  0.57230980  1
  Se  Se131  1  0.74843002  0.74667580  0.03583594  1
  Se  Se132  1  0.75312999  0.74976619  0.55458056  1
  Se  Se133  1  0.25551068  0.25911710  0.06123877  1
  Se  Se134  1  0.24589843  0.25812717  0.56123735  1
  Se  Se135  1  0.24901721  0.58415166  0.05427652  1
  Se  Se136  1  0.26389223  0.59034029  0.55799611  1
  Se  Se137  1  0.26175768  0.92338281  0.05200279  1
  Se  Se138  1  0.25038912  0.92385811  0.56230287  1
  Se  Se139  1  0.57188819  0.24306881  0.04829527  1
  Se  Se140  1  0.56139270  0.22508241  0.56319601  1
  Se  Se141  1  0.59217068  0.59777263  0.05379486  1
  Se  Se142  1  0.58282948  0.57880234  0.55728430  1
  Se  Se143  1  0.59473998  0.91882929  0.06191951  1
  Se  Se144  1  0.59189096  0.91785668  0.55483802  1
  Se  Se145  1  0.92906378  0.25257082  0.05374589  1
  Se  Se146  1  0.91333803  0.24985181  0.55573518  1
  Se  Se147  1  0.88359602  0.54918651  0.05630305  1
  Se  Se148  1  0.92320391  0.59121634  0.55469376  1
  Se  Se149  1  0.90768311  0.90963802  0.05106230  1
  Se  Se150  1  0.91485831  0.91636676  0.55515421  1
  Se  Se151  1  0.07881503  0.26051837  0.43798229  1
  Se  Se152  1  0.07833719  0.25309684  0.93681075  1
  Se  Se153  1  0.07974899  0.58854701  0.44032731  1
  Se  Se154  1  0.07693948  0.59094399  0.96147822  1
  Se  Se155  1  0.07342564  0.92588861  0.44112469  1
  Se  Se156  1  0.09166586  0.90807304  0.95501063  1
  Se  Se157  1  0.41678506  0.24305455  0.44928323  1
  Se  Se158  1  0.41405549  0.25399983  0.94534841  1
  Se  Se159  1  0.43060647  0.56005868  0.44398858  1
  Se  Se160  1  0.41562738  0.58915434  0.94157148  1
  Se  Se161  1  0.41163940  0.90597918  0.45267371  1
  Se  Se162  1  0.41072621  0.92784307  0.93278911  1
  Se  Se163  1  0.74825053  0.26774745  0.45216244  1
  Se  Se164  1  0.74209509  0.25125825  0.93296181  1
  Se  Se165  1  0.73947145  0.59397993  0.43838986  1
  Se  Se166  1  0.74373278  0.56978763  0.94895339  1
  Se  Se167  1  0.75560346  0.91697216  0.44518945  1
  Se  Se168  1  0.74899398  0.91171102  0.94215444  1
  Se  Se169  1  0.26097874  0.06807202  0.44178397  1
  Se  Se170  1  0.25535173  0.08242492  0.93571528  1
  Se  Se171  1  0.25506682  0.40558371  0.44109776  1
  Se  Se172  1  0.24928166  0.42280800  0.94377693  1
  Se  Se173  1  0.25350933  0.73342445  0.44219603  1
  Se  Se174  1  0.25536990  0.75266812  0.94984709  1
  Se  Se175  1  0.59216096  0.08123944  0.44905211  1
  Se  Se176  1  0.58224435  0.08216922  0.94329005  1
  Se  Se177  1  0.60582244  0.39493159  0.45078145  1
  Se  Se178  1  0.58387320  0.41161587  0.93266107  1
  Se  Se179  1  0.58208618  0.75167187  0.45204314  1
  Se  Se180  1  0.58516813  0.74318199  0.93625223  1
  Se  Se181  1  0.91425399  0.09208855  0.44426063  1
  Se  Se182  1  0.92068658  0.07352199  0.94266719  1
  Se  Se183  1  0.92485146  0.41910293  0.43857610  1
  Se  Se184  1  0.90643592  0.41330777  0.95178446  1
  Se  Se185  1  0.91650900  0.75740976  0.44426097  1
  Se  Se186  1  0.92923236  0.72683056  0.95529001  1
  Se  Se187  1  0.25271595  0.24390764  0.30083933  1
  Se  Se188  1  0.24611611  0.25868837  0.79945786  1
  Se  Se189  1  0.24567324  0.57559214  0.30288234  1
  Se  Se190  1  0.24514183  0.59513770  0.80989944  1
  Se  Se191  1  0.23765438  0.90153073  0.31067007  1
  Se  Se192  1  0.24866779  0.91726027  0.80930726  1
  Se  Se193  1  0.57953882  0.24920401  0.31250069  1
  Se  Se194  1  0.58068812  0.24923578  0.80078163  1
  Se  Se195  1  0.57364858  0.57997779  0.31205711  1
  Se  Se196  1  0.58274345  0.58213309  0.79845680  1
  Se  Se197  1  0.56811085  0.90776837  0.31608376  1
  Se  Se198  1  0.58908795  0.91310075  0.79790942  1
  Se  Se199  1  0.91948684  0.25846924  0.30325888  1
  Se  Se200  1  0.91122590  0.24465261  0.80397021  1
  Se  Se201  1  0.91802503  0.59122445  0.29930990  1
  Se  Se202  1  0.91030348  0.56930252  0.82147008  1
  Se  Se203  1  0.91327087  0.91747801  0.30126329  1
  Se  Se204  1  0.92256428  0.90746526  0.81171541  1
  Se  Se205  1  0.08048134  0.08306170  0.29932591  1
  Se  Se206  1  0.08269741  0.07972434  0.80420175  1
  Se  Se207  1  0.08257424  0.41646524  0.29639797  1
  Se  Se208  1  0.07632359  0.42707310  0.81173415  1
  Se  Se209  1  0.07436368  0.74346513  0.29747080  1
  Se  Se210  1  0.09122830  0.76074300  0.82255995  1
  Se  Se211  1  0.42624336  0.08295392  0.31049197  1
  Se  Se212  1  0.41735729  0.08928947  0.80620852  1
  Se  Se213  1  0.41770937  0.40536412  0.30718342  1
  Se  Se214  1  0.40993859  0.41856709  0.80176533  1
  Se  Se215  1  0.41221983  0.73895547  0.30640007  1
  Se  Se216  1  0.41668380  0.75145317  0.79610087  1
  Se  Se217  1  0.75683675  0.10026943  0.31148843  1
  Se  Se218  1  0.74724790  0.07378118  0.80209222  1
  Se  Se219  1  0.75989682  0.43250182  0.30525815  1
  Se  Se220  1  0.74532681  0.40781823  0.79986450  1
  Se  Se221  1  0.75643576  0.76175301  0.30620683  1
  Se  Se222  1  0.75851816  0.74073733  0.80766995  1
  Se  Se223  1  0.24554912  0.08438170  0.18510165  1
  Se  Se224  1  0.23960900  0.09867974  0.68615563  1
  Se  Se225  1  0.25285677  0.41217767  0.19755684  1
  Se  Se226  1  0.24034004  0.43078893  0.69902402  1
  Se  Se227  1  0.24799768  0.74275850  0.19524550  1
  Se  Se228  1  0.25085091  0.75626382  0.69858144  1
  Se  Se229  1  0.58240671  0.08628335  0.19337574  1
  Se  Se230  1  0.58492722  0.07887661  0.69777354  1
  Se  Se231  1  0.58086935  0.43083154  0.19085993  1
  Se  Se232  1  0.58248869  0.41509257  0.69797349  1
  Se  Se233  1  0.58206284  0.76035716  0.19029063  1
  Se  Se234  1  0.58751697  0.74486976  0.69204968  1
  Se  Se235  1  0.91769447  0.08222252  0.19686389  1
  Se  Se236  1  0.91738180  0.07740353  0.69789743  1
  Se  Se237  1  0.92480678  0.41710705  0.19238868  1
  Se  Se238  1  0.92190825  0.41335095  0.70261134  1
  Se  Se239  1  0.91060199  0.74620469  0.17700460  1
  Se  Se240  1  0.91983711  0.74784516  0.69329342  1
  Se  Se241  1  0.08502741  0.25051289  0.19451810  1
  Se  Se242  1  0.07619641  0.25186038  0.70009992  1
  Se  Se243  1  0.08055899  0.58288387  0.18607565  1
  Se  Se244  1  0.08254992  0.58705941  0.69419720  1
  Se  Se245  1  0.08105122  0.91975857  0.19922971  1
  Se  Se246  1  0.07771623  0.91860950  0.70580933  1
  Se  Se247  1  0.42276844  0.25206825  0.19603339  1
  Se  Se248  1  0.41332995  0.25461750  0.69790811  1
  Se  Se249  1  0.41406457  0.58466102  0.20066895  1
  Se  Se250  1  0.41588208  0.58540104  0.69439257  1
  Se  Se251  1  0.42092808  0.90845109  0.19362930  1
  Se  Se252  1  0.42812209  0.91371761  0.68429250  1
  Se  Se253  1  0.76160537  0.25005814  0.18675216  1
  Se  Se254  1  0.75007100  0.24608734  0.69770825  1
  Se  Se255  1  0.76271040  0.58989785  0.18507616  1
  Se  Se256  1  0.75587920  0.58424780  0.70329415  1
  Se  Se257  1  0.75154047  0.91709530  0.19272029  1
  Se  Se258  1  0.75721784  0.90782423  0.69727630  1
