# generated using pymatgen
data_In86Cu29Se144
_symmetry_space_group_name_H-M   'P 1'
_cell_length_a   17.57343571
_cell_length_b   17.57897056
_cell_length_c   23.43540547
_cell_angle_alpha   89.99657548
_cell_angle_beta   89.98954652
_cell_angle_gamma   90.00576093
_symmetry_Int_Tables_number   1
_chemical_formula_structural   In86Cu29Se144
_chemical_formula_sum   'In86 Cu29 Se144'
_cell_volume   7239.73346130
_cell_formula_units_Z   1
loop_
 _symmetry_equiv_pos_site_id
 _symmetry_equiv_pos_as_xyz
  1  'x, y, z'
loop_
 _atom_site_type_symbol
 _atom_site_label
 _atom_site_symmetry_multiplicity
 _atom_site_fract_x
 _atom_site_fract_y
 _atom_site_fract_z
 _atom_site_occupancy
  In  In0  1  0.00291755  0.17105231  0.12342777  1
  In  In1  1  -0.00365899  0.16516549  0.62611432  1
  In  In2  1  0.00891150  0.49379456  0.11185283  1
  In  In3  1  0.00021067  0.49800732  0.63940172  1
  In  In4  1  -0.01109734  0.83345967  0.11441977  1
  In  In5  1  -0.01394688  0.84687427  0.63903991  1
  In  In6  1  0.32719788  0.15242813  0.13451413  1
  In  In7  1  0.33475233  0.16630465  0.61696855  1
  In  In8  1  0.35532733  0.50940673  0.10760096  1
  In  In9  1  0.34750688  0.50218692  0.62462184  1
  In  In10  1  0.34600521  0.82282163  0.13415025  1
  In  In11  1  0.34214575  0.82139718  0.62868555  1
  In  In12  1  0.66632128  0.16637858  0.13921786  1
  In  In13  1  0.66758149  0.15887531  0.62103228  1
  In  In14  1  0.65811905  0.51182773  0.12938596  1
  In  In15  1  0.65683733  0.51038647  0.63153397  1
  In  In16  1  0.66359861  0.83339332  0.12474387  1
  In  In17  1  0.66352905  0.83478098  0.61858781  1
  In  In18  1  0.17685881  0.00281665  0.37293547  1
  In  In19  1  0.16127273  0.01283327  0.86822293  1
  In  In20  1  0.16030368  0.32551691  0.37678230  1
  In  In21  1  0.16805207  0.34515668  0.87585240  1
  In  In22  1  0.17007196  0.65974003  0.37071065  1
  In  In23  1  0.15239567  0.65083046  0.87042754  1
  In  In24  1  0.50472785  0.00004108  0.38349503  1
  In  In25  1  0.50128397  -0.01027460  0.87293057  1
  In  In26  1  0.50948113  0.32167032  0.38531784  1
  In  In27  1  0.51044253  0.33658541  0.87516673  1
  In  In28  1  0.50253686  0.66753717  0.37541983  1
  In  In29  1  0.49952123  0.66869057  0.87149412  1
  In  In30  1  0.79670639  0.02281598  0.40672509  1
  In  In31  1  0.82093971  -0.00588378  0.86570819  1
  In  In32  1  0.81828299  0.33694859  0.37692416  1
  In  In33  1  0.83035406  0.33595849  0.86603329  1
  In  In34  1  0.82316746  0.68769569  0.38394993  1
  In  In35  1  0.84151355  0.67919706  0.87085125  1
  In  In36  1  -0.00024681  0.15946094  0.38518337  1
  In  In37  1  0.00739836  0.16580164  0.85488026  1
  In  In38  1  0.00827615  0.49900954  0.37553223  1
  In  In39  1  0.00417342  0.50439669  0.87533807  1
  In  In40  1  -0.02386944  0.83891652  0.38041410  1
  In  In41  1  -0.01698029  0.82094844  0.86816617  1
  In  In42  1  0.33742737  0.16183775  0.38357164  1
  In  In43  1  0.33335987  0.16873990  0.86970408  1
  In  In44  1  0.34051989  0.51547574  0.36842719  1
  In  In45  1  0.31964630  0.50638190  0.88651603  1
  In  In46  1  0.34788455  0.84421477  0.36672671  1
  In  In47  1  0.35499008  0.83314468  0.87792082  1
  In  In48  1  0.66242568  0.16893393  0.37962026  1
  In  In49  1  0.66512976  0.17329972  0.85737362  1
  In  In50  1  0.65443011  0.48729377  0.36795851  1
  In  In51  1  0.65683112  0.49726789  0.87018719  1
  In  In52  1  0.66447528  0.83453086  0.37679602  1
  In  In53  1  0.66704711  0.83152424  0.87250169  1
  In  In54  1  0.17286837  0.00957427  0.12916099  1
  In  In55  1  0.15738965  0.00520382  0.63137530  1
  In  In56  1  0.16560707  0.33581332  0.11614946  1
  In  In57  1  0.16137740  0.31744957  0.63052881  1
  In  In58  1  0.18301367  0.67060611  0.12153190  1
  In  In59  1  0.17025017  0.66640292  0.63748367  1
  In  In60  1  0.51343326  -0.00962820  0.13598115  1
  In  In61  1  0.52941928  0.01839155  0.59871838  1
  In  In62  1  0.50082788  0.34656008  0.12364438  1
  In  In63  1  0.50449180  0.33818180  0.62206096  1
  In  In64  1  0.50050012  0.66985082  0.12325060  1
  In  In65  1  0.50147045  0.66886419  0.62249726  1
  In  In66  1  0.83274608  -0.01096940  0.12470935  1
  In  In67  1  0.82322409  0.00118075  0.61748615  1
  In  In68  1  0.83215535  0.32700592  0.12545982  1
  In  In69  1  0.84263679  0.32289996  0.63349492  1
  In  In70  1  0.81566382  0.66516389  0.12380403  1
  In  In71  1  0.82079466  0.67828214  0.63720416  1
  In  In72  1  0.82881295  0.49848687  0.50573369  1
  In  In73  1  -0.00004080  0.33010175  0.23885985  1
  In  In74  1  0.34316290  -0.00250879  0.74536483  1
  In  In75  1  0.83763956  0.16528393  0.00070117  1
  In  In76  1  -0.00124055  -0.00086685  0.24905976  1
  In  In77  1  0.16915767  0.83823785  0.50183317  1
  In  In78  1  0.17182097  0.49538781  0.49708673  1
  In  In79  1  0.16717425  0.83024065  -0.00265953  1
  In  In80  1  -0.00374260  0.66724641  0.25230243  1
  In  In81  1  0.50063905  0.16804279  -0.00661270  1
  In  In82  1  0.83373567  0.50716891  -0.00870737  1
  In  In83  1  0.33229004  0.33707481  0.74978667  1
  In  In84  1  0.33715399  0.33067958  0.24779233  1
  In  In85  1  0.16871353  0.17078550  -0.00255846  1
  Cu  Cu86  1  0.66236394  0.66466960  0.50263596  1
  Cu  Cu87  1  0.49558018  0.50830831  0.74944349  1
  Cu  Cu88  1  0.66840191  -0.00805458  -0.00206694  1
  Cu  Cu89  1  0.50138080  0.50290319  0.24613806  1
  Cu  Cu90  1  0.51085276  0.83367564  0.74621371  1
  Cu  Cu91  1  0.16672906  0.50264051  0.75602180  1
  Cu  Cu92  1  -0.00230876  0.32532436  0.50604980  1
  Cu  Cu93  1  0.34160923  -0.00637796  0.00448511  1
  Cu  Cu94  1  -0.00064932  0.67233859  0.51476439  1
  Cu  Cu95  1  0.65916525  0.67526399  -0.00002082  1
  Cu  Cu96  1  0.50311696  0.16330435  0.26142040  1
  Cu  Cu97  1  0.66720457  0.32831435  0.50384906  1
  Cu  Cu98  1  0.82983104  0.83408934  0.74762523  1
  Cu  Cu99  1  0.82916542  0.15772443  0.74217696  1
  Cu  Cu100  1  0.33712792  0.66810980  -0.00154742  1
  Cu  Cu101  1  0.82837706  0.16877087  0.25934472  1
  Cu  Cu102  1  0.16685386  0.83109789  0.25020294  1
  Cu  Cu103  1  -0.00074013  0.00043328  0.50975432  1
  Cu  Cu104  1  0.33968620  0.66932791  0.49608451  1
  Cu  Cu105  1  0.17299596  0.83035828  0.75453770  1
  Cu  Cu106  1  0.82825112  0.50767839  0.25214545  1
  Cu  Cu107  1  -0.00692812  -0.00510981  -0.00842970  1
  Cu  Cu108  1  0.66810548  0.33703264  -0.00135156  1
  Cu  Cu109  1  0.33365761  -0.00027158  0.49764144  1
  Cu  Cu110  1  0.50241441  0.83156803  0.25343711  1
  Cu  Cu111  1  0.82713655  0.49730876  0.75435013  1
  Cu  Cu112  1  0.81914050  0.83848142  0.25215442  1
  Cu  Cu113  1  0.17728936  0.50123400  0.24202383  1
  Cu  Cu114  1  0.33536743  0.33301873  0.50481612  1
  Se  Se115  1  0.07421061  0.07220138  0.05398941  1
  Se  Se116  1  0.08571170  0.08579483  0.55644282  1
  Se  Se117  1  0.08825680  0.41261390  0.04388288  1
  Se  Se118  1  0.07644125  0.41428675  0.55987852  1
  Se  Se119  1  0.07705445  0.73945916  0.05683615  1
  Se  Se120  1  0.08317537  0.75324930  0.56921934  1
  Se  Se121  1  0.41985238  0.07816554  0.06232564  1
  Se  Se122  1  0.41740299  0.08722519  0.54688039  1
  Se  Se123  1  0.42158010  0.40847613  0.04545393  1
  Se  Se124  1  0.41982313  0.41985694  0.55181166  1
  Se  Se125  1  0.41744834  0.75336260  0.05299488  1
  Se  Se126  1  0.42048684  0.75231967  0.55070807  1
  Se  Se127  1  0.74078350  0.07953771  0.05924724  1
  Se  Se128  1  0.73685695  0.07286569  0.54501578  1
  Se  Se129  1  0.74781271  0.41714821  0.05923470  1
  Se  Se130  1  0.74353183  0.40864380  0.56759514  1
  Se  Se131  1  0.74766218  0.75391335  0.05252343  1
  Se  Se132  1  0.75064371  0.74490998  0.55433460  1
  Se  Se133  1  0.26647549  0.24843231  0.06030989  1
  Se  Se134  1  0.24640631  0.25272508  0.55416999  1
  Se  Se135  1  0.25191109  0.58349928  0.04956467  1
  Se  Se136  1  0.25461115  0.59297917  0.55651481  1
  Se  Se137  1  0.25520938  0.91820220  0.06240866  1
  Se  Se138  1  0.25834219  0.92417733  0.56549861  1
  Se  Se139  1  0.59410676  0.25053812  0.05919803  1
  Se  Se140  1  0.58070002  0.24697044  0.55557796  1
  Se  Se141  1  0.58168949  0.58512603  0.05263856  1
  Se  Se142  1  0.57873883  0.57902257  0.55288280  1
  Se  Se143  1  0.58119900  0.91704696  0.05442460  1
  Se  Se144  1  0.57308250  0.89906327  0.54489442  1
  Se  Se145  1  0.93036600  0.26337049  0.05304382  1
  Se  Se146  1  0.90975981  0.24367015  0.55462750  1
  Se  Se147  1  0.91888319  0.59264539  0.05942403  1
  Se  Se148  1  0.91855407  0.58601068  0.56816430  1
  Se  Se149  1  0.90781301  0.91647967  0.04614606  1
  Se  Se150  1  0.91549064  0.91268858  0.55628308  1
  Se  Se151  1  0.08406332  0.24737566  0.45000502  1
  Se  Se152  1  0.07389400  0.24990485  0.93532808  1
  Se  Se153  1  0.07523634  0.59607656  0.44861041  1
  Se  Se154  1  0.08522654  0.57710891  0.94981021  1
  Se  Se155  1  0.07456419  0.92487742  0.44056045  1
  Se  Se156  1  0.08008220  0.92001874  0.93435055  1
  Se  Se157  1  0.41784854  0.24745507  0.45130314  1
  Se  Se158  1  0.40719162  0.25964053  0.93926031  1
  Se  Se159  1  0.42112212  0.58087682  0.44578768  1
  Se  Se160  1  0.41996577  0.58523882  0.94360158  1
  Se  Se161  1  0.41689685  0.91308923  0.44858460  1
  Se  Se162  1  0.42836838  0.91525694  0.95183260  1
  Se  Se163  1  0.75213338  0.24917419  0.44889276  1
  Se  Se164  1  0.74320955  0.25206702  0.93990156  1
  Se  Se165  1  0.74093693  0.58306261  0.44021017  1
  Se  Se166  1  0.73815116  0.59576742  0.93641577  1
  Se  Se167  1  0.77364341  0.88757891  0.44155743  1
  Se  Se168  1  0.75283732  0.91285563  0.94305007  1
  Se  Se169  1  0.24494234  0.08324726  0.44986313  1
  Se  Se170  1  0.26196873  0.07260634  0.94303645  1
  Se  Se171  1  0.26313241  0.40933854  0.43467431  1
  Se  Se172  1  0.25158066  0.40841625  0.95132455  1
  Se  Se173  1  0.25501499  0.74763195  0.43757248  1
  Se  Se174  1  0.25657747  0.74448753  0.93482598  1
  Se  Se175  1  0.59592136  0.07555515  0.44979260  1
  Se  Se176  1  0.59673706  0.07979438  0.93691378  1
  Se  Se177  1  0.58650766  0.41546198  0.45016654  1
  Se  Se178  1  0.58335796  0.42085461  0.94859109  1
  Se  Se179  1  0.58266610  0.74940688  0.44630296  1
  Se  Se180  1  0.57784008  0.75561368  0.94201782  1
  Se  Se181  1  0.91555117  0.08373648  0.45530555  1
  Se  Se182  1  0.92053357  0.08119249  0.93183366  1
  Se  Se183  1  0.92510876  0.41118736  0.44354448  1
  Se  Se184  1  0.91945766  0.40626319  0.93986543  1
  Se  Se185  1  0.91718843  0.74902472  0.45616005  1
  Se  Se186  1  0.91763409  0.74848248  0.94944291  1
  Se  Se187  1  0.24768813  0.24316368  0.30948276  1
  Se  Se188  1  0.23763523  0.24444773  0.80513039  1
  Se  Se189  1  0.25353351  0.58811390  0.29711997  1
  Se  Se190  1  0.25454254  0.58471297  0.80570440  1
  Se  Se191  1  0.24910089  0.91542233  0.30291475  1
  Se  Se192  1  0.25318309  0.91311617  0.81355340  1
  Se  Se193  1  0.58729449  0.25369323  0.30616667  1
  Se  Se194  1  0.57310647  0.25455871  0.79848505  1
  Se  Se195  1  0.58314755  0.58415132  0.30373668  1
  Se  Se196  1  0.58407629  0.58863572  0.80148203  1
  Se  Se197  1  0.58114359  0.91736585  0.30865572  1
  Se  Se198  1  0.58888432  0.91919039  0.80179993  1
  Se  Se199  1  0.91624366  0.24879292  0.31247223  1
  Se  Se200  1  0.90595497  0.24372548  0.79974564  1
  Se  Se201  1  0.90740124  0.57995756  0.31732289  1
  Se  Se202  1  0.91257814  0.57904028  0.80800928  1
  Se  Se203  1  0.89951489  0.92302513  0.30883565  1
  Se  Se204  1  0.91488854  0.91722909  0.80110664  1
  Se  Se205  1  0.08699145  0.09178777  0.30720408  1
  Se  Se206  1  0.08269829  0.07526346  0.78968822  1
  Se  Se207  1  0.09429571  0.42266245  0.30061131  1
  Se  Se208  1  0.08134280  0.41715635  0.80431135  1
  Se  Se209  1  0.08190667  0.76190991  0.31455297  1
  Se  Se210  1  0.08431171  0.75029350  0.80608582  1
  Se  Se211  1  0.41852793  0.08126454  0.31329700  1
  Se  Se212  1  0.42952160  0.09189637  0.80664311  1
  Se  Se213  1  0.42731254  0.41804992  0.30963239  1
  Se  Se214  1  0.41750124  0.42814145  0.81215470  1
  Se  Se215  1  0.41713998  0.74505174  0.30333753  1
  Se  Se216  1  0.42128491  0.75451007  0.79913625  1
  Se  Se217  1  0.74858019  0.08276956  0.31217638  1
  Se  Se218  1  0.74248103  0.07837077  0.79606716  1
  Se  Se219  1  0.74884727  0.41540760  0.30014127  1
  Se  Se220  1  0.73880991  0.41293096  0.80158255  1
  Se  Se221  1  0.74276994  0.74750410  0.30362152  1
  Se  Se222  1  0.74863680  0.74894575  0.80181783  1
  Se  Se223  1  0.25172012  0.07428036  0.20670833  1
  Se  Se224  1  0.24911513  0.09294110  0.69408398  1
  Se  Se225  1  0.25538451  0.42164585  0.18203619  1
  Se  Se226  1  0.24147968  0.42687244  0.68687624  1
  Se  Se227  1  0.25172032  0.74710374  0.19988083  1
  Se  Se228  1  0.25782985  0.74911136  0.70194488  1
  Se  Se229  1  0.58663632  0.08039287  0.20546091  1
  Se  Se230  1  0.58462570  0.07492568  0.68978184  1
  Se  Se231  1  0.58616877  0.41633558  0.19661116  1
  Se  Se232  1  0.57639733  0.42070234  0.69733016  1
  Se  Se233  1  0.58248042  0.75002526  0.19456113  1
  Se  Se234  1  0.58921622  0.74670342  0.69132143  1
  Se  Se235  1  0.90617141  0.09556726  0.19088691  1
  Se  Se236  1  0.91234757  0.07446219  0.68864865  1
  Se  Se237  1  0.90988158  0.43263936  0.18882583  1
  Se  Se238  1  0.91383780  0.41435880  0.70295161  1
  Se  Se239  1  0.90593125  0.75987984  0.19373231  1
  Se  Se240  1  0.91987878  0.74541628  0.70286970  1
  Se  Se241  1  0.10170519  0.23878903  0.19175452  1
  Se  Se242  1  0.06653127  0.25536592  0.69775503  1
  Se  Se243  1  0.08685351  0.57977522  0.18840363  1
  Se  Se244  1  0.08191029  0.58697976  0.70330476  1
  Se  Se245  1  0.08590900  0.90463682  0.18646188  1
  Se  Se246  1  0.08988021  0.91311366  0.70094087  1
  Se  Se247  1  0.43098904  0.23880873  0.19055347  1
  Se  Se248  1  0.41957419  0.24655696  0.68954976  1
  Se  Se249  1  0.41673687  0.58298506  0.19133677  1
  Se  Se250  1  0.41400573  0.59230510  0.69552097  1
  Se  Se251  1  0.41750557  0.91702380  0.20073481  1
  Se  Se252  1  0.43442327  0.91511340  0.68360229  1
  Se  Se253  1  0.75280265  0.25493517  0.20079845  1
  Se  Se254  1  0.74493531  0.24512915  0.69306568  1
  Se  Se255  1  0.74303456  0.58989448  0.20059702  1
  Se  Se256  1  0.74660900  0.58303520  0.70081078  1
  Se  Se257  1  0.74163770  0.92275318  0.19500630  1
  Se  Se258  1  0.74800910  0.91381882  0.68957403  1
