# generated using pymatgen
data_In86Cu29Se144
_symmetry_space_group_name_H-M   'P 1'
_cell_length_a   17.57461145
_cell_length_b   17.57823016
_cell_length_c   23.43053436
_cell_angle_alpha   89.98341022
_cell_angle_beta   89.98075624
_cell_angle_gamma   89.98839958
_symmetry_Int_Tables_number   1
_chemical_formula_structural   In86Cu29Se144
_chemical_formula_sum   'In86 Cu29 Se144'
_cell_volume   7238.40736135
_cell_formula_units_Z   1
loop_
 _symmetry_equiv_pos_site_id
 _symmetry_equiv_pos_as_xyz
  1  'x, y, z'
loop_
 _atom_site_type_symbol
 _atom_site_label
 _atom_site_symmetry_multiplicity
 _atom_site_fract_x
 _atom_site_fract_y
 _atom_site_fract_z
 _atom_site_occupancy
  In  In0  1  -0.00241186  0.16750800  0.12763571  1
  In  In1  1  0.00571534  0.16248756  0.63224621  1
  In  In2  1  -0.01451270  0.51172702  0.15846569  1
  In  In3  1  -0.00011344  0.49854793  0.61949475  1
  In  In4  1  -0.00869190  0.84422319  0.13071418  1
  In  In5  1  -0.00536340  0.83210464  0.61932362  1
  In  In6  1  0.31597187  0.16942524  0.12416149  1
  In  In7  1  0.32618105  0.15118821  0.62345985  1
  In  In8  1  0.33258481  0.48946155  0.12584850  1
  In  In9  1  0.34177311  0.50846628  0.61368993  1
  In  In10  1  0.34533942  0.83419589  0.12770279  1
  In  In11  1  0.32168397  0.84833896  0.63497515  1
  In  In12  1  0.67724422  0.15397917  0.13395352  1
  In  In13  1  0.66861402  0.18331555  0.62019883  1
  In  In14  1  0.66521451  0.51033822  0.14200044  1
  In  In15  1  0.66728928  0.50302938  0.61141180  1
  In  In16  1  0.67972217  0.82025352  0.13480718  1
  In  In17  1  0.67254116  0.82217867  0.61916761  1
  In  In18  1  0.15573052  -0.01281604  0.36820117  1
  In  In19  1  0.17228040  0.00549213  0.87264797  1
  In  In20  1  0.15314895  0.34916575  0.38483400  1
  In  In21  1  0.15022706  0.33562250  0.87573802  1
  In  In22  1  0.15649396  0.66717084  0.38155813  1
  In  In23  1  0.16310707  0.66474465  0.86308974  1
  In  In24  1  0.50878411  0.01073267  0.36868348  1
  In  In25  1  0.49268725  0.00178475  0.87038110  1
  In  In26  1  0.50213107  0.32623232  0.38271827  1
  In  In27  1  0.51616575  0.33796853  0.87811101  1
  In  In28  1  0.50408207  0.65329262  0.37636792  1
  In  In29  1  0.49142760  0.66582613  0.87302735  1
  In  In30  1  0.83459189  -0.00258450  0.37311853  1
  In  In31  1  0.84136237  -0.00689070  0.88542337  1
  In  In32  1  0.85600551  0.36027267  0.35002059  1
  In  In33  1  0.83468608  0.32709905  0.87748482  1
  In  In34  1  0.83855381  0.66359415  0.37021209  1
  In  In35  1  0.85133840  0.66835548  0.87346672  1
  In  In36  1  -0.00057324  0.16094225  0.37104388  1
  In  In37  1  0.00224194  0.16732075  0.87924553  1
  In  In38  1  -0.00359483  0.49903319  0.37390897  1
  In  In39  1  -0.00385753  0.50416576  0.85939465  1
  In  In40  1  0.00393829  0.83152996  0.37923442  1
  In  In41  1  -0.00552107  0.83067609  0.87094695  1
  In  In42  1  0.34604184  0.17349200  0.37917724  1
  In  In43  1  0.33008997  0.15183987  0.87376546  1
  In  In44  1  0.33067518  0.49441898  0.39386872  1
  In  In45  1  0.33576072  0.51180924  0.86800265  1
  In  In46  1  0.31684793  0.83655856  0.37905985  1
  In  In47  1  0.33145749  0.82704048  0.85835071  1
  In  In48  1  0.66468459  0.16732199  0.36871678  1
  In  In49  1  0.67563210  0.17653303  0.88163874  1
  In  In50  1  0.67281650  0.49816895  0.36723429  1
  In  In51  1  0.66993770  0.48653238  0.87953213  1
  In  In52  1  0.68276993  0.84445957  0.36744992  1
  In  In53  1  0.67165240  0.84203283  0.87828706  1
  In  In54  1  0.15358690  0.01189237  0.13476615  1
  In  In55  1  0.16822467  -0.00659809  0.62634492  1
  In  In56  1  0.16525783  0.32850464  0.12774871  1
  In  In57  1  0.14646418  0.33424662  0.61832090  1
  In  In58  1  0.15216702  0.65773015  0.13126565  1
  In  In59  1  0.16095386  0.66835833  0.62091732  1
  In  In60  1  0.49993015  0.00048613  0.13404482  1
  In  In61  1  0.48229132  -0.00367284  0.62197366  1
  In  In62  1  0.49860994  0.34714834  0.12346397  1
  In  In63  1  0.50035778  0.33791560  0.60474299  1
  In  In64  1  0.51271359  0.66645361  0.12831319  1
  In  In65  1  0.50438263  0.65781983  0.62268132  1
  In  In66  1  0.83410904  -0.00057784  0.12608163  1
  In  In67  1  0.85060029  0.00115232  0.62215498  1
  In  In68  1  0.84430939  0.32568227  0.13852544  1
  In  In69  1  0.84667584  0.35105477  0.61447137  1
  In  In70  1  0.82901455  0.66999219  0.13486357  1
  In  In71  1  0.83685595  0.66905757  0.61805846  1
  In  In72  1  0.16113415  0.49104812  0.00476654  1
  In  In73  1  0.66623954  0.66565433  0.74019152  1
  In  In74  1  0.66388915  -0.00063538  0.75625668  1
  In  In75  1  0.83227627  0.16800559  0.48946700  1
  In  In76  1  0.16779532  0.83662870  -0.00638826  1
  In  In77  1  0.50199473  0.16581977  -0.00569633  1
  In  In78  1  0.49989164  0.83066150  0.50300556  1
  In  In79  1  0.32550677  0.33130224  0.25399866  1
  In  In80  1  0.67604721  0.33539907  0.75105476  1
  In  In81  1  0.32909694  0.66870371  0.26426144  1
  In  In82  1  0.50438322  0.83463428  -0.00704397  1
  In  In83  1  0.32940474  0.33152544  0.73993687  1
  In  In84  1  0.83376343  0.49873711  0.00953337  1
  In  In85  1  0.16906112  0.16960599  0.49813225  1
  Cu  Cu86  1  0.66908205  0.33753718  0.48859186  1
  Cu  Cu87  1  0.49547883  0.15984926  0.74481998  1
  Cu  Cu88  1  0.67196170  0.65967983  0.01093910  1
  Cu  Cu89  1  0.49919975  0.50054624  0.25338534  1
  Cu  Cu90  1  0.33179078  0.33350439  0.00254827  1
  Cu  Cu91  1  0.33782617  0.65650658  -0.00599477  1
  Cu  Cu92  1  0.16397535  0.16316005  0.74918668  1
  Cu  Cu93  1  0.32638473  0.67119543  0.50089037  1
  Cu  Cu94  1  0.49792946  0.16849971  0.25224125  1
  Cu  Cu95  1  0.83999806  0.83227973  0.25252550  1
  Cu  Cu96  1  0.15434168  0.83141491  0.74487630  1
  Cu  Cu97  1  0.67396711  -0.00540097  0.00810719  1
  Cu  Cu98  1  -0.00343096  0.00944177  0.00741417  1
  Cu  Cu99  1  -0.00384895  0.66292624  0.49781901  1
  Cu  Cu100  1  0.83251842  0.16116085  0.25123343  1
  Cu  Cu101  1  0.66872529  0.33304452  0.00700119  1
  Cu  Cu102  1  0.50058225  0.49962470  0.74306412  1
  Cu  Cu103  1  0.00027185  0.66827398  -0.00178037  1
  Cu  Cu104  1  0.67142980  0.66530152  0.49317306  1
  Cu  Cu105  1  -0.00171759  0.33323072  0.00678490  1
  Cu  Cu106  1  0.66720213  0.00495144  0.49133793  1
  Cu  Cu107  1  0.33129286  -0.00029655  0.50153077  1
  Cu  Cu108  1  0.16703512  0.83430086  0.25327756  1
  Cu  Cu109  1  0.50378563  0.83896087  0.25269151  1
  Cu  Cu110  1  0.83680627  0.83536816  0.74816330  1
  Cu  Cu111  1  0.16409360  0.50554108  0.74267936  1
  Cu  Cu112  1  0.32313376  0.00281702  0.00177057  1
  Cu  Cu113  1  0.84666776  0.16834533  0.75292166  1
  Cu  Cu114  1  0.16504406  0.16346221  0.25122103  1
  Se  Se115  1  0.08565805  0.08991369  0.05625899  1
  Se  Se116  1  0.08029879  0.07733384  0.55714894  1
  Se  Se117  1  0.06571165  0.41907759  0.07145623  1
  Se  Se118  1  0.07999753  0.41969250  0.54571386  1
  Se  Se119  1  0.08055822  0.74859185  0.05827988  1
  Se  Se120  1  0.07854864  0.74932632  0.55046393  1
  Se  Se121  1  0.41237822  0.07868661  0.05820560  1
  Se  Se122  1  0.41645142  0.08626499  0.54938425  1
  Se  Se123  1  0.41513579  0.42057313  0.05000722  1
  Se  Se124  1  0.41984009  0.42620647  0.54335213  1
  Se  Se125  1  0.41510163  0.74008665  0.05439067  1
  Se  Se126  1  0.40637987  0.74801929  0.56439945  1
  Se  Se127  1  0.75389649  0.08547520  0.05507407  1
  Se  Se128  1  0.74560543  0.08066790  0.55858991  1
  Se  Se129  1  0.74550795  0.41102699  0.07106272  1
  Se  Se130  1  0.75067267  0.41696591  0.54664755  1
  Se  Se131  1  0.75632677  0.74758124  0.05684548  1
  Se  Se132  1  0.75363149  0.74958979  0.54624163  1
  Se  Se133  1  0.24345331  0.25310968  0.05129688  1
  Se  Se134  1  0.25574782  0.25661097  0.56323568  1
  Se  Se135  1  0.25334002  0.58976445  0.05947991  1
  Se  Se136  1  0.24436293  0.58417877  0.55206239  1
  Se  Se137  1  0.25114478  0.91990603  0.06447035  1
  Se  Se138  1  0.24848539  0.91471755  0.55255116  1
  Se  Se139  1  0.58591737  0.24890822  0.06309298  1
  Se  Se140  1  0.58870719  0.25119137  0.54340985  1
  Se  Se141  1  0.58627811  0.57648906  0.06010463  1
  Se  Se142  1  0.58207210  0.58655401  0.54543381  1
  Se  Se143  1  0.58816487  0.91597372  0.06394396  1
  Se  Se144  1  0.59179711  0.92669840  0.55862985  1
  Se  Se145  1  0.91271383  0.25023246  0.05817727  1
  Se  Se146  1  0.92324765  0.24553590  0.55839036  1
  Se  Se147  1  0.92917623  0.58739459  0.06548973  1
  Se  Se148  1  0.91174819  0.57907293  0.55035565  1
  Se  Se149  1  0.91558697  0.91756397  0.05372784  1
  Se  Se150  1  0.90428488  0.90703712  0.55031883  1
  Se  Se151  1  0.06702492  0.25338987  0.44522706  1
  Se  Se152  1  0.08244835  0.25254306  0.95105728  1
  Se  Se153  1  0.08044704  0.57652383  0.44794098  1
  Se  Se154  1  0.07829937  0.58529105  0.93965811  1
  Se  Se155  1  0.09351368  0.90894295  0.44721483  1
  Se  Se156  1  0.07238424  0.92878949  0.94180930  1
  Se  Se157  1  0.40992779  0.25927350  0.45294733  1
  Se  Se158  1  0.40939936  0.25796917  0.93571408  1
  Se  Se159  1  0.41512742  0.59046131  0.45043933  1
  Se  Se160  1  0.42406748  0.57403997  0.94445043  1
  Se  Se161  1  0.41574062  0.92305915  0.43978665  1
  Se  Se162  1  0.40083059  0.92123438  0.94045266  1
  Se  Se163  1  0.75246594  0.26235363  0.42809311  1
  Se  Se164  1  0.75532253  0.25358253  0.95387791  1
  Se  Se165  1  0.75234088  0.58106097  0.43875563  1
  Se  Se166  1  0.75057984  0.58817478  0.94133665  1
  Se  Se167  1  0.75362812  0.91839558  0.44705215  1
  Se  Se168  1  0.75472463  0.91057844  0.95249872  1
  Se  Se169  1  0.25339521  0.07591005  0.43614179  1
  Se  Se170  1  0.24299040  0.08846887  0.94929310  1
  Se  Se171  1  0.24971685  0.40583227  0.45598089  1
  Se  Se172  1  0.25620785  0.41405991  0.93674188  1
  Se  Se173  1  0.24147729  0.75249562  0.44867309  1
  Se  Se174  1  0.25732339  0.73920458  0.93775306  1
  Se  Se175  1  0.58279096  0.09080353  0.44388174  1
  Se  Se176  1  0.59521060  0.06839999  0.94040016  1
  Se  Se177  1  0.58385454  0.42415725  0.43983512  1
  Se  Se178  1  0.58595084  0.41754453  0.95487480  1
  Se  Se179  1  0.59143869  0.75113483  0.43619878  1
  Se  Se180  1  0.59648703  0.73564434  0.94159529  1
  Se  Se181  1  0.92880085  0.07000519  0.44525735  1
  Se  Se182  1  0.91367796  0.08991633  0.94901424  1
  Se  Se183  1  0.90828975  0.41840662  0.44147655  1
  Se  Se184  1  0.92680622  0.41815830  0.94298464  1
  Se  Se185  1  0.91489582  0.74780816  0.44319338  1
  Se  Se186  1  0.91732556  0.75423282  0.94819565  1
  Se  Se187  1  0.23749260  0.24402126  0.31671083  1
  Se  Se188  1  0.24459298  0.24647135  0.80885307  1
  Se  Se189  1  0.24528763  0.57130974  0.31874182  1
  Se  Se190  1  0.25109150  0.58458702  0.79670064  1
  Se  Se191  1  0.25450098  0.91897129  0.30039332  1
  Se  Se192  1  0.23930354  0.91250946  0.80171868  1
  Se  Se193  1  0.57851380  0.25461376  0.30412112  1
  Se  Se194  1  0.57852429  0.23826516  0.80461980  1
  Se  Se195  1  0.58603227  0.58608978  0.30030282  1
  Se  Se196  1  0.58458781  0.57120806  0.80743815  1
  Se  Se197  1  0.58948534  0.92253568  0.30327961  1
  Se  Se198  1  0.57053154  0.90179198  0.80773488  1
  Se  Se199  1  0.92017735  0.24350206  0.30048494  1
  Se  Se200  1  0.92374965  0.25469653  0.80843054  1
  Se  Se201  1  0.92393997  0.58627005  0.30093521  1
  Se  Se202  1  0.91610424  0.59131148  0.79548032  1
  Se  Se203  1  0.92194974  0.91487573  0.30766201  1
  Se  Se204  1  0.91359135  0.92064858  0.80526545  1
  Se  Se205  1  0.07973111  0.07785260  0.30104872  1
  Se  Se206  1  0.08149416  0.08369971  0.80742579  1
  Se  Se207  1  0.07864252  0.41239036  0.30472554  1
  Se  Se208  1  0.08678295  0.41932939  0.79888238  1
  Se  Se209  1  0.08538987  0.74977631  0.30616141  1
  Se  Se210  1  0.07434985  0.74757546  0.80117233  1
  Se  Se211  1  0.41298901  0.08665165  0.30452886  1
  Se  Se212  1  0.41142247  0.07960725  0.79851358  1
  Se  Se213  1  0.41631138  0.42263181  0.31249742  1
  Se  Se214  1  0.42584520  0.41453409  0.80458177  1
  Se  Se215  1  0.42558791  0.76124046  0.31697754  1
  Se  Se216  1  0.41718446  0.74033512  0.79871417  1
  Se  Se217  1  0.74894431  0.07872176  0.30528658  1
  Se  Se218  1  0.75872425  0.09226090  0.81142402  1
  Se  Se219  1  0.73364214  0.40065565  0.29743996  1
  Se  Se220  1  0.76760359  0.42824122  0.80669555  1
  Se  Se221  1  0.75221088  0.74832307  0.30187003  1
  Se  Se222  1  0.75280526  0.75581906  0.80685345  1
  Se  Se223  1  0.25307775  0.08266230  0.19947475  1
  Se  Se224  1  0.24800187  0.07769581  0.69833388  1
  Se  Se225  1  0.23682883  0.42741088  0.19737684  1
  Se  Se226  1  0.24365921  0.42491887  0.68159202  1
  Se  Se227  1  0.24619233  0.75323777  0.19084424  1
  Se  Se228  1  0.24222483  0.75064414  0.69327350  1
  Se  Se229  1  0.58267800  0.08306254  0.20081817  1
  Se  Se230  1  0.58426520  0.08826557  0.68556993  1
  Se  Se231  1  0.57950599  0.41468110  0.19959579  1
  Se  Se232  1  0.58131083  0.41742876  0.68559429  1
  Se  Se233  1  0.58346007  0.74972198  0.20135729  1
  Se  Se234  1  0.57240332  0.76175074  0.68995441  1
  Se  Se235  1  0.91767759  0.08029494  0.19560126  1
  Se  Se236  1  0.92206869  0.07825191  0.69997879  1
  Se  Se237  1  0.90791067  0.41357587  0.21299155  1
  Se  Se238  1  0.92519551  0.41277622  0.69281575  1
  Se  Se239  1  0.92309528  0.74892655  0.19784080  1
  Se  Se240  1  0.91305115  0.74971688  0.69188231  1
  Se  Se241  1  0.08335152  0.24870283  0.19738006  1
  Se  Se242  1  0.08458085  0.25205982  0.69838440  1
  Se  Se243  1  0.09093076  0.58356709  0.21188333  1
  Se  Se244  1  0.07768202  0.58641563  0.69053179  1
  Se  Se245  1  0.08210939  0.91674206  0.19950347  1
  Se  Se246  1  0.07481161  0.91674575  0.69086065  1
  Se  Se247  1  0.41839447  0.24640541  0.18819734  1
  Se  Se248  1  0.42685330  0.24628551  0.68229482  1
  Se  Se249  1  0.41580191  0.58136044  0.19435711  1
  Se  Se250  1  0.41622729  0.58317361  0.69289000  1
  Se  Se251  1  0.41491198  0.91806696  0.20115127  1
  Se  Se252  1  0.41758397  0.91934316  0.69997479  1
  Se  Se253  1  0.74795165  0.24740332  0.20084086  1
  Se  Se254  1  0.76734806  0.24702258  0.69053068  1
  Se  Se255  1  0.76302074  0.57819276  0.20457381  1
  Se  Se256  1  0.75630081  0.57183876  0.68676140  1
  Se  Se257  1  0.75466533  0.91533028  0.19771554  1
  Se  Se258  1  0.75180578  0.91379228  0.69026847  1
