# generated using pymatgen
data_In86Cu29Se144
_symmetry_space_group_name_H-M   'P 1'
_cell_length_a   17.58016330
_cell_length_b   17.58068225
_cell_length_c   23.44007394
_cell_angle_alpha   89.98923291
_cell_angle_beta   90.02027421
_cell_angle_gamma   90.01519166
_symmetry_Int_Tables_number   1
_chemical_formula_structural   In86Cu29Se144
_chemical_formula_sum   'In86 Cu29 Se144'
_cell_volume   7244.65246888
_cell_formula_units_Z   1
loop_
 _symmetry_equiv_pos_site_id
 _symmetry_equiv_pos_as_xyz
  1  'x, y, z'
loop_
 _atom_site_type_symbol
 _atom_site_label
 _atom_site_symmetry_multiplicity
 _atom_site_fract_x
 _atom_site_fract_y
 _atom_site_fract_z
 _atom_site_occupancy
  In  In0  1  0.01003615  0.14486015  0.12870569  1
  In  In1  1  -0.01153967  0.16305338  0.62775914  1
  In  In2  1  -0.00514131  0.51275163  0.12435730  1
  In  In3  1  0.00947116  0.49677421  0.62207941  1
  In  In4  1  0.00049889  0.84910387  0.12602954  1
  In  In5  1  0.01732839  0.83264492  0.62342360  1
  In  In6  1  0.32437050  0.15738793  0.10860500  1
  In  In7  1  0.34038896  0.16186960  0.63445419  1
  In  In8  1  0.36266422  0.50148050  0.12442266  1
  In  In9  1  0.33839319  0.50542230  0.62724409  1
  In  In10  1  0.35860223  0.81608754  0.14826785  1
  In  In11  1  0.33821535  0.83156186  0.62528587  1
  In  In12  1  0.65628623  0.17092386  0.12185189  1
  In  In13  1  0.66506054  0.16357537  0.63545566  1
  In  In14  1  0.65943707  0.50098779  0.11978057  1
  In  In15  1  0.65338618  0.51396796  0.63651207  1
  In  In16  1  0.66000134  0.82746994  0.12567942  1
  In  In17  1  0.64955970  0.84600616  0.63071806  1
  In  In18  1  0.15639928  -0.00560385  0.36781763  1
  In  In19  1  0.18005661  0.00807394  0.86772945  1
  In  In20  1  0.18082818  0.33966850  0.37909019  1
  In  In21  1  0.16516187  0.31675280  0.87788400  1
  In  In22  1  0.17949440  0.65401704  0.38944916  1
  In  In23  1  0.17700885  0.66109201  0.87325561  1
  In  In24  1  0.49011974  -0.01457986  0.35964100  1
  In  In25  1  0.49767529  -0.00278594  0.87873172  1
  In  In26  1  0.50324403  0.34409335  0.37816180  1
  In  In27  1  0.49615071  0.33123697  0.87488536  1
  In  In28  1  0.49976066  0.67190485  0.36578008  1
  In  In29  1  0.49841169  0.66681681  0.87563475  1
  In  In30  1  0.82684362  -0.01738977  0.35540919  1
  In  In31  1  0.81917240  -0.01177499  0.87000101  1
  In  In32  1  0.82699921  0.32942745  0.37859506  1
  In  In33  1  0.83065227  0.34819303  0.87853376  1
  In  In34  1  0.82885320  0.67757752  0.37219104  1
  In  In35  1  0.81499786  0.67942043  0.88297324  1
  In  In36  1  -0.00252939  0.14530618  0.36641603  1
  In  In37  1  0.01541599  0.16376909  0.87868757  1
  In  In38  1  0.01339063  0.51677479  0.37619002  1
  In  In39  1  -0.00297451  0.48973181  0.87701722  1
  In  In40  1  -0.00098679  0.84321057  0.37757176  1
  In  In41  1  -0.01495908  0.83231574  0.87515568  1
  In  In42  1  0.33492815  0.16288943  0.36929079  1
  In  In43  1  0.33680915  0.16484821  0.88070162  1
  In  In44  1  0.33712147  0.50566128  0.38003498  1
  In  In45  1  0.34552641  0.50968745  0.86817928  1
  In  In46  1  0.34166479  0.82836852  0.37290773  1
  In  In47  1  0.34358186  0.84163442  0.87072731  1
  In  In48  1  0.66287557  0.14349865  0.36673524  1
  In  In49  1  0.65161849  0.15491415  0.87106621  1
  In  In50  1  0.64660681  0.50844827  0.37727278  1
  In  In51  1  0.66150494  0.50229219  0.87463193  1
  In  In52  1  0.65795917  0.82969339  0.36088500  1
  In  In53  1  0.65931373  0.83242041  0.87559525  1
  In  In54  1  0.17579065  0.00201103  0.13191531  1
  In  In55  1  0.17931730  -0.00998581  0.62887967  1
  In  In56  1  0.18931310  0.32619118  0.11592840  1
  In  In57  1  0.17192776  0.34684945  0.62538651  1
  In  In58  1  0.17183357  0.67940403  0.12897011  1
  In  In59  1  0.18060630  0.68754878  0.60883181  1
  In  In60  1  0.49823116  -0.00319573  0.12799925  1
  In  In61  1  0.50826718  -0.01440066  0.63040838  1
  In  In62  1  0.49332453  0.33581111  0.10642824  1
  In  In63  1  0.48919160  0.34103999  0.63672200  1
  In  In64  1  0.50293884  0.66941766  0.12824051  1
  In  In65  1  0.50143172  0.66927462  0.62618181  1
  In  In66  1  0.84422494  -0.00596571  0.12877697  1
  In  In67  1  0.82672241  0.00558784  0.63341974  1
  In  In68  1  0.81854881  0.33501659  0.11777034  1
  In  In69  1  0.83078926  0.32478842  0.63212647  1
  In  In70  1  0.81191857  0.65298554  0.11665418  1
  In  In71  1  0.82584440  0.66191125  0.62871133  1
  In  In72  1  0.49749136  0.16436330  0.49461294  1
  In  In73  1  0.00186223  0.33057205  0.75031471  1
  In  In74  1  0.33673876  0.33021460  0.24846089  1
  In  In75  1  0.83234974  0.16419219  0.00170525  1
  In  In76  1  0.83285075  0.50150641  0.51270770  1
  In  In77  1  0.16757415  0.49970030  -0.00045710  1
  In  In78  1  0.66193973  0.33024894  0.23940646  1
  In  In79  1  -0.00049236  0.67783221  0.25524588  1
  In  In80  1  0.00007090  0.66845459  0.74775532  1
  In  In81  1  0.16540693  0.16681922  0.49509096  1
  In  In82  1  0.83181871  0.83239695  0.49428262  1
  In  In83  1  0.82856801  0.16463573  0.50343918  1
  In  In84  1  -0.00135004  0.32400170  0.24638580  1
  In  In85  1  0.16905183  0.84237419  0.00621219  1
  Cu  Cu86  1  0.17149414  0.16150696  0.75301792  1
  Cu  Cu87  1  0.34049239  0.67089997  0.00385163  1
  Cu  Cu88  1  0.33305092  0.34507088  0.50778240  1
  Cu  Cu89  1  0.33877745  -0.00193005  0.00193697  1
  Cu  Cu90  1  0.18020339  0.50415094  0.74720198  1
  Cu  Cu91  1  0.00696978  0.34267673  0.49373716  1
  Cu  Cu92  1  0.83141579  0.82865417  0.24312742  1
  Cu  Cu93  1  -0.00135682  -0.00230005  0.49988315  1
  Cu  Cu94  1  0.16929994  0.83476910  0.74413700  1
  Cu  Cu95  1  0.66234727  -0.01098431  0.00030442  1
  Cu  Cu96  1  0.65745944  0.33383938  0.50450247  1
  Cu  Cu97  1  0.65665923  0.66575022  -0.00062242  1
  Cu  Cu98  1  0.66262300  0.33918012  -0.00596200  1
  Cu  Cu99  1  0.49624758  0.16416554  0.75744534  1
  Cu  Cu100  1  0.82109248  0.49867900  0.24651839  1
  Cu  Cu101  1  0.82970959  0.16437471  0.75506564  1
  Cu  Cu102  1  0.82679076  0.50628071  0.75590891  1
  Cu  Cu103  1  0.50267356  0.50075516  0.75187139  1
  Cu  Cu104  1  0.00196372  -0.00164895  0.00162760  1
  Cu  Cu105  1  0.17405290  0.83564090  0.25418163  1
  Cu  Cu106  1  -0.01486717  0.66830185  -0.00046348  1
  Cu  Cu107  1  -0.00059920  0.33090533  -0.00013048  1
  Cu  Cu108  1  0.34735544  0.66952082  0.50014159  1
  Cu  Cu109  1  0.66121737  0.67044772  0.49908034  1
  Cu  Cu110  1  0.33678076  -0.01288959  0.49916429  1
  Cu  Cu111  1  0.82684571  0.83885431  0.75372599  1
  Cu  Cu112  1  0.49881471  0.16219197  0.24398473  1
  Cu  Cu113  1  0.49734117  0.83036832  0.75228282  1
  Cu  Cu114  1  0.17601340  0.50238856  0.25603692  1
  Se  Se115  1  0.09210392  0.07399296  0.05425696  1
  Se  Se116  1  0.07758191  0.07945126  0.56042251  1
  Se  Se117  1  0.07751353  0.41110385  0.06370726  1
  Se  Se118  1  0.09099500  0.41940757  0.55002785  1
  Se  Se119  1  0.07238207  0.74426089  0.05788831  1
  Se  Se120  1  0.08058625  0.75335337  0.54594352  1
  Se  Se121  1  0.42636712  0.08211714  0.05232572  1
  Se  Se122  1  0.41052244  0.07519286  0.55852734  1
  Se  Se123  1  0.39498238  0.40852558  0.04507041  1
  Se  Se124  1  0.42359427  0.42190293  0.55821339  1
  Se  Se125  1  0.41982685  0.75561673  0.05878824  1
  Se  Se126  1  0.42575458  0.75563804  0.55512462  1
  Se  Se127  1  0.74239624  0.07277130  0.05953336  1
  Se  Se128  1  0.73505443  0.07458457  0.55784009  1
  Se  Se129  1  0.74520776  0.42144300  0.04884181  1
  Se  Se130  1  0.73897762  0.40913673  0.56684049  1
  Se  Se131  1  0.74281676  0.74927994  0.05141789  1
  Se  Se132  1  0.74251289  0.74811549  0.56000651  1
  Se  Se133  1  0.26220936  0.25488463  0.03917946  1
  Se  Se134  1  0.25726676  0.25166714  0.56000882  1
  Se  Se135  1  0.25414279  0.59184901  0.06096424  1
  Se  Se136  1  0.26042145  0.58749268  0.55370245  1
  Se  Se137  1  0.26842032  0.91508231  0.06817862  1
  Se  Se138  1  0.24997854  0.90925886  0.55354681  1
  Se  Se139  1  0.58456831  0.25060735  0.04668935  1
  Se  Se140  1  0.58054537  0.25051937  0.56408046  1
  Se  Se141  1  0.57328321  0.58216514  0.05303934  1
  Se  Se142  1  0.58369979  0.58450983  0.55521838  1
  Se  Se143  1  0.57732784  0.91186833  0.05709856  1
  Se  Se144  1  0.57970842  0.91550852  0.55047660  1
  Se  Se145  1  0.92409708  0.25060972  0.06422414  1
  Se  Se146  1  0.92606924  0.26342351  0.55435365  1
  Se  Se147  1  0.90813267  0.57849491  0.05124315  1
  Se  Se148  1  0.92819519  0.59710113  0.56135624  1
  Se  Se149  1  0.91500417  0.91511692  0.05037388  1
  Se  Se150  1  0.91550715  0.92275721  0.56196963  1
  Se  Se151  1  0.07322818  0.25389959  0.43244725  1
  Se  Se152  1  0.08588585  0.24481044  0.95444202  1
  Se  Se153  1  0.08452651  0.58323614  0.45561939  1
  Se  Se154  1  0.07317505  0.59337905  0.94126783  1
  Se  Se155  1  0.08616187  0.91844037  0.44773510  1
  Se  Se156  1  0.08054302  0.92107624  0.93668291  1
  Se  Se157  1  0.40300715  0.26219315  0.44124246  1
  Se  Se158  1  0.42807829  0.24078432  0.94611853  1
  Se  Se159  1  0.42735077  0.58748139  0.44249130  1
  Se  Se160  1  0.41647035  0.58424739  0.94764815  1
  Se  Se161  1  0.42449225  0.91330451  0.44301273  1
  Se  Se162  1  0.41903858  0.91083926  0.94980533  1
  Se  Se163  1  0.73089575  0.25068777  0.44286302  1
  Se  Se164  1  0.74394868  0.25205209  0.93838637  1
  Se  Se165  1  0.74734313  0.58852992  0.44401417  1
  Se  Se166  1  0.74410175  0.58283203  0.94718338  1
  Se  Se167  1  0.74306975  0.92119887  0.43570553  1
  Se  Se168  1  0.74822895  0.90985535  0.94644698  1
  Se  Se169  1  0.25832213  0.07351141  0.44149487  1
  Se  Se170  1  0.25144100  0.07839916  0.94833400  1
  Se  Se171  1  0.25121095  0.42528705  0.45036404  1
  Se  Se172  1  0.25088154  0.41859873  0.93134702  1
  Se  Se173  1  0.26033191  0.75057994  0.44695536  1
  Se  Se174  1  0.25533427  0.74810456  0.94462207  1
  Se  Se175  1  0.58229559  0.06822340  0.44009903  1
  Se  Se176  1  0.58231446  0.07819405  0.94942481  1
  Se  Se177  1  0.57947190  0.42207186  0.45251093  1
  Se  Se178  1  0.57657210  0.42100596  0.94273050  1
  Se  Se179  1  0.58622785  0.75096519  0.43782103  1
  Se  Se180  1  0.57625474  0.75223432  0.94617818  1
  Se  Se181  1  0.91177968  0.07000490  0.44018622  1
  Se  Se182  1  0.91972962  0.07502150  0.93890266  1
  Se  Se183  1  0.91793925  0.41931133  0.43893845  1
  Se  Se184  1  0.91620726  0.41862343  0.95240578  1
  Se  Se185  1  0.92779302  0.73893548  0.44234413  1
  Se  Se186  1  0.90659678  0.75690573  0.94900636  1
  Se  Se187  1  0.23803329  0.24344326  0.30518724  1
  Se  Se188  1  0.25195495  0.24542252  0.80748142  1
  Se  Se189  1  0.25600269  0.58708897  0.30890201  1
  Se  Se190  1  0.25947910  0.59157698  0.79947785  1
  Se  Se191  1  0.25554461  0.91867843  0.30863719  1
  Se  Se192  1  0.25247376  0.91441934  0.80181456  1
  Se  Se193  1  0.57332104  0.24391003  0.30865034  1
  Se  Se194  1  0.58275381  0.25101593  0.80465079  1
  Se  Se195  1  0.58556325  0.58649332  0.29902251  1
  Se  Se196  1  0.58334145  0.58762670  0.80471765  1
  Se  Se197  1  0.60535029  0.94072475  0.30055804  1
  Se  Se198  1  0.57899641  0.91674713  0.80602139  1
  Se  Se199  1  0.90522968  0.24136509  0.30951508  1
  Se  Se200  1  0.91185047  0.24463474  0.81525113  1
  Se  Se201  1  0.90739372  0.57477284  0.30646371  1
  Se  Se202  1  0.91194375  0.58342326  0.81462297  1
  Se  Se203  1  0.92409280  0.90607902  0.29439286  1
  Se  Se204  1  0.91698508  0.91966107  0.80228075  1
  Se  Se205  1  0.09206120  0.08748117  0.29711899  1
  Se  Se206  1  0.08211109  0.08077540  0.80254166  1
  Se  Se207  1  0.08835485  0.42036502  0.30704780  1
  Se  Se208  1  0.09581088  0.42444404  0.80619491  1
  Se  Se209  1  0.09631779  0.75451388  0.31760846  1
  Se  Se210  1  0.09097751  0.75782135  0.81025301  1
  Se  Se211  1  0.41288733  0.08382391  0.29852639  1
  Se  Se212  1  0.41315342  0.07863062  0.80921036  1
  Se  Se213  1  0.42432955  0.42559171  0.30506152  1
  Se  Se214  1  0.41774372  0.41527424  0.80216184  1
  Se  Se215  1  0.43074087  0.76673570  0.29747501  1
  Se  Se216  1  0.41330924  0.74603376  0.80432687  1
  Se  Se217  1  0.76437474  0.09171057  0.29993002  1
  Se  Se218  1  0.74336653  0.07945587  0.80414432  1
  Se  Se219  1  0.74640615  0.41772598  0.30995096  1
  Se  Se220  1  0.74619565  0.41720466  0.80510502  1
  Se  Se221  1  0.74871472  0.74573766  0.29689017  1
  Se  Se222  1  0.74423802  0.75196821  0.80352449  1
  Se  Se223  1  0.25617384  0.09535359  0.19305640  1
  Se  Se224  1  0.25378412  0.07798504  0.69839221  1
  Se  Se225  1  0.24880296  0.42635351  0.18875734  1
  Se  Se226  1  0.25955867  0.41492177  0.69674584  1
  Se  Se227  1  0.25295689  0.74447901  0.20575622  1
  Se  Se228  1  0.25161663  0.74790158  0.69382065  1
  Se  Se229  1  0.58755684  0.08285677  0.19338939  1
  Se  Se230  1  0.57648773  0.08189011  0.69886074  1
  Se  Se231  1  0.56563058  0.41865516  0.18678199  1
  Se  Se232  1  0.58669025  0.41363861  0.70076441  1
  Se  Se233  1  0.58759501  0.74522919  0.19968819  1
  Se  Se234  1  0.58375293  0.74943852  0.69850190  1
  Se  Se235  1  0.91822907  0.08173575  0.19815192  1
  Se  Se236  1  0.91553852  0.08333476  0.70172622  1
  Se  Se237  1  0.90653580  0.42150900  0.18991367  1
  Se  Se238  1  0.90996344  0.42895448  0.69448023  1
  Se  Se239  1  0.91060763  0.74720978  0.18161928  1
  Se  Se240  1  0.90888645  0.76241322  0.68987403  1
  Se  Se241  1  0.09616858  0.24796339  0.18464679  1
  Se  Se242  1  0.09365232  0.24142257  0.68854729  1
  Se  Se243  1  0.09038624  0.58058632  0.19688551  1
  Se  Se244  1  0.09459029  0.58196820  0.68937078  1
  Se  Se245  1  0.09085383  0.91459937  0.19733387  1
  Se  Se246  1  0.08261020  0.92047784  0.69694880  1
  Se  Se247  1  0.42357260  0.24544236  0.18339125  1
  Se  Se248  1  0.41406702  0.24986355  0.70341062  1
  Se  Se249  1  0.40374227  0.60004237  0.19567347  1
  Se  Se250  1  0.42107713  0.58594952  0.69714711  1
  Se  Se251  1  0.41403367  0.92828151  0.20387802  1
  Se  Se252  1  0.41432696  0.91555142  0.69838002  1
  Se  Se253  1  0.76045789  0.23793580  0.19050513  1
  Se  Se254  1  0.74775039  0.24974797  0.70247463  1
  Se  Se255  1  0.73716012  0.58047518  0.19490270  1
  Se  Se256  1  0.74499225  0.59096688  0.70317166  1
  Se  Se257  1  0.75047184  0.91341326  0.18981428  1
  Se  Se258  1  0.74295745  0.92001600  0.69794414  1
