# generated using pymatgen
data_In86Cu29Se144
_symmetry_space_group_name_H-M   'P 1'
_cell_length_a   17.57715436
_cell_length_b   17.58171325
_cell_length_c   23.43352561
_cell_angle_alpha   89.99162952
_cell_angle_beta   89.95870222
_cell_angle_gamma   90.00622479
_symmetry_Int_Tables_number   1
_chemical_formula_structural   In86Cu29Se144
_chemical_formula_sum   'In86 Cu29 Se144'
_cell_volume   7241.81244744
_cell_formula_units_Z   1
loop_
 _symmetry_equiv_pos_site_id
 _symmetry_equiv_pos_as_xyz
  1  'x, y, z'
loop_
 _atom_site_type_symbol
 _atom_site_label
 _atom_site_symmetry_multiplicity
 _atom_site_fract_x
 _atom_site_fract_y
 _atom_site_fract_z
 _atom_site_occupancy
  In  In0  1  -0.02230515  0.16077159  0.12279819  1
  In  In1  1  -0.00511723  0.17891170  0.62597214  1
  In  In2  1  0.00788605  0.50535243  0.12619091  1
  In  In3  1  -0.00744599  0.49859691  0.63210218  1
  In  In4  1  0.00630315  0.83816194  0.11660412  1
  In  In5  1  -0.01912649  0.83175474  0.62553425  1
  In  In6  1  0.33926504  0.16561401  0.12117105  1
  In  In7  1  0.34297113  0.15766410  0.63792761  1
  In  In8  1  0.34073431  0.49609779  0.12237514  1
  In  In9  1  0.33733775  0.49857836  0.62889034  1
  In  In10  1  0.34554966  0.83479638  0.09967052  1
  In  In11  1  0.34871725  0.81874719  0.64094244  1
  In  In12  1  0.68064191  0.18037520  0.10507211  1
  In  In13  1  0.65806487  0.15903287  0.62059043  1
  In  In14  1  0.66008002  0.49965602  0.12582430  1
  In  In15  1  0.67360991  0.51434053  0.63309436  1
  In  In16  1  0.67577728  0.84412924  0.09351849  1
  In  In17  1  0.66532730  0.83239069  0.63395048  1
  In  In18  1  0.16332250  0.01566396  0.37205801  1
  In  In19  1  0.16998043  -0.01584955  0.87699686  1
  In  In20  1  0.17333680  0.34090568  0.38056330  1
  In  In21  1  0.17670728  0.34469030  0.86789521  1
  In  In22  1  0.15977693  0.66331669  0.38126484  1
  In  In23  1  0.17454905  0.67396010  0.86678279  1
  In  In24  1  0.50407214  -0.00336727  0.38526078  1
  In  In25  1  0.50841630  0.00759009  0.87571965  1
  In  In26  1  0.50299781  0.32649943  0.38534614  1
  In  In27  1  0.50132768  0.34605702  0.88306372  1
  In  In28  1  0.50454346  0.66493255  0.38715939  1
  In  In29  1  0.49911592  0.67252989  0.87614053  1
  In  In30  1  0.83683583  -0.00703918  0.37908289  1
  In  In31  1  0.81188101  0.00167397  0.88638267  1
  In  In32  1  0.82310173  0.33944409  0.38420541  1
  In  In33  1  0.82561836  0.32176683  0.87246225  1
  In  In34  1  0.83236185  0.66814809  0.39040836  1
  In  In35  1  0.83988184  0.67128595  0.86253113  1
  In  In36  1  -0.00337545  0.15679670  0.37359165  1
  In  In37  1  -0.01763220  0.16634314  0.87406146  1
  In  In38  1  0.00240734  0.49708645  0.38858749  1
  In  In39  1  -0.00171128  0.50770228  0.85295654  1
  In  In40  1  -0.01197466  0.82871864  0.37588468  1
  In  In41  1  0.00787740  0.82970009  0.87795921  1
  In  In42  1  0.33233188  0.17309871  0.37996954  1
  In  In43  1  0.35236323  0.18473281  0.86185519  1
  In  In44  1  0.33469688  0.50035072  0.39021135  1
  In  In45  1  0.38719672  0.53000794  0.82424132  1
  In  In46  1  0.34407414  0.84270322  0.37738129  1
  In  In47  1  0.32745730  0.82817574  0.87274836  1
  In  In48  1  0.65531589  0.17621825  0.38320104  1
  In  In49  1  0.67945217  0.16661012  0.88773988  1
  In  In50  1  0.67340123  0.49346274  0.38270438  1
  In  In51  1  0.65059337  0.49691692  0.87301795  1
  In  In52  1  0.66742474  0.83325562  0.38309315  1
  In  In53  1  0.65987381  0.82986249  0.88041707  1
  In  In54  1  0.16826592  -0.01402924  0.12110856  1
  In  In55  1  0.17561837  0.00880532  0.62687255  1
  In  In56  1  0.17335308  0.34194161  0.12456444  1
  In  In57  1  0.15393897  0.34311754  0.63159521  1
  In  In58  1  0.16095181  0.67197627  0.12105131  1
  In  In59  1  0.17899846  0.65126029  0.63408844  1
  In  In60  1  0.51413286  0.00933087  0.10053518  1
  In  In61  1  0.50710766  -0.00254563  0.63241217  1
  In  In62  1  0.52187228  0.35258029  0.10542980  1
  In  In63  1  0.50069755  0.33065066  0.62641708  1
  In  In64  1  0.50882908  0.66935972  0.10191712  1
  In  In65  1  0.49902993  0.66435659  0.63529325  1
  In  In66  1  0.83260356  0.00282781  0.11925284  1
  In  In67  1  0.82014079  -0.01113538  0.62084070  1
  In  In68  1  0.83872874  0.31748368  0.12431124  1
  In  In69  1  0.83931147  0.34446653  0.62271825  1
  In  In70  1  0.82207112  0.66688829  0.11617396  1
  In  In71  1  0.82820484  0.66846716  0.63746325  1
  In  In72  1  -0.00127166  -0.00185478  0.75206312  1
  In  In73  1  0.82388879  0.49827293  -0.01261044  1
  In  In74  1  -0.00252692  0.66367018  0.24906917  1
  In  In75  1  0.33683905  -0.00110647  0.24355303  1
  In  In76  1  0.66546250  0.00044578  0.24027645  1
  In  In77  1  -0.00115180  0.33091000  0.26257946  1
  In  In78  1  0.16728909  0.17212116  0.49783962  1
  In  In79  1  0.33455587  0.33297684  0.25289031  1
  In  In80  1  0.66474642  0.33872443  0.74787978  1
  In  In81  1  0.16807377  0.82782763  0.50228659  1
  In  In82  1  0.17748415  0.50911851  -0.00351561  1
  In  In83  1  0.16877856  0.16780673  0.00211671  1
  In  In84  1  0.33158677  0.66506000  0.24949238  1
  In  In85  1  0.66196059  0.66787126  0.24168677  1
  Cu  Cu86  1  0.66826369  -0.00172098  0.50345788  1
  Cu  Cu87  1  -0.00158697  0.66153441  0.51009539  1
  Cu  Cu88  1  0.81977954  0.15806501  0.24594535  1
  Cu  Cu89  1  -0.00167857  0.66601429  -0.00550958  1
  Cu  Cu90  1  0.34713331  -0.00731285  0.51083372  1
  Cu  Cu91  1  0.16512920  0.49223358  0.74596790  1
  Cu  Cu92  1  0.50296734  0.83682450  0.75713904  1
  Cu  Cu93  1  0.82838557  0.16546410  0.75152783  1
  Cu  Cu94  1  -0.00877738  0.34014939  0.50690970  1
  Cu  Cu95  1  0.16501047  0.83848084  0.24045434  1
  Cu  Cu96  1  0.14827241  0.16540895  0.24592336  1
  Cu  Cu97  1  0.66560474  0.67364407  0.51146836  1
  Cu  Cu98  1  0.16929734  0.16444839  0.75148989  1
  Cu  Cu99  1  -0.00903904  -0.00121329  -0.00612456  1
  Cu  Cu100  1  0.82520690  0.83787283  0.75503167  1
  Cu  Cu101  1  0.51089026  0.16406605  0.75219004  1
  Cu  Cu102  1  0.34808918  0.34266519  -0.01099574  1
  Cu  Cu103  1  0.33254617  0.33269015  0.50933350  1
  Cu  Cu104  1  -0.00415281  -0.00032786  0.49866373  1
  Cu  Cu105  1  0.66452490  0.33601284  0.50838992  1
  Cu  Cu106  1  -0.00113055  0.33310791  -0.00726097  1
  Cu  Cu107  1  0.83550973  0.49007616  0.25835754  1
  Cu  Cu108  1  0.50082604  0.17315755  0.25121338  1
  Cu  Cu109  1  0.32692169  0.00381246  -0.01114311  1
  Cu  Cu110  1  0.83382843  0.83203634  0.25176245  1
  Cu  Cu111  1  0.16271646  0.82839709  0.75015560  1
  Cu  Cu112  1  0.50356033  0.49630660  0.24675872  1
  Cu  Cu113  1  0.34171760  0.66402839  0.51116252  1
  Cu  Cu114  1  0.50216264  0.83422235  0.23959788  1
  Se  Se115  1  0.07242766  0.07662413  0.05775621  1
  Se  Se116  1  0.07669152  0.07863927  0.55754695  1
  Se  Se117  1  0.07881474  0.41262192  0.05240798  1
  Se  Se118  1  0.07816448  0.42167179  0.55747385  1
  Se  Se119  1  0.08221452  0.74861149  0.04847955  1
  Se  Se120  1  0.08098227  0.74372723  0.56764435  1
  Se  Se121  1  0.40827434  0.08443257  0.04660191  1
  Se  Se122  1  0.42262430  0.08256607  0.56312400  1
  Se  Se123  1  0.42358569  0.42982464  0.04631882  1
  Se  Se124  1  0.41901400  0.41614625  0.55808806  1
  Se  Se125  1  0.42329724  0.74781330  0.03396900  1
  Se  Se126  1  0.42337318  0.75056002  0.56077176  1
  Se  Se127  1  0.73113572  0.06182734  0.05400811  1
  Se  Se128  1  0.75154548  0.08455003  0.55353972  1
  Se  Se129  1  0.75494853  0.41220542  0.06320864  1
  Se  Se130  1  0.74411068  0.42199612  0.56194524  1
  Se  Se131  1  0.75200586  0.74210223  0.04028939  1
  Se  Se132  1  0.75272435  0.75345220  0.56430103  1
  Se  Se133  1  0.26386837  0.26825952  0.05258961  1
  Se  Se134  1  0.25222312  0.24935859  0.56802396  1
  Se  Se135  1  0.26386566  0.59732012  0.06062976  1
  Se  Se136  1  0.25331779  0.57887463  0.55572824  1
  Se  Se137  1  0.24786838  0.91880959  0.04440072  1
  Se  Se138  1  0.25932803  0.91364905  0.56531855  1
  Se  Se139  1  0.56081949  0.23010876  0.05460213  1
  Se  Se140  1  0.57886783  0.24808511  0.55449642  1
  Se  Se141  1  0.60088217  0.58196025  0.04835557  1
  Se  Se142  1  0.58384748  0.58676145  0.56270648  1
  Se  Se143  1  0.56506709  0.90119564  0.03648188  1
  Se  Se144  1  0.58725714  0.91576152  0.56047784  1
  Se  Se145  1  0.91783173  0.24826819  0.04598512  1
  Se  Se146  1  0.91013809  0.24882875  0.55322405  1
  Se  Se147  1  0.92264437  0.58218226  0.05431492  1
  Se  Se148  1  0.91087236  0.58634921  0.56517348  1
  Se  Se149  1  0.91352793  0.91479279  0.05284024  1
  Se  Se150  1  0.91299981  0.91643629  0.55146503  1
  Se  Se151  1  0.06906358  0.26134512  0.44074898  1
  Se  Se152  1  0.08290331  0.25340142  0.93551195  1
  Se  Se153  1  0.08511745  0.58353166  0.45433398  1
  Se  Se154  1  0.07543992  0.58398456  0.93480211  1
  Se  Se155  1  0.08173523  0.92316370  0.44016661  1
  Se  Se156  1  0.08242171  0.91618522  0.94970148  1
  Se  Se157  1  0.41213365  0.24792863  0.45221218  1
  Se  Se158  1  0.42536099  0.24629008  0.94586561  1
  Se  Se159  1  0.42372772  0.58026522  0.45423658  1
  Se  Se160  1  0.41052197  0.57458139  0.92782314  1
  Se  Se161  1  0.42593318  0.90892071  0.45372065  1
  Se  Se162  1  0.40903988  0.92443709  0.93350271  1
  Se  Se163  1  0.74508172  0.25149378  0.45163456  1
  Se  Se164  1  0.75447046  0.25802372  0.95457787  1
  Se  Se165  1  0.74220705  0.58751965  0.45193037  1
  Se  Se166  1  0.74127730  0.59462204  0.93087403  1
  Se  Se167  1  0.75219413  0.91461654  0.44914739  1
  Se  Se168  1  0.75550178  0.89690759  0.94957435  1
  Se  Se169  1  0.26269681  0.06957079  0.44893873  1
  Se  Se170  1  0.25271730  0.09105493  0.93021673  1
  Se  Se171  1  0.24826176  0.41598658  0.45576019  1
  Se  Se172  1  0.26513166  0.42429264  0.93429267  1
  Se  Se173  1  0.26537658  0.74059114  0.44250440  1
  Se  Se174  1  0.23929503  0.75513836  0.94373783  1
  Se  Se175  1  0.58308780  0.08301691  0.45112698  1
  Se  Se176  1  0.59417481  0.07737983  0.94931041  1
  Se  Se177  1  0.58298474  0.41712347  0.44990208  1
  Se  Se178  1  0.60185676  0.40485478  0.95045286  1
  Se  Se179  1  0.58373744  0.75356380  0.45186758  1
  Se  Se180  1  0.55919402  0.76745440  0.95037319  1
  Se  Se181  1  0.91314999  0.08485471  0.44641410  1
  Se  Se182  1  0.90720067  0.08534648  0.94647667  1
  Se  Se183  1  0.90742839  0.42284440  0.45129728  1
  Se  Se184  1  0.92685462  0.41725613  0.93142685  1
  Se  Se185  1  0.92155066  0.74958922  0.45438539  1
  Se  Se186  1  0.91562996  0.74748187  0.94014113  1
  Se  Se187  1  0.23398191  0.23949280  0.30654416  1
  Se  Se188  1  0.25141070  0.25347813  0.79989182  1
  Se  Se189  1  0.24689796  0.57661382  0.31427115  1
  Se  Se190  1  0.24214208  0.56950808  0.80771324  1
  Se  Se191  1  0.24348241  0.91236459  0.30804043  1
  Se  Se192  1  0.24712196  0.91389667  0.80006567  1
  Se  Se193  1  0.58140853  0.25535944  0.30689233  1
  Se  Se194  1  0.58763623  0.24572896  0.81436216  1
  Se  Se195  1  0.57928424  0.58000211  0.30934615  1
  Se  Se196  1  0.56685616  0.57630530  0.80537141  1
  Se  Se197  1  0.57766451  0.90997748  0.30649561  1
  Se  Se198  1  0.58905770  0.91969973  0.80744974  1
  Se  Se199  1  0.89855218  0.23836461  0.30958601  1
  Se  Se200  1  0.91422756  0.25113578  0.79940298  1
  Se  Se201  1  0.91019419  0.57753118  0.31550245  1
  Se  Se202  1  0.90350491  0.57970439  0.78889284  1
  Se  Se203  1  0.91669843  0.91515659  0.30381650  1
  Se  Se204  1  0.90795414  0.91698621  0.81611511  1
  Se  Se205  1  0.07211079  0.07718255  0.29849027  1
  Se  Se206  1  0.08847887  0.08769417  0.81437558  1
  Se  Se207  1  0.09172228  0.42873465  0.31056441  1
  Se  Se208  1  0.07994395  0.40807652  0.79834342  1
  Se  Se209  1  0.09156224  0.75825000  0.30629208  1
  Se  Se210  1  0.07653688  0.74679009  0.80145205  1
  Se  Se211  1  0.42137221  0.08927590  0.31003866  1
  Se  Se212  1  0.42160384  0.08151151  0.80190477  1
  Se  Se213  1  0.42238845  0.42531670  0.31263985  1
  Se  Se214  1  0.41211958  0.38797664  0.80141629  1
  Se  Se215  1  0.42790574  0.75656515  0.30618039  1
  Se  Se216  1  0.41487122  0.75143801  0.80299628  1
  Se  Se217  1  0.74461671  0.08315149  0.31331849  1
  Se  Se218  1  0.74701473  0.08558233  0.80827125  1
  Se  Se219  1  0.74462896  0.41129411  0.30621916  1
  Se  Se220  1  0.75625845  0.42498260  0.80918492  1
  Se  Se221  1  0.75423842  0.75032719  0.30987846  1
  Se  Se222  1  0.74121383  0.75261875  0.80527503  1
  Se  Se223  1  0.23851775  0.09150861  0.18839787  1
  Se  Se224  1  0.25336169  0.07695523  0.70421243  1
  Se  Se225  1  0.24533342  0.43060983  0.19673036  1
  Se  Se226  1  0.25375977  0.41098767  0.69522809  1
  Se  Se227  1  0.25283335  0.76263322  0.18435836  1
  Se  Se228  1  0.25031670  0.74438273  0.70173948  1
  Se  Se229  1  0.57273843  0.09106025  0.18620680  1
  Se  Se230  1  0.59349453  0.07961581  0.70052639  1
  Se  Se231  1  0.58568193  0.41077131  0.19543934  1
  Se  Se232  1  0.57216825  0.43038452  0.69345216  1
  Se  Se233  1  0.58280188  0.76060953  0.17707592  1
  Se  Se234  1  0.58217412  0.74973616  0.70261402  1
  Se  Se235  1  0.90916636  0.07658619  0.19737021  1
  Se  Se236  1  0.90861126  0.08473991  0.68939087  1
  Se  Se237  1  0.91649591  0.42006828  0.19259580  1
  Se  Se238  1  0.92549954  0.40154646  0.69981823  1
  Se  Se239  1  0.90889171  0.75185941  0.18726665  1
  Se  Se240  1  0.91386730  0.75603934  0.70470239  1
  Se  Se241  1  0.08038343  0.25177641  0.18426762  1
  Se  Se242  1  0.08461257  0.24446075  0.69742867  1
  Se  Se243  1  0.10017018  0.57677295  0.19749555  1
  Se  Se244  1  0.08145117  0.58167073  0.69831718  1
  Se  Se245  1  0.07629297  0.92059485  0.19319921  1
  Se  Se246  1  0.08769452  0.91066517  0.68678724  1
  Se  Se247  1  0.42366432  0.25172589  0.18785446  1
  Se  Se248  1  0.42547511  0.24805762  0.70053545  1
  Se  Se249  1  0.43086868  0.58391956  0.18771966  1
  Se  Se250  1  0.40506938  0.58849949  0.70184679  1
  Se  Se251  1  0.42635237  0.91635103  0.17809997  1
  Se  Se252  1  0.41909306  0.91945581  0.70212971  1
  Se  Se253  1  0.74444763  0.24689484  0.19191235  1
  Se  Se254  1  0.75200295  0.24503094  0.68704074  1
  Se  Se255  1  0.76286137  0.57292170  0.19460550  1
  Se  Se256  1  0.75556404  0.58234956  0.71025524  1
  Se  Se257  1  0.75012663  0.90001176  0.18618730  1
  Se  Se258  1  0.74511749  0.92296604  0.70168971  1
