# generated using pymatgen
data_In86Cu29Se144
_symmetry_space_group_name_H-M   'P 1'
_cell_length_a   17.58471791
_cell_length_b   17.58743145
_cell_length_c   23.44828051
_cell_angle_alpha   89.99997053
_cell_angle_beta   90.01605036
_cell_angle_gamma   90.01455553
_symmetry_Int_Tables_number   1
_chemical_formula_structural   In86Cu29Se144
_chemical_formula_sum   'In86 Cu29 Se144'
_cell_volume   7251.84968218
_cell_formula_units_Z   1
loop_
 _symmetry_equiv_pos_site_id
 _symmetry_equiv_pos_as_xyz
  1  'x, y, z'
loop_
 _atom_site_type_symbol
 _atom_site_label
 _atom_site_symmetry_multiplicity
 _atom_site_fract_x
 _atom_site_fract_y
 _atom_site_fract_z
 _atom_site_occupancy
  In  In0  1  -0.00372231  0.17471274  0.13308339  1
  In  In1  1  0.01659034  0.15654285  0.62193413  1
  In  In2  1  -0.00170655  0.49419376  0.11255019  1
  In  In3  1  0.00182819  0.51727466  0.62536344  1
  In  In4  1  0.01157813  0.84068234  0.10807422  1
  In  In5  1  0.00107646  0.83001915  0.62409823  1
  In  In6  1  0.34424671  0.16341044  0.13671709  1
  In  In7  1  0.32181693  0.16090445  0.61148705  1
  In  In8  1  0.32843105  0.49598377  0.11938250  1
  In  In9  1  0.35076234  0.49718759  0.63228485  1
  In  In10  1  0.33297069  0.83733522  0.11465308  1
  In  In11  1  0.32414676  0.84251110  0.64399457  1
  In  In12  1  0.65994780  0.16510018  0.11719764  1
  In  In13  1  0.66572401  0.18607775  0.62914845  1
  In  In14  1  0.67212245  0.50332833  0.11428071  1
  In  In15  1  0.66324590  0.49629317  0.63171807  1
  In  In16  1  0.66058269  0.83310365  0.11193055  1
  In  In17  1  0.65824977  0.83007589  0.63497849  1
  In  In18  1  0.16843983  -0.00356689  0.37134069  1
  In  In19  1  0.16379524  -0.01452096  0.86511804  1
  In  In20  1  0.15834816  0.32252366  0.37158940  1
  In  In21  1  0.17912820  0.34509523  0.87302027  1
  In  In22  1  0.17823036  0.67568534  0.38533242  1
  In  In23  1  0.16613935  0.66833775  0.87167925  1
  In  In24  1  0.48420805  0.03376234  0.38297062  1
  In  In25  1  0.48704103  0.00994722  0.87871560  1
  In  In26  1  0.49212944  0.33563631  0.37742853  1
  In  In27  1  0.50347970  0.32786399  0.87817095  1
  In  In28  1  0.48560816  0.65909767  0.38342862  1
  In  In29  1  0.50107319  0.66068782  0.87279882  1
  In  In30  1  0.84136718  -0.00605334  0.36684865  1
  In  In31  1  0.83939761  -0.00903432  0.88602140  1
  In  In32  1  0.84569460  0.33507000  0.37499370  1
  In  In33  1  0.82351312  0.34648079  0.88355478  1
  In  In34  1  0.82118701  0.65970055  0.37706592  1
  In  In35  1  0.83111400  0.66774304  0.87325711  1
  In  In36  1  0.00556789  0.16797063  0.36926431  1
  In  In37  1  -0.00281334  0.15665107  0.87790938  1
  In  In38  1  0.00418227  0.48200021  0.37742083  1
  In  In39  1  -0.01736176  0.52617788  0.89747506  1
  In  In40  1  0.00748517  0.84273089  0.36930554  1
  In  In41  1  0.02117359  0.79844200  0.90683514  1
  In  In42  1  0.33375530  0.16021832  0.36842253  1
  In  In43  1  0.34309669  0.17417468  0.87087060  1
  In  In44  1  0.34478172  0.50462069  0.38247461  1
  In  In45  1  0.32809897  0.50432652  0.87935902  1
  In  In46  1  0.30839613  0.83509715  0.38065481  1
  In  In47  1  0.32722010  0.83723860  0.87255163  1
  In  In48  1  0.65431871  0.16906607  0.37694583  1
  In  In49  1  0.65880644  0.17531822  0.87887901  1
  In  In50  1  0.66410417  0.49638562  0.38267341  1
  In  In51  1  0.66026099  0.50174840  0.86920810  1
  In  In52  1  0.66645508  0.83518924  0.37324995  1
  In  In53  1  0.67911501  0.81527653  0.88083398  1
  In  In54  1  0.17502668  -0.00453827  0.12812462  1
  In  In55  1  0.17996196  0.01210874  0.61348965  1
  In  In56  1  0.17023223  0.33360200  0.13265346  1
  In  In57  1  0.18035308  0.32131047  0.62061214  1
  In  In58  1  0.16067232  0.67251051  0.10555564  1
  In  In59  1  0.15836017  0.67865977  0.64344642  1
  In  In60  1  0.49235689  -0.00089529  0.11860761  1
  In  In61  1  0.48362253  -0.00290915  0.62533931  1
  In  In62  1  0.49122063  0.32909455  0.11931666  1
  In  In63  1  0.49717810  0.34225620  0.61378344  1
  In  In64  1  0.49806696  0.66759471  0.11148993  1
  In  In65  1  0.51024747  0.64718549  0.65059226  1
  In  In66  1  0.83921632  0.01256835  0.11869006  1
  In  In67  1  0.85040563  -0.00583168  0.62353195  1
  In  In68  1  0.84286990  0.34089876  0.11852160  1
  In  In69  1  0.81419843  0.33207723  0.62801395  1
  In  In70  1  0.84298115  0.66379399  0.10144233  1
  In  In71  1  0.84114900  0.65814765  0.63278618  1
  In  In72  1  0.33292018  0.66669870  0.25286742  1
  In  In73  1  0.66661245  0.33525054  0.25109056  1
  In  In74  1  0.16931176  0.16499560  0.00222396  1
  In  In75  1  0.00161289  0.66137176  0.23423763  1
  In  In76  1  0.16993714  0.49898431  0.50564407  1
  In  In77  1  0.84184285  0.82859036  0.51112598  1
  In  In78  1  0.49500046  0.82517256  0.50984015  1
  In  In79  1  0.00388467  -0.00369278  0.75013863  1
  In  In80  1  0.66854308  0.66641257  0.23474257  1
  In  In81  1  0.65892232  0.00409017  0.24198904  1
  In  In82  1  0.33937489  0.33444893  0.74649462  1
  In  In83  1  0.66437368  -0.00090336  0.75891485  1
  In  In84  1  0.83216325  0.17107611  0.49367374  1
  In  In85  1  0.00086735  0.33929440  0.74772978  1
  Cu  Cu86  1  0.49966620  0.82923310  0.75876538  1
  Cu  Cu87  1  -0.00888559  0.33556056  0.50220672  1
  Cu  Cu88  1  0.82999071  0.50192884  0.75698785  1
  Cu  Cu89  1  0.16776089  0.16289076  0.25137488  1
  Cu  Cu90  1  0.66242575  0.65391030  0.50759037  1
  Cu  Cu91  1  -0.00210544  0.66805946  0.50452926  1
  Cu  Cu92  1  0.84123400  0.83840067  0.24252950  1
  Cu  Cu93  1  0.32729554  0.00033136  0.00004409  1
  Cu  Cu94  1  0.67029436  0.33705668  -0.00193824  1
  Cu  Cu95  1  0.65908003  0.00195865  -0.00512037  1
  Cu  Cu96  1  0.16994021  0.49043781  0.24854485  1
  Cu  Cu97  1  0.66302964  0.65985359  -0.00787892  1
  Cu  Cu98  1  0.50203831  0.50118519  0.25293276  1
  Cu  Cu99  1  0.33881612  0.66366708  0.51719000  1
  Cu  Cu100  1  0.33638214  0.67160566  -0.00743075  1
  Cu  Cu101  1  0.16021641  0.50280149  0.75577357  1
  Cu  Cu102  1  0.65522542  0.34400624  0.50559551  1
  Cu  Cu103  1  0.85172050  0.49660595  0.24487104  1
  Cu  Cu104  1  0.48999618  0.84635698  0.24866516  1
  Cu  Cu105  1  0.33249697  -0.00373227  0.49651017  1
  Cu  Cu106  1  -0.00458148  0.00168938  -0.00094417  1
  Cu  Cu107  1  0.83497811  0.16769422  0.24776491  1
  Cu  Cu108  1  0.83980169  0.83064994  0.75440713  1
  Cu  Cu109  1  0.34028107  0.33454654  -0.00079329  1
  Cu  Cu110  1  0.83231177  0.17206817  0.75572381  1
  Cu  Cu111  1  0.49903655  0.16662779  0.74921914  1
  Cu  Cu112  1  0.67639296  0.00424549  0.50209965  1
  Cu  Cu113  1  0.00541184  0.32897914  0.00386255  1
  Cu  Cu114  1  0.16369232  0.83234470  0.24471549  1
  Se  Se115  1  0.07604908  0.07897033  0.06259093  1
  Se  Se116  1  0.08635870  0.08233255  0.54546060  1
  Se  Se117  1  0.09352010  0.40884911  0.05588966  1
  Se  Se118  1  0.07466696  0.40897187  0.56533484  1
  Se  Se119  1  0.06938866  0.74270330  0.03814292  1
  Se  Se120  1  0.08526786  0.74405765  0.55870108  1
  Se  Se121  1  0.40754971  0.08640373  0.05395840  1
  Se  Se122  1  0.41700925  0.07921952  0.54955792  1
  Se  Se123  1  0.42123599  0.42338454  0.05127718  1
  Se  Se124  1  0.38835508  0.40221966  0.55468702  1
  Se  Se125  1  0.41847149  0.75663786  0.04708592  1
  Se  Se126  1  0.41648418  0.74239834  0.57990748  1
  Se  Se127  1  0.74392687  0.08226158  0.05150298  1
  Se  Se128  1  0.75202109  0.08228563  0.56606443  1
  Se  Se129  1  0.75731915  0.41956363  0.04965083  1
  Se  Se130  1  0.74645857  0.42034667  0.55621955  1
  Se  Se131  1  0.74272335  0.74517479  0.04797530  1
  Se  Se132  1  0.73963637  0.74300958  0.56365947  1
  Se  Se133  1  0.26113046  0.25323868  0.06115683  1
  Se  Se134  1  0.24516750  0.24618775  0.54185285  1
  Se  Se135  1  0.25729983  0.58873369  0.05105129  1
  Se  Se136  1  0.24888393  0.58766867  0.57302910  1
  Se  Se137  1  0.24118629  0.91569198  0.04896629  1
  Se  Se138  1  0.26052859  0.91076560  0.55722410  1
  Se  Se139  1  0.58378469  0.25630684  0.05200471  1
  Se  Se140  1  0.58062409  0.24767580  0.55241754  1
  Se  Se141  1  0.58088891  0.57882847  0.04844504  1
  Se  Se142  1  0.57536302  0.58049036  0.56406521  1
  Se  Se143  1  0.57538208  0.91851093  0.04871920  1
  Se  Se144  1  0.59301993  0.92305247  0.56004554  1
  Se  Se145  1  0.91922328  0.24558458  0.05474306  1
  Se  Se146  1  0.91818035  0.25303150  0.56561096  1
  Se  Se147  1  0.92989045  0.58126856  0.03995401  1
  Se  Se148  1  0.91179192  0.58307623  0.55217773  1
  Se  Se149  1  0.91000576  0.91808986  0.05106423  1
  Se  Se150  1  0.94065557  0.92941169  0.54857085  1
  Se  Se151  1  0.07092311  0.25443317  0.44545964  1
  Se  Se152  1  0.08407915  0.25561027  0.93793271  1
  Se  Se153  1  0.07734117  0.58819354  0.44155085  1
  Se  Se154  1  0.10795119  0.56791180  0.94235468  1
  Se  Se155  1  0.10667465  0.89347574  0.43821471  1
  Se  Se156  1  0.08331758  0.92416713  0.94556052  1
  Se  Se157  1  0.43244289  0.22708105  0.43528347  1
  Se  Se158  1  0.41946408  0.24606667  0.94790234  1
  Se  Se159  1  0.41766713  0.58070468  0.46110301  1
  Se  Se160  1  0.41901501  0.58158473  0.94605321  1
  Se  Se161  1  0.41653147  0.91398460  0.43779882  1
  Se  Se162  1  0.41073358  0.91841433  0.94470988  1
  Se  Se163  1  0.73722593  0.26723296  0.44023105  1
  Se  Se164  1  0.75096860  0.24830502  0.94682791  1
  Se  Se165  1  0.74887612  0.57819217  0.45088322  1
  Se  Se166  1  0.74887225  0.57870693  0.93919950  1
  Se  Se167  1  0.75154672  0.91940116  0.44405662  1
  Se  Se168  1  0.74378197  0.91499494  0.94788264  1
  Se  Se169  1  0.25150084  0.07873221  0.44036102  1
  Se  Se170  1  0.25273946  0.08050813  0.93478962  1
  Se  Se171  1  0.24863472  0.41323247  0.43649214  1
  Se  Se172  1  0.25199462  0.41711786  0.95103201  1
  Se  Se173  1  0.25734788  0.74628753  0.46122868  1
  Se  Se174  1  0.24777998  0.75277804  0.94299521  1
  Se  Se175  1  0.58836072  0.08499713  0.45240347  1
  Se  Se176  1  0.57676450  0.08869773  0.94486020  1
  Se  Se177  1  0.57160355  0.42178546  0.44736336  1
  Se  Se178  1  0.58547243  0.41622193  0.94301861  1
  Se  Se179  1  0.59051428  0.74028130  0.44443034  1
  Se  Se180  1  0.57868766  0.74728601  0.94453029  1
  Se  Se181  1  0.92068055  0.07632727  0.43905288  1
  Se  Se182  1  0.91144912  0.08859551  0.95095683  1
  Se  Se183  1  0.91050632  0.42184905  0.45074427  1
  Se  Se184  1  0.92112418  0.41160251  0.95103087  1
  Se  Se185  1  0.92014454  0.74327784  0.43698427  1
  Se  Se186  1  0.88845919  0.76772390  0.94410325  1
  Se  Se187  1  0.24850696  0.24875496  0.30396096  1
  Se  Se188  1  0.24289422  0.24588214  0.80419460  1
  Se  Se189  1  0.24085300  0.57500430  0.31233634  1
  Se  Se190  1  0.25101607  0.58190828  0.80459149  1
  Se  Se191  1  0.24941912  0.91221468  0.29840204  1
  Se  Se192  1  0.25677934  0.92084302  0.79706881  1
  Se  Se193  1  0.57213172  0.24417038  0.30279940  1
  Se  Se194  1  0.58123525  0.24946329  0.80243689  1
  Se  Se195  1  0.58281065  0.58598413  0.30962127  1
  Se  Se196  1  0.58775920  0.59100586  0.79956983  1
  Se  Se197  1  0.57439752  0.91863790  0.31140689  1
  Se  Se198  1  0.57996320  0.90970535  0.82085830  1
  Se  Se199  1  0.91697644  0.25074975  0.30288229  1
  Se  Se200  1  0.91382018  0.25168630  0.81402391  1
  Se  Se201  1  0.91886520  0.58118367  0.30999208  1
  Se  Se202  1  0.91815921  0.58299938  0.80755083  1
  Se  Se203  1  0.92542395  0.91873336  0.29601723  1
  Se  Se204  1  0.91953186  0.90896980  0.81396650  1
  Se  Se205  1  0.08336321  0.07913010  0.30309603  1
  Se  Se206  1  0.09214696  0.09431742  0.80557454  1
  Se  Se207  1  0.08188159  0.41161908  0.30094685  1
  Se  Se208  1  0.07832504  0.42717558  0.81659146  1
  Se  Se209  1  0.09106502  0.74321430  0.30366135  1
  Se  Se210  1  0.07973889  0.75871629  0.81154186  1
  Se  Se211  1  0.40809865  0.07274888  0.29610508  1
  Se  Se212  1  0.41328599  0.08449232  0.79964268  1
  Se  Se213  1  0.41609456  0.42353032  0.30667411  1
  Se  Se214  1  0.42191835  0.42167875  0.81204086  1
  Se  Se215  1  0.42110530  0.76007541  0.31363304  1
  Se  Se216  1  0.41323684  0.74773955  0.80927259  1
  Se  Se217  1  0.75163378  0.09127610  0.30843637  1
  Se  Se218  1  0.75926118  0.08645830  0.81584078  1
  Se  Se219  1  0.76014762  0.42991595  0.30637471  1
  Se  Se220  1  0.74717301  0.41368878  0.80375201  1
  Se  Se221  1  0.75865927  0.75848824  0.30101497  1
  Se  Se222  1  0.74966631  0.74658231  0.79878095  1
  Se  Se223  1  0.25082235  0.08147806  0.19692007  1
  Se  Se224  1  0.26027552  0.07980017  0.69066556  1
  Se  Se225  1  0.26165707  0.41474155  0.19755501  1
  Se  Se226  1  0.23690934  0.42324928  0.69244692  1
  Se  Se227  1  0.24313072  0.74849782  0.18620730  1
  Se  Se228  1  0.25735772  0.74307421  0.70712805  1
  Se  Se229  1  0.56653701  0.09705654  0.18998529  1
  Se  Se230  1  0.58126082  0.08505003  0.68950592  1
  Se  Se231  1  0.58310045  0.42836876  0.18882803  1
  Se  Se232  1  0.57479709  0.40904695  0.69181212  1
  Se  Se233  1  0.56878634  0.76238859  0.18979546  1
  Se  Se234  1  0.58787921  0.74869499  0.70853816  1
  Se  Se235  1  0.91722819  0.08088538  0.19759543  1
  Se  Se236  1  0.91165538  0.09614437  0.69369747  1
  Se  Se237  1  0.93036331  0.41275457  0.19115318  1
  Se  Se238  1  0.90638870  0.42658184  0.68849859  1
  Se  Se239  1  0.91117129  0.75515031  0.17920404  1
  Se  Se240  1  0.92013229  0.75169507  0.69507943  1
  Se  Se241  1  0.08662697  0.24977149  0.19930592  1
  Se  Se242  1  0.09264846  0.24388259  0.69453119  1
  Se  Se243  1  0.10005379  0.57261499  0.18271248  1
  Se  Se244  1  0.07407919  0.58675324  0.70523449  1
  Se  Se245  1  0.08019635  0.91336976  0.18995514  1
  Se  Se246  1  0.09271277  0.91918699  0.68302203  1
  Se  Se247  1  0.41419864  0.26403281  0.19797670  1
  Se  Se248  1  0.41949590  0.24060329  0.68339732  1
  Se  Se249  1  0.42550847  0.58233932  0.19081714  1
  Se  Se250  1  0.40068023  0.58774087  0.70906872  1
  Se  Se251  1  0.40709350  0.92003127  0.18936664  1
  Se  Se252  1  0.42326640  0.91783409  0.70547873  1
  Se  Se253  1  0.75434957  0.24665488  0.18727331  1
  Se  Se254  1  0.74474128  0.25484040  0.70684727  1
  Se  Se255  1  0.77079062  0.57733497  0.18520443  1
  Se  Se256  1  0.74917857  0.58196767  0.69761631  1
  Se  Se257  1  0.75045420  0.91166022  0.18489403  1
  Se  Se258  1  0.76130982  0.91493164  0.69482173  1
