# generated using pymatgen
data_In86Cu29Se144
_symmetry_space_group_name_H-M   'P 1'
_cell_length_a   17.57993184
_cell_length_b   17.58195949
_cell_length_c   23.44393377
_cell_angle_alpha   89.98832561
_cell_angle_beta   90.01689556
_cell_angle_gamma   90.01046026
_symmetry_Int_Tables_number   1
_chemical_formula_structural   In86Cu29Se144
_chemical_formula_sum   'In86 Cu29 Se144'
_cell_volume   7246.27668089
_cell_formula_units_Z   1
loop_
 _symmetry_equiv_pos_site_id
 _symmetry_equiv_pos_as_xyz
  1  'x, y, z'
loop_
 _atom_site_type_symbol
 _atom_site_label
 _atom_site_symmetry_multiplicity
 _atom_site_fract_x
 _atom_site_fract_y
 _atom_site_fract_z
 _atom_site_occupancy
  In  In0  1  -0.00146843  0.17084058  0.12810695  1
  In  In1  1  0.00409301  0.17147414  0.61711836  1
  In  In2  1  0.00314850  0.49014150  0.13023645  1
  In  In3  1  0.01580360  0.50797154  0.61633932  1
  In  In4  1  0.02106301  0.83793642  0.12120061  1
  In  In5  1  -0.00629348  0.82535855  0.62950995  1
  In  In6  1  0.33172770  0.15178996  0.11531051  1
  In  In7  1  0.33304159  0.16983974  0.62995327  1
  In  In8  1  0.33348477  0.51654918  0.12538687  1
  In  In9  1  0.33052036  0.50214955  0.62205940  1
  In  In10  1  0.32928310  0.84143236  0.11969088  1
  In  In11  1  0.33875569  0.83489324  0.63887857  1
  In  In12  1  0.65073495  0.14899402  0.11142414  1
  In  In13  1  0.68244750  0.16580064  0.62044121  1
  In  In14  1  0.67500610  0.50088125  0.13349368  1
  In  In15  1  0.64932710  0.49538525  0.61060212  1
  In  In16  1  0.65148078  0.84805158  0.13477107  1
  In  In17  1  0.65902524  0.83179619  0.62151240  1
  In  In18  1  0.17932176  0.01580206  0.36410893  1
  In  In19  1  0.21480577  -0.03300862  0.91965337  1
  In  In20  1  0.15978648  0.34285156  0.37908206  1
  In  In21  1  0.18045538  0.31974385  0.88527445  1
  In  In22  1  0.16972446  0.65724044  0.37816993  1
  In  In23  1  0.16896879  0.66325797  0.87102115  1
  In  In24  1  0.49112969  0.00142001  0.36192466  1
  In  In25  1  0.48774106  0.00359969  0.88401376  1
  In  In26  1  0.50745165  0.33517817  0.37429590  1
  In  In27  1  0.49116300  0.32154546  0.86499782  1
  In  In28  1  0.49391258  0.66588651  0.37358867  1
  In  In29  1  0.48805290  0.68328695  0.87798857  1
  In  In30  1  0.83801441  0.00625635  0.36565167  1
  In  In31  1  0.84788160  0.00482505  0.87939495  1
  In  In32  1  0.83416984  0.32525526  0.38119275  1
  In  In33  1  0.82448212  0.33015600  0.86891879  1
  In  In34  1  0.81917723  0.66855436  0.38057612  1
  In  In35  1  0.83141187  0.65224405  0.87155999  1
  In  In36  1  -0.00046527  0.17068796  0.36965368  1
  In  In37  1  0.01446941  0.15642370  0.88443560  1
  In  In38  1  0.00531066  0.48763598  0.38165713  1
  In  In39  1  0.00552776  0.50933977  0.86873046  1
  In  In40  1  -0.00703015  0.84141120  0.37082159  1
  In  In41  1  0.01486291  0.83697685  0.87497740  1
  In  In42  1  0.32499580  0.14883491  0.37765424  1
  In  In43  1  0.33350719  0.16289855  0.87800410  1
  In  In44  1  0.32836848  0.51052514  0.38810504  1
  In  In45  1  0.32512167  0.48828143  0.86809087  1
  In  In46  1  0.33210011  0.83593945  0.36788890  1
  In  In47  1  0.34000262  0.82843865  0.86947378  1
  In  In48  1  0.66978112  0.16613126  0.37241288  1
  In  In49  1  0.66074589  0.16862460  0.87802707  1
  In  In50  1  0.65000510  0.51726730  0.39392532  1
  In  In51  1  0.67645649  0.49417889  0.87018964  1
  In  In52  1  0.66456606  0.83616425  0.36503790  1
  In  In53  1  0.64776138  0.82981602  0.87882636  1
  In  In54  1  0.16949536  0.00318819  0.12556436  1
  In  In55  1  0.17561062  0.01267622  0.62152429  1
  In  In56  1  0.16130107  0.32417626  0.11934880  1
  In  In57  1  0.17391917  0.33696561  0.62221092  1
  In  In58  1  0.17786950  0.68254659  0.11457515  1
  In  In59  1  0.18253690  0.65273535  0.63560293  1
  In  In60  1  0.49792358  0.00203270  0.12001110  1
  In  In61  1  0.49106568  -0.00769850  0.62421574  1
  In  In62  1  0.50943486  0.32116359  0.12333584  1
  In  In63  1  0.48935126  0.34208138  0.63361436  1
  In  In64  1  0.48210330  0.68175078  0.13633349  1
  In  In65  1  0.49677702  0.65899859  0.62231756  1
  In  In66  1  0.81966181  0.01497736  0.13428233  1
  In  In67  1  0.82674794  0.01240979  0.61618251  1
  In  In68  1  0.84517440  0.33560374  0.13119972  1
  In  In69  1  0.82513457  0.32690077  0.61865311  1
  In  In70  1  0.82812685  0.65577348  0.13164908  1
  In  In71  1  0.84291082  0.66629049  0.62133436  1
  In  In72  1  0.49930323  0.16847074  0.49537407  1
  In  In73  1  0.33285522  0.32706066  0.24270601  1
  In  In74  1  0.50124785  0.49708013  0.00169581  1
  In  In75  1  0.67057314  0.33114206  0.25860419  1
  In  In76  1  0.66056236  0.00014679  0.74776059  1
  In  In77  1  0.00411231  0.33329434  0.74422239  1
  In  In78  1  0.00372265  0.67167477  0.25075191  1
  In  In79  1  0.16833130  0.83163892  0.49958641  1
  In  In80  1  0.01274838  -0.00137102  0.75320974  1
  In  In81  1  0.83587559  0.49558259  0.00079910  1
  In  In82  1  0.83381669  0.83531602  0.49974798  1
  In  In83  1  0.83466835  0.83561573  0.00423332  1
  In  In84  1  0.49763862  0.83456662  0.49878905  1
  In  In85  1  0.65753023  0.66210990  0.74368125  1
  Cu  Cu86  1  0.49896628  0.83280743  0.24616856  1
  Cu  Cu87  1  0.16127501  0.17122759  0.24535434  1
  Cu  Cu88  1  0.00095888  0.00978679  0.00720965  1
  Cu  Cu89  1  0.17128710  0.49787738  0.74668795  1
  Cu  Cu90  1  0.00586017  0.66551693  -0.00621997  1
  Cu  Cu91  1  0.66740321  0.32219980  -0.00485882  1
  Cu  Cu92  1  0.32732992  0.66991567  -0.00128476  1
  Cu  Cu93  1  0.66421161  0.33330282  0.49912486  1
  Cu  Cu94  1  0.49905963  0.50163505  0.74497479  1
  Cu  Cu95  1  0.00065396  0.33409971  0.00405832  1
  Cu  Cu96  1  0.33274350  0.33462409  0.50634501  1
  Cu  Cu97  1  0.16964554  0.83154606  0.75903966  1
  Cu  Cu98  1  0.83377261  0.49638557  0.74493401  1
  Cu  Cu99  1  0.82940579  0.82370214  0.74729053  1
  Cu  Cu100  1  0.83521044  0.83647412  0.24985391  1
  Cu  Cu101  1  0.83308679  0.17212227  0.25009376  1
  Cu  Cu102  1  0.33584346  0.33231754  -0.00474196  1
  Cu  Cu103  1  0.17415003  0.83905991  0.24383859  1
  Cu  Cu104  1  0.00199441  0.00980199  0.49242946  1
  Cu  Cu105  1  0.00696644  0.65696661  0.50144967  1
  Cu  Cu106  1  0.65604092  0.67180029  0.00917782  1
  Cu  Cu107  1  0.50182267  0.17190242  0.75404166  1
  Cu  Cu108  1  0.18069077  0.16103281  0.75732352  1
  Cu  Cu109  1  0.16778005  0.50218863  0.25561083  1
  Cu  Cu110  1  0.82972860  0.50302330  0.26012164  1
  Cu  Cu111  1  -0.00527798  0.32639864  0.49877270  1
  Cu  Cu112  1  0.83670496  0.16870133  0.74722606  1
  Cu  Cu113  1  0.66698859  -0.00118292  0.00437879  1
  Cu  Cu114  1  0.49754444  0.50398048  0.25749363  1
  Se  Se115  1  0.08535859  0.09138854  0.06010736  1
  Se  Se116  1  0.08622616  0.08473365  0.55190107  1
  Se  Se117  1  0.08375213  0.41971987  0.05491123  1
  Se  Se118  1  0.08161262  0.40689051  0.55299485  1
  Se  Se119  1  0.08598379  0.75372623  0.04502152  1
  Se  Se120  1  0.08086943  0.74172057  0.56251521  1
  Se  Se121  1  0.41458010  0.07388247  0.04570808  1
  Se  Se122  1  0.40946459  0.07944531  0.55556353  1
  Se  Se123  1  0.41064753  0.40869786  0.06366584  1
  Se  Se124  1  0.41873673  0.41860668  0.55547494  1
  Se  Se125  1  0.41229556  0.74993582  0.05417504  1
  Se  Se126  1  0.40582920  0.74852528  0.55939417  1
  Se  Se127  1  0.75571252  0.08448823  0.04898371  1
  Se  Se128  1  0.74521197  0.08266320  0.54368001  1
  Se  Se129  1  0.74029028  0.40628693  0.05850434  1
  Se  Se130  1  0.74832116  0.41699103  0.55168048  1
  Se  Se131  1  0.74423348  0.74716147  0.06577225  1
  Se  Se132  1  0.74242258  0.74252607  0.55643896  1
  Se  Se133  1  0.25554633  0.25152127  0.05461414  1
  Se  Se134  1  0.25147598  0.24598867  0.55603669  1
  Se  Se135  1  0.24726638  0.58198964  0.05055234  1
  Se  Se136  1  0.24300667  0.57990396  0.55342103  1
  Se  Se137  1  0.23493559  0.91247996  0.05188404  1
  Se  Se138  1  0.26005140  0.91735670  0.56050501  1
  Se  Se139  1  0.57737142  0.24345326  0.04505758  1
  Se  Se140  1  0.58336336  0.25562552  0.56258271  1
  Se  Se141  1  0.58270413  0.58612340  0.06931764  1
  Se  Se142  1  0.58493371  0.59728944  0.54865901  1
  Se  Se143  1  0.58153288  0.91281627  0.05169057  1
  Se  Se144  1  0.59243618  0.93011529  0.55327407  1
  Se  Se145  1  0.91478836  0.25327697  0.05662965  1
  Se  Se146  1  0.91001543  0.24346036  0.55174267  1
  Se  Se147  1  0.92578458  0.59095148  0.05850270  1
  Se  Se148  1  0.91662108  0.57812427  0.55188591  1
  Se  Se149  1  0.91983324  0.92660739  0.06596929  1
  Se  Se150  1  0.92969817  0.92695066  0.55786945  1
  Se  Se151  1  0.08152422  0.24923862  0.44262355  1
  Se  Se152  1  0.08500453  0.25043335  0.95164163  1
  Se  Se153  1  0.08898862  0.57504592  0.44685228  1
  Se  Se154  1  0.08761931  0.57927128  0.94324632  1
  Se  Se155  1  0.08137515  0.92349688  0.43754410  1
  Se  Se156  1  0.07611915  0.92424847  0.94958289  1
  Se  Se157  1  0.40453311  0.25781752  0.43722448  1
  Se  Se158  1  0.42104526  0.24889574  0.94485068  1
  Se  Se159  1  0.43017532  0.57823255  0.44850164  1
  Se  Se160  1  0.40869678  0.58393644  0.94163756  1
  Se  Se161  1  0.40829739  0.92582469  0.43977532  1
  Se  Se162  1  0.40378919  0.91677807  0.94589540  1
  Se  Se163  1  0.74401762  0.24597290  0.44708274  1
  Se  Se164  1  0.75675203  0.24489174  0.94287776  1
  Se  Se165  1  0.75830666  0.57840837  0.45267353  1
  Se  Se166  1  0.73626751  0.59066438  0.94891996  1
  Se  Se167  1  0.74835584  0.92209612  0.43577158  1
  Se  Se168  1  0.74421685  0.92074035  0.93823236  1
  Se  Se169  1  0.24003625  0.08149199  0.45085306  1
  Se  Se170  1  0.23470735  0.10545621  0.94882664  1
  Se  Se171  1  0.24911005  0.41584813  0.44912952  1
  Se  Se172  1  0.25071435  0.42017973  0.94912800  1
  Se  Se173  1  0.26180313  0.74315539  0.44207724  1
  Se  Se174  1  0.24901059  0.74966434  0.93867054  1
  Se  Se175  1  0.58339014  0.07417543  0.43588654  1
  Se  Se176  1  0.58584970  0.07963844  0.94531059  1
  Se  Se177  1  0.57449217  0.41508116  0.45147706  1
  Se  Se178  1  0.58972314  0.40912417  0.93774631  1
  Se  Se179  1  0.59103487  0.74930630  0.43929508  1
  Se  Se180  1  0.57339715  0.75138171  0.95360628  1
  Se  Se181  1  0.91477883  0.08713371  0.43906097  1
  Se  Se182  1  0.91636547  0.08997276  0.95222575  1
  Se  Se183  1  0.91299751  0.41431709  0.44852922  1
  Se  Se184  1  0.92443520  0.40948860  0.93627329  1
  Se  Se185  1  0.92963648  0.74271235  0.44286590  1
  Se  Se186  1  0.91718875  0.74271041  0.93818113  1
  Se  Se187  1  0.24127452  0.24824816  0.30939127  1
  Se  Se188  1  0.25859335  0.25371966  0.80604396  1
  Se  Se189  1  0.25436039  0.58244367  0.30660264  1
  Se  Se190  1  0.25326865  0.58229622  0.80145685  1
  Se  Se191  1  0.25541447  0.92290450  0.29911974  1
  Se  Se192  1  0.24308959  0.91962646  0.81584374  1
  Se  Se193  1  0.56971659  0.23699331  0.30338974  1
  Se  Se194  1  0.59300126  0.25251898  0.80181010  1
  Se  Se195  1  0.58585584  0.58497089  0.30793143  1
  Se  Se196  1  0.57380784  0.57741670  0.81425352  1
  Se  Se197  1  0.58074849  0.91895867  0.29856848  1
  Se  Se198  1  0.56999193  0.91350851  0.80764022  1
  Se  Se199  1  0.91433171  0.25742756  0.30298030  1
  Se  Se200  1  0.92239523  0.24039676  0.80932762  1
  Se  Se201  1  0.91677391  0.58422472  0.31481912  1
  Se  Se202  1  0.91508810  0.58035283  0.79862341  1
  Se  Se203  1  0.92127054  0.92223195  0.29676806  1
  Se  Se204  1  0.91017263  0.90729805  0.80563564  1
  Se  Se205  1  0.08028132  0.08551921  0.30021277  1
  Se  Se206  1  0.10289920  0.07902542  0.81640153  1
  Se  Se207  1  0.08122040  0.41727669  0.30215728  1
  Se  Se208  1  0.09503172  0.41497820  0.80924080  1
  Se  Se209  1  0.09688419  0.76121736  0.31013729  1
  Se  Se210  1  0.07981915  0.74622941  0.80377392  1
  Se  Se211  1  0.40500543  0.08684888  0.29951682  1
  Se  Se212  1  0.42038804  0.08646904  0.80684467  1
  Se  Se213  1  0.41473309  0.41851616  0.31006871  1
  Se  Se214  1  0.41837078  0.41672797  0.80073923  1
  Se  Se215  1  0.41715746  0.75117092  0.30317419  1
  Se  Se216  1  0.41309400  0.74323073  0.79679663  1
  Se  Se217  1  0.74817516  0.08645812  0.29969833  1
  Se  Se218  1  0.75960560  0.08422091  0.80740675  1
  Se  Se219  1  0.74837702  0.42661675  0.32132234  1
  Se  Se220  1  0.74985269  0.41303071  0.79608423  1
  Se  Se221  1  0.75447395  0.75107107  0.30287176  1
  Se  Se222  1  0.74687548  0.75225703  0.81082791  1
  Se  Se223  1  0.24911766  0.08906995  0.19533389  1
  Se  Se224  1  0.25825497  0.07763353  0.69895254  1
  Se  Se225  1  0.24333390  0.42481254  0.18840545  1
  Se  Se226  1  0.25481873  0.41413636  0.69423014  1
  Se  Se227  1  0.25496555  0.75153261  0.19273929  1
  Se  Se228  1  0.25041994  0.75006301  0.70151323  1
  Se  Se229  1  0.58904823  0.07359795  0.19085328  1
  Se  Se230  1  0.57645753  0.09452994  0.68622753  1
  Se  Se231  1  0.57444664  0.42117248  0.19614060  1
  Se  Se232  1  0.58734656  0.42063845  0.69448027  1
  Se  Se233  1  0.58708237  0.74524344  0.19876347  1
  Se  Se234  1  0.56869115  0.76097550  0.69260593  1
  Se  Se235  1  0.91703180  0.08702041  0.19793268  1
  Se  Se236  1  0.91759112  0.08554133  0.69095062  1
  Se  Se237  1  0.91340520  0.42443229  0.20331173  1
  Se  Se238  1  0.91522772  0.42061168  0.68269493  1
  Se  Se239  1  0.91457227  0.75882103  0.18620428  1
  Se  Se240  1  0.91733467  0.74103488  0.69978587  1
  Se  Se241  1  0.07825832  0.25950107  0.19715766  1
  Se  Se242  1  0.09728163  0.23563410  0.69413750  1
  Se  Se243  1  0.09401112  0.58488915  0.18931752  1
  Se  Se244  1  0.08200179  0.58123578  0.69874451  1
  Se  Se245  1  0.08475447  0.92182520  0.19745510  1
  Se  Se246  1  0.09650263  0.90729747  0.68818022  1
  Se  Se247  1  0.42423244  0.23479698  0.18833822  1
  Se  Se248  1  0.41432304  0.25164854  0.70030342  1
  Se  Se249  1  0.41267301  0.58500433  0.20305190  1
  Se  Se250  1  0.41382523  0.58362399  0.69389085  1
  Se  Se251  1  0.41741221  0.91564543  0.19018882  1
  Se  Se252  1  0.41595598  0.92666136  0.70296007  1
  Se  Se253  1  0.74881031  0.24640850  0.18710066  1
  Se  Se254  1  0.75054250  0.24964079  0.69637504  1
  Se  Se255  1  0.74610162  0.58542473  0.20686244  1
  Se  Se256  1  0.75166450  0.57631464  0.68519051  1
  Se  Se257  1  0.74823155  0.91921395  0.19917583  1
  Se  Se258  1  0.75797224  0.91063707  0.68782614  1
