# generated using pymatgen
data_In86Cu29Se144
_symmetry_space_group_name_H-M   'P 1'
_cell_length_a   17.58341367
_cell_length_b   17.57711025
_cell_length_c   23.43912504
_cell_angle_alpha   90.01390063
_cell_angle_beta   90.01256483
_cell_angle_gamma   90.01306831
_symmetry_Int_Tables_number   1
_chemical_formula_structural   In86Cu29Se144
_chemical_formula_sum   'In86 Cu29 Se144'
_cell_volume   7244.22668452
_cell_formula_units_Z   1
loop_
 _symmetry_equiv_pos_site_id
 _symmetry_equiv_pos_as_xyz
  1  'x, y, z'
loop_
 _atom_site_type_symbol
 _atom_site_label
 _atom_site_symmetry_multiplicity
 _atom_site_fract_x
 _atom_site_fract_y
 _atom_site_fract_z
 _atom_site_occupancy
  In  In0  1  0.00037821  0.19723745  0.13421434  1
  In  In1  1  0.00797525  0.17533262  0.61730804  1
  In  In2  1  0.00401118  0.49401582  0.11797823  1
  In  In3  1  -0.01455483  0.49379375  0.62954512  1
  In  In4  1  -0.01636454  0.83535660  0.13006863  1
  In  In5  1  0.00485279  0.83172355  0.61227092  1
  In  In6  1  0.32826981  0.15634161  0.13390549  1
  In  In7  1  0.33081666  0.16416761  0.62283073  1
  In  In8  1  0.34323278  0.51069033  0.10040820  1
  In  In9  1  0.33025996  0.50280474  0.63756553  1
  In  In10  1  0.34750471  0.81840785  0.13696369  1
  In  In11  1  0.33084972  0.84025027  0.63083794  1
  In  In12  1  0.67052130  0.15298834  0.13956557  1
  In  In13  1  0.66670675  0.17114170  0.61126306  1
  In  In14  1  0.66011114  0.48676255  0.12106705  1
  In  In15  1  0.67394117  0.48773259  0.62477975  1
  In  In16  1  0.66716962  0.83731649  0.12608877  1
  In  In17  1  0.67468682  0.82616803  0.61911132  1
  In  In18  1  0.17365905  -0.00334110  0.38071592  1
  In  In19  1  0.17351009  -0.00620867  0.87285459  1
  In  In20  1  0.15258960  0.33748654  0.37461905  1
  In  In21  1  0.17286404  0.34155630  0.87439065  1
  In  In22  1  0.17598876  0.68217210  0.36503075  1
  In  In23  1  0.17236898  0.65408282  0.88240845  1
  In  In24  1  0.52277539  0.02379986  0.34216077  1
  In  In25  1  0.48489373  0.00527522  0.87565793  1
  In  In26  1  0.49773429  0.31207270  0.36809504  1
  In  In27  1  0.48966558  0.34664105  0.88437391  1
  In  In28  1  0.49246697  0.68216709  0.36403601  1
  In  In29  1  0.48524970  0.67251229  0.89487395  1
  In  In30  1  0.82528359  0.01090791  0.37885619  1
  In  In31  1  0.82967419  -0.00057143  0.88534414  1
  In  In32  1  0.83676249  0.33280547  0.37072128  1
  In  In33  1  0.83510172  0.33520075  0.87992623  1
  In  In34  1  0.84606516  0.65720123  0.37665711  1
  In  In35  1  0.84159752  0.66132184  0.88563075  1
  In  In36  1  -0.00803768  0.17404202  0.38029935  1
  In  In37  1  -0.01614163  0.17287299  0.87982269  1
  In  In38  1  -0.00282122  0.48787757  0.36336809  1
  In  In39  1  0.00295206  0.48789554  0.88293451  1
  In  In40  1  0.00973268  0.82786007  0.37726405  1
  In  In41  1  -0.00215050  0.82631355  0.87892873  1
  In  In42  1  0.34256404  0.15489426  0.38349240  1
  In  In43  1  0.32995735  0.16522045  0.86849332  1
  In  In44  1  0.32442651  0.50652284  0.37113592  1
  In  In45  1  0.32904212  0.49972479  0.88111705  1
  In  In46  1  0.33663878  0.83580146  0.36626148  1
  In  In47  1  0.33734467  0.83848250  0.87623264  1
  In  In48  1  0.67151279  0.17145157  0.36721651  1
  In  In49  1  0.67072357  0.17626478  0.87623727  1
  In  In50  1  0.68589922  0.50159863  0.37030286  1
  In  In51  1  0.66677176  0.50119621  0.88548486  1
  In  In52  1  0.66187072  0.85513936  0.36623570  1
  In  In53  1  0.67044859  0.82142623  0.88629299  1
  In  In54  1  0.18477403  0.01320329  0.13453705  1
  In  In55  1  0.17483300  0.00510581  0.61621073  1
  In  In56  1  0.16357302  0.33866957  0.12451172  1
  In  In57  1  0.17272769  0.32697070  0.63238858  1
  In  In58  1  0.17681961  0.64890275  0.12331212  1
  In  In59  1  0.16818135  0.67669333  0.62392573  1
  In  In60  1  0.51030091  -0.01299649  0.14413687  1
  In  In61  1  0.48662655  -0.00218670  0.62335197  1
  In  In62  1  0.49470328  0.34462919  0.12536515  1
  In  In63  1  0.50279986  0.32365568  0.62446393  1
  In  In64  1  0.48807854  0.66093347  0.11680726  1
  In  In65  1  0.49659208  0.65807498  0.62711483  1
  In  In66  1  0.82431475  -0.00469404  0.12668298  1
  In  In67  1  0.83454503  0.00192467  0.61420406  1
  In  In68  1  0.83952378  0.32787583  0.11989283  1
  In  In69  1  0.84093388  0.33963696  0.61873240  1
  In  In70  1  0.83847142  0.67121777  0.12515517  1
  In  In71  1  0.83855090  0.66458090  0.61726800  1
  In  In72  1  0.33011657  0.33156521  0.24548577  1
  In  In73  1  0.00860760  0.65910783  0.75861470  1
  In  In74  1  0.50815831  0.49560048  0.50268652  1
  In  In75  1  0.16273041  0.17254243  0.00926171  1
  In  In76  1  0.16198564  0.50212873  0.49986974  1
  In  In77  1  0.65971533  -0.00311076  0.74635514  1
  In  In78  1  0.50216220  0.84142061  0.49044582  1
  In  In79  1  0.65671556  0.33379463  0.75794423  1
  In  In80  1  0.00051702  0.00100197  0.25819060  1
  In  In81  1  0.66528486  0.66260483  0.74680749  1
  In  In82  1  0.00825973  0.00541198  0.74340960  1
  In  In83  1  0.16171147  0.83186570  -0.00026621  1
  In  In84  1  0.66489108  0.66319787  0.24435876  1
  In  In85  1  0.50196689  0.16990221  0.00190619  1
  Cu  Cu86  1  0.16525887  0.50731704  0.24500627  1
  Cu  Cu87  1  0.84135558  0.48821966  0.24592224  1
  Cu  Cu88  1  0.66571119  0.66764447  0.01012613  1
  Cu  Cu89  1  0.67799875  0.32550618  0.00430436  1
  Cu  Cu90  1  0.33790562  -0.00466236  0.00367322  1
  Cu  Cu91  1  0.66726628  0.00656722  0.48976620  1
  Cu  Cu92  1  -0.00704809  0.00654953  0.01033062  1
  Cu  Cu93  1  0.33509067  0.00160129  0.49916427  1
  Cu  Cu94  1  0.16199743  0.82849492  0.24932973  1
  Cu  Cu95  1  0.49360895  0.83241729  0.75811505  1
  Cu  Cu96  1  0.83719108  0.17127305  0.25136111  1
  Cu  Cu97  1  0.49621341  0.50107713  0.24120184  1
  Cu  Cu98  1  -0.00196410  -0.00328512  0.49407199  1
  Cu  Cu99  1  0.82655710  0.83236251  0.24967918  1
  Cu  Cu100  1  0.16570581  0.16995800  0.74528899  1
  Cu  Cu101  1  0.83109379  0.17450465  0.74932433  1
  Cu  Cu102  1  0.66416911  -0.00184145  0.00934397  1
  Cu  Cu103  1  0.48574871  0.16581340  0.74582521  1
  Cu  Cu104  1  0.33196824  0.32304973  0.50336586  1
  Cu  Cu105  1  0.48954234  0.50565297  0.76071203  1
  Cu  Cu106  1  -0.01179878  0.67159410  0.00459281  1
  Cu  Cu107  1  0.00479792  0.66435254  0.49575117  1
  Cu  Cu108  1  -0.00685764  0.33247738  0.49711637  1
  Cu  Cu109  1  0.67090993  0.33000951  0.49202020  1
  Cu  Cu110  1  0.16769407  0.49673127  0.75881260  1
  Cu  Cu111  1  0.18191242  0.83349336  0.74833232  1
  Cu  Cu112  1  0.33597183  0.67289302  0.49354147  1
  Cu  Cu113  1  0.68009710  0.66997904  0.49429969  1
  Cu  Cu114  1  0.84349080  0.82919887  0.75079251  1
  Se  Se115  1  0.07682583  0.07940776  0.07044438  1
  Se  Se116  1  0.07915415  0.07855327  0.55275883  1
  Se  Se117  1  0.08821394  0.41289857  0.04919861  1
  Se  Se118  1  0.07608963  0.40977650  0.56034938  1
  Se  Se119  1  0.07367145  0.74728900  0.06469819  1
  Se  Se120  1  0.09111171  0.74793115  0.54682420  1
  Se  Se121  1  0.41754146  0.07717905  0.06300140  1
  Se  Se122  1  0.41895503  0.08614967  0.55212958  1
  Se  Se123  1  0.42371591  0.41201607  0.04481823  1
  Se  Se124  1  0.40698657  0.41362658  0.56077687  1
  Se  Se125  1  0.41210315  0.75375120  0.05181819  1
  Se  Se126  1  0.41883877  0.74837249  0.55643209  1
  Se  Se127  1  0.74693522  0.08489787  0.05872197  1
  Se  Se128  1  0.75117011  0.08559588  0.54753937  1
  Se  Se129  1  0.75553443  0.41702254  0.05463303  1
  Se  Se130  1  0.75042519  0.41480230  0.54905401  1
  Se  Se131  1  0.75069830  0.75332955  0.05949458  1
  Se  Se132  1  0.76116140  0.75355413  0.54936140  1
  Se  Se133  1  0.26511111  0.25523397  0.06234541  1
  Se  Se134  1  0.24264716  0.24601557  0.55561856  1
  Se  Se135  1  0.23963696  0.57742352  0.03987352  1
  Se  Se136  1  0.26192077  0.58960277  0.55621440  1
  Se  Se137  1  0.25039679  0.92080111  0.06093525  1
  Se  Se138  1  0.25600953  0.91306832  0.55270451  1
  Se  Se139  1  0.59339691  0.25175764  0.06589540  1
  Se  Se140  1  0.58063420  0.25451944  0.54617752  1
  Se  Se141  1  0.58202064  0.57887811  0.05648776  1
  Se  Se142  1  0.59985560  0.59373762  0.55837081  1
  Se  Se143  1  0.57672764  0.91765424  0.05990725  1
  Se  Se144  1  0.59352222  0.92730798  0.55785367  1
  Se  Se145  1  0.92072101  0.24387663  0.05084927  1
  Se  Se146  1  0.91199124  0.24639383  0.55108591  1
  Se  Se147  1  0.91217497  0.58108541  0.05669636  1
  Se  Se148  1  0.92469938  0.58101529  0.55219451  1
  Se  Se149  1  0.90975680  0.91635864  0.05620350  1
  Se  Se150  1  0.91523933  0.91342629  0.54948898  1
  Se  Se151  1  0.08305025  0.25216455  0.44823933  1
  Se  Se152  1  0.07913369  0.25599914  0.94113476  1
  Se  Se153  1  0.08265121  0.58811909  0.43066764  1
  Se  Se154  1  0.06776310  0.59427525  0.94401226  1
  Se  Se155  1  0.08645106  0.91376220  0.44684941  1
  Se  Se156  1  0.07122341  0.93144487  0.94408954  1
  Se  Se157  1  0.42071462  0.24756312  0.44923452  1
  Se  Se158  1  0.40213777  0.25197941  0.94457791  1
  Se  Se159  1  0.41876356  0.58815379  0.44027961  1
  Se  Se160  1  0.43070869  0.55883230  0.94950091  1
  Se  Se161  1  0.41564119  0.93196294  0.43227998  1
  Se  Se162  1  0.42146430  0.91536476  0.94865718  1
  Se  Se163  1  0.75574600  0.24760642  0.43996011  1
  Se  Se164  1  0.75770103  0.24331656  0.94791416  1
  Se  Se165  1  0.75946160  0.57850757  0.44660681  1
  Se  Se166  1  0.74770996  0.58839701  0.95133006  1
  Se  Se167  1  0.74844301  0.91502308  0.44347937  1
  Se  Se168  1  0.74612355  0.91575016  0.95065745  1
  Se  Se169  1  0.24655439  0.08620180  0.45144323  1
  Se  Se170  1  0.25415563  0.07755138  0.94665829  1
  Se  Se171  1  0.25764959  0.41034466  0.44414993  1
  Se  Se172  1  0.23268945  0.43160180  0.94971756  1
  Se  Se173  1  0.25499274  0.75651682  0.44056428  1
  Se  Se174  1  0.25881732  0.74463989  0.94581669  1
  Se  Se175  1  0.58393362  0.08370659  0.43219109  1
  Se  Se176  1  0.59172383  0.07566251  0.94041399  1
  Se  Se177  1  0.58986641  0.41212441  0.43321151  1
  Se  Se178  1  0.59266310  0.40561948  0.94915958  1
  Se  Se179  1  0.59343657  0.74387811  0.43570753  1
  Se  Se180  1  0.58124969  0.75080644  0.95587015  1
  Se  Se181  1  0.91413330  0.08533318  0.44753766  1
  Se  Se182  1  0.91238988  0.08509304  0.95068176  1
  Se  Se183  1  0.91716179  0.41947382  0.44106633  1
  Se  Se184  1  0.90162615  0.42838758  0.94919685  1
  Se  Se185  1  0.91983866  0.74897689  0.44437210  1
  Se  Se186  1  0.90983659  0.76031062  0.95148582  1
  Se  Se187  1  0.25401129  0.25293780  0.32110301  1
  Se  Se188  1  0.24660115  0.25112537  0.80425464  1
  Se  Se189  1  0.25108972  0.58818577  0.29892986  1
  Se  Se190  1  0.25190380  0.58384883  0.80642861  1
  Se  Se191  1  0.24125403  0.91467043  0.30344056  1
  Se  Se192  1  0.25902923  0.92067039  0.80267027  1
  Se  Se193  1  0.59203154  0.25551944  0.29740864  1
  Se  Se194  1  0.56277975  0.24020909  0.81293510  1
  Se  Se195  1  0.57519021  0.57490905  0.30907052  1
  Se  Se196  1  0.57701347  0.58394460  0.81536396  1
  Se  Se197  1  0.55323696  0.89146911  0.29974876  1
  Se  Se198  1  0.58115190  0.90789628  0.81527904  1
  Se  Se199  1  0.92444631  0.25360345  0.30134039  1
  Se  Se200  1  0.91255207  0.25485697  0.80484474  1
  Se  Se201  1  0.91703792  0.57949796  0.29886681  1
  Se  Se202  1  0.90972772  0.57397195  0.81037540  1
  Se  Se203  1  0.90676300  0.90955151  0.31369783  1
  Se  Se204  1  0.91661378  0.91749822  0.80844590  1
  Se  Se205  1  0.08833739  0.09098782  0.31656174  1
  Se  Se206  1  0.08881345  0.09356882  0.81269333  1
  Se  Se207  1  0.08746416  0.41485135  0.29420436  1
  Se  Se208  1  0.07895874  0.41380152  0.80563882  1
  Se  Se209  1  0.07460126  0.74589255  0.29878168  1
  Se  Se210  1  0.09876903  0.75976205  0.81119470  1
  Se  Se211  1  0.40133068  0.08093687  0.29948069  1
  Se  Se212  1  0.40803469  0.07823824  0.79942549  1
  Se  Se213  1  0.42133494  0.42331488  0.30987791  1
  Se  Se214  1  0.40884571  0.41483651  0.80785841  1
  Se  Se215  1  0.40219482  0.74432723  0.29361979  1
  Se  Se216  1  0.41701711  0.74533205  0.81220081  1
  Se  Se217  1  0.75321663  0.08252786  0.29917730  1
  Se  Se218  1  0.75401548  0.08676459  0.80564257  1
  Se  Se219  1  0.75197257  0.41172530  0.29881442  1
  Se  Se220  1  0.75040852  0.42531965  0.80939063  1
  Se  Se221  1  0.75005772  0.74943040  0.31197055  1
  Se  Se222  1  0.75950844  0.75115825  0.80825093  1
  Se  Se223  1  0.24342283  0.09771700  0.21241694  1
  Se  Se224  1  0.24685984  0.08256810  0.69361750  1
  Se  Se225  1  0.25299682  0.43227358  0.18574070  1
  Se  Se226  1  0.24971862  0.41450034  0.70118789  1
  Se  Se227  1  0.24221775  0.74620435  0.19222643  1
  Se  Se228  1  0.25816584  0.74314697  0.69595533  1
  Se  Se229  1  0.58029545  0.08221527  0.20899144  1
  Se  Se230  1  0.57645122  0.09477474  0.68764002  1
  Se  Se231  1  0.58328035  0.41338896  0.19859189  1
  Se  Se232  1  0.56915112  0.42890205  0.69527500  1
  Se  Se233  1  0.57210603  0.74982727  0.18745063  1
  Se  Se234  1  0.57479836  0.76211653  0.69140913  1
  Se  Se235  1  0.91635494  0.08789153  0.19081394  1
  Se  Se236  1  0.90844339  0.09146852  0.68911264  1
  Se  Se237  1  0.92499029  0.40886222  0.18981094  1
  Se  Se238  1  0.91059654  0.41007574  0.69898164  1
  Se  Se239  1  0.91354955  0.74816383  0.20264801  1
  Se  Se240  1  0.92350092  0.75058177  0.69116440  1
  Se  Se241  1  0.11275564  0.23851297  0.19662980  1
  Se  Se242  1  0.07663543  0.25169962  0.69690612  1
  Se  Se243  1  0.07743763  0.58422041  0.19000263  1
  Se  Se244  1  0.09355469  0.57323512  0.68939327  1
  Se  Se245  1  0.08763506  0.91556731  0.18981374  1
  Se  Se246  1  0.09359792  0.90585975  0.68859646  1
  Se  Se247  1  0.42746715  0.24181066  0.19244593  1
  Se  Se248  1  0.40969857  0.25402559  0.69191767  1
  Se  Se249  1  0.40895123  0.57701593  0.18730509  1
  Se  Se250  1  0.41358349  0.59078579  0.70210642  1
  Se  Se251  1  0.38402158  0.94210842  0.18860062  1
  Se  Se252  1  0.41796613  0.91808499  0.70014074  1
  Se  Se253  1  0.75513496  0.25122183  0.19368049  1
  Se  Se254  1  0.74439113  0.24884407  0.69046298  1
  Se  Se255  1  0.75699965  0.57035759  0.18895265  1
  Se  Se256  1  0.76142462  0.57528568  0.69111296  1
  Se  Se257  1  0.74346707  0.91859506  0.20066727  1
  Se  Se258  1  0.76108123  0.90877448  0.69202156  1
