# generated using pymatgen
data_In86Cu29Se144
_symmetry_space_group_name_H-M   'P 1'
_cell_length_a   17.58198251
_cell_length_b   17.58120523
_cell_length_c   23.43461428
_cell_angle_alpha   90.02696482
_cell_angle_beta   90.02046314
_cell_angle_gamma   89.99895264
_symmetry_Int_Tables_number   1
_chemical_formula_structural   In86Cu29Se144
_chemical_formula_sum   'In86 Cu29 Se144'
_cell_volume   7243.92960055
_cell_formula_units_Z   1
loop_
 _symmetry_equiv_pos_site_id
 _symmetry_equiv_pos_as_xyz
  1  'x, y, z'
loop_
 _atom_site_type_symbol
 _atom_site_label
 _atom_site_symmetry_multiplicity
 _atom_site_fract_x
 _atom_site_fract_y
 _atom_site_fract_z
 _atom_site_occupancy
  In  In0  1  -0.00080661  0.16588160  0.13345637  1
  In  In1  1  0.01098764  0.16120065  0.61835401  1
  In  In2  1  -0.01702786  0.49679557  0.12681094  1
  In  In3  1  0.00523790  0.50041094  0.61766042  1
  In  In4  1  0.02278351  0.83577397  0.13105919  1
  In  In5  1  -0.01629211  0.83191833  0.62807953  1
  In  In6  1  0.33409942  0.16317025  0.11680033  1
  In  In7  1  0.32428841  0.17087687  0.63204377  1
  In  In8  1  0.33945411  0.49918252  0.13747689  1
  In  In9  1  0.32283839  0.49009787  0.61316129  1
  In  In10  1  0.32539678  0.83544863  0.13118090  1
  In  In11  1  0.34378110  0.82990905  0.62459304  1
  In  In12  1  0.67170600  0.17608453  0.11757545  1
  In  In13  1  0.65401811  0.16303529  0.62976822  1
  In  In14  1  0.67692016  0.49038922  0.13564236  1
  In  In15  1  0.66746817  0.50727264  0.61639521  1
  In  In16  1  0.65366314  0.83143470  0.12504867  1
  In  In17  1  0.66170614  0.83996374  0.62991541  1
  In  In18  1  0.17905669  0.00756670  0.36375529  1
  In  In19  1  0.17738335  -0.00065367  0.88941915  1
  In  In20  1  0.16882049  0.33069934  0.37221579  1
  In  In21  1  0.16832914  0.31765595  0.87873214  1
  In  In22  1  0.15954073  0.65042253  0.37389598  1
  In  In23  1  0.17152953  0.68068748  0.87533315  1
  In  In24  1  0.48619300  0.00427753  0.37251589  1
  In  In25  1  0.49898343  0.00078720  0.88012968  1
  In  In26  1  0.51008573  0.34131776  0.36310118  1
  In  In27  1  0.48676281  0.33801703  0.87265708  1
  In  In28  1  0.50156044  0.66861336  0.37515589  1
  In  In29  1  0.50577649  0.67880771  0.87885686  1
  In  In30  1  0.83900863  -0.00917275  0.36117503  1
  In  In31  1  0.83342752  0.01411710  0.87828586  1
  In  In32  1  0.85007702  0.34788570  0.35989647  1
  In  In33  1  0.83420339  0.33675692  0.88445070  1
  In  In34  1  0.82305989  0.66138596  0.36734808  1
  In  In35  1  0.83058974  0.65178604  0.88181988  1
  In  In36  1  0.01909980  0.19097363  0.35766794  1
  In  In37  1  0.00302299  0.16612108  0.88809761  1
  In  In38  1  0.01563910  0.47606310  0.39453867  1
  In  In39  1  -0.01477220  0.50067260  0.87121372  1
  In  In40  1  -0.00934164  0.83765074  0.35984056  1
  In  In41  1  0.01464821  0.83588374  0.87788776  1
  In  In42  1  0.32560457  0.15842975  0.36344792  1
  In  In43  1  0.33484225  0.16528682  0.88030582  1
  In  In44  1  0.33496007  0.50006646  0.37201073  1
  In  In45  1  0.34465484  0.49517837  0.86918633  1
  In  In46  1  0.33963550  0.84740378  0.36368122  1
  In  In47  1  0.32085410  0.85438064  0.89667312  1
  In  In48  1  0.65364680  0.16976536  0.36842020  1
  In  In49  1  0.67656470  0.16068334  0.88365789  1
  In  In50  1  0.66667053  0.50288471  0.37549374  1
  In  In51  1  0.67847201  0.51030233  0.87648103  1
  In  In52  1  0.66959574  0.81614454  0.36857518  1
  In  In53  1  0.63693703  0.83220881  0.88685281  1
  In  In54  1  0.17128169  -0.00287598  0.12680840  1
  In  In55  1  0.16539526  0.01434373  0.62251183  1
  In  In56  1  0.18032179  0.32023002  0.13610919  1
  In  In57  1  0.17333500  0.33994145  0.61280301  1
  In  In58  1  0.17209420  0.68344660  0.12983522  1
  In  In59  1  0.16717979  0.65101768  0.62247230  1
  In  In60  1  0.48048425  -0.00890808  0.10764305  1
  In  In61  1  0.49998595  -0.00964113  0.63037979  1
  In  In62  1  0.50886500  0.33030177  0.12861139  1
  In  In63  1  0.48576125  0.32797202  0.62126131  1
  In  In64  1  0.49550503  0.67213543  0.13360256  1
  In  In65  1  0.50126572  0.67029659  0.61322754  1
  In  In66  1  0.83440447  0.01961415  0.13058931  1
  In  In67  1  0.82768128  -0.00990451  0.62818103  1
  In  In68  1  0.83024376  0.32613749  0.13413315  1
  In  In69  1  0.83469247  0.34048946  0.61720750  1
  In  In70  1  0.83346089  0.65044181  0.12454927  1
  In  In71  1  0.84204658  0.66365991  0.63028252  1
  In  In72  1  0.83294442  0.83725507  0.01061762  1
  In  In73  1  0.16038893  0.50111099  0.00476046  1
  In  In74  1  0.66154690  0.00334952  0.23628051  1
  In  In75  1  0.50759938  0.50211995  -0.00211739  1
  In  In76  1  0.83659793  0.16985264  0.48980763  1
  In  In77  1  0.66384740  0.33074738  0.75869018  1
  In  In78  1  0.83049636  0.82899516  0.49918098  1
  In  In79  1  0.16847696  0.82823881  0.49301989  1
  In  In80  1  0.00058786  0.00068468  0.74908365  1
  In  In81  1  -0.00132652  0.66271848  0.24830059  1
  In  In82  1  0.49220605  0.16904660  0.49942906  1
  In  In83  1  0.66759252  0.67118186  0.75518247  1
  In  In84  1  0.33293388  0.66342393  0.74826492  1
  In  In85  1  0.00342468  0.33428571  0.74283821  1
  Cu  Cu86  1  0.83362502  0.49660432  0.25480137  1
  Cu  Cu87  1  0.83097893  0.17107902  0.75549880  1
  Cu  Cu88  1  0.00573262  0.00782847  0.00643398  1
  Cu  Cu89  1  -0.00528101  0.33080846  0.00834378  1
  Cu  Cu90  1  0.66500589  0.00244604  0.00419355  1
  Cu  Cu91  1  0.49002004  0.84209463  0.75736851  1
  Cu  Cu92  1  -0.00418003  0.66329391  0.50034848  1
  Cu  Cu93  1  0.17807579  0.16251366  0.75505982  1
  Cu  Cu94  1  0.00882871  0.00771964  0.49052095  1
  Cu  Cu95  1  0.16465318  0.49302958  0.74075188  1
  Cu  Cu96  1  0.49134576  0.16674653  0.24111471  1
  Cu  Cu97  1  0.50258695  0.50752679  0.25430527  1
  Cu  Cu98  1  0.66807389  0.34373266  0.49262830  1
  Cu  Cu99  1  0.33296401  0.33390401  0.49337630  1
  Cu  Cu100  1  0.16747058  0.83528507  0.75768672  1
  Cu  Cu101  1  0.33799860  0.66512700  0.49443078  1
  Cu  Cu102  1  0.67213394  0.33381837  0.00672344  1
  Cu  Cu103  1  0.66273760  0.66465477  0.49449070  1
  Cu  Cu104  1  0.49735435  0.49437427  0.74348975  1
  Cu  Cu105  1  0.49388913  0.15327337  0.75288801  1
  Cu  Cu106  1  0.33477227  0.67583377  0.00709893  1
  Cu  Cu107  1  0.50109445  0.83475200  0.24713359  1
  Cu  Cu108  1  0.33320972  0.32989838  0.00165538  1
  Cu  Cu109  1  0.66668189  -0.00563802  0.50472839  1
  Cu  Cu110  1  0.16793794  0.16914241  0.24481169  1
  Cu  Cu111  1  0.00065976  0.66911326  0.00642169  1
  Cu  Cu112  1  0.33109344  -0.00004280  0.49279549  1
  Cu  Cu113  1  0.16552549  0.49748103  0.25356739  1
  Cu  Cu114  1  0.82542997  0.83144966  0.75336453  1
  Se  Se115  1  0.08608808  0.08841096  0.06357227  1
  Se  Se116  1  0.09257473  0.08843779  0.54401341  1
  Se  Se117  1  0.07944876  0.40813636  0.06765543  1
  Se  Se118  1  0.07852601  0.41156085  0.55038348  1
  Se  Se119  1  0.08860491  0.75191359  0.05366708  1
  Se  Se120  1  0.07342778  0.74818352  0.55997742  1
  Se  Se121  1  0.41581244  0.08968168  0.04252637  1
  Se  Se122  1  0.40848850  0.07563963  0.56035564  1
  Se  Se123  1  0.41221010  0.41600655  0.05761258  1
  Se  Se124  1  0.41788715  0.41491513  0.54823187  1
  Se  Se125  1  0.41740053  0.75454568  0.06303036  1
  Se  Se126  1  0.41611795  0.75383126  0.54741044  1
  Se  Se127  1  0.75255769  0.08534956  0.05265879  1
  Se  Se128  1  0.74592461  0.08137138  0.55886725  1
  Se  Se129  1  0.75574794  0.41463850  0.06081645  1
  Se  Se130  1  0.75067635  0.42171581  0.55035923  1
  Se  Se131  1  0.74350582  0.74033602  0.06155501  1
  Se  Se132  1  0.73983531  0.74113911  0.56264925  1
  Se  Se133  1  0.24491101  0.25046573  0.05213691  1
  Se  Se134  1  0.25707287  0.24753433  0.55162417  1
  Se  Se135  1  0.25853839  0.58556935  0.06257306  1
  Se  Se136  1  0.25059429  0.58466089  0.54689735  1
  Se  Se137  1  0.25156869  0.91552495  0.05619029  1
  Se  Se138  1  0.25313100  0.92004028  0.55693735  1
  Se  Se139  1  0.57911991  0.25236088  0.05028152  1
  Se  Se140  1  0.59249449  0.25893988  0.55408491  1
  Se  Se141  1  0.58682599  0.58086746  0.07040448  1
  Se  Se142  1  0.57834256  0.58053428  0.54749746  1
  Se  Se143  1  0.58262921  0.91330610  0.05081065  1
  Se  Se144  1  0.58011510  0.91315486  0.55574695  1
  Se  Se145  1  0.91410701  0.24644128  0.06252128  1
  Se  Se146  1  0.92631790  0.25372317  0.55537948  1
  Se  Se147  1  0.91632607  0.57912971  0.04938118  1
  Se  Se148  1  0.91149137  0.58270068  0.55468298  1
  Se  Se149  1  0.92742386  0.92581657  0.06723215  1
  Se  Se150  1  0.92534249  0.92993980  0.55143373  1
  Se  Se151  1  0.08221297  0.25470772  0.44267676  1
  Se  Se152  1  0.08308657  0.25315229  0.95447457  1
  Se  Se153  1  0.08622978  0.58039463  0.45381319  1
  Se  Se154  1  0.07777954  0.59131298  0.93942328  1
  Se  Se155  1  0.07936930  0.91769080  0.43241130  1
  Se  Se156  1  0.08304591  0.91981788  0.95184675  1
  Se  Se157  1  0.41187048  0.25472048  0.43095858  1
  Se  Se158  1  0.42045634  0.25294419  0.94667835  1
  Se  Se159  1  0.42039022  0.58073616  0.44179425  1
  Se  Se160  1  0.40698323  0.59312011  0.94275648  1
  Se  Se161  1  0.41696240  0.91557750  0.44466773  1
  Se  Se162  1  0.44324033  0.89529955  0.94652208  1
  Se  Se163  1  0.74037374  0.25650579  0.43393330  1
  Se  Se164  1  0.75461715  0.25003342  0.95038062  1
  Se  Se165  1  0.75229230  0.58469154  0.44535373  1
  Se  Se166  1  0.74929259  0.58026679  0.95533035  1
  Se  Se167  1  0.74540097  0.92224544  0.43829199  1
  Se  Se168  1  0.74569619  0.92133035  0.94229231  1
  Se  Se169  1  0.24951230  0.08589690  0.44219370  1
  Se  Se170  1  0.23996364  0.10172529  0.95080224  1
  Se  Se171  1  0.24994699  0.41833104  0.44087637  1
  Se  Se172  1  0.25652798  0.41672237  0.94221702  1
  Se  Se173  1  0.25830633  0.74245917  0.43161806  1
  Se  Se174  1  0.24486988  0.75250661  0.95388105  1
  Se  Se175  1  0.58706993  0.07539034  0.44439773  1
  Se  Se176  1  0.58333320  0.08557764  0.94825199  1
  Se  Se177  1  0.57715608  0.42078691  0.44202674  1
  Se  Se178  1  0.59548059  0.40760133  0.93709568  1
  Se  Se179  1  0.58372018  0.75485042  0.44526187  1
  Se  Se180  1  0.59473426  0.72794752  0.95656273  1
  Se  Se181  1  0.92229648  0.07790623  0.42993605  1
  Se  Se182  1  0.91563773  0.08442990  0.95328649  1
  Se  Se183  1  0.90576681  0.41215628  0.44857168  1
  Se  Se184  1  0.92190485  0.41818885  0.94988259  1
  Se  Se185  1  0.92375035  0.74531114  0.43724464  1
  Se  Se186  1  0.92208085  0.75110642  0.94436437  1
  Se  Se187  1  0.25190992  0.25331281  0.29910565  1
  Se  Se188  1  0.25693356  0.25131123  0.80652341  1
  Se  Se189  1  0.24980793  0.58300092  0.30276898  1
  Se  Se190  1  0.23995631  0.57277668  0.80786430  1
  Se  Se191  1  0.24494062  0.91313404  0.29578616  1
  Se  Se192  1  0.24798385  0.91785107  0.81228123  1
  Se  Se193  1  0.57856668  0.24718355  0.29361175  1
  Se  Se194  1  0.57303623  0.23674965  0.81309722  1
  Se  Se195  1  0.58910085  0.59020796  0.30588205  1
  Se  Se196  1  0.57182342  0.57411335  0.80806294  1
  Se  Se197  1  0.58068234  0.91666761  0.30886742  1
  Se  Se198  1  0.58270846  0.91800379  0.80761602  1
  Se  Se199  1  0.90023624  0.23437682  0.30231261  1
  Se  Se200  1  0.91728725  0.24674023  0.81170860  1
  Se  Se201  1  0.92231977  0.56992200  0.31544491  1
  Se  Se202  1  0.91491008  0.59210653  0.80452736  1
  Se  Se203  1  0.92214832  0.92213010  0.28718222  1
  Se  Se204  1  0.91035024  0.91231576  0.81226376  1
  Se  Se205  1  0.08574576  0.08465436  0.29939494  1
  Se  Se206  1  0.08782444  0.08803696  0.81233105  1
  Se  Se207  1  0.08013766  0.41599891  0.30596158  1
  Se  Se208  1  0.09078393  0.41882945  0.81145304  1
  Se  Se209  1  0.09194211  0.75215614  0.30626024  1
  Se  Se210  1  0.08144513  0.74849188  0.80304175  1
  Se  Se211  1  0.41364784  0.07941705  0.29537055  1
  Se  Se212  1  0.41066575  0.07626078  0.81033320  1
  Se  Se213  1  0.41611330  0.41873209  0.30021226  1
  Se  Se214  1  0.41187048  0.41118561  0.79377702  1
  Se  Se215  1  0.42081093  0.75225093  0.30423158  1
  Se  Se216  1  0.41046654  0.75634702  0.81409328  1
  Se  Se217  1  0.74619420  0.08581417  0.30579111  1
  Se  Se218  1  0.74801975  0.08391001  0.80389605  1
  Se  Se219  1  0.74229132  0.41579396  0.30391566  1
  Se  Se220  1  0.76198581  0.42321746  0.80665432  1
  Se  Se221  1  0.77378651  0.76725025  0.30184619  1
  Se  Se222  1  0.74957178  0.75980930  0.82211212  1
  Se  Se223  1  0.25360319  0.08806793  0.19216193  1
  Se  Se224  1  0.25308491  0.07468107  0.69892764  1
  Se  Se225  1  0.25258591  0.41575275  0.20141184  1
  Se  Se226  1  0.25183089  0.41141174  0.69106914  1
  Se  Se227  1  0.26004670  0.74307825  0.20362558  1
  Se  Se228  1  0.23973606  0.75490248  0.68971512  1
  Se  Se229  1  0.56885263  0.08851123  0.17673568  1
  Se  Se230  1  0.58205031  0.07577569  0.69896492  1
  Se  Se231  1  0.58019385  0.41880321  0.19995110  1
  Se  Se232  1  0.58206839  0.41610274  0.68661480  1
  Se  Se233  1  0.58802173  0.74797010  0.20213993  1
  Se  Se234  1  0.56717743  0.75574779  0.69676291  1
  Se  Se235  1  0.91706152  0.08646496  0.20547071  1
  Se  Se236  1  0.90925725  0.09384546  0.68938793  1
  Se  Se237  1  0.91633657  0.41228500  0.20170602  1
  Se  Se238  1  0.90891971  0.42579540  0.69133781  1
  Se  Se239  1  0.91544313  0.75204669  0.18365531  1
  Se  Se240  1  0.91307208  0.75071433  0.70300088  1
  Se  Se241  1  0.07883489  0.25663373  0.20104421  1
  Se  Se242  1  0.09740356  0.23949012  0.69108680  1
  Se  Se243  1  0.09068884  0.57417126  0.18589597  1
  Se  Se244  1  0.08024929  0.58065119  0.69421222  1
  Se  Se245  1  0.09657762  0.91595052  0.20322755  1
  Se  Se246  1  0.09035708  0.90879367  0.68819016  1
  Se  Se247  1  0.41052535  0.25281765  0.18786721  1
  Se  Se248  1  0.42043878  0.24376245  0.69719273  1
  Se  Se249  1  0.41510162  0.58943000  0.20384930  1
  Se  Se250  1  0.42078754  0.57779072  0.68319905  1
  Se  Se251  1  0.42013294  0.91944609  0.19336167  1
  Se  Se252  1  0.40646222  0.91871861  0.69921625  1
  Se  Se253  1  0.73455893  0.25184378  0.19820432  1
  Se  Se254  1  0.75525916  0.24771136  0.68950522  1
  Se  Se255  1  0.75279165  0.58390641  0.20310466  1
  Se  Se256  1  0.75165387  0.57634607  0.69587591  1
  Se  Se257  1  0.75636370  0.91018757  0.18484409  1
  Se  Se258  1  0.74483526  0.91756921  0.70128829  1
