# generated using pymatgen
data_In86Cu29Se144
_symmetry_space_group_name_H-M   'P 1'
_cell_length_a   17.58280866
_cell_length_b   17.58556213
_cell_length_c   23.45369047
_cell_angle_alpha   90.02922300
_cell_angle_beta   90.01583319
_cell_angle_gamma   90.01419459
_symmetry_Int_Tables_number   1
_chemical_formula_structural   In86Cu29Se144
_chemical_formula_sum   'In86 Cu29 Se144'
_cell_volume   7251.96347401
_cell_formula_units_Z   1
loop_
 _symmetry_equiv_pos_site_id
 _symmetry_equiv_pos_as_xyz
  1  'x, y, z'
loop_
 _atom_site_type_symbol
 _atom_site_label
 _atom_site_symmetry_multiplicity
 _atom_site_fract_x
 _atom_site_fract_y
 _atom_site_fract_z
 _atom_site_occupancy
  In  In0  1  0.01371138  0.17011168  0.12055342  1
  In  In1  1  -0.01588695  0.14739818  0.61573418  1
  In  In2  1  0.00010021  0.49945490  0.13080614  1
  In  In3  1  -0.01034418  0.50140850  0.62473949  1
  In  In4  1  -0.00935656  0.83093571  0.12759615  1
  In  In5  1  0.01498222  0.84904861  0.60949199  1
  In  In6  1  0.33912163  0.17318579  0.11983907  1
  In  In7  1  0.32820701  0.17279253  0.62835223  1
  In  In8  1  0.31991072  0.50891211  0.12785577  1
  In  In9  1  0.33166958  0.48468277  0.62737676  1
  In  In10  1  0.33799723  0.81303913  0.12299787  1
  In  In11  1  0.32986754  0.84395033  0.63020107  1
  In  In12  1  0.65809649  0.17715035  0.13110982  1
  In  In13  1  0.66610610  0.15650837  0.62574646  1
  In  In14  1  0.67291144  0.49771573  0.12998825  1
  In  In15  1  0.67425379  0.51649762  0.62327704  1
  In  In16  1  0.65123420  0.84547900  0.14205024  1
  In  In17  1  0.67244086  0.82720295  0.62766612  1
  In  In18  1  0.15742344  0.00691316  0.38589414  1
  In  In19  1  0.18612673  0.01035430  0.85851074  1
  In  In20  1  0.16076821  0.32689057  0.36798458  1
  In  In21  1  0.17353543  0.32354505  0.88272873  1
  In  In22  1  0.16806631  0.66711672  0.37365182  1
  In  In23  1  0.15820820  0.66808165  0.88277752  1
  In  In24  1  0.51210490  -0.01527212  0.37104662  1
  In  In25  1  0.49967914  0.00205579  0.87570671  1
  In  In26  1  0.51306402  0.34356297  0.36537571  1
  In  In27  1  0.48178507  0.33651273  0.87733909  1
  In  In28  1  0.48817405  0.66151793  0.36185399  1
  In  In29  1  0.51846376  0.66523429  0.88100551  1
  In  In30  1  0.82755528  0.00425294  0.38194773  1
  In  In31  1  0.82715644  0.00015983  0.85471852  1
  In  In32  1  0.82415396  0.32380810  0.37222554  1
  In  In33  1  0.84304070  0.33770025  0.87688288  1
  In  In34  1  0.84085753  0.67376618  0.37223833  1
  In  In35  1  0.82614457  0.66652750  0.87708012  1
  In  In36  1  -0.00898413  0.17319832  0.38182051  1
  In  In37  1  0.01219628  0.17407448  0.87139323  1
  In  In38  1  0.00517973  0.50298173  0.36786140  1
  In  In39  1  0.00053741  0.50232922  0.88612687  1
  In  In40  1  0.00359153  0.82132098  0.38959897  1
  In  In41  1  -0.00727273  0.83378074  0.86967418  1
  In  In42  1  0.32072000  0.16426629  0.37401954  1
  In  In43  1  0.33158984  0.16735572  0.87574740  1
  In  In44  1  0.34606276  0.50611976  0.36661201  1
  In  In45  1  0.33587541  0.48734652  0.87709533  1
  In  In46  1  0.33604546  0.81743656  0.37399737  1
  In  In47  1  0.32829501  0.85013040  0.87606095  1
  In  In48  1  0.68211541  0.17839538  0.36931593  1
  In  In49  1  0.66671872  0.15107379  0.87282173  1
  In  In50  1  0.65097116  0.48581725  0.37066887  1
  In  In51  1  0.66831072  0.51411213  0.87761184  1
  In  In52  1  0.66813859  0.84211141  0.36329069  1
  In  In53  1  0.66368392  0.83125179  0.87155436  1
  In  In54  1  0.15878454  0.00735195  0.11811235  1
  In  In55  1  0.16303844  -0.00216966  0.62690676  1
  In  In56  1  0.16616684  0.33552740  0.12775738  1
  In  In57  1  0.18068990  0.33158560  0.62543172  1
  In  In58  1  0.18138395  0.65203921  0.13440047  1
  In  In59  1  0.15486967  0.67886670  0.61989780  1
  In  In60  1  0.50387191  0.00664687  0.11688788  1
  In  In61  1  0.50098844  -0.00089134  0.63577207  1
  In  In62  1  0.50421032  0.32702322  0.12934497  1
  In  In63  1  0.49087148  0.32832325  0.62182715  1
  In  In64  1  0.48634769  0.68181879  0.13803653  1
  In  In65  1  0.51588295  0.67145314  0.62369130  1
  In  In66  1  0.82802985  -0.01160859  0.12355793  1
  In  In67  1  0.83504532  0.00147035  0.62660123  1
  In  In68  1  0.82087732  0.34641658  0.13417440  1
  In  In69  1  0.84028601  0.33250247  0.62051103  1
  In  In70  1  0.83800620  0.66205132  0.13544538  1
  In  In71  1  0.81817267  0.66639960  0.62207686  1
  In  In72  1  0.49903867  0.82943808  0.49694344  1
  In  In73  1  0.16984133  0.83483188  -0.00096099  1
  In  In74  1  -0.00486781  0.67171185  0.74965658  1
  In  In75  1  0.49711027  0.50307575  0.00552143  1
  In  In76  1  0.83151385  0.82941434  -0.00346330  1
  In  In77  1  0.83207551  0.50019345  0.49647941  1
  In  In78  1  0.33594589  -0.00422151  0.25212122  1
  In  In79  1  -0.00636255  0.00081598  0.24861668  1
  In  In80  1  0.33882606  0.66829927  0.75458165  1
  In  In81  1  0.17162489  0.50112084  0.49349217  1
  In  In82  1  0.83397138  0.17001149  -0.00473896  1
  In  In83  1  0.66594968  0.33325134  0.74827893  1
  In  In84  1  -0.00063462  0.32704992  0.74440712  1
  In  In85  1  0.50381724  0.16801001  0.49962164  1
  Cu  Cu86  1  0.16390261  0.49502204  0.75348221  1
  Cu  Cu87  1  0.67304377  0.66953484  0.00594959  1
  Cu  Cu88  1  0.00728797  0.00683259  -0.01038444  1
  Cu  Cu89  1  0.83349085  0.83623817  0.74367248  1
  Cu  Cu90  1  0.83324241  0.16538270  0.25449170  1
  Cu  Cu91  1  0.49240558  0.16827199  0.75184922  1
  Cu  Cu92  1  0.66284372  0.33437770  0.00700266  1
  Cu  Cu93  1  0.67209086  -0.00100349  0.49982364  1
  Cu  Cu94  1  -0.00199726  -0.00292288  0.50354740  1
  Cu  Cu95  1  0.50318590  0.16312338  0.24527438  1
  Cu  Cu96  1  0.00675233  0.65657458  0.01169044  1
  Cu  Cu97  1  0.33828099  0.33246859  0.49998912  1
  Cu  Cu98  1  0.50073243  0.49546566  0.24350980  1
  Cu  Cu99  1  0.33546031  0.00452250  -0.00503062  1
  Cu  Cu100  1  -0.00060076  0.34127333  0.00432535  1
  Cu  Cu101  1  0.66308459  0.66377888  0.49576937  1
  Cu  Cu102  1  0.32428404  0.33056835  0.00209125  1
  Cu  Cu103  1  0.16882722  0.16234870  0.74799324  1
  Cu  Cu104  1  0.32456526  -0.00025435  0.50429281  1
  Cu  Cu105  1  0.50566989  0.83659623  0.75257187  1
  Cu  Cu106  1  0.83353553  0.83112057  0.25277344  1
  Cu  Cu107  1  0.33404625  0.66208777  0.49446855  1
  Cu  Cu108  1  0.16702457  0.82840840  0.25554314  1
  Cu  Cu109  1  0.00711447  0.32995986  0.49814071  1
  Cu  Cu110  1  0.50226165  0.50114398  0.75467858  1
  Cu  Cu111  1  0.66116020  0.00117384  0.00028150  1
  Cu  Cu112  1  0.83500402  0.49883314  0.25614677  1
  Cu  Cu113  1  0.16601497  0.17414684  0.24745014  1
  Cu  Cu114  1  0.16806891  0.49828234  0.25081456  1
  Se  Se115  1  0.08675580  0.09018113  0.04470425  1
  Se  Se116  1  0.08631865  0.08136026  0.55317546  1
  Se  Se117  1  0.08451619  0.42090422  0.05927499  1
  Se  Se118  1  0.08054744  0.41396484  0.55963952  1
  Se  Se119  1  0.08295595  0.74731994  0.06499458  1
  Se  Se120  1  0.07664431  0.74639449  0.54450717  1
  Se  Se121  1  0.41733320  0.08778539  0.05070978  1
  Se  Se122  1  0.41429246  0.07576315  0.56007666  1
  Se  Se123  1  0.40749726  0.40925656  0.06275249  1
  Se  Se124  1  0.41782931  0.41910018  0.55217180  1
  Se  Se125  1  0.42534243  0.74682529  0.05101592  1
  Se  Se126  1  0.40825029  0.74345234  0.56104312  1
  Se  Se127  1  0.74548284  0.08036711  0.05858147  1
  Se  Se128  1  0.75169839  0.08331014  0.55446003  1
  Se  Se129  1  0.74946380  0.41899680  0.05382803  1
  Se  Se130  1  0.74286132  0.41193370  0.55785455  1
  Se  Se131  1  0.74887943  0.75197560  0.06807238  1
  Se  Se132  1  0.74312538  0.74968307  0.54926597  1
  Se  Se133  1  0.24220275  0.24692191  0.05670030  1
  Se  Se134  1  0.25294892  0.24948600  0.55094538  1
  Se  Se135  1  0.25270386  0.58993835  0.05145387  1
  Se  Se136  1  0.25635231  0.58825722  0.56238139  1
  Se  Se137  1  0.26023976  0.92478384  0.06120492  1
  Se  Se138  1  0.24561176  0.91230260  0.55599787  1
  Se  Se139  1  0.57893131  0.24710480  0.05323670  1
  Se  Se140  1  0.59410484  0.25724743  0.55896758  1
  Se  Se141  1  0.58895779  0.59009970  0.06408504  1
  Se  Se142  1  0.58171382  0.58176194  0.55098838  1
  Se  Se143  1  0.58699270  0.91236164  0.05549672  1
  Se  Se144  1  0.58539990  0.92229547  0.55841368  1
  Se  Se145  1  0.91629968  0.25832462  0.06201332  1
  Se  Se146  1  0.91970573  0.25057032  0.55126601  1
  Se  Se147  1  0.91393870  0.58131331  0.06145129  1
  Se  Se148  1  0.92092762  0.59395151  0.55476715  1
  Se  Se149  1  0.92843243  0.92602516  0.05047969  1
  Se  Se150  1  0.90768935  0.91617725  0.55245149  1
  Se  Se151  1  0.09013136  0.24650668  0.44494091  1
  Se  Se152  1  0.07794311  0.25334630  0.95015830  1
  Se  Se153  1  0.07321248  0.59074554  0.44467561  1
  Se  Se154  1  0.08977662  0.57881265  0.95377482  1
  Se  Se155  1  0.08425663  0.91469091  0.45165320  1
  Se  Se156  1  0.08393357  0.92100224  0.93277751  1
  Se  Se157  1  0.41436029  0.25278884  0.43592556  1
  Se  Se158  1  0.41123706  0.25016754  0.94882100  1
  Se  Se159  1  0.42140629  0.58360729  0.44272075  1
  Se  Se160  1  0.41230068  0.58915961  0.93915254  1
  Se  Se161  1  0.40653154  0.92465574  0.44110457  1
  Se  Se162  1  0.41932689  0.91757535  0.94674228  1
  Se  Se163  1  0.75746379  0.24329102  0.44947427  1
  Se  Se164  1  0.73864327  0.25913788  0.93835120  1
  Se  Se165  1  0.74117383  0.58423740  0.43329730  1
  Se  Se166  1  0.75368141  0.58433266  0.95199289  1
  Se  Se167  1  0.74535081  0.91047391  0.44334830  1
  Se  Se168  1  0.74841939  0.92867637  0.93927036  1
  Se  Se169  1  0.24716170  0.08772263  0.45066505  1
  Se  Se170  1  0.24580206  0.08314196  0.94352581  1
  Se  Se171  1  0.26017233  0.41006088  0.43505009  1
  Se  Se172  1  0.24670864  0.41884062  0.94849917  1
  Se  Se173  1  0.24929582  0.74752794  0.44634440  1
  Se  Se174  1  0.26180423  0.74449598  0.94184043  1
  Se  Se175  1  0.59113650  0.07672563  0.43813817  1
  Se  Se176  1  0.58018660  0.08661532  0.94744155  1
  Se  Se177  1  0.57979830  0.41082854  0.44840488  1
  Se  Se178  1  0.58599082  0.41347142  0.94094179  1
  Se  Se179  1  0.58540581  0.74349655  0.43304092  1
  Se  Se180  1  0.59289415  0.75339855  0.95033494  1
  Se  Se181  1  0.91671680  0.08226969  0.44856954  1
  Se  Se182  1  0.91716686  0.07738317  0.93174013  1
  Se  Se183  1  0.92633316  0.41050547  0.43832997  1
  Se  Se184  1  0.91239159  0.42066942  0.95160596  1
  Se  Se185  1  0.89964671  0.75748626  0.45097185  1
  Se  Se186  1  0.93150964  0.73688074  0.94565543  1
  Se  Se187  1  0.25408157  0.25198465  0.30057032  1
  Se  Se188  1  0.24696863  0.24868350  0.80495007  1
  Se  Se189  1  0.24986276  0.58390217  0.30518436  1
  Se  Se190  1  0.24252132  0.57830352  0.81192664  1
  Se  Se191  1  0.23906700  0.91568106  0.31528198  1
  Se  Se192  1  0.25225607  0.91062260  0.79550472  1
  Se  Se193  1  0.58583212  0.24591289  0.30182520  1
  Se  Se194  1  0.57369835  0.24877560  0.81226315  1
  Se  Se195  1  0.58070083  0.57779942  0.30124078  1
  Se  Se196  1  0.58704671  0.58676017  0.80248495  1
  Se  Se197  1  0.57370589  0.90623335  0.29290471  1
  Se  Se198  1  0.58700892  0.92255896  0.80606374  1
  Se  Se199  1  0.91823918  0.24990411  0.30456675  1
  Se  Se200  1  0.90659843  0.24065997  0.80577748  1
  Se  Se201  1  0.91924846  0.58667916  0.30355103  1
  Se  Se202  1  0.91310627  0.57643388  0.81075675  1
  Se  Se203  1  0.91413666  0.91139260  0.31443576  1
  Se  Se204  1  0.92055961  0.91612010  0.79639688  1
  Se  Se205  1  0.08608672  0.09094790  0.30685614  1
  Se  Se206  1  0.08150874  0.08368599  0.80155689  1
  Se  Se207  1  0.08205126  0.41432999  0.30099315  1
  Se  Se208  1  0.08295265  0.41562414  0.81252245  1
  Se  Se209  1  0.07928098  0.75133742  0.30934161  1
  Se  Se210  1  0.09380363  0.75712138  0.80650872  1
  Se  Se211  1  0.42662256  0.08760966  0.31216882  1
  Se  Se212  1  0.41311008  0.08267203  0.80701508  1
  Se  Se213  1  0.41672113  0.41259683  0.29854408  1
  Se  Se214  1  0.41361596  0.41642603  0.79934337  1
  Se  Se215  1  0.41931101  0.75921567  0.29700270  1
  Se  Se216  1  0.42884682  0.75633483  0.81563534  1
  Se  Se217  1  0.75057844  0.07833536  0.30441220  1
  Se  Se218  1  0.74523353  0.08926291  0.79400229  1
  Se  Se219  1  0.74860804  0.41405465  0.30549838  1
  Se  Se220  1  0.75346345  0.42288818  0.81108095  1
  Se  Se221  1  0.74926947  0.74655919  0.30340044  1
  Se  Se222  1  0.75704131  0.75502094  0.80587108  1
  Se  Se223  1  0.24376307  0.08617375  0.19164790  1
  Se  Se224  1  0.25263583  0.08030324  0.69326209  1
  Se  Se225  1  0.25168558  0.41525546  0.19722327  1
  Se  Se226  1  0.24998870  0.41276981  0.70226186  1
  Se  Se227  1  0.25190149  0.75000978  0.19986546  1
  Se  Se228  1  0.24351760  0.75068989  0.69372846  1
  Se  Se229  1  0.58523151  0.07818218  0.19340071  1
  Se  Se230  1  0.58073326  0.08837896  0.70036599  1
  Se  Se231  1  0.58803945  0.41147929  0.19518981  1
  Se  Se232  1  0.57731815  0.42405255  0.68760619  1
  Se  Se233  1  0.60204673  0.72852103  0.19556039  1
  Se  Se234  1  0.58692233  0.75056163  0.69944617  1
  Se  Se235  1  0.90834892  0.09197047  0.18468910  1
  Se  Se236  1  0.91705164  0.08119058  0.69777078  1
  Se  Se237  1  0.91718624  0.41572085  0.20008423  1
  Se  Se238  1  0.90379894  0.42666092  0.69713815  1
  Se  Se239  1  0.92108770  0.74981896  0.20213423  1
  Se  Se240  1  0.91209118  0.75661708  0.68253050  1
  Se  Se241  1  0.07799608  0.25412833  0.19665698  1
  Se  Se242  1  0.08913100  0.23929469  0.68399246  1
  Se  Se243  1  0.08322944  0.58421225  0.19949765  1
  Se  Se244  1  0.08929467  0.57570199  0.69163632  1
  Se  Se245  1  0.09251970  0.91073568  0.19222873  1
  Se  Se246  1  0.07954221  0.91325978  0.69356402  1
  Se  Se247  1  0.41598402  0.24676162  0.19684159  1
  Se  Se248  1  0.41322013  0.25391613  0.69715019  1
  Se  Se249  1  0.41288158  0.58044426  0.19646363  1
  Se  Se250  1  0.42370294  0.57956248  0.68923223  1
  Se  Se251  1  0.41902467  0.91384387  0.18404159  1
  Se  Se252  1  0.41676906  0.91560085  0.70151720  1
  Se  Se253  1  0.75016117  0.24875810  0.19874379  1
  Se  Se254  1  0.75797576  0.24541188  0.68982629  1
  Se  Se255  1  0.75119836  0.58076638  0.20167543  1
  Se  Se256  1  0.75248725  0.58567108  0.69902323  1
  Se  Se257  1  0.75269677  0.92012448  0.20201075  1
  Se  Se258  1  0.74594515  0.91965599  0.69402252  1
