# generated using pymatgen
data_In86Cu29Se144
_symmetry_space_group_name_H-M   'P 1'
_cell_length_a   17.77602320
_cell_length_b   17.77061277
_cell_length_c   23.62539705
_cell_angle_alpha   90.00846443
_cell_angle_beta   89.95214998
_cell_angle_gamma   90.00425577
_symmetry_Int_Tables_number   1
_chemical_formula_structural   In86Cu29Se144
_chemical_formula_sum   'In86 Cu29 Se144'
_cell_volume   7463.04345484
_cell_formula_units_Z   1
loop_
 _symmetry_equiv_pos_site_id
 _symmetry_equiv_pos_as_xyz
  1  'x, y, z'
loop_
 _atom_site_type_symbol
 _atom_site_label
 _atom_site_symmetry_multiplicity
 _atom_site_fract_x
 _atom_site_fract_y
 _atom_site_fract_z
 _atom_site_occupancy
  In  In0  1  -0.00251827  0.16285558  0.13183096  1
  In  In1  1  0.00962976  0.17724655  0.61943688  1
  In  In2  1  0.00589214  0.50454866  0.11537526  1
  In  In3  1  -0.01355295  0.50404282  0.62851394  1
  In  In4  1  -0.01030784  0.83723842  0.12505888  1
  In  In5  1  0.00226202  0.82953262  0.61383709  1
  In  In6  1  0.32319720  0.16866591  0.12884620  1
  In  In7  1  0.33084628  0.17104489  0.62489323  1
  In  In8  1  0.33905190  0.50588286  0.11423310  1
  In  In9  1  0.33923776  0.48967191  0.63806236  1
  In  In10  1  0.32638202  0.83696185  0.13366602  1
  In  In11  1  0.32098934  0.83802149  0.62963067  1
  In  In12  1  0.66463557  0.18008719  0.12694154  1
  In  In13  1  0.66149580  0.16508818  0.62628794  1
  In  In14  1  0.66113214  0.49469712  0.11762097  1
  In  In15  1  0.66516869  0.49728632  0.62774966  1
  In  In16  1  0.66788299  0.82314967  0.12263270  1
  In  In17  1  0.67400493  0.82764510  0.62855640  1
  In  In18  1  0.19080103  -0.02400238  0.40436088  1
  In  In19  1  0.19190450  0.00907422  0.86643752  1
  In  In20  1  0.15791906  0.32821766  0.38038121  1
  In  In21  1  0.20379238  0.38124135  0.82521681  1
  In  In22  1  0.17191375  0.67541796  0.36038851  1
  In  In23  1  0.17210301  0.65881910  0.87180016  1
  In  In24  1  0.49901779  0.00703046  0.38170967  1
  In  In25  1  0.49915490  0.01284553  0.85529990  1
  In  In26  1  0.50731002  0.32406436  0.38651129  1
  In  In27  1  0.51914194  0.34171403  0.86676901  1
  In  In28  1  0.48934049  0.66096384  0.37556007  1
  In  In29  1  0.49749399  0.65867544  0.87114141  1
  In  In30  1  0.82906463  0.00134087  0.38730770  1
  In  In31  1  0.82995222  0.00345210  0.87065647  1
  In  In32  1  0.82408302  0.34074197  0.38286900  1
  In  In33  1  0.84505451  0.34405954  0.86744529  1
  In  In34  1  0.84244059  0.65587717  0.37745907  1
  In  In35  1  0.83230140  0.67218644  0.87907723  1
  In  In36  1  0.00015423  0.16632738  0.38558384  1
  In  In37  1  0.00204459  0.17584045  0.86956493  1
  In  In38  1  -0.01803125  0.50359849  0.37071833  1
  In  In39  1  0.01256989  0.49189217  0.88405879  1
  In  In40  1  0.00713590  0.82266459  0.38080922  1
  In  In41  1  0.00440307  0.82647119  0.87731594  1
  In  In42  1  0.34424429  0.14947326  0.39571488  1
  In  In43  1  0.37520471  0.20919405  0.80755124  1
  In  In44  1  0.33262849  0.50957134  0.37387576  1
  In  In45  1  0.34717484  0.50823731  0.87901351  1
  In  In46  1  0.33029081  0.82368548  0.37512392  1
  In  In47  1  0.34260766  0.84020813  0.86460025  1
  In  In48  1  0.66190673  0.17490858  0.38422812  1
  In  In49  1  0.66727199  0.17016568  0.86155755  1
  In  In50  1  0.67714966  0.48471512  0.38297320  1
  In  In51  1  0.67175180  0.50248843  0.87585785  1
  In  In52  1  0.66505050  0.83820123  0.38368648  1
  In  In53  1  0.67701807  0.84271165  0.86666280  1
  In  In54  1  0.16793844  0.00591586  0.13210202  1
  In  In55  1  0.17773406  0.00089101  0.61605589  1
  In  In56  1  0.15573149  0.33202871  0.12245241  1
  In  In57  1  0.17546635  0.33266407  0.63728243  1
  In  In58  1  0.17937705  0.65995048  0.12812918  1
  In  In59  1  0.16562582  0.67103834  0.62681452  1
  In  In60  1  0.49684312  -0.00680835  0.12857959  1
  In  In61  1  0.48139131  0.02070790  0.63642760  1
  In  In62  1  0.49555052  0.34454593  0.12049554  1
  In  In63  1  0.49618220  0.33031365  0.62974771  1
  In  In64  1  0.50089881  0.65447741  0.12524160  1
  In  In65  1  0.50565771  0.66146681  0.63006290  1
  In  In66  1  0.84217629  -0.00300891  0.12535874  1
  In  In67  1  0.82371882  -0.00533241  0.61844452  1
  In  In68  1  0.81789804  0.33526288  0.12807015  1
  In  In69  1  0.82883063  0.33360394  0.62579823  1
  In  In70  1  0.83690191  0.66990680  0.12052370  1
  In  In71  1  0.82867965  0.65488066  0.61810633  1
  In  In72  1  0.33226920  0.33427790  0.25260379  1
  In  In73  1  0.66126415  0.00365818  0.26047014  1
  In  In74  1  -0.00129486  -0.00311098  0.73226153  1
  In  In75  1  0.49345604  0.16907268  -0.01800105  1
  In  In76  1  0.00216078  -0.00280812  0.25841786  1
  In  In77  1  0.16598497  0.17351686  -0.00990978  1
  In  In78  1  0.50076485  0.83400527  0.51328893  1
  In  In79  1  0.83055786  0.16758436  0.00335550  1
  In  In80  1  -0.00462379  0.33454926  0.25209821  1
  In  In81  1  0.16388466  0.83355474  -0.00272644  1
  In  In82  1  0.66628664  0.66240962  0.25007546  1
  In  In83  1  0.50204658  0.82652140  -0.00762850  1
  In  In84  1  0.00131288  0.65819685  0.75346413  1
  In  In85  1  0.16087047  0.49956654  0.50060128  1
  Cu  Cu86  1  0.83027998  0.83375930  0.25058470  1
  Cu  Cu87  1  0.67336526  0.66430873  0.00028585  1
  Cu  Cu88  1  0.33022510  0.33880081  -0.01618408  1
  Cu  Cu89  1  0.17356790  0.15794167  0.26117752  1
  Cu  Cu90  1  0.50958665  0.50191940  0.74977987  1
  Cu  Cu91  1  -0.00569509  -0.00121902  0.50329497  1
  Cu  Cu92  1  0.48449360  0.83159605  0.25153139  1
  Cu  Cu93  1  0.33188889  0.33659049  0.51011983  1
  Cu  Cu94  1  0.00044380  -0.00229879  0.00069447  1
  Cu  Cu95  1  -0.00265555  0.66949082  -0.00177493  1
  Cu  Cu96  1  -0.00579324  0.33754957  0.50264230  1
  Cu  Cu97  1  0.66458683  0.66289892  0.50629195  1
  Cu  Cu98  1  -0.00285065  0.33952148  -0.00072987  1
  Cu  Cu99  1  0.66292736  0.00543346  0.50391602  1
  Cu  Cu100  1  0.50425094  0.49360079  0.24630302  1
  Cu  Cu101  1  0.83999118  0.82759800  0.74748789  1
  Cu  Cu102  1  0.33807991  0.00376405  -0.00013851  1
  Cu  Cu103  1  0.51142724  0.83161748  0.74587739  1
  Cu  Cu104  1  0.66440642  0.33499146  0.50910545  1
  Cu  Cu105  1  0.82650966  0.16890662  0.74439487  1
  Cu  Cu106  1  0.33131269  0.65942287  0.49822883  1
  Cu  Cu107  1  0.66780653  0.33450482  -0.00552932  1
  Cu  Cu108  1  0.82744575  0.49813260  0.74974062  1
  Cu  Cu109  1  0.33491099  0.66823288  0.00060970  1
  Cu  Cu110  1  0.67312804  -0.00533788  -0.00619054  1
  Cu  Cu111  1  0.49820071  0.16987142  0.26278716  1
  Cu  Cu112  1  0.16316960  0.16811186  0.74659180  1
  Cu  Cu113  1  0.16582950  0.50216864  0.24488911  1
  Cu  Cu114  1  -0.00154961  0.66336674  0.49626451  1
  Se  Se115  1  0.07907606  0.08069471  0.05789863  1
  Se  Se116  1  0.07862231  0.07784299  0.55748837  1
  Se  Se117  1  0.08769470  0.41634489  0.05028924  1
  Se  Se118  1  0.07663391  0.41207757  0.56478071  1
  Se  Se119  1  0.07802107  0.74713965  0.06048390  1
  Se  Se120  1  0.08394715  0.73970350  0.55134151  1
  Se  Se121  1  0.41534049  0.08570917  0.05998225  1
  Se  Se122  1  0.41133989  0.08838129  0.55640681  1
  Se  Se123  1  0.41120896  0.41272152  0.04747454  1
  Se  Se124  1  0.41617603  0.41731110  0.56179344  1
  Se  Se125  1  0.41189639  0.74941605  0.06200209  1
  Se  Se126  1  0.40858521  0.73733902  0.56177275  1
  Se  Se127  1  0.73947340  0.07534356  0.06162422  1
  Se  Se128  1  0.74774956  0.08793181  0.55528927  1
  Se  Se129  1  0.74886201  0.41345832  0.05158720  1
  Se  Se130  1  0.74991372  0.41965014  0.55725030  1
  Se  Se131  1  0.75184696  0.75170209  0.05246794  1
  Se  Se132  1  0.74953013  0.74673778  0.55508620  1
  Se  Se133  1  0.25930658  0.26242696  0.05424144  1
  Se  Se134  1  0.24462107  0.25614101  0.55960736  1
  Se  Se135  1  0.24912359  0.58390708  0.04944474  1
  Se  Se136  1  0.25594850  0.57917445  0.56188455  1
  Se  Se137  1  0.25428313  0.92786538  0.05701338  1
  Se  Se138  1  0.25130835  0.90927869  0.55044658  1
  Se  Se139  1  0.58289105  0.25330702  0.04975495  1
  Se  Se140  1  0.57958333  0.25160711  0.55952416  1
  Se  Se141  1  0.58518781  0.58630735  0.05230580  1
  Se  Se142  1  0.58268852  0.58039488  0.55822948  1
  Se  Se143  1  0.58893306  0.92143710  0.05564730  1
  Se  Se144  1  0.59008117  0.92538171  0.56794561  1
  Se  Se145  1  0.92509967  0.25544085  0.06148793  1
  Se  Se146  1  0.91495425  0.25324162  0.55712147  1
  Se  Se147  1  0.91670902  0.58591198  0.05194543  1
  Se  Se148  1  0.91769627  0.57953748  0.55015411  1
  Se  Se149  1  0.91454476  0.91749720  0.05128096  1
  Se  Se150  1  0.91244951  0.91310964  0.55395778  1
  Se  Se151  1  0.07929046  0.25355181  0.45278983  1
  Se  Se152  1  0.07698087  0.26499471  0.93704162  1
  Se  Se153  1  0.07885254  0.58587615  0.43431367  1
  Se  Se154  1  0.08398284  0.59232871  0.94401445  1
  Se  Se155  1  0.07526667  0.91266546  0.45158197  1
  Se  Se156  1  0.08396043  0.93044576  0.93581146  1
  Se  Se157  1  0.41255516  0.25484958  0.45241732  1
  Se  Se158  1  0.40811758  0.25978830  0.92425940  1
  Se  Se159  1  0.41690946  0.57709419  0.44838277  1
  Se  Se160  1  0.42530693  0.58910991  0.95164561  1
  Se  Se161  1  0.41635355  0.91278482  0.44324943  1
  Se  Se162  1  0.41951793  0.92791448  0.93953147  1
  Se  Se163  1  0.74680113  0.25498380  0.45141941  1
  Se  Se164  1  0.74713429  0.25263780  0.93635139  1
  Se  Se165  1  0.74393076  0.58925826  0.44253545  1
  Se  Se166  1  0.75528894  0.58292523  0.94526109  1
  Se  Se167  1  0.74414949  0.91809021  0.45253334  1
  Se  Se168  1  0.75809420  0.91649260  0.94154464  1
  Se  Se169  1  0.22949609  0.10054960  0.45055013  1
  Se  Se170  1  0.26552880  0.08816525  0.94086774  1
  Se  Se171  1  0.25634504  0.41085733  0.44211325  1
  Se  Se172  1  0.24774594  0.41867599  0.92848884  1
  Se  Se173  1  0.24941204  0.73757941  0.44189830  1
  Se  Se174  1  0.26223323  0.75203429  0.94008877  1
  Se  Se175  1  0.58141036  0.08649990  0.44912418  1
  Se  Se176  1  0.59285934  0.07459558  0.93548795  1
  Se  Se177  1  0.58413342  0.41572317  0.45059559  1
  Se  Se178  1  0.58637046  0.42014408  0.94436989  1
  Se  Se179  1  0.58293616  0.74158030  0.44501112  1
  Se  Se180  1  0.59819917  0.74393669  0.93605172  1
  Se  Se181  1  0.91424464  0.08433785  0.45117564  1
  Se  Se182  1  0.92435463  0.08193736  0.94130124  1
  Se  Se183  1  0.91687221  0.42006259  0.44618164  1
  Se  Se184  1  0.91279077  0.42006620  0.94664504  1
  Se  Se185  1  0.91356170  0.74728039  0.44553513  1
  Se  Se186  1  0.91754524  0.75493304  0.94617744  1
  Se  Se187  1  0.24956743  0.24520743  0.31671482  1
  Se  Se188  1  0.23059163  0.23603319  0.82079306  1
  Se  Se189  1  0.25110383  0.57962443  0.30012413  1
  Se  Se190  1  0.26797925  0.59135430  0.80961687  1
  Se  Se191  1  0.25050284  0.91850574  0.31612912  1
  Se  Se192  1  0.23841251  0.90121689  0.80468123  1
  Se  Se193  1  0.58449494  0.25280015  0.30937673  1
  Se  Se194  1  0.55238168  0.22216985  0.80700110  1
  Se  Se195  1  0.57827673  0.57367065  0.31059013  1
  Se  Se196  1  0.58989091  0.58411635  0.80613493  1
  Se  Se197  1  0.56919747  0.90555908  0.31119641  1
  Se  Se198  1  0.58628188  0.91893162  0.80166365  1
  Se  Se199  1  0.91295200  0.24792464  0.31643253  1
  Se  Se200  1  0.91007821  0.24470421  0.80239826  1
  Se  Se201  1  0.91312461  0.58608562  0.29838911  1
  Se  Se202  1  0.90953556  0.57340398  0.81301229  1
  Se  Se203  1  0.90561852  0.91115655  0.31476476  1
  Se  Se204  1  0.91871244  0.91101776  0.80540580  1
  Se  Se205  1  0.08928195  0.08370958  0.31930048  1
  Se  Se206  1  0.08259944  0.08088800  0.80382615  1
  Se  Se207  1  0.09093120  0.42393441  0.30871755  1
  Se  Se208  1  0.06472348  0.41104242  0.80269805  1
  Se  Se209  1  0.06997882  0.74421050  0.30261734  1
  Se  Se210  1  0.09193961  0.75462908  0.80622421  1
  Se  Se211  1  0.41572741  0.08510292  0.31200897  1
  Se  Se212  1  0.38051214  0.06299079  0.80760808  1
  Se  Se213  1  0.42518404  0.41949138  0.31169586  1
  Se  Se214  1  0.42716457  0.42431825  0.80772601  1
  Se  Se215  1  0.41205123  0.74211455  0.30518581  1
  Se  Se216  1  0.42976045  0.75449416  0.80474498  1
  Se  Se217  1  0.75343037  0.09026309  0.31585778  1
  Se  Se218  1  0.75164005  0.08220090  0.80015232  1
  Se  Se219  1  0.75766634  0.42160847  0.30659382  1
  Se  Se220  1  0.74690457  0.41466251  0.80535694  1
  Se  Se221  1  0.74833708  0.75754766  0.31149232  1
  Se  Se222  1  0.75676203  0.75030467  0.80435729  1
  Se  Se223  1  0.25360213  0.08247792  0.20032019  1
  Se  Se224  1  0.24358206  0.08780417  0.69048432  1
  Se  Se225  1  0.24460092  0.41845604  0.18695433  1
  Se  Se226  1  0.24863560  0.41841074  0.70789490  1
  Se  Se227  1  0.24428661  0.75317064  0.19553999  1
  Se  Se228  1  0.25929037  0.73631690  0.69295864  1
  Se  Se229  1  0.57391423  0.09178818  0.19462623  1
  Se  Se230  1  0.58826202  0.07732897  0.69565332  1
  Se  Se231  1  0.58425770  0.41252845  0.19061636  1
  Se  Se232  1  0.58332720  0.41272082  0.69545131  1
  Se  Se233  1  0.57122863  0.75675375  0.19346939  1
  Se  Se234  1  0.59105387  0.74496674  0.69522352  1
  Se  Se235  1  0.90694400  0.08733507  0.19996648  1
  Se  Se236  1  0.90741924  0.09280137  0.68287031  1
  Se  Se237  1  0.91633510  0.42064066  0.18468789  1
  Se  Se238  1  0.91028825  0.41715534  0.69577728  1
  Se  Se239  1  0.90958729  0.75468053  0.19328835  1
  Se  Se240  1  0.91754306  0.74750218  0.68767214  1
  Se  Se241  1  0.09432867  0.23752622  0.19943909  1
  Se  Se242  1  0.08034575  0.25273839  0.69743138  1
  Se  Se243  1  0.08465439  0.58081952  0.18870358  1
  Se  Se244  1  0.09054798  0.57163196  0.69215440  1
  Se  Se245  1  0.08712293  0.91079588  0.19227197  1
  Se  Se246  1  0.09273179  0.90544909  0.68327794  1
  Se  Se247  1  0.42461998  0.24429054  0.19236948  1
  Se  Se248  1  0.40134590  0.25811788  0.69963248  1
  Se  Se249  1  0.41833145  0.57347247  0.19278603  1
  Se  Se250  1  0.42193813  0.58062281  0.69836032  1
  Se  Se251  1  0.41131211  0.92165793  0.19811341  1
  Se  Se252  1  0.42450159  0.90601011  0.68986792  1
  Se  Se253  1  0.76024809  0.23687817  0.19476039  1
  Se  Se254  1  0.74379217  0.25201704  0.69318575  1
  Se  Se255  1  0.75075909  0.57871933  0.18514797  1
  Se  Se256  1  0.75059061  0.58274385  0.69376747  1
  Se  Se257  1  0.74788613  0.91384867  0.19334244  1
  Se  Se258  1  0.75799998  0.91211646  0.69540620  1
