# generated using pymatgen
data_In86Cu29Se144
_symmetry_space_group_name_H-M   'P 1'
_cell_length_a   17.58169066
_cell_length_b   17.58272733
_cell_length_c   23.44196469
_cell_angle_alpha   90.00793727
_cell_angle_beta   89.99306460
_cell_angle_gamma   89.98471405
_symmetry_Int_Tables_number   1
_chemical_formula_structural   In86Cu29Se144
_chemical_formula_sum   'In86 Cu29 Se144'
_cell_volume   7246.70964121
_cell_formula_units_Z   1
loop_
 _symmetry_equiv_pos_site_id
 _symmetry_equiv_pos_as_xyz
  1  'x, y, z'
loop_
 _atom_site_type_symbol
 _atom_site_label
 _atom_site_symmetry_multiplicity
 _atom_site_fract_x
 _atom_site_fract_y
 _atom_site_fract_z
 _atom_site_occupancy
  In  In0  1  -0.01493105  0.16834245  0.12654543  1
  In  In1  1  -0.02144507  0.18768848  0.63470197  1
  In  In2  1  -0.00692445  0.51021648  0.12401513  1
  In  In3  1  0.00169649  0.49712934  0.62045803  1
  In  In4  1  0.00731176  0.82876515  0.13698017  1
  In  In5  1  -0.00914555  0.84126799  0.63142127  1
  In  In6  1  0.34578751  0.18287130  0.12722210  1
  In  In7  1  0.33531330  0.17652697  0.63018369  1
  In  In8  1  0.33772274  0.48457547  0.12521261  1
  In  In9  1  0.33117352  0.50200085  0.62832484  1
  In  In10  1  0.32585302  0.84172965  0.12172776  1
  In  In11  1  0.33014035  0.81564376  0.62294280  1
  In  In12  1  0.66502912  0.15626237  0.12795155  1
  In  In13  1  0.67642791  0.16445738  0.62763718  1
  In  In14  1  0.67758273  0.50817671  0.11488169  1
  In  In15  1  0.68447282  0.48660391  0.63155925  1
  In  In16  1  0.66818734  0.83470162  0.13466875  1
  In  In17  1  0.67122373  0.83196600  0.62359425  1
  In  In18  1  0.16286644  0.00391415  0.36793320  1
  In  In19  1  0.14567340  -0.00198462  0.87567049  1
  In  In20  1  0.17850056  0.33568354  0.38124257  1
  In  In21  1  0.16999923  0.34188497  0.86372594  1
  In  In22  1  0.14489328  0.66804304  0.37330326  1
  In  In23  1  0.16712290  0.66614045  0.87045211  1
  In  In24  1  0.49873393  -0.01440310  0.37548550  1
  In  In25  1  0.50995777  -0.01113532  0.87521805  1
  In  In26  1  0.49668612  0.33914796  0.37530178  1
  In  In27  1  0.51187365  0.34738434  0.87088420  1
  In  In28  1  0.52271638  0.66237491  0.37421865  1
  In  In29  1  0.48793832  0.65514066  0.86687782  1
  In  In30  1  0.83130769  -0.00287250  0.37716748  1
  In  In31  1  0.83605792  0.01002659  0.86820720  1
  In  In32  1  0.82905199  0.33561512  0.40451134  1
  In  In33  1  0.82822313  0.33323332  0.87539800  1
  In  In34  1  0.83679528  0.66801427  0.37767299  1
  In  In35  1  0.82054189  0.65242593  0.86005197  1
  In  In36  1  -0.00312732  0.15466903  0.37420593  1
  In  In37  1  -0.01512185  0.16153023  0.86845640  1
  In  In38  1  -0.01323466  0.50551577  0.38799165  1
  In  In39  1  -0.01423176  0.48782327  0.86314746  1
  In  In40  1  -0.00665076  0.82091596  0.36537670  1
  In  In41  1  -0.00070207  0.83511835  0.86938818  1
  In  In42  1  0.32842442  0.17219610  0.37246791  1
  In  In43  1  0.33154964  0.17677640  0.87111449  1
  In  In44  1  0.33181088  0.48482243  0.37892693  1
  In  In45  1  0.33680824  0.50102312  0.87193839  1
  In  In46  1  0.33726795  0.84204928  0.37896348  1
  In  In47  1  0.33054711  0.81462592  0.87667119  1
  In  In48  1  0.68279967  0.17261514  0.37849125  1
  In  In49  1  0.68579918  0.18807252  0.86220879  1
  In  In50  1  0.67074807  0.50615265  0.37897606  1
  In  In51  1  0.66517730  0.49828731  0.87496745  1
  In  In52  1  0.67116374  0.83069174  0.37768463  1
  In  In53  1  0.66823341  0.83343515  0.86345508  1
  In  In54  1  0.16498258  -0.01493206  0.12601868  1
  In  In55  1  0.15415971  -0.01338193  0.62519287  1
  In  In56  1  0.17892829  0.34408003  0.12353287  1
  In  In57  1  0.15830056  0.34630006  0.62623185  1
  In  In58  1  0.14803773  0.66680307  0.12815210  1
  In  In59  1  0.17427514  0.65675064  0.63071115  1
  In  In60  1  0.50892918  0.01597805  0.13228192  1
  In  In61  1  0.51937078  0.00152738  0.62399027  1
  In  In62  1  0.49167425  0.33340072  0.12187985  1
  In  In63  1  0.49935890  0.34017631  0.63419001  1
  In  In64  1  0.51646219  0.66993789  0.12435850  1
  In  In65  1  0.49733745  0.66932861  0.62828328  1
  In  In66  1  0.82767418  0.00539087  0.13441484  1
  In  In67  1  0.83416972  -0.00027179  0.62392885  1
  In  In68  1  0.82631355  0.33289291  0.10764096  1
  In  In69  1  0.83502473  0.33492825  0.61491408  1
  In  In70  1  0.83591593  0.66363765  0.12791078  1
  In  In71  1  0.83412745  0.66715648  0.62688462  1
  In  In72  1  0.33078937  0.66489782  0.24596425  1
  In  In73  1  0.16378022  0.50304578  -0.00462134  1
  In  In74  1  0.15734406  0.17271231  0.50904113  1
  In  In75  1  0.50675068  0.17208571  -0.00158370  1
  In  In76  1  0.83415614  0.82890614  -0.00021320  1
  In  In77  1  -0.00134197  0.33315466  0.25418843  1
  In  In78  1  0.66758104  0.33423786  0.25540201  1
  In  In79  1  0.16102134  0.16679102  0.00283918  1
  In  In80  1  0.50555681  0.16900213  0.49982826  1
  In  In81  1  0.33318631  0.00086630  0.75043204  1
  In  In82  1  0.49931866  0.83134057  0.00390456  1
  In  In83  1  0.16383718  0.82878943  0.49477444  1
  In  In84  1  0.50928438  0.50064791  0.50291678  1
  In  In85  1  0.33330243  0.00333013  0.24928183  1
  Cu  Cu86  1  -0.00667177  0.66661142  0.00135227  1
  Cu  Cu87  1  0.83552423  0.49687033  0.74447034  1
  Cu  Cu88  1  0.66143949  0.66172429  -0.00733441  1
  Cu  Cu89  1  0.83343089  0.83526110  0.74599345  1
  Cu  Cu90  1  0.32441836  0.00093187  0.00228658  1
  Cu  Cu91  1  0.67565993  0.66899202  0.50107165  1
  Cu  Cu92  1  0.33804785  0.66154348  0.50374752  1
  Cu  Cu93  1  0.67609020  0.00781066  0.00201927  1
  Cu  Cu94  1  0.16549305  0.49821709  0.24971592  1
  Cu  Cu95  1  -0.00349795  0.66786665  0.50385429  1
  Cu  Cu96  1  0.50257723  0.50517257  0.75004764  1
  Cu  Cu97  1  -0.00768367  -0.00799944  -0.00387305  1
  Cu  Cu98  1  0.50293145  0.83433153  0.74699053  1
  Cu  Cu99  1  0.16058067  0.16782491  0.75277201  1
  Cu  Cu100  1  0.16420012  0.50171471  0.74786315  1
  Cu  Cu101  1  0.50542343  0.17017136  0.74662223  1
  Cu  Cu102  1  0.50683394  0.82873947  0.25293509  1
  Cu  Cu103  1  0.83378004  0.16566098  0.25505862  1
  Cu  Cu104  1  -0.01105808  -0.00168172  0.50008554  1
  Cu  Cu105  1  0.16395607  0.82860843  0.74924229  1
  Cu  Cu106  1  0.33740351  0.00286160  0.49714825  1
  Cu  Cu107  1  -0.00208080  0.33289181  -0.00882269  1
  Cu  Cu108  1  0.50613080  0.49616953  0.25389813  1
  Cu  Cu109  1  0.83633755  0.50371578  0.25192835  1
  Cu  Cu110  1  0.16766834  0.17123961  0.25080648  1
  Cu  Cu111  1  0.32653016  0.65937352  -0.00444480  1
  Cu  Cu112  1  0.67143549  -0.00710533  0.50166972  1
  Cu  Cu113  1  0.83198971  0.83394248  0.25402859  1
  Cu  Cu114  1  0.83316535  0.17015912  0.74647719  1
  Se  Se115  1  0.07135438  0.07327998  0.05949766  1
  Se  Se116  1  0.06855510  0.07581761  0.56236904  1
  Se  Se117  1  0.07395464  0.41001032  0.05744982  1
  Se  Se118  1  0.08605568  0.41930258  0.54902573  1
  Se  Se119  1  0.07432589  0.75020056  0.05544664  1
  Se  Se120  1  0.08036115  0.74696555  0.56416751  1
  Se  Se121  1  0.41076631  0.07794262  0.05760462  1
  Se  Se122  1  0.41238223  0.07965664  0.56215729  1
  Se  Se123  1  0.41860579  0.41763163  0.05030111  1
  Se  Se124  1  0.41351674  0.41251340  0.55774767  1
  Se  Se125  1  0.40530138  0.73843129  0.06048896  1
  Se  Se126  1  0.42098569  0.74867570  0.55176786  1
  Se  Se127  1  0.75778596  0.08781936  0.05770106  1
  Se  Se128  1  0.75031867  0.08123524  0.55402679  1
  Se  Se129  1  0.74894907  0.42154765  0.04431484  1
  Se  Se130  1  0.75114775  0.42086987  0.54844824  1
  Se  Se131  1  0.73601654  0.74426226  0.05714012  1
  Se  Se132  1  0.75780243  0.75323950  0.55460765  1
  Se  Se133  1  0.26013809  0.25838900  0.05180853  1
  Se  Se134  1  0.25712417  0.26015631  0.55908139  1
  Se  Se135  1  0.25011823  0.58668908  0.06477912  1
  Se  Se136  1  0.25165895  0.58170703  0.55458457  1
  Se  Se137  1  0.24135867  0.91196960  0.04808642  1
  Se  Se138  1  0.25586688  0.92095331  0.55632838  1
  Se  Se139  1  0.59653674  0.25716543  0.06120407  1
  Se  Se140  1  0.58728107  0.25777588  0.56448463  1
  Se  Se141  1  0.57918084  0.58217857  0.05009629  1
  Se  Se142  1  0.59696650  0.58929559  0.56383245  1
  Se  Se143  1  0.59144550  0.92740361  0.05961886  1
  Se  Se144  1  0.58405143  0.91127272  0.55231480  1
  Se  Se145  1  0.91952800  0.24851409  0.04861147  1
  Se  Se146  1  0.91617976  0.24648170  0.54766361  1
  Se  Se147  1  0.90830433  0.58243708  0.05151528  1
  Se  Se148  1  0.91411534  0.58376748  0.55642117  1
  Se  Se149  1  0.91740318  0.91765831  0.06455442  1
  Se  Se150  1  0.91201658  0.91052289  0.55396200  1
  Se  Se151  1  0.07533546  0.25318538  0.43767579  1
  Se  Se152  1  0.08083318  0.25432009  0.93358567  1
  Se  Se153  1  0.08164237  0.58616329  0.45073247  1
  Se  Se154  1  0.06817924  0.58585407  0.93656552  1
  Se  Se155  1  0.07535177  0.92433233  0.43897608  1
  Se  Se156  1  0.07827555  0.90851133  0.94750111  1
  Se  Se157  1  0.40727552  0.25717891  0.44532787  1
  Se  Se158  1  0.41547790  0.25942120  0.93890251  1
  Se  Se159  1  0.41816727  0.58731888  0.43767365  1
  Se  Se160  1  0.41561791  0.58093859  0.94578920  1
  Se  Se161  1  0.42084202  0.91269963  0.45262369  1
  Se  Se162  1  0.40645929  0.92097311  0.94200826  1
  Se  Se163  1  0.74446596  0.24343574  0.46117274  1
  Se  Se164  1  0.75606116  0.24424398  0.94659850  1
  Se  Se165  1  0.75645174  0.58275632  0.44812304  1
  Se  Se166  1  0.75178531  0.58366049  0.94267005  1
  Se  Se167  1  0.75506036  0.91051824  0.44773819  1
  Se  Se168  1  0.74479011  0.91996352  0.93980337  1
  Se  Se169  1  0.25002196  0.08024681  0.44345990  1
  Se  Se170  1  0.25122781  0.07897635  0.93691391  1
  Se  Se171  1  0.24554754  0.42291053  0.45358869  1
  Se  Se172  1  0.25486413  0.40921455  0.94221155  1
  Se  Se173  1  0.25790878  0.73739995  0.43775249  1
  Se  Se174  1  0.24162186  0.74525421  0.94801394  1
  Se  Se175  1  0.59030530  0.07320525  0.44045908  1
  Se  Se176  1  0.59392595  0.08011116  0.93814372  1
  Se  Se177  1  0.59551230  0.40516269  0.44366466  1
  Se  Se178  1  0.58691783  0.41773922  0.94766779  1
  Se  Se179  1  0.58684965  0.74865265  0.44875923  1
  Se  Se180  1  0.58391361  0.74774705  0.93580636  1
  Se  Se181  1  0.91024415  0.08530649  0.44689426  1
  Se  Se182  1  0.91415378  0.08175628  0.94600194  1
  Se  Se183  1  0.92658871  0.41297792  0.46024656  1
  Se  Se184  1  0.91312327  0.41934074  0.94389219  1
  Se  Se185  1  0.91984201  0.75334744  0.44645769  1
  Se  Se186  1  0.91448368  0.73910585  0.93423696  1
  Se  Se187  1  0.24913619  0.25535111  0.30322385  1
  Se  Se188  1  0.25026366  0.25122069  0.79861610  1
  Se  Se189  1  0.24517273  0.57813871  0.31173687  1
  Se  Se190  1  0.24964563  0.58086876  0.80438064  1
  Se  Se191  1  0.24435358  0.90643175  0.30490565  1
  Se  Se192  1  0.24359935  0.91087157  0.81147643  1
  Se  Se193  1  0.57826419  0.24236722  0.31365957  1
  Se  Se194  1  0.58517647  0.25682374  0.80050545  1
  Se  Se195  1  0.59455201  0.57936245  0.30071250  1
  Se  Se196  1  0.58772034  0.58637427  0.80406979  1
  Se  Se197  1  0.58763900  0.91344375  0.30645319  1
  Se  Se198  1  0.58641319  0.92060608  0.79686521  1
  Se  Se199  1  0.90430461  0.25247381  0.31715751  1
  Se  Se200  1  0.91381358  0.25555385  0.80234960  1
  Se  Se201  1  0.92023402  0.58322993  0.30777882  1
  Se  Se202  1  0.91967938  0.58439774  0.79523012  1
  Se  Se203  1  0.91584303  0.91881319  0.30568047  1
  Se  Se204  1  0.91417565  0.91831029  0.80343449  1
  Se  Se205  1  0.08239121  0.08634159  0.29893672  1
  Se  Se206  1  0.07663305  0.08258950  0.80246260  1
  Se  Se207  1  0.08606932  0.42296045  0.31480444  1
  Se  Se208  1  0.07900243  0.41432664  0.79651131  1
  Se  Se209  1  0.08819140  0.75460186  0.29734798  1
  Se  Se210  1  0.08011814  0.74659273  0.80339551  1
  Se  Se211  1  0.42393726  0.08855051  0.31118588  1
  Se  Se212  1  0.42820879  0.08901458  0.81002912  1
  Se  Se213  1  0.41650868  0.41694455  0.30299782  1
  Se  Se214  1  0.41876602  0.41904390  0.80233326  1
  Se  Se215  1  0.42176628  0.75129156  0.31087949  1
  Se  Se216  1  0.41737955  0.75288732  0.80091450  1
  Se  Se217  1  0.74952980  0.08238978  0.30692468  1
  Se  Se218  1  0.74802302  0.08416515  0.79823345  1
  Se  Se219  1  0.76580272  0.41769100  0.31540130  1
  Se  Se220  1  0.75200283  0.41978118  0.80453396  1
  Se  Se221  1  0.75148853  0.74698253  0.30733997  1
  Se  Se222  1  0.74815343  0.74946026  0.79597216  1
  Se  Se223  1  0.24546251  0.09388525  0.18508042  1
  Se  Se224  1  0.23826753  0.08670581  0.68930662  1
  Se  Se225  1  0.25388316  0.41604189  0.20137331  1
  Se  Se226  1  0.24980374  0.41694657  0.69665851  1
  Se  Se227  1  0.24078066  0.75815518  0.19055862  1
  Se  Se228  1  0.25181040  0.74626734  0.69981210  1
  Se  Se229  1  0.59093558  0.08487009  0.20526241  1
  Se  Se230  1  0.58941233  0.08478634  0.69727974  1
  Se  Se231  1  0.58547971  0.42190546  0.18805730  1
  Se  Se232  1  0.58727484  0.41967830  0.69963611  1
  Se  Se233  1  0.59045336  0.74452473  0.20123378  1
  Se  Se234  1  0.58564051  0.75087058  0.69353351  1
  Se  Se235  1  0.91840125  0.08409469  0.20167023  1
  Se  Se236  1  0.91627534  0.08168337  0.69594143  1
  Se  Se237  1  0.90707988  0.41679282  0.18943821  1
  Se  Se238  1  0.91688511  0.41400601  0.68889119  1
  Se  Se239  1  0.91234646  0.74927375  0.19755860  1
  Se  Se240  1  0.91817567  0.74810464  0.69787971  1
  Se  Se241  1  0.09039240  0.25012815  0.18665775  1
  Se  Se242  1  0.08479980  0.25228703  0.69400441  1
  Se  Se243  1  0.07740595  0.57850373  0.19950561  1
  Se  Se244  1  0.07912854  0.58214003  0.69376677  1
  Se  Se245  1  0.07896678  0.92542076  0.20105209  1
  Se  Se246  1  0.07911602  0.91636695  0.70291939  1
  Se  Se247  1  0.43048704  0.24893315  0.19965621  1
  Se  Se248  1  0.41623987  0.25400940  0.70101715  1
  Se  Se249  1  0.42788469  0.57683760  0.19057131  1
  Se  Se250  1  0.41567762  0.58489116  0.69584166  1
  Se  Se251  1  0.42724059  0.90843209  0.19070777  1
  Se  Se252  1  0.41931904  0.91282149  0.68614503  1
  Se  Se253  1  0.76068571  0.24976991  0.19210792  1
  Se  Se254  1  0.75457221  0.25666954  0.69158490  1
  Se  Se255  1  0.75044887  0.58065852  0.19521621  1
  Se  Se256  1  0.75021214  0.58581288  0.69736541  1
  Se  Se257  1  0.74794013  0.91912293  0.20197354  1
  Se  Se258  1  0.74922947  0.91900076  0.69338068  1
