# generated using pymatgen
data_In86Cu29Se144
_symmetry_space_group_name_H-M   'P 1'
_cell_length_a   17.57692157
_cell_length_b   17.57807102
_cell_length_c   23.43887117
_cell_angle_alpha   90.02875017
_cell_angle_beta   89.99985311
_cell_angle_gamma   89.99866811
_symmetry_Int_Tables_number   1
_chemical_formula_structural   In86Cu29Se144
_chemical_formula_sum   'In86 Cu29 Se144'
_cell_volume   7241.86903957
_cell_formula_units_Z   1
loop_
 _symmetry_equiv_pos_site_id
 _symmetry_equiv_pos_as_xyz
  1  'x, y, z'
loop_
 _atom_site_type_symbol
 _atom_site_label
 _atom_site_symmetry_multiplicity
 _atom_site_fract_x
 _atom_site_fract_y
 _atom_site_fract_z
 _atom_site_occupancy
  In  In0  1  -0.00634383  0.16859374  0.12757579  1
  In  In1  1  -0.00908909  0.15350282  0.62641681  1
  In  In2  1  0.00564869  0.51775592  0.10378627  1
  In  In3  1  0.00268150  0.51655689  0.63060544  1
  In  In4  1  0.00496479  0.83033986  0.13250991  1
  In  In5  1  0.01304367  0.82579186  0.63660397  1
  In  In6  1  0.33334316  0.15483116  0.12880532  1
  In  In7  1  0.33920216  0.17128993  0.61875175  1
  In  In8  1  0.34270015  0.50985954  0.12078613  1
  In  In9  1  0.31797488  0.49373856  0.63158988  1
  In  In10  1  0.33141220  0.83660917  0.13668328  1
  In  In11  1  0.33603412  0.82740853  0.61207737  1
  In  In12  1  0.67752732  0.18336244  0.12098099  1
  In  In13  1  0.67374924  0.17580010  0.62139652  1
  In  In14  1  0.66719872  0.50049864  0.12496083  1
  In  In15  1  0.67541329  0.48720535  0.63207662  1
  In  In16  1  0.65438833  0.82611995  0.12812180  1
  In  In17  1  0.65336151  0.82877994  0.62421728  1
  In  In18  1  0.16661556  -0.00377715  0.38108096  1
  In  In19  1  0.15771095  0.00902545  0.86401609  1
  In  In20  1  0.15244156  0.33252435  0.38348736  1
  In  In21  1  0.18354339  0.33934462  0.86467592  1
  In  In22  1  0.17652666  0.68169751  0.36623748  1
  In  In23  1  0.14625800  0.65151726  0.86077552  1
  In  In24  1  0.48880804  0.00719607  0.38160982  1
  In  In25  1  0.51632591  0.00815724  0.87284292  1
  In  In26  1  0.50485139  0.31929667  0.37359412  1
  In  In27  1  0.50382702  0.33088620  0.87345130  1
  In  In28  1  0.50128752  0.66915599  0.37500084  1
  In  In29  1  0.49386787  0.65243454  0.87363411  1
  In  In30  1  0.84699766  -0.00017345  0.37544460  1
  In  In31  1  0.84606678  0.00412314  0.87195246  1
  In  In32  1  0.82743281  0.34194886  0.38307332  1
  In  In33  1  0.82593401  0.34191252  0.87844878  1
  In  In34  1  0.82473613  0.65645423  0.36860058  1
  In  In35  1  0.82966612  0.66249362  0.87058114  1
  In  In36  1  0.00943479  0.15836225  0.38787974  1
  In  In37  1  -0.00172138  0.15622322  0.86973835  1
  In  In38  1  -0.01310072  0.49858548  0.37576521  1
  In  In39  1  -0.00726887  0.51049102  0.88477933  1
  In  In40  1  0.00944968  0.84124567  0.37005814  1
  In  In41  1  0.00338953  0.83026832  0.86185668  1
  In  In42  1  0.33943607  0.15669641  0.38290310  1
  In  In43  1  0.33292207  0.18262212  0.86850755  1
  In  In44  1  0.32322839  0.51145916  0.37131822  1
  In  In45  1  0.35056220  0.49088151  0.88588514  1
  In  In46  1  0.32684271  0.83141444  0.38251939  1
  In  In47  1  0.33242621  0.82830100  0.87254785  1
  In  In48  1  0.66034166  0.17370390  0.37973113  1
  In  In49  1  0.66204390  0.17824329  0.87815548  1
  In  In50  1  0.67497816  0.50532871  0.36860852  1
  In  In51  1  0.66521276  0.49844959  0.87410046  1
  In  In52  1  0.66611065  0.81610593  0.37608104  1
  In  In53  1  0.67590194  0.83428665  0.86634000  1
  In  In54  1  0.16940248  -0.00050529  0.13661588  1
  In  In55  1  0.15804720  -0.00874239  0.62176099  1
  In  In56  1  0.15209565  0.33785809  0.12210077  1
  In  In57  1  0.18143029  0.33398032  0.63291737  1
  In  In58  1  0.16654744  0.66767727  0.12694506  1
  In  In59  1  0.15988998  0.66640918  0.62461781  1
  In  In60  1  0.48888261  -0.00226640  0.12613392  1
  In  In61  1  0.49216841  -0.00626958  0.61356020  1
  In  In62  1  0.51119538  0.34728409  0.11981356  1
  In  In63  1  0.50972270  0.32545209  0.63167884  1
  In  In64  1  0.50812200  0.66006457  0.13301622  1
  In  In65  1  0.50370608  0.68090919  0.62602664  1
  In  In66  1  0.83668603  0.01455945  0.12656140  1
  In  In67  1  0.83915171  0.01842957  0.62389103  1
  In  In68  1  0.83092043  0.33201667  0.11764965  1
  In  In69  1  0.82245321  0.31934531  0.62558938  1
  In  In70  1  0.84116783  0.65544926  0.12720430  1
  In  In71  1  0.84062773  0.65651059  0.62755581  1
  In  In72  1  0.16236900  0.50259292  0.50671317  1
  In  In73  1  -0.00839832  0.33449966  0.24913655  1
  In  In74  1  0.66783420  -0.00294238  0.24823603  1
  In  In75  1  0.83427448  0.83430735  0.49549118  1
  In  In76  1  0.33627096  0.33462671  0.25177669  1
  In  In77  1  0.83429907  0.83232905  -0.00712109  1
  In  In78  1  0.16837124  0.82946750  0.00095685  1
  In  In79  1  0.49892747  0.50142219  0.49772592  1
  In  In80  1  0.67018383  -0.00106428  0.74312040  1
  In  In81  1  0.16614348  0.17449544  -0.00654019  1
  In  In82  1  0.49899087  0.83156279  0.00072140  1
  In  In83  1  0.32845551  -0.00584309  0.73758798  1
  In  In84  1  -0.00437480  0.33416535  0.75282135  1
  In  In85  1  0.33497701  0.66617814  0.74482185  1
  Cu  Cu86  1  0.33868239  0.00803292  0.00055420  1
  Cu  Cu87  1  0.66383563  0.33682750  -0.00173732  1
  Cu  Cu88  1  0.16389783  0.83521129  0.25594865  1
  Cu  Cu89  1  0.83532251  0.82858029  0.25397293  1
  Cu  Cu90  1  0.66262218  0.00247424  0.50320037  1
  Cu  Cu91  1  0.66941316  0.65891536  0.49641542  1
  Cu  Cu92  1  0.66852137  0.01756795  0.00054501  1
  Cu  Cu93  1  -0.00027939  0.00423528  -0.00089517  1
  Cu  Cu94  1  0.50305936  0.50368762  0.24663963  1
  Cu  Cu95  1  0.66869062  0.33029943  0.50500086  1
  Cu  Cu96  1  0.66399539  0.66119658  -0.00084626  1
  Cu  Cu97  1  0.16956448  0.15787908  0.26130427  1
  Cu  Cu98  1  0.83563240  0.82575115  0.74617459  1
  Cu  Cu99  1  0.83951911  0.16725181  0.24905416  1
  Cu  Cu100  1  0.00190519  0.66909654  0.50066202  1
  Cu  Cu101  1  0.83258631  0.50012585  0.24581643  1
  Cu  Cu102  1  0.33776109  0.33175311  -0.00274514  1
  Cu  Cu103  1  -0.00386991  0.33692855  -0.00343634  1
  Cu  Cu104  1  0.33769651  0.33013419  0.50202551  1
  Cu  Cu105  1  -0.00032232  -0.00220556  0.50180613  1
  Cu  Cu106  1  0.49309473  0.83290408  0.25597177  1
  Cu  Cu107  1  0.49570230  0.16648668  0.74620180  1
  Cu  Cu108  1  0.50183318  0.49436071  0.75454074  1
  Cu  Cu109  1  0.83145543  0.50071903  0.75459110  1
  Cu  Cu110  1  0.33088627  0.66031502  0.00344501  1
  Cu  Cu111  1  0.50532287  0.16724022  0.25329846  1
  Cu  Cu112  1  -0.00591747  0.32708393  0.50729402  1
  Cu  Cu113  1  0.16347384  0.50810189  0.24359767  1
  Cu  Cu114  1  0.32694351  0.00186317  0.50088201  1
  Se  Se115  1  0.08531015  0.07925296  0.05946067  1
  Se  Se116  1  0.08130969  0.08297725  0.55489705  1
  Se  Se117  1  0.08517135  0.41823046  0.04587393  1
  Se  Se118  1  0.07571787  0.40898140  0.56642903  1
  Se  Se119  1  0.07109755  0.74332967  0.05500589  1
  Se  Se120  1  0.08259084  0.75221367  0.55475261  1
  Se  Se121  1  0.42155199  0.08907688  0.05418086  1
  Se  Se122  1  0.41621877  0.08559902  0.54856546  1
  Se  Se123  1  0.41618681  0.41794456  0.05369431  1
  Se  Se124  1  0.41249590  0.41310520  0.56291299  1
  Se  Se125  1  0.40799027  0.74630428  0.06353217  1
  Se  Se126  1  0.42512962  0.74661241  0.54866973  1
  Se  Se127  1  0.75686914  0.09229450  0.05512037  1
  Se  Se128  1  0.74887142  0.08524332  0.55229226  1
  Se  Se129  1  0.74769871  0.41924133  0.05339789  1
  Se  Se130  1  0.75383685  0.41423815  0.55533819  1
  Se  Se131  1  0.74179334  0.74759359  0.05716740  1
  Se  Se132  1  0.74829400  0.74254627  0.55729452  1
  Se  Se133  1  0.25652269  0.25659419  0.06181494  1
  Se  Se134  1  0.24781407  0.25335546  0.55414730  1
  Se  Se135  1  0.24429611  0.58133221  0.05708755  1
  Se  Se136  1  0.26104383  0.59224895  0.55797740  1
  Se  Se137  1  0.25872627  0.92654218  0.05897029  1
  Se  Se138  1  0.24671969  0.91497935  0.55288240  1
  Se  Se139  1  0.58230629  0.25193126  0.05351188  1
  Se  Se140  1  0.57943403  0.24770354  0.55290402  1
  Se  Se141  1  0.58016795  0.58286894  0.05612832  1
  Se  Se142  1  0.59209908  0.58210101  0.56191496  1
  Se  Se143  1  0.59237174  0.92793871  0.05669303  1
  Se  Se144  1  0.58229342  0.91163350  0.54961815  1
  Se  Se145  1  0.92168061  0.24934158  0.05347367  1
  Se  Se146  1  0.91104631  0.24167337  0.55800449  1
  Se  Se147  1  0.90280950  0.58459413  0.04354759  1
  Se  Se148  1  0.92067436  0.58236315  0.55182507  1
  Se  Se149  1  0.92197845  0.92105595  0.05918044  1
  Se  Se150  1  0.92099252  0.91608362  0.56292696  1
  Se  Se151  1  0.08437242  0.24801025  0.45700277  1
  Se  Se152  1  0.07606479  0.26071944  0.93243817  1
  Se  Se153  1  0.07996003  0.58760937  0.43759645  1
  Se  Se154  1  0.08846033  0.58641221  0.94782444  1
  Se  Se155  1  0.08216981  0.91229822  0.44961392  1
  Se  Se156  1  0.07930423  0.92328708  0.93988157  1
  Se  Se157  1  0.42020309  0.24882200  0.44642151  1
  Se  Se158  1  0.41841968  0.24774454  0.94350830  1
  Se  Se159  1  0.40428229  0.59185965  0.44409477  1
  Se  Se160  1  0.42393541  0.58262511  0.95476826  1
  Se  Se161  1  0.41276539  0.91776252  0.44837476  1
  Se  Se162  1  0.41303917  0.92496487  0.93840224  1
  Se  Se163  1  0.75131619  0.24825388  0.44775363  1
  Se  Se164  1  0.75017355  0.25236328  0.94834072  1
  Se  Se165  1  0.75510129  0.57588915  0.44625990  1
  Se  Se166  1  0.74878918  0.58354680  0.94260214  1
  Se  Se167  1  0.74010475  0.92474510  0.43730311  1
  Se  Se168  1  0.74143027  0.93080761  0.94007689  1
  Se  Se169  1  0.24364370  0.08728862  0.44893034  1
  Se  Se170  1  0.25501695  0.07775711  0.93682174  1
  Se  Se171  1  0.25674101  0.41228940  0.44328699  1
  Se  Se172  1  0.25104867  0.41352079  0.94614368  1
  Se  Se173  1  0.24012255  0.74977461  0.44923940  1
  Se  Se174  1  0.25484212  0.73783505  0.93968951  1
  Se  Se175  1  0.58115791  0.08546497  0.44594388  1
  Se  Se176  1  0.57916930  0.09386469  0.94821156  1
  Se  Se177  1  0.59118559  0.40995875  0.44033745  1
  Se  Se178  1  0.57985660  0.41842666  0.94376623  1
  Se  Se179  1  0.58305694  0.74509249  0.45001710  1
  Se  Se180  1  0.59079179  0.74741514  0.93798001  1
  Se  Se181  1  0.91349726  0.08225784  0.45208374  1
  Se  Se182  1  0.91626248  0.08772385  0.94751877  1
  Se  Se183  1  0.91931686  0.41542760  0.45151836  1
  Se  Se184  1  0.90968877  0.42143218  0.94813723  1
  Se  Se185  1  0.92133163  0.74271749  0.43491100  1
  Se  Se186  1  0.92739159  0.74479305  0.93650044  1
  Se  Se187  1  0.24414800  0.24942866  0.31570790  1
  Se  Se188  1  0.23596921  0.23570932  0.79821794  1
  Se  Se189  1  0.24903512  0.58894126  0.29672969  1
  Se  Se190  1  0.26111804  0.57655720  0.81466328  1
  Se  Se191  1  0.24920670  0.91625322  0.30996808  1
  Se  Se192  1  0.24270955  0.90864913  0.80624256  1
  Se  Se193  1  0.59234835  0.25216394  0.29969269  1
  Se  Se194  1  0.58102532  0.24655779  0.80078122  1
  Se  Se195  1  0.58312859  0.58547916  0.30609029  1
  Se  Se196  1  0.58364012  0.58310171  0.80354499  1
  Se  Se197  1  0.57886422  0.91263616  0.31360017  1
  Se  Se198  1  0.57558375  0.90899328  0.80165513  1
  Se  Se199  1  0.91493235  0.24344807  0.31684097  1
  Se  Se200  1  0.90375880  0.24571873  0.81110331  1
  Se  Se201  1  0.91693713  0.58125365  0.30081157  1
  Se  Se202  1  0.91930055  0.58291675  0.80409214  1
  Se  Se203  1  0.91764085  0.91663651  0.30187153  1
  Se  Se204  1  0.91251959  0.91357495  0.80085452  1
  Se  Se205  1  0.08016727  0.07853483  0.31134855  1
  Se  Se206  1  0.07693646  0.08507005  0.79392823  1
  Se  Se207  1  0.08949445  0.42484175  0.30621840  1
  Se  Se208  1  0.08149761  0.42586873  0.81323132  1
  Se  Se209  1  0.07621292  0.74632305  0.30050919  1
  Se  Se210  1  0.09487718  0.75692243  0.79659663  1
  Se  Se211  1  0.41773764  0.08689581  0.30410839  1
  Se  Se212  1  0.41856006  0.08185900  0.80499757  1
  Se  Se213  1  0.42574476  0.42622202  0.31268364  1
  Se  Se214  1  0.41551997  0.41194369  0.80560490  1
  Se  Se215  1  0.41115664  0.75040304  0.31091238  1
  Se  Se216  1  0.42765854  0.75570992  0.80597123  1
  Se  Se217  1  0.75621237  0.08792071  0.30920835  1
  Se  Se218  1  0.74923860  0.08679834  0.81085634  1
  Se  Se219  1  0.75494807  0.41476458  0.30295055  1
  Se  Se220  1  0.74609742  0.41558838  0.80302067  1
  Se  Se221  1  0.74688347  0.74575760  0.30066780  1
  Se  Se222  1  0.74982109  0.74562048  0.79907283  1
  Se  Se223  1  0.25477017  0.08086977  0.20416320  1
  Se  Se224  1  0.24316428  0.09033668  0.68358327  1
  Se  Se225  1  0.24332258  0.42037644  0.18911289  1
  Se  Se226  1  0.24746359  0.41832078  0.70790577  1
  Se  Se227  1  0.24418019  0.75187315  0.19809711  1
  Se  Se228  1  0.24611432  0.76020156  0.68898692  1
  Se  Se229  1  0.58230988  0.08970838  0.18734331  1
  Se  Se230  1  0.57299567  0.08460897  0.68458942  1
  Se  Se231  1  0.58742224  0.41745535  0.19815064  1
  Se  Se232  1  0.58652700  0.41154142  0.70066286  1
  Se  Se233  1  0.57980499  0.75073905  0.20373530  1
  Se  Se234  1  0.59261683  0.74259730  0.69979213  1
  Se  Se235  1  0.92445206  0.08132223  0.20084800  1
  Se  Se236  1  0.90924044  0.08682798  0.70452362  1
  Se  Se237  1  0.91653387  0.42715087  0.18263884  1
  Se  Se238  1  0.90813788  0.42342155  0.68844690  1
  Se  Se239  1  0.91540853  0.74736652  0.19475692  1
  Se  Se240  1  0.92161320  0.74071489  0.69635162  1
  Se  Se241  1  0.09313105  0.24074376  0.19858746  1
  Se  Se242  1  0.08075867  0.24771850  0.68768868  1
  Se  Se243  1  0.07477002  0.58319444  0.18913978  1
  Se  Se244  1  0.10277083  0.57339225  0.69788633  1
  Se  Se245  1  0.08117517  0.91870936  0.20056153  1
  Se  Se246  1  0.07401627  0.92956296  0.69989685  1
  Se  Se247  1  0.42567042  0.24707274  0.18991510  1
  Se  Se248  1  0.41185234  0.25168273  0.69511201  1
  Se  Se249  1  0.41339797  0.58655807  0.19948855  1
  Se  Se250  1  0.42740825  0.57234682  0.68750969  1
  Se  Se251  1  0.41552696  0.92133172  0.20267210  1
  Se  Se252  1  0.42551159  0.90208123  0.68839490  1
  Se  Se253  1  0.75900604  0.25408150  0.19689060  1
  Se  Se254  1  0.74133130  0.24966215  0.70075636  1
  Se  Se255  1  0.74688821  0.58579128  0.19516819  1
  Se  Se256  1  0.75037383  0.58266905  0.69645152  1
  Se  Se257  1  0.75927243  0.90702131  0.18730730  1
  Se  Se258  1  0.76077105  0.90762132  0.68243657  1
