# generated using pymatgen
data_In86Cu29Se144
_symmetry_space_group_name_H-M   'P 1'
_cell_length_a   17.57509377
_cell_length_b   17.57659357
_cell_length_c   23.44088838
_cell_angle_alpha   89.98161892
_cell_angle_beta   90.00831803
_cell_angle_gamma   90.01326275
_symmetry_Int_Tables_number   1
_chemical_formula_structural   In86Cu29Se144
_chemical_formula_sum   'In86 Cu29 Se144'
_cell_volume   7241.13075588
_cell_formula_units_Z   1
loop_
 _symmetry_equiv_pos_site_id
 _symmetry_equiv_pos_as_xyz
  1  'x, y, z'
loop_
 _atom_site_type_symbol
 _atom_site_label
 _atom_site_symmetry_multiplicity
 _atom_site_fract_x
 _atom_site_fract_y
 _atom_site_fract_z
 _atom_site_occupancy
  In  In0  1  -0.00414738  0.18147632  0.13415192  1
  In  In1  1  0.00945988  0.17285236  0.62147259  1
  In  In2  1  0.00050328  0.49672515  0.12537165  1
  In  In3  1  0.00099772  0.48713355  0.62881439  1
  In  In4  1  0.00678447  0.81748425  0.13910103  1
  In  In5  1  0.00056245  0.83597618  0.60813075  1
  In  In6  1  0.33752326  0.15775915  0.12138991  1
  In  In7  1  0.31572402  0.16861985  0.62748919  1
  In  In8  1  0.34087208  0.51181594  0.11831880  1
  In  In9  1  0.33656497  0.50753606  0.62282771  1
  In  In10  1  0.30528929  0.83536903  0.12325538  1
  In  In11  1  0.33351960  0.82952946  0.62403854  1
  In  In12  1  0.67325619  0.14885340  0.12603294  1
  In  In13  1  0.66529950  0.16741460  0.63738405  1
  In  In14  1  0.66781634  0.49663684  0.11408200  1
  In  In15  1  0.65754992  0.51930136  0.64386897  1
  In  In16  1  0.68090148  0.84476791  0.12861657  1
  In  In17  1  0.66266777  0.83426755  0.62350940  1
  In  In18  1  0.15342269  0.00532693  0.38172413  1
  In  In19  1  0.17212128  -0.01125033  0.87980578  1
  In  In20  1  0.16021355  0.33474050  0.37940354  1
  In  In21  1  0.16537350  0.36067298  0.86908675  1
  In  In22  1  0.16800443  0.66402632  0.37483506  1
  In  In23  1  0.17839876  0.65601415  0.87862915  1
  In  In24  1  0.49106195  -0.01543291  0.37755200  1
  In  In25  1  0.49899657  0.00751062  0.85656905  1
  In  In26  1  0.50933914  0.34336857  0.38336232  1
  In  In27  1  0.52051052  0.33499091  0.87040996  1
  In  In28  1  0.49342618  0.67183548  0.38100194  1
  In  In29  1  0.49374849  0.65954467  0.86873853  1
  In  In30  1  0.82697423  -0.01432468  0.35982697  1
  In  In31  1  0.83731767  0.00941582  0.87724337  1
  In  In32  1  0.84036251  0.32785305  0.37302142  1
  In  In33  1  0.83276742  0.33566078  0.87346949  1
  In  In34  1  0.85126435  0.67047761  0.36654937  1
  In  In35  1  0.82041427  0.66676970  0.87373313  1
  In  In36  1  0.01051064  0.16788952  0.36262665  1
  In  In37  1  -0.01491256  0.16899920  0.88153689  1
  In  In38  1  0.01103156  0.51551948  0.35881409  1
  In  In39  1  0.00924702  0.49304529  0.87765114  1
  In  In40  1  0.00114059  0.83352815  0.37514674  1
  In  In41  1  0.00819538  0.84316172  0.87944391  1
  In  In42  1  0.32456617  0.15260383  0.37969125  1
  In  In43  1  0.34680728  0.16363151  0.86850716  1
  In  In44  1  0.31974622  0.50901584  0.38220896  1
  In  In45  1  0.32177348  0.51775830  0.88005479  1
  In  In46  1  0.34195502  0.82142766  0.38297601  1
  In  In47  1  0.32959209  0.82945727  0.86612208  1
  In  In48  1  0.68058915  0.16570131  0.37711516  1
  In  In49  1  0.67531022  0.17754488  0.86317771  1
  In  In50  1  0.66492262  0.49638169  0.38140468  1
  In  In51  1  0.66997342  0.49735416  0.87660104  1
  In  In52  1  0.65690611  0.83752096  0.38239322  1
  In  In53  1  0.66438351  0.82974897  0.86319619  1
  In  In54  1  0.17260959  -0.01643233  0.12609671  1
  In  In55  1  0.16679155  0.00244907  0.61920547  1
  In  In56  1  0.14790732  0.33701122  0.12841625  1
  In  In57  1  0.16237874  0.33093461  0.62238836  1
  In  In58  1  0.16565188  0.66612407  0.12747019  1
  In  In59  1  0.17353570  0.67459902  0.61963975  1
  In  In60  1  0.50516982  0.00315163  0.12407363  1
  In  In61  1  0.51109546  -0.00718497  0.63239203  1
  In  In62  1  0.49206914  0.33969429  0.11835863  1
  In  In63  1  0.49451084  0.34922152  0.62898669  1
  In  In64  1  0.50117444  0.65711639  0.12309044  1
  In  In65  1  0.49811860  0.66692707  0.62590341  1
  In  In66  1  0.82733296  0.00095994  0.12939499  1
  In  In67  1  0.83304542  -0.01119911  0.62163289  1
  In  In68  1  0.85243003  0.34594733  0.11267432  1
  In  In69  1  0.83132043  0.34833804  0.64379156  1
  In  In70  1  0.84762738  0.65749125  0.13239206  1
  In  In71  1  0.82108145  0.66629116  0.62497229  1
  In  In72  1  0.50824526  0.17045261  -0.00556495  1
  In  In73  1  0.49314784  0.83140301  -0.01212807  1
  In  In74  1  -0.00085383  0.66216073  0.74910043  1
  In  In75  1  0.32783447  0.33418934  0.25795994  1
  In  In76  1  0.83874369  0.82494956  0.00844875  1
  In  In77  1  0.16673178  0.17104277  0.00411457  1
  In  In78  1  0.67198996  0.66956272  0.24348770  1
  In  In79  1  0.33650865  0.33179534  0.75174630  1
  In  In80  1  0.49019385  0.16516107  0.50519787  1
  In  In81  1  0.32792962  -0.00671905  0.24896578  1
  In  In82  1  0.67368260  0.33306946  0.25262018  1
  In  In83  1  -0.00241146  0.00447283  0.74947975  1
  In  In84  1  0.83999749  0.16602470  0.49941690  1
  In  In85  1  0.83602734  0.50568512  0.50122291  1
  Cu  Cu86  1  0.32515030  -0.00861802  0.50207669  1
  Cu  Cu87  1  0.00272346  0.33472087  0.49878348  1
  Cu  Cu88  1  0.00571579  0.66473962  0.00599283  1
  Cu  Cu89  1  0.67423773  0.33025788  -0.00694375  1
  Cu  Cu90  1  0.83587696  0.16579490  0.24870212  1
  Cu  Cu91  1  0.82557774  0.83083190  0.74442184  1
  Cu  Cu92  1  0.16676939  0.82575763  0.25647528  1
  Cu  Cu93  1  0.66195742  0.34653208  0.50956390  1
  Cu  Cu94  1  0.32615867  0.67437414  -0.00117318  1
  Cu  Cu95  1  -0.00172359  -0.00245548  0.49269325  1
  Cu  Cu96  1  0.32705125  0.33470896  0.50663359  1
  Cu  Cu97  1  0.32973670  0.34416637  -0.00204459  1
  Cu  Cu98  1  0.67302038  -0.00083336  -0.00381761  1
  Cu  Cu99  1  0.83151087  0.16992199  0.75486806  1
  Cu  Cu100  1  0.16733069  0.50234795  0.24937025  1
  Cu  Cu101  1  0.50245094  0.50152360  0.75291248  1
  Cu  Cu102  1  0.49681479  0.50686510  0.24798795  1
  Cu  Cu103  1  -0.00199655  0.33517168  -0.00024177  1
  Cu  Cu104  1  0.49796938  0.83325783  0.25651981  1
  Cu  Cu105  1  0.66448700  0.67041570  0.50470481  1
  Cu  Cu106  1  0.50676382  0.16344661  0.24592267  1
  Cu  Cu107  1  0.16092331  0.16816104  0.74977526  1
  Cu  Cu108  1  0.49874481  0.82926108  0.74564495  1
  Cu  Cu109  1  0.00521494  -0.00130141  0.00299808  1
  Cu  Cu110  1  0.66666011  0.65450715  0.00008576  1
  Cu  Cu111  1  0.17032324  0.83077844  0.74739383  1
  Cu  Cu112  1  0.66322267  -0.00325448  0.49930692  1
  Cu  Cu113  1  0.33402917  0.66285812  0.50167644  1
  Cu  Cu114  1  0.00583185  0.66462880  0.49187884  1
  Se  Se115  1  0.08075218  0.08061835  0.06604509  1
  Se  Se116  1  0.07625214  0.08043779  0.55199729  1
  Se  Se117  1  0.08349126  0.41891359  0.05112915  1
  Se  Se118  1  0.08410055  0.41884212  0.55288479  1
  Se  Se119  1  0.08432169  0.75282006  0.05809841  1
  Se  Se120  1  0.08728074  0.74907837  0.54768413  1
  Se  Se121  1  0.41587886  0.07365966  0.04919687  1
  Se  Se122  1  0.40418500  0.07290058  0.56469464  1
  Se  Se123  1  0.41915215  0.42508300  0.04827827  1
  Se  Se124  1  0.41503645  0.41909971  0.55300026  1
  Se  Se125  1  0.41038873  0.75002932  0.06027545  1
  Se  Se126  1  0.41709516  0.74770730  0.55439582  1
  Se  Se127  1  0.75605234  0.08025198  0.05042479  1
  Se  Se128  1  0.74051499  0.08200999  0.55764537  1
  Se  Se129  1  0.75453691  0.41601875  0.04822628  1
  Se  Se130  1  0.74660505  0.42275367  0.56725978  1
  Se  Se131  1  0.74099633  0.73562071  0.06381413  1
  Se  Se132  1  0.75064391  0.75452375  0.55402454  1
  Se  Se133  1  0.25981494  0.26278160  0.06327094  1
  Se  Se134  1  0.24205502  0.24624277  0.55155757  1
  Se  Se135  1  0.24701191  0.58754356  0.05413045  1
  Se  Se136  1  0.24721253  0.58034162  0.55252606  1
  Se  Se137  1  0.26021562  0.92987990  0.04749843  1
  Se  Se138  1  0.24252132  0.90763882  0.55579455  1
  Se  Se139  1  0.59657883  0.25557030  0.06194813  1
  Se  Se140  1  0.58605141  0.25493348  0.56216940  1
  Se  Se141  1  0.57609392  0.57605550  0.05015680  1
  Se  Se142  1  0.58689050  0.58309570  0.55941412  1
  Se  Se143  1  0.58961384  0.91726350  0.05223546  1
  Se  Se144  1  0.57864162  0.91561152  0.55268677  1
  Se  Se145  1  0.92032418  0.24328814  0.05029747  1
  Se  Se146  1  0.91517335  0.26606181  0.56186639  1
  Se  Se147  1  0.91835214  0.58121694  0.05451338  1
  Se  Se148  1  0.92864838  0.59301749  0.56174776  1
  Se  Se149  1  0.92687179  0.91810157  0.06530930  1
  Se  Se150  1  0.91014259  0.91752440  0.54463297  1
  Se  Se151  1  0.07749644  0.24495252  0.44412488  1
  Se  Se152  1  0.08296975  0.25995958  0.93815257  1
  Se  Se153  1  0.08590711  0.57557570  0.44264683  1
  Se  Se154  1  0.08455648  0.58399662  0.94559486  1
  Se  Se155  1  0.08605395  0.90891385  0.44905381  1
  Se  Se156  1  0.08982539  0.91449476  0.95400770  1
  Se  Se157  1  0.40585032  0.25803804  0.44039096  1
  Se  Se158  1  0.41165414  0.26250097  0.94018006  1
  Se  Se159  1  0.41769069  0.57933951  0.44711252  1
  Se  Se160  1  0.41432583  0.59191620  0.94769910  1
  Se  Se161  1  0.41592109  0.91133025  0.45357645  1
  Se  Se162  1  0.41189684  0.92851092  0.93077341  1
  Se  Se163  1  0.74239872  0.26619701  0.44926491  1
  Se  Se164  1  0.75489006  0.24304940  0.94244419  1
  Se  Se165  1  0.74679494  0.59698132  0.43988514  1
  Se  Se166  1  0.75531040  0.57803629  0.94735210  1
  Se  Se167  1  0.75049582  0.92180822  0.44254752  1
  Se  Se168  1  0.75035064  0.91027902  0.93992869  1
  Se  Se169  1  0.24349986  0.07983285  0.45268355  1
  Se  Se170  1  0.25715255  0.08639918  0.94081347  1
  Se  Se171  1  0.24597832  0.41489917  0.44722072  1
  Se  Se172  1  0.24422490  0.42707849  0.94775966  1
  Se  Se173  1  0.24917589  0.74446513  0.44707823  1
  Se  Se174  1  0.24713940  0.75749928  0.94219282  1
  Se  Se175  1  0.58483957  0.08199860  0.44075938  1
  Se  Se176  1  0.59201885  0.07542692  0.93451576  1
  Se  Se177  1  0.57911727  0.42901087  0.45638913  1
  Se  Se178  1  0.58510593  0.41578580  0.94860359  1
  Se  Se179  1  0.57814571  0.75117739  0.45018989  1
  Se  Se180  1  0.59343599  0.74018351  0.93967514  1
  Se  Se181  1  0.91969797  0.07954730  0.43228730  1
  Se  Se182  1  0.91699425  0.07986894  0.95376879  1
  Se  Se183  1  0.92420200  0.41678601  0.43861658  1
  Se  Se184  1  0.91624574  0.41696390  0.94347078  1
  Se  Se185  1  0.91787936  0.74904368  0.44523070  1
  Se  Se186  1  0.92654553  0.74121554  0.94021951  1
  Se  Se187  1  0.24105117  0.23656451  0.31074711  1
  Se  Se188  1  0.23968985  0.24683989  0.81329325  1
  Se  Se189  1  0.25231994  0.58467042  0.30223535  1
  Se  Se190  1  0.25063966  0.58552015  0.79928622  1
  Se  Se191  1  0.24673900  0.90724307  0.31674997  1
  Se  Se192  1  0.24820346  0.92038202  0.80026851  1
  Se  Se193  1  0.57700530  0.24400211  0.31185201  1
  Se  Se194  1  0.55992104  0.22572146  0.80504039  1
  Se  Se195  1  0.58239166  0.58163951  0.30866932  1
  Se  Se196  1  0.58874058  0.58313178  0.80619483  1
  Se  Se197  1  0.58157089  0.91813365  0.30606465  1
  Se  Se198  1  0.58300791  0.91466895  0.79733002  1
  Se  Se199  1  0.91843831  0.25122428  0.30045747  1
  Se  Se200  1  0.91928566  0.25093204  0.80514453  1
  Se  Se201  1  0.91150981  0.57976120  0.29463611  1
  Se  Se202  1  0.91150503  0.57818582  0.81329029  1
  Se  Se203  1  0.94019985  0.93098828  0.30480797  1
  Se  Se204  1  0.90804124  0.90712000  0.80717003  1
  Se  Se205  1  0.08321037  0.07057492  0.29972742  1
  Se  Se206  1  0.08621518  0.08828577  0.81577071  1
  Se  Se207  1  0.08825269  0.41389981  0.30227138  1
  Se  Se208  1  0.07747167  0.42134464  0.79495797  1
  Se  Se209  1  0.07962675  0.74291881  0.30687061  1
  Se  Se210  1  0.08766494  0.75606506  0.80964367  1
  Se  Se211  1  0.42272340  0.08724438  0.30707770  1
  Se  Se212  1  0.40419347  0.07930201  0.79144497  1
  Se  Se213  1  0.42407554  0.42494118  0.31223093  1
  Se  Se214  1  0.42010717  0.42453767  0.81525018  1
  Se  Se215  1  0.41502433  0.74589028  0.30422654  1
  Se  Se216  1  0.41591654  0.74674105  0.80090891  1
  Se  Se217  1  0.74813632  0.08575961  0.30121100  1
  Se  Se218  1  0.75257076  0.07727823  0.80324998  1
  Se  Se219  1  0.75993072  0.42783674  0.31075337  1
  Se  Se220  1  0.72759797  0.39491606  0.80955134  1
  Se  Se221  1  0.74941111  0.75716789  0.31248198  1
  Se  Se222  1  0.74659074  0.74360799  0.79703557  1
  Se  Se223  1  0.24315182  0.09050395  0.19168781  1
  Se  Se224  1  0.23925112  0.08135578  0.69668627  1
  Se  Se225  1  0.25020726  0.42352806  0.18853601  1
  Se  Se226  1  0.24867448  0.41868883  0.68983581  1
  Se  Se227  1  0.25032501  0.74610264  0.19978284  1
  Se  Se228  1  0.25359310  0.74615153  0.69629958  1
  Se  Se229  1  0.58773934  0.07499050  0.19807295  1
  Se  Se230  1  0.58200936  0.08329029  0.70056193  1
  Se  Se231  1  0.57645975  0.42070196  0.19262628  1
  Se  Se232  1  0.58433541  0.41442553  0.70146910  1
  Se  Se233  1  0.57600855  0.76118963  0.18748372  1
  Se  Se234  1  0.58558238  0.74750066  0.69364404  1
  Se  Se235  1  0.91755524  0.08328700  0.19356584  1
  Se  Se236  1  0.90770967  0.09351270  0.68730543  1
  Se  Se237  1  0.92432535  0.40770264  0.19441261  1
  Se  Se238  1  0.92766547  0.41702440  0.70787865  1
  Se  Se239  1  0.89334332  0.76526220  0.19694324  1
  Se  Se240  1  0.91675903  0.76048337  0.68672847  1
  Se  Se241  1  0.09051856  0.24815801  0.20243161  1
  Se  Se242  1  0.08083004  0.25329631  0.69682015  1
  Se  Se243  1  0.08123473  0.58309011  0.19483210  1
  Se  Se244  1  0.09234645  0.58067433  0.68746589  1
  Se  Se245  1  0.08961553  0.91110884  0.19956402  1
  Se  Se246  1  0.08251749  0.90854484  0.69028590  1
  Se  Se247  1  0.42263937  0.24503638  0.19237530  1
  Se  Se248  1  0.42119396  0.24222923  0.68788602  1
  Se  Se249  1  0.41313157  0.58961069  0.19666072  1
  Se  Se250  1  0.41833452  0.58178207  0.69694778  1
  Se  Se251  1  0.42025196  0.90653316  0.18670693  1
  Se  Se252  1  0.41518446  0.91374425  0.69335539  1
  Se  Se253  1  0.75727961  0.24679844  0.18649136  1
  Se  Se254  1  0.74754503  0.25437966  0.70233251  1
  Se  Se255  1  0.75384744  0.56525410  0.19127195  1
  Se  Se256  1  0.77008454  0.57432838  0.70040560  1
  Se  Se257  1  0.75129363  0.92108044  0.20364569  1
  Se  Se258  1  0.74577121  0.91974178  0.69345516  1
