# generated using pymatgen
data_In86Cu29Se144
_symmetry_space_group_name_H-M   'P 1'
_cell_length_a   17.59235701
_cell_length_b   17.58923383
_cell_length_c   23.44825758
_cell_angle_alpha   90.01468937
_cell_angle_beta   90.00595124
_cell_angle_gamma   89.98105295
_symmetry_Int_Tables_number   1
_chemical_formula_structural   In86Cu29Se144
_chemical_formula_sum   'In86 Cu29 Se144'
_cell_volume   7255.73625502
_cell_formula_units_Z   1
loop_
 _symmetry_equiv_pos_site_id
 _symmetry_equiv_pos_as_xyz
  1  'x, y, z'
loop_
 _atom_site_type_symbol
 _atom_site_label
 _atom_site_symmetry_multiplicity
 _atom_site_fract_x
 _atom_site_fract_y
 _atom_site_fract_z
 _atom_site_occupancy
  In  In0  1  0.00000410  0.16512362  0.13490295  1
  In  In1  1  -0.00323087  0.15551934  0.61945401  1
  In  In2  1  -0.00708052  0.49821631  0.12357239  1
  In  In3  1  0.01639310  0.48826074  0.63158406  1
  In  In4  1  0.00636120  0.84172228  0.11502722  1
  In  In5  1  -0.00531384  0.83333663  0.62946191  1
  In  In6  1  0.33542882  0.16859077  0.12350936  1
  In  In7  1  0.33532046  0.16285370  0.62972364  1
  In  In8  1  0.33762423  0.49061639  0.11461947  1
  In  In9  1  0.31365523  0.50927571  0.63417559  1
  In  In10  1  0.33238549  0.83613641  0.11183441  1
  In  In11  1  0.33172150  0.83201199  0.62805702  1
  In  In12  1  0.66972595  0.16226320  0.12731036  1
  In  In13  1  0.65732897  0.15250783  0.62080339  1
  In  In14  1  0.67688378  0.51327402  0.11848284  1
  In  In15  1  0.66832834  0.50164055  0.62440632  1
  In  In16  1  0.65986340  0.82172560  0.11665112  1
  In  In17  1  0.68923344  0.85748472  0.61646524  1
  In  In18  1  0.14666625  0.01426506  0.39961280  1
  In  In19  1  0.16283856  -0.00714300  0.86656271  1
  In  In20  1  0.15170102  0.33458546  0.39978985  1
  In  In21  1  0.15679042  0.32409857  0.86463546  1
  In  In22  1  0.15771480  0.67438983  0.38869993  1
  In  In23  1  0.17563021  0.67875575  0.86400890  1
  In  In24  1  0.50139243  -0.00449802  0.38570855  1
  In  In25  1  0.48712875  -0.01768184  0.86341888  1
  In  In26  1  0.49604627  0.33627022  0.38022889  1
  In  In27  1  0.50122149  0.34325589  0.87434289  1
  In  In28  1  0.50685619  0.66908907  0.36755458  1
  In  In29  1  0.49192652  0.67697015  0.87956784  1
  In  In30  1  0.84592690  -0.00891832  0.39064511  1
  In  In31  1  0.82122011  -0.01166649  0.84056383  1
  In  In32  1  0.84116215  0.31633593  0.38411301  1
  In  In33  1  0.85147682  0.34395544  0.87541719  1
  In  In34  1  0.82986239  0.68041192  0.37382365  1
  In  In35  1  0.83816862  0.66579651  0.87468432  1
  In  In36  1  -0.00068529  0.16573679  0.38385798  1
  In  In37  1  -0.01134807  0.17206155  0.86064050  1
  In  In38  1  0.01075111  0.49643695  0.38077138  1
  In  In39  1  -0.01090289  0.49199604  0.87285830  1
  In  In40  1  -0.00834695  0.84050817  0.39268600  1
  In  In41  1  -0.00106783  0.84248917  0.86417863  1
  In  In42  1  0.33588236  0.16912943  0.38918692  1
  In  In43  1  0.32319893  0.15653116  0.86070809  1
  In  In44  1  0.32799485  0.49074317  0.37808947  1
  In  In45  1  0.33742727  0.50645605  0.86851740  1
  In  In46  1  0.32526936  0.84072486  0.38334832  1
  In  In47  1  0.33731507  0.83566259  0.87133233  1
  In  In48  1  0.67515573  0.15469825  0.39145801  1
  In  In49  1  0.68330463  0.15067473  0.86767954  1
  In  In50  1  0.65771904  0.50574400  0.36818742  1
  In  In51  1  0.66500067  0.50961428  0.88231129  1
  In  In52  1  0.66390840  0.82979368  0.37366024  1
  In  In53  1  0.66738292  0.83710091  0.87407297  1
  In  In54  1  0.15815332  -0.01055371  0.12354892  1
  In  In55  1  0.16294679  0.00358118  0.62099328  1
  In  In56  1  0.16552405  0.31919789  0.12588650  1
  In  In57  1  0.15991185  0.33405519  0.61969197  1
  In  In58  1  0.15240008  0.67519390  0.12429692  1
  In  In59  1  0.16460046  0.66639756  0.62881496  1
  In  In60  1  0.50381884  -0.00834234  0.12010809  1
  In  In61  1  0.49957050  -0.00533606  0.62853316  1
  In  In62  1  0.48630580  0.33525681  0.11868915  1
  In  In63  1  0.49546475  0.31742691  0.62576608  1
  In  In64  1  0.51599085  0.68365454  0.11496768  1
  In  In65  1  0.48425175  0.67104555  0.63182472  1
  In  In66  1  0.84643968  0.00525256  0.12311408  1
  In  In67  1  0.83998369  -0.00597356  0.62806628  1
  In  In68  1  0.83672395  0.34315443  0.12397923  1
  In  In69  1  0.87030043  0.30882812  0.63549874  1
  In  In70  1  0.82865738  0.66384822  0.11906868  1
  In  In71  1  0.83929712  0.69299884  0.62889537  1
  In  In72  1  0.83280934  0.50020253  0.50465877  1
  In  In73  1  -0.00475672  0.66931813  0.24943062  1
  In  In74  1  0.49496789  0.50334921  0.49626129  1
  In  In75  1  0.16101808  0.16027198  -0.02103475  1
  In  In76  1  0.67153429  -0.00896752  0.25936191  1
  In  In77  1  0.50112563  0.16158971  0.00203082  1
  In  In78  1  0.16350202  0.50327654  -0.00185560  1
  In  In79  1  0.66258424  0.67398357  0.75646154  1
  In  In80  1  0.32657588  -0.00374722  0.24521991  1
  In  In81  1  0.66526462  0.33207214  0.74874101  1
  In  In82  1  0.32831677  0.33188717  0.26119884  1
  In  In83  1  0.33094365  0.66524162  0.24827945  1
  In  In84  1  0.67087860  0.33538638  0.25042221  1
  In  In85  1  0.83886022  0.16856681  -0.00596916  1
  Cu  Cu86  1  0.50842000  0.51127090  0.24069044  1
  Cu  Cu87  1  0.66243324  0.67529688  0.50013515  1
  Cu  Cu88  1  0.16570209  0.49038173  0.25890671  1
  Cu  Cu89  1  0.50475797  0.16343428  0.26070704  1
  Cu  Cu90  1  0.33587822  0.66775321  -0.00799743  1
  Cu  Cu91  1  0.32807909  0.67282770  0.50704962  1
  Cu  Cu92  1  0.16561500  0.17158946  0.73716601  1
  Cu  Cu93  1  0.33627790  0.33559614  0.50641393  1
  Cu  Cu94  1  0.48522443  0.49631800  0.75067021  1
  Cu  Cu95  1  0.67041267  -0.00645389  -0.01112543  1
  Cu  Cu96  1  0.83413710  0.50363968  0.74791294  1
  Cu  Cu97  1  0.16636936  0.83458898  0.74439407  1
  Cu  Cu98  1  0.67305090  0.66797685  -0.00332590  1
  Cu  Cu99  1  0.49921361  0.16104722  0.74861260  1
  Cu  Cu100  1  0.15813029  0.84170112  0.25100126  1
  Cu  Cu101  1  0.16003539  0.49607742  0.75288860  1
  Cu  Cu102  1  0.67174404  0.33005176  0.51175894  1
  Cu  Cu103  1  0.83393705  0.83819673  0.25343209  1
  Cu  Cu104  1  0.84898582  0.16304473  0.25694000  1
  Cu  Cu105  1  0.15530271  0.16310601  0.25951496  1
  Cu  Cu106  1  0.33493361  0.33259223  -0.00989378  1
  Cu  Cu107  1  0.67096045  0.34052322  -0.00216564  1
  Cu  Cu108  1  -0.00275225  0.66700054  0.50936466  1
  Cu  Cu109  1  0.00089100  0.67574959  -0.00658571  1
  Cu  Cu110  1  0.50358023  0.83112805  0.74785367  1
  Cu  Cu111  1  0.34249870  -0.00570717  0.51069617  1
  Cu  Cu112  1  0.66308006  -0.00347771  0.50423796  1
  Cu  Cu113  1  0.83731615  0.49755332  0.24617640  1
  Cu  Cu114  1  -0.00221496  0.00059467  -0.00974319  1
  Se  Se115  1  0.07355763  0.08229050  0.05352636  1
  Se  Se116  1  0.10178755  0.10232994  0.54970571  1
  Se  Se117  1  0.08136167  0.40728605  0.05906205  1
  Se  Se118  1  0.08169957  0.41867245  0.54969205  1
  Se  Se119  1  0.08728290  0.75566107  0.04706043  1
  Se  Se120  1  0.08123274  0.74985279  0.56110337  1
  Se  Se121  1  0.40478514  0.07124957  0.05654640  1
  Se  Se122  1  0.42225445  0.08447497  0.55978881  1
  Se  Se123  1  0.41975464  0.41629141  0.04139249  1
  Se  Se124  1  0.41329746  0.42047752  0.56592903  1
  Se  Se125  1  0.41784293  0.75013889  0.04874245  1
  Se  Se126  1  0.41748867  0.75224441  0.55550688  1
  Se  Se127  1  0.74281696  0.07633836  0.05308334  1
  Se  Se128  1  0.75029938  0.07401265  0.55830554  1
  Se  Se129  1  0.75425698  0.42021604  0.05364367  1
  Se  Se130  1  0.75533688  0.40494193  0.57054940  1
  Se  Se131  1  0.75586435  0.75373121  0.04937755  1
  Se  Se132  1  0.75168685  0.75318803  0.55181019  1
  Se  Se133  1  0.25474243  0.25021589  0.04851938  1
  Se  Se134  1  0.25713237  0.25142399  0.56077590  1
  Se  Se135  1  0.25507324  0.59523270  0.05942054  1
  Se  Se136  1  0.24555290  0.58484381  0.55471886  1
  Se  Se137  1  0.24409092  0.92088292  0.05320955  1
  Se  Se138  1  0.25048219  0.91447656  0.55808596  1
  Se  Se139  1  0.59447157  0.25812545  0.05929401  1
  Se  Se140  1  0.58069278  0.24610100  0.55468614  1
  Se  Se141  1  0.58576068  0.58566658  0.04987842  1
  Se  Se142  1  0.58485987  0.59201704  0.55897651  1
  Se  Se143  1  0.58781447  0.91720491  0.04901517  1
  Se  Se144  1  0.57855779  0.91192850  0.55540536  1
  Se  Se145  1  0.92461760  0.25278355  0.06046125  1
  Se  Se146  1  0.91245199  0.23569999  0.54739313  1
  Se  Se147  1  0.92693034  0.59227626  0.05491855  1
  Se  Se148  1  0.91753732  0.58662783  0.56992394  1
  Se  Se149  1  0.91536893  0.92038296  0.04892115  1
  Se  Se150  1  0.91527714  0.91068595  0.55574693  1
  Se  Se151  1  0.10105858  0.21933484  0.45684665  1
  Se  Se152  1  0.06345137  0.25888900  0.93958192  1
  Se  Se153  1  0.07880868  0.58426219  0.45296476  1
  Se  Se154  1  0.08061065  0.59275765  0.93402240  1
  Se  Se155  1  0.09119148  0.90371878  0.45727032  1
  Se  Se156  1  0.08335102  0.91583548  0.94052502  1
  Se  Se157  1  0.42274526  0.25485659  0.45294417  1
  Se  Se158  1  0.41185660  0.24450013  0.93425510  1
  Se  Se159  1  0.40402992  0.59697807  0.43809362  1
  Se  Se160  1  0.41793233  0.57945570  0.94398671  1
  Se  Se161  1  0.41925664  0.91025694  0.45165203  1
  Se  Se162  1  0.42566248  0.90671866  0.94384868  1
  Se  Se163  1  0.75231035  0.24768810  0.45499883  1
  Se  Se164  1  0.74287188  0.25710454  0.93622161  1
  Se  Se165  1  0.73957742  0.58876535  0.44156289  1
  Se  Se166  1  0.75858942  0.58356368  0.94662160  1
  Se  Se167  1  0.74070223  0.91528330  0.44374613  1
  Se  Se168  1  0.76154338  0.92539898  0.93105676  1
  Se  Se169  1  0.26215367  0.07503055  0.45249635  1
  Se  Se170  1  0.26232172  0.06676121  0.93861997  1
  Se  Se171  1  0.25127457  0.41853773  0.45371233  1
  Se  Se172  1  0.24767324  0.40979206  0.93452130  1
  Se  Se173  1  0.24530378  0.75632969  0.45185288  1
  Se  Se174  1  0.25218634  0.75184985  0.94100049  1
  Se  Se175  1  0.57758344  0.08327001  0.45352815  1
  Se  Se176  1  0.58694983  0.07727818  0.93509602  1
  Se  Se177  1  0.59789772  0.41073928  0.44672673  1
  Se  Se178  1  0.58255053  0.41988552  0.94604331  1
  Se  Se179  1  0.57691354  0.75055797  0.44325369  1
  Se  Se180  1  0.58963717  0.74969055  0.94202381  1
  Se  Se181  1  0.90327404  0.09764816  0.45171625  1
  Se  Se182  1  0.91520335  0.07513610  0.92929831  1
  Se  Se183  1  0.92476234  0.40918726  0.44828115  1
  Se  Se184  1  0.91394947  0.42468328  0.95340759  1
  Se  Se185  1  0.91165795  0.74306633  0.45181830  1
  Se  Se186  1  0.92045413  0.75766912  0.93680866  1
  Se  Se187  1  0.23873067  0.24187649  0.31876694  1
  Se  Se188  1  0.24765442  0.25070120  0.79747793  1
  Se  Se189  1  0.23951492  0.58044217  0.31362436  1
  Se  Se190  1  0.24798114  0.58069873  0.80075687  1
  Se  Se191  1  0.23575784  0.92036029  0.31286768  1
  Se  Se192  1  0.25202358  0.91404396  0.80018634  1
  Se  Se193  1  0.58555942  0.24553837  0.31674701  1
  Se  Se194  1  0.57831521  0.24006027  0.81193692  1
  Se  Se195  1  0.59043318  0.59245652  0.29488480  1
  Se  Se196  1  0.57022946  0.57572512  0.80810577  1
  Se  Se197  1  0.56594770  0.90843302  0.30676898  1
  Se  Se198  1  0.58833681  0.91505749  0.79991561  1
  Se  Se199  1  0.92601515  0.25224787  0.30852727  1
  Se  Se200  1  0.89583511  0.25049842  0.79878028  1
  Se  Se201  1  0.91165706  0.57637924  0.31331766  1
  Se  Se202  1  0.91766131  0.58397210  0.80339110  1
  Se  Se203  1  0.91701643  0.91254382  0.31297785  1
  Se  Se204  1  0.94753445  0.94876788  0.79265946  1
  Se  Se205  1  0.07827770  0.07682727  0.31383917  1
  Se  Se206  1  0.09430813  0.09805541  0.80661490  1
  Se  Se207  1  0.08731254  0.40641510  0.31379872  1
  Se  Se208  1  0.07352602  0.41278278  0.80262862  1
  Se  Se209  1  0.08260499  0.75798010  0.31195353  1
  Se  Se210  1  0.08188974  0.75291077  0.79883515  1
  Se  Se211  1  0.41616480  0.08472970  0.31240860  1
  Se  Se212  1  0.41292791  0.07532507  0.79725219  1
  Se  Se213  1  0.43034374  0.43164031  0.30383835  1
  Se  Se214  1  0.40856245  0.40727545  0.80335460  1
  Se  Se215  1  0.41191670  0.75900822  0.30943515  1
  Se  Se216  1  0.41841756  0.74910098  0.80099773  1
  Se  Se217  1  0.76077078  0.08709496  0.31337857  1
  Se  Se218  1  0.75168389  0.09183240  0.78299901  1
  Se  Se219  1  0.76161487  0.42100807  0.31432436  1
  Se  Se220  1  0.74944635  0.42837419  0.80835447  1
  Se  Se221  1  0.74745704  0.75239317  0.30013478  1
  Se  Se222  1  0.76297221  0.76144133  0.80478181  1
  Se  Se223  1  0.23643843  0.09542028  0.19064687  1
  Se  Se224  1  0.24897798  0.07884298  0.69452978  1
  Se  Se225  1  0.24590503  0.42049031  0.19177930  1
  Se  Se226  1  0.24060476  0.41221089  0.69627911  1
  Se  Se227  1  0.23880701  0.76119891  0.19213367  1
  Se  Se228  1  0.25191106  0.74648454  0.69765057  1
  Se  Se229  1  0.57774628  0.08476499  0.19594512  1
  Se  Se230  1  0.58353361  0.07712195  0.69839126  1
  Se  Se231  1  0.57951856  0.41811867  0.18426897  1
  Se  Se232  1  0.57074225  0.42435914  0.68967436  1
  Se  Se233  1  0.58508940  0.75336664  0.19569333  1
  Se  Se234  1  0.58598405  0.75754080  0.68406820  1
  Se  Se235  1  0.92376706  0.07465141  0.20168726  1
  Se  Se236  1  0.93360994  0.06728160  0.69689420  1
  Se  Se237  1  0.92211372  0.41338272  0.19798249  1
  Se  Se238  1  0.91924354  0.41844659  0.69878115  1
  Se  Se239  1  0.91062433  0.76054586  0.18792796  1
  Se  Se240  1  0.92130781  0.75249407  0.70622516  1
  Se  Se241  1  0.08262828  0.25202553  0.20125317  1
  Se  Se242  1  0.07521915  0.24988863  0.68696948  1
  Se  Se243  1  0.09124440  0.57382109  0.19608677  1
  Se  Se244  1  0.08171146  0.58447829  0.69986600  1
  Se  Se245  1  0.07200126  0.91997236  0.19661508  1
  Se  Se246  1  0.08477661  0.91973854  0.69228302  1
  Se  Se247  1  0.42514450  0.24327263  0.19914378  1
  Se  Se248  1  0.41523068  0.24937395  0.70183881  1
  Se  Se249  1  0.41853597  0.58017925  0.18191259  1
  Se  Se250  1  0.40736267  0.58557338  0.69958926  1
  Se  Se251  1  0.42082747  0.90580549  0.18997445  1
  Se  Se252  1  0.41594382  0.91331806  0.69779767  1
  Se  Se253  1  0.76409461  0.23845396  0.19526144  1
  Se  Se254  1  0.74770075  0.24735188  0.68289356  1
  Se  Se255  1  0.75598976  0.58368076  0.19553795  1
  Se  Se256  1  0.75332057  0.58548689  0.69116399  1
  Se  Se257  1  0.75601272  0.91400961  0.18700056  1
  Se  Se258  1  0.75299034  0.91994222  0.70144865  1
