# generated using pymatgen
data_In86Cu29Se144
_symmetry_space_group_name_H-M   'P 1'
_cell_length_a   17.58170184
_cell_length_b   17.58003071
_cell_length_c   23.45012654
_cell_angle_alpha   89.98644557
_cell_angle_beta   90.01613453
_cell_angle_gamma   90.02462993
_symmetry_Int_Tables_number   1
_chemical_formula_structural   In86Cu29Se144
_chemical_formula_sum   'In86 Cu29 Se144'
_cell_volume   7248.12478173
_cell_formula_units_Z   1
loop_
 _symmetry_equiv_pos_site_id
 _symmetry_equiv_pos_as_xyz
  1  'x, y, z'
loop_
 _atom_site_type_symbol
 _atom_site_label
 _atom_site_symmetry_multiplicity
 _atom_site_fract_x
 _atom_site_fract_y
 _atom_site_fract_z
 _atom_site_occupancy
  In  In0  1  -0.00631904  0.16077144  0.11807495  1
  In  In1  1  -0.00234270  0.17787717  0.62687550  1
  In  In2  1  0.00035620  0.49197806  0.12065138  1
  In  In3  1  0.00115521  0.49577821  0.62754889  1
  In  In4  1  0.01312435  0.84031296  0.12611080  1
  In  In5  1  0.00169488  0.81567144  0.62579692  1
  In  In6  1  0.32119602  0.16953754  0.12507364  1
  In  In7  1  0.33694515  0.15890220  0.63205767  1
  In  In8  1  0.34209024  0.50528455  0.11771307  1
  In  In9  1  0.31233573  0.50549497  0.62338138  1
  In  In10  1  0.34239030  0.82204860  0.13360159  1
  In  In11  1  0.34230481  0.83181892  0.60927828  1
  In  In12  1  0.67637349  0.15572047  0.13351320  1
  In  In13  1  0.66170035  0.15654381  0.60910202  1
  In  In14  1  0.65516499  0.51659967  0.13838854  1
  In  In15  1  0.68290314  0.50577100  0.62322672  1
  In  In16  1  0.65059863  0.85057611  0.13917363  1
  In  In17  1  0.65080802  0.82702654  0.61559066  1
  In  In18  1  0.15784351  -0.01514266  0.37006064  1
  In  In19  1  0.17985283  -0.00661028  0.87435657  1
  In  In20  1  0.17419226  0.34160920  0.37922434  1
  In  In21  1  0.16916103  0.33461953  0.87308653  1
  In  In22  1  0.17856408  0.66321283  0.38645569  1
  In  In23  1  0.15529850  0.67133151  0.86940607  1
  In  In24  1  0.50280770  0.00013736  0.37158358  1
  In  In25  1  0.49189510  0.00509500  0.87990621  1
  In  In26  1  0.50250086  0.31297468  0.37776505  1
  In  In27  1  0.50780145  0.34601685  0.87485826  1
  In  In28  1  0.50906965  0.68070636  0.37686883  1
  In  In29  1  0.50481678  0.66315581  0.87993955  1
  In  In30  1  0.83883070  -0.00414731  0.36729185  1
  In  In31  1  0.83940094  0.00759639  0.87965347  1
  In  In32  1  0.82241368  0.34710547  0.38362031  1
  In  In33  1  0.82897401  0.32439474  0.87328476  1
  In  In34  1  0.79745637  0.66759480  0.38604772  1
  In  In35  1  0.83108926  0.66048843  0.86269861  1
  In  In36  1  -0.00301290  0.14978111  0.37318458  1
  In  In37  1  -0.00653084  0.17898982  0.87803121  1
  In  In38  1  0.00098515  0.49941499  0.38307202  1
  In  In39  1  0.00997480  0.51288750  0.86360071  1
  In  In40  1  -0.00540648  0.84342940  0.37678778  1
  In  In41  1  0.00913240  0.81761876  0.86791957  1
  In  In42  1  0.35259226  0.15918181  0.37741743  1
  In  In43  1  0.32302520  0.15564813  0.87039777  1
  In  In44  1  0.32044198  0.49963464  0.37969323  1
  In  In45  1  0.34163532  0.49295559  0.87699508  1
  In  In46  1  0.33463505  0.83371410  0.37772322  1
  In  In47  1  0.33359629  0.84849100  0.87300504  1
  In  In48  1  0.66584418  0.16392563  0.37359511  1
  In  In49  1  0.67287154  0.17619814  0.88200768  1
  In  In50  1  0.67112267  0.51145941  0.37424730  1
  In  In51  1  0.65937021  0.49700227  0.87390739  1
  In  In52  1  0.66218706  0.82253623  0.36806694  1
  In  In53  1  0.66916602  0.82381256  0.87928997  1
  In  In54  1  0.16180209  0.00585927  0.13042119  1
  In  In55  1  0.18284886  -0.00122227  0.62512464  1
  In  In56  1  0.17133082  0.33514265  0.11302221  1
  In  In57  1  0.15295372  0.34290437  0.63755415  1
  In  In58  1  0.18066080  0.67275823  0.12365187  1
  In  In59  1  0.16757792  0.65613163  0.61041461  1
  In  In60  1  0.50917009  -0.01232771  0.13116656  1
  In  In61  1  0.49046120  -0.00981994  0.61187532  1
  In  In62  1  0.49873920  0.34931188  0.12702997  1
  In  In63  1  0.50112165  0.31894181  0.62795993  1
  In  In64  1  0.49585597  0.66764494  0.12714343  1
  In  In65  1  0.49513021  0.68197133  0.61933006  1
  In  In66  1  0.81686724  0.01456599  0.14238852  1
  In  In67  1  0.81439905  0.00088724  0.61412030  1
  In  In68  1  0.83259389  0.32254960  0.12536996  1
  In  In69  1  0.84433651  0.33781216  0.61786947  1
  In  In70  1  0.82508025  0.66227420  0.13026231  1
  In  In71  1  0.84099520  0.64974802  0.63602420  1
  In  In72  1  0.83124319  0.49337614  -0.00652299  1
  In  In73  1  0.67177702  0.33594965  0.74819888  1
  In  In74  1  0.16564284  0.16825217  0.50241133  1
  In  In75  1  -0.00284548  0.32966863  0.24337266  1
  In  In76  1  0.82894629  0.84139299  0.00800597  1
  In  In77  1  -0.00449926  0.67169688  0.25423155  1
  In  In78  1  0.33661011  0.33221147  0.25262053  1
  In  In79  1  0.33136582  0.67125733  0.74231398  1
  In  In80  1  0.00058186  -0.00263278  0.74956308  1
  In  In81  1  0.50278557  0.16795497  0.00272080  1
  In  In82  1  0.17053490  0.83345057  -0.00570665  1
  In  In83  1  0.66009088  -0.00376154  0.74181881  1
  In  In84  1  0.50004224  0.50407457  0.50143333  1
  In  In85  1  0.83152574  0.83113910  0.49685120  1
  Cu  Cu86  1  0.50586777  0.15968901  0.25232249  1
  Cu  Cu87  1  0.66476877  0.32686602  0.50032447  1
  Cu  Cu88  1  0.00276387  0.01177844  0.00099789  1
  Cu  Cu89  1  0.33312369  0.33134472  -0.00460652  1
  Cu  Cu90  1  0.49764806  0.50634129  0.25340943  1
  Cu  Cu91  1  0.33599018  -0.00058280  0.49612730  1
  Cu  Cu92  1  0.16920913  0.50631995  0.24943929  1
  Cu  Cu93  1  0.48841425  0.16323465  0.75186056  1
  Cu  Cu94  1  0.83102772  0.16862825  0.74722443  1
  Cu  Cu95  1  0.01146801  0.33583019  -0.00407016  1
  Cu  Cu96  1  0.00040353  0.65998793  0.50238263  1
  Cu  Cu97  1  0.17351489  0.83419803  0.25266119  1
  Cu  Cu98  1  -0.00214639  0.33228924  0.50482686  1
  Cu  Cu99  1  0.65394790  0.66755656  0.00407970  1
  Cu  Cu100  1  0.82248649  0.50503554  0.25833739  1
  Cu  Cu101  1  0.66912700  0.33718164  0.00243973  1
  Cu  Cu102  1  0.83244604  0.16905885  0.25239356  1
  Cu  Cu103  1  0.32645012  0.33779576  0.50504823  1
  Cu  Cu104  1  -0.00136655  -0.00103712  0.49624587  1
  Cu  Cu105  1  0.49928872  0.50256542  0.75264896  1
  Cu  Cu106  1  0.83056131  0.82210064  0.74986224  1
  Cu  Cu107  1  0.16864262  0.16084155  0.25037703  1
  Cu  Cu108  1  0.49565747  0.83815985  0.74250210  1
  Cu  Cu109  1  0.33436166  -0.00340037  0.00171595  1
  Cu  Cu110  1  0.49615584  0.83324767  0.25360350  1
  Cu  Cu111  1  0.16707913  0.16837815  0.75104726  1
  Cu  Cu112  1  -0.00236752  0.66258441  -0.01022549  1
  Cu  Cu113  1  0.16754722  0.49825795  0.74779357  1
  Cu  Cu114  1  0.33725978  0.65901240  0.00109015  1
  Se  Se115  1  0.09212612  0.08844924  0.05416649  1
  Se  Se116  1  0.07624413  0.07618676  0.56224116  1
  Se  Se117  1  0.08842640  0.42420976  0.04920023  1
  Se  Se118  1  0.08486540  0.41419743  0.55577367  1
  Se  Se119  1  0.07703670  0.74138540  0.05293966  1
  Se  Se120  1  0.08318886  0.74932450  0.54894644  1
  Se  Se121  1  0.41262666  0.07824934  0.06303387  1
  Se  Se122  1  0.41105171  0.08801254  0.55228463  1
  Se  Se123  1  0.41620958  0.41410736  0.04951479  1
  Se  Se124  1  0.41244420  0.41311025  0.56486337  1
  Se  Se125  1  0.41429765  0.74828170  0.05458288  1
  Se  Se126  1  0.43600156  0.76385801  0.54093816  1
  Se  Se127  1  0.75998339  0.08902277  0.05847771  1
  Se  Se128  1  0.75126257  0.08625994  0.54026157  1
  Se  Se129  1  0.74371847  0.41980936  0.06626315  1
  Se  Se130  1  0.74703671  0.41046964  0.55403406  1
  Se  Se131  1  0.73945435  0.74483025  0.06170488  1
  Se  Se132  1  0.75520671  0.74158221  0.56568608  1
  Se  Se133  1  0.25074832  0.24632846  0.04699488  1
  Se  Se134  1  0.24904014  0.25625404  0.56763854  1
  Se  Se135  1  0.24720815  0.58166132  0.05294935  1
  Se  Se136  1  0.26904887  0.59508180  0.54451974  1
  Se  Se137  1  0.25413452  0.91654210  0.06334082  1
  Se  Se138  1  0.24984313  0.91809766  0.54818084  1
  Se  Se139  1  0.59008954  0.25745833  0.06522791  1
  Se  Se140  1  0.57482379  0.24717110  0.54957593  1
  Se  Se141  1  0.57645095  0.57949378  0.05776042  1
  Se  Se142  1  0.59157073  0.59181861  0.55979549  1
  Se  Se143  1  0.58694528  0.91708348  0.05470355  1
  Se  Se144  1  0.60984562  0.94405406  0.55856979  1
  Se  Se145  1  0.92454926  0.25963631  0.05324174  1
  Se  Se146  1  0.91415751  0.24179692  0.54967142  1
  Se  Se147  1  0.91771887  0.58942258  0.05498486  1
  Se  Se148  1  0.91760016  0.57863663  0.55760262  1
  Se  Se149  1  0.92692507  0.92874159  0.06187380  1
  Se  Se150  1  0.92279477  0.91901436  0.56139718  1
  Se  Se151  1  0.07468511  0.25522821  0.43804312  1
  Se  Se152  1  0.09052515  0.24780716  0.94375072  1
  Se  Se153  1  0.08791150  0.57932102  0.44913189  1
  Se  Se154  1  0.08798136  0.58260077  0.94274116  1
  Se  Se155  1  0.08371299  0.91268495  0.44951139  1
  Se  Se156  1  0.07093086  0.92236645  0.93895237  1
  Se  Se157  1  0.40788857  0.25440285  0.45115759  1
  Se  Se158  1  0.41583997  0.25202560  0.93548232  1
  Se  Se159  1  0.41325410  0.58969062  0.43775383  1
  Se  Se160  1  0.42120928  0.57819032  0.94576942  1
  Se  Se161  1  0.42253947  0.91780245  0.44388927  1
  Se  Se162  1  0.41837663  0.91493718  0.94920267  1
  Se  Se163  1  0.74892874  0.24764847  0.44397389  1
  Se  Se164  1  0.75510737  0.25330496  0.95338210  1
  Se  Se165  1  0.75790873  0.56291425  0.45510348  1
  Se  Se166  1  0.74060270  0.59380146  0.94274522  1
  Se  Se167  1  0.74442238  0.91973117  0.43594023  1
  Se  Se168  1  0.74240377  0.92785105  0.94212452  1
  Se  Se169  1  0.24997781  0.07859051  0.43803692  1
  Se  Se170  1  0.25021316  0.07837239  0.94833838  1
  Se  Se171  1  0.24264317  0.42234458  0.45528903  1
  Se  Se172  1  0.25043615  0.41765969  0.94379906  1
  Se  Se173  1  0.24070235  0.76685534  0.44770206  1
  Se  Se174  1  0.26112429  0.73991898  0.93672388  1
  Se  Se175  1  0.55824476  0.10674615  0.43619065  1
  Se  Se176  1  0.59431958  0.07798557  0.94414772  1
  Se  Se177  1  0.58586043  0.41018905  0.44017217  1
  Se  Se178  1  0.58496291  0.42035290  0.95089902  1
  Se  Se179  1  0.60015510  0.74422088  0.44887313  1
  Se  Se180  1  0.57747485  0.75511743  0.94904835  1
  Se  Se181  1  0.91190114  0.07839595  0.44512776  1
  Se  Se182  1  0.91548112  0.09240220  0.94852572  1
  Se  Se183  1  0.91683975  0.41766102  0.45038308  1
  Se  Se184  1  0.92785891  0.41188154  0.93399703  1
  Se  Se185  1  0.92092905  0.73644632  0.43791982  1
  Se  Se186  1  0.91270714  0.74821396  0.93986007  1
  Se  Se187  1  0.24541505  0.24095430  0.31303565  1
  Se  Se188  1  0.25251824  0.25067043  0.80411602  1
  Se  Se189  1  0.24982488  0.58558564  0.30649081  1
  Se  Se190  1  0.24926502  0.57890459  0.80793456  1
  Se  Se191  1  0.25715365  0.91917233  0.30471073  1
  Se  Se192  1  0.23919433  0.90405985  0.80090333  1
  Se  Se193  1  0.58637846  0.24976519  0.30069011  1
  Se  Se194  1  0.57832117  0.24100987  0.80690161  1
  Se  Se195  1  0.58226908  0.58869838  0.30705196  1
  Se  Se196  1  0.58268569  0.58481084  0.80532575  1
  Se  Se197  1  0.58440203  0.91527372  0.30333637  1
  Se  Se198  1  0.57506312  0.91182066  0.80954238  1
  Se  Se199  1  0.91188483  0.25013282  0.31328970  1
  Se  Se200  1  0.91353061  0.25046671  0.80085052  1
  Se  Se201  1  0.90971425  0.58027427  0.31579413  1
  Se  Se202  1  0.92250761  0.58909023  0.79739026  1
  Se  Se203  1  0.92783703  0.92045964  0.29931378  1
  Se  Se204  1  0.90623025  0.90678167  0.81017931  1
  Se  Se205  1  0.08389209  0.07883995  0.30265040  1
  Se  Se206  1  0.08627570  0.08777219  0.81282231  1
  Se  Se207  1  0.08803959  0.42159187  0.30480974  1
  Se  Se208  1  0.08523146  0.41497539  0.80244395  1
  Se  Se209  1  0.09173564  0.75433905  0.31369627  1
  Se  Se210  1  0.08954447  0.75098461  0.79257899  1
  Se  Se211  1  0.41511146  0.07835606  0.29891604  1
  Se  Se212  1  0.41091935  0.07389794  0.80369318  1
  Se  Se213  1  0.42367015  0.42139436  0.31588019  1
  Se  Se214  1  0.41906607  0.41382004  0.80215831  1
  Se  Se215  1  0.41515140  0.74891752  0.30746341  1
  Se  Se216  1  0.42142026  0.75552805  0.80747753  1
  Se  Se217  1  0.75090295  0.08271578  0.30464115  1
  Se  Se218  1  0.75022279  0.08758975  0.80617474  1
  Se  Se219  1  0.74143562  0.41477212  0.30614396  1
  Se  Se220  1  0.76100818  0.42716316  0.80742291  1
  Se  Se221  1  0.76782923  0.75957822  0.30571126  1
  Se  Se222  1  0.74030127  0.74660320  0.80266091  1
  Se  Se223  1  0.25503525  0.08064730  0.19784348  1
  Se  Se224  1  0.24964275  0.08144874  0.70148047  1
  Se  Se225  1  0.24624593  0.42043504  0.19080780  1
  Se  Se226  1  0.25504835  0.41443807  0.69904695  1
  Se  Se227  1  0.25292719  0.74489505  0.20199467  1
  Se  Se228  1  0.24617292  0.75540856  0.67750021  1
  Se  Se229  1  0.58844652  0.07565807  0.19887345  1
  Se  Se230  1  0.57031416  0.09046403  0.68733338  1
  Se  Se231  1  0.58037232  0.41975569  0.20222123  1
  Se  Se232  1  0.57817107  0.42377826  0.68851798  1
  Se  Se233  1  0.57810342  0.74830305  0.19821079  1
  Se  Se234  1  0.57994368  0.75123185  0.69495010  1
  Se  Se235  1  0.92133382  0.09027312  0.19854343  1
  Se  Se236  1  0.90452364  0.08131977  0.68780500  1
  Se  Se237  1  0.90248087  0.42946130  0.19404904  1
  Se  Se238  1  0.92059099  0.40754367  0.69386666  1
  Se  Se239  1  0.91373664  0.75856229  0.18694943  1
  Se  Se240  1  0.92024891  0.74369065  0.69961612  1
  Se  Se241  1  0.09534373  0.24475142  0.18759072  1
  Se  Se242  1  0.07736814  0.24891350  0.70267900  1
  Se  Se243  1  0.08410971  0.58127674  0.18930674  1
  Se  Se244  1  0.09217239  0.58252983  0.68872255  1
  Se  Se245  1  0.08810699  0.91719160  0.20105872  1
  Se  Se246  1  0.08818014  0.91157275  0.68729296  1
  Se  Se247  1  0.42640082  0.24190673  0.19067543  1
  Se  Se248  1  0.41072901  0.25255572  0.69995135  1
  Se  Se249  1  0.41191701  0.58221912  0.19604280  1
  Se  Se250  1  0.42292321  0.57777368  0.68566168  1
  Se  Se251  1  0.41445587  0.91765559  0.19857508  1
  Se  Se252  1  0.41147381  0.91618399  0.68738319  1
  Se  Se253  1  0.74904305  0.25293978  0.19949631  1
  Se  Se254  1  0.74788732  0.24018555  0.68320036  1
  Se  Se255  1  0.74366110  0.59369956  0.20639455  1
  Se  Se256  1  0.74570157  0.58141073  0.70352437  1
  Se  Se257  1  0.76089171  0.90387622  0.19937988  1
  Se  Se258  1  0.75513794  0.90367534  0.68851151  1
