# generated using pymatgen
data_In86Cu29Se144
_symmetry_space_group_name_H-M   'P 1'
_cell_length_a   17.67921602
_cell_length_b   17.67501833
_cell_length_c   23.54084621
_cell_angle_alpha   89.99781718
_cell_angle_beta   89.90592051
_cell_angle_gamma   89.98393799
_symmetry_Int_Tables_number   1
_chemical_formula_structural   In86Cu29Se144
_chemical_formula_sum   'In86 Cu29 Se144'
_cell_volume   7356.04441404
_cell_formula_units_Z   1
loop_
 _symmetry_equiv_pos_site_id
 _symmetry_equiv_pos_as_xyz
  1  'x, y, z'
loop_
 _atom_site_type_symbol
 _atom_site_label
 _atom_site_symmetry_multiplicity
 _atom_site_fract_x
 _atom_site_fract_y
 _atom_site_fract_z
 _atom_site_occupancy
  In  In0  1  0.01155888  0.15302760  0.12226799  1
  In  In1  1  -0.00788610  0.16233337  0.62947488  1
  In  In2  1  0.01588857  0.50154042  0.12330885  1
  In  In3  1  0.00157713  0.51246389  0.62381649  1
  In  In4  1  0.00015871  0.82798887  0.11828720  1
  In  In5  1  0.00384695  0.82134186  0.63265018  1
  In  In6  1  0.33100443  0.15362562  0.11388284  1
  In  In7  1  0.34490281  0.17050633  0.62848523  1
  In  In8  1  0.33073594  0.50043490  0.12969057  1
  In  In9  1  0.32946365  0.49058451  0.62822206  1
  In  In10  1  0.33212895  0.82950263  0.12248008  1
  In  In11  1  0.33085854  0.84131977  0.62375564  1
  In  In12  1  0.65693071  0.17785787  0.13331607  1
  In  In13  1  0.66512883  0.16858605  0.63466710  1
  In  In14  1  0.66255922  0.50002193  0.13421153  1
  In  In15  1  0.66556280  0.49831840  0.61986966  1
  In  In16  1  0.66977412  0.83350374  0.12628496  1
  In  In17  1  0.67031254  0.82908221  0.63538038  1
  In  In18  1  0.16193695  -0.01145908  0.37077398  1
  In  In19  1  0.15884028  0.00609815  0.87824932  1
  In  In20  1  0.17271046  0.32780371  0.36870664  1
  In  In21  1  0.18370734  0.32758354  0.88928865  1
  In  In22  1  0.17532692  0.67572164  0.36332616  1
  In  In23  1  0.13622842  0.68460484  0.89186705  1
  In  In24  1  0.50006224  0.00538407  0.36322811  1
  In  In25  1  0.50650044  -0.00166787  0.88918807  1
  In  In26  1  0.50503165  0.34290830  0.36924977  1
  In  In27  1  0.49033243  0.32875778  0.86887412  1
  In  In28  1  0.49038107  0.65696699  0.36713780  1
  In  In29  1  0.51183586  0.67439739  0.87687872  1
  In  In30  1  0.82563060  0.00936157  0.37144132  1
  In  In31  1  0.81973109  -0.00796544  0.86890903  1
  In  In32  1  0.83105716  0.34753539  0.37938904  1
  In  In33  1  0.82821915  0.34753477  0.86906506  1
  In  In34  1  0.82048997  0.65930012  0.36806028  1
  In  In35  1  0.84084578  0.67867253  0.86879791  1
  In  In36  1  0.00296905  0.17119138  0.37261034  1
  In  In37  1  0.01716614  0.16460088  0.87530979  1
  In  In38  1  -0.01636374  0.50366118  0.37817776  1
  In  In39  1  0.00244420  0.51396539  0.87308086  1
  In  In40  1  0.01836790  0.83383567  0.37411677  1
  In  In41  1  -0.01316061  0.82976370  0.87145693  1
  In  In42  1  0.33890832  0.17508945  0.35521536  1
  In  In43  1  0.32313221  0.17270077  0.89643208  1
  In  In44  1  0.34224946  0.50410118  0.36715660  1
  In  In45  1  0.32842839  0.49339702  0.87748510  1
  In  In46  1  0.32793500  0.82604539  0.36279009  1
  In  In47  1  0.32732086  0.85305027  0.89943583  1
  In  In48  1  0.67139445  0.17000187  0.35942867  1
  In  In49  1  0.65917661  0.16867173  0.87215165  1
  In  In50  1  0.66072965  0.49563011  0.37729834  1
  In  In51  1  0.66487288  0.50379474  0.86562813  1
  In  In52  1  0.66505589  0.83563779  0.36499569  1
  In  In53  1  0.66890377  0.83684992  0.88063062  1
  In  In54  1  0.18397122  0.00207298  0.09871095  1
  In  In55  1  0.16863671  -0.01544949  0.62818741  1
  In  In56  1  0.17925178  0.32938574  0.11935590  1
  In  In57  1  0.17538713  0.34651820  0.63191906  1
  In  In58  1  0.17218528  0.66770994  0.12812123  1
  In  In59  1  0.15588177  0.66662046  0.62856566  1
  In  In60  1  0.49878641  -0.00142708  0.11918756  1
  In  In61  1  0.50250519  0.01079088  0.62972249  1
  In  In62  1  0.49973671  0.32447821  0.12687821  1
  In  In63  1  0.49326334  0.33836665  0.62880943  1
  In  In64  1  0.49262027  0.67316070  0.13151372  1
  In  In65  1  0.51250264  0.66907406  0.62568039  1
  In  In66  1  0.84188252  -0.00807495  0.12595342  1
  In  In67  1  0.83121360  0.00175617  0.63505480  1
  In  In68  1  0.82076555  0.32865563  0.13160521  1
  In  In69  1  0.82288194  0.33177772  0.61784669  1
  In  In70  1  0.83085283  0.67033208  0.13099956  1
  In  In71  1  0.83544676  0.65661553  0.62547676  1
  In  In72  1  0.16269713  0.50092922  0.50191471  1
  In  In73  1  0.16917904  0.16472867  0.48948981  1
  In  In74  1  -0.00026385  -0.00171785  0.24821075  1
  In  In75  1  -0.00335220  0.33681023  0.25196099  1
  In  In76  1  0.00214438  0.33361546  0.74779086  1
  In  In77  1  0.50236337  0.49622386  0.00744997  1
  In  In78  1  0.33654997  0.00514042  0.76699682  1
  In  In79  1  0.50292365  0.17172552  0.49981543  1
  In  In80  1  0.83712607  0.82897531  0.50107764  1
  In  In81  1  0.83985165  0.50855264  -0.00217340  1
  In  In82  1  0.50071672  0.82872416  0.49792374  1
  In  In83  1  0.83644299  0.16561038  0.00136363  1
  In  In84  1  0.83292356  0.17364787  0.49343514  1
  In  In85  1  0.33584449  0.66815751  0.76678266  1
  Cu  Cu86  1  0.32874199  0.66787189  0.48925381  1
  Cu  Cu87  1  0.16066619  0.82577816  0.75366123  1
  Cu  Cu88  1  0.33398380  0.33531214  0.50204534  1
  Cu  Cu89  1  0.32872181  -0.00822647  0.49442785  1
  Cu  Cu90  1  0.50268845  0.17227499  0.75390122  1
  Cu  Cu91  1  0.82351659  0.50351828  0.74520029  1
  Cu  Cu92  1  0.83554064  0.16358647  0.75087370  1
  Cu  Cu93  1  0.16817025  0.50328120  0.24601383  1
  Cu  Cu94  1  0.50289233  0.50576237  0.74809764  1
  Cu  Cu95  1  0.82614883  0.83442019  0.75131525  1
  Cu  Cu96  1  0.33822988  0.66067932  0.00660845  1
  Cu  Cu97  1  0.66300845  0.33241220  0.00424466  1
  Cu  Cu98  1  0.66475619  0.00280530  0.50199061  1
  Cu  Cu99  1  0.67102596  0.67693367  0.00124512  1
  Cu  Cu100  1  0.00723270  0.33101219  0.00241590  1
  Cu  Cu101  1  0.50502347  0.84206082  0.75987500  1
  Cu  Cu102  1  0.67377143  -0.00149648  0.00240561  1
  Cu  Cu103  1  0.00588155  -0.00549787  0.50286085  1
  Cu  Cu104  1  0.16865834  0.83446865  0.24097780  1
  Cu  Cu105  1  0.49946864  0.49118157  0.24970995  1
  Cu  Cu106  1  -0.00373238  -0.00903474  -0.00429254  1
  Cu  Cu107  1  0.50210886  0.83606385  0.24292571  1
  Cu  Cu108  1  0.00445178  0.67283959  0.50150523  1
  Cu  Cu109  1  0.16798225  0.50033239  0.75461849  1
  Cu  Cu110  1  0.82904959  0.50374047  0.25388660  1
  Cu  Cu111  1  0.83637189  0.83116608  0.24625052  1
  Cu  Cu112  1  0.49022006  0.15807732  0.24152245  1
  Cu  Cu113  1  0.66463003  0.65513414  0.49685236  1
  Cu  Cu114  1  0.17624173  0.16616384  0.75852901  1
  Se  Se115  1  0.08089415  0.07934614  0.04334723  1
  Se  Se116  1  0.08397957  0.07954283  0.56018890  1
  Se  Se117  1  0.08905829  0.41316176  0.05585923  1
  Se  Se118  1  0.07702289  0.40771673  0.56224890  1
  Se  Se119  1  0.10665872  0.76407751  0.05660812  1
  Se  Se120  1  0.08687444  0.75343785  0.55585267  1
  Se  Se121  1  0.41057344  0.06449246  0.04502733  1
  Se  Se122  1  0.40781863  0.07317160  0.55374959  1
  Se  Se123  1  0.40863484  0.40712919  0.06002648  1
  Se  Se124  1  0.41399583  0.41864199  0.55599266  1
  Se  Se125  1  0.42036087  0.74915174  0.05424044  1
  Se  Se126  1  0.40691768  0.74162361  0.55781616  1
  Se  Se127  1  0.74738740  0.08166845  0.06457863  1
  Se  Se128  1  0.74703779  0.08160309  0.55930557  1
  Se  Se129  1  0.74557648  0.41726132  0.05744874  1
  Se  Se130  1  0.75678881  0.42510752  0.55245405  1
  Se  Se131  1  0.75615988  0.75194294  0.05768453  1
  Se  Se132  1  0.73826436  0.74297774  0.55624917  1
  Se  Se133  1  0.24686820  0.23981781  0.04952223  1
  Se  Se134  1  0.25417354  0.25284426  0.55960144  1
  Se  Se135  1  0.25197424  0.58214212  0.05882126  1
  Se  Se136  1  0.25556778  0.59200097  0.55966302  1
  Se  Se137  1  0.22351269  0.87530505  0.05169091  1
  Se  Se138  1  0.24765661  0.91337527  0.55118537  1
  Se  Se139  1  0.58142990  0.24640678  0.05370635  1
  Se  Se140  1  0.59050248  0.25707193  0.56208956  1
  Se  Se141  1  0.59324255  0.59279286  0.06052545  1
  Se  Se142  1  0.57722706  0.58147995  0.55299730  1
  Se  Se143  1  0.58991571  0.91534350  0.05554632  1
  Se  Se144  1  0.58722115  0.92132192  0.56155930  1
  Se  Se145  1  0.92240036  0.25793502  0.06347202  1
  Se  Se146  1  0.92742354  0.25405406  0.55718059  1
  Se  Se147  1  0.92657844  0.59229851  0.06172179  1
  Se  Se148  1  0.92020963  0.58762716  0.55097898  1
  Se  Se149  1  0.91491396  0.91171324  0.05204137  1
  Se  Se150  1  0.92082213  0.92212893  0.56283190  1
  Se  Se151  1  0.07620391  0.26313608  0.44284139  1
  Se  Se152  1  0.08758969  0.24644297  0.94867626  1
  Se  Se153  1  0.08252105  0.59362988  0.43782522  1
  Se  Se154  1  0.08018204  0.57646361  0.95172134  1
  Se  Se155  1  0.08962998  0.91422229  0.44953269  1
  Se  Se156  1  0.07652304  0.91220890  0.93708091  1
  Se  Se157  1  0.40683638  0.25285192  0.43935574  1
  Se  Se158  1  0.42459426  0.25395606  0.94708311  1
  Se  Se159  1  0.41468510  0.58202323  0.44406191  1
  Se  Se160  1  0.42033582  0.58688849  0.94158245  1
  Se  Se161  1  0.41582299  0.91907537  0.43546744  1
  Se  Se162  1  0.41111316  0.93815086  0.96162269  1
  Se  Se163  1  0.73436564  0.25686707  0.43930917  1
  Se  Se164  1  0.74921672  0.26075251  0.94232289  1
  Se  Se165  1  0.75132575  0.57782198  0.44320236  1
  Se  Se166  1  0.74238733  0.59088615  0.93926274  1
  Se  Se167  1  0.74390064  0.92086126  0.44323355  1
  Se  Se168  1  0.75655582  0.91503681  0.94967328  1
  Se  Se169  1  0.26105909  0.07726444  0.43125145  1
  Se  Se170  1  0.25600091  0.06331620  0.94728780  1
  Se  Se171  1  0.25392207  0.41373977  0.44072143  1
  Se  Se172  1  0.25045994  0.42500724  0.95355451  1
  Se  Se173  1  0.24855826  0.75430652  0.43988361  1
  Se  Se174  1  0.26458005  0.73023823  0.93575988  1
  Se  Se175  1  0.58913437  0.07958769  0.43866367  1
  Se  Se176  1  0.59501290  0.08634355  0.94980192  1
  Se  Se177  1  0.57524108  0.41673355  0.44568931  1
  Se  Se178  1  0.59104930  0.41470548  0.94009013  1
  Se  Se179  1  0.59054286  0.74168286  0.43670607  1
  Se  Se180  1  0.58291377  0.75690251  0.95037715  1
  Se  Se181  1  0.92735627  0.07395406  0.44222986  1
  Se  Se182  1  0.92044394  0.07771443  0.93594299  1
  Se  Se183  1  0.92415133  0.41054134  0.44825547  1
  Se  Se184  1  0.92584299  0.40793523  0.94153740  1
  Se  Se185  1  0.92345524  0.74468359  0.43585175  1
  Se  Se186  1  0.92312483  0.73953277  0.94499335  1
  Se  Se187  1  0.23955638  0.24553047  0.29600386  1
  Se  Se188  1  0.25660701  0.24676202  0.81374143  1
  Se  Se189  1  0.25377174  0.58309487  0.30129738  1
  Se  Se190  1  0.23540421  0.58485663  0.81884914  1
  Se  Se191  1  0.24756638  0.91672732  0.29934275  1
  Se  Se192  1  0.24263148  0.90533001  0.81204708  1
  Se  Se193  1  0.56634193  0.23983714  0.30363932  1
  Se  Se194  1  0.58723301  0.25896448  0.80287891  1
  Se  Se195  1  0.58057871  0.57605821  0.30457185  1
  Se  Se196  1  0.58144073  0.59141240  0.80203034  1
  Se  Se197  1  0.58327816  0.91909374  0.29890470  1
  Se  Se198  1  0.58575466  0.92431818  0.81386268  1
  Se  Se199  1  0.90524150  0.24627970  0.31074523  1
  Se  Se200  1  0.91375445  0.24470575  0.81219076  1
  Se  Se201  1  0.91638014  0.58631279  0.30265270  1
  Se  Se202  1  0.90844230  0.57827158  0.80364372  1
  Se  Se203  1  0.91161514  0.90862627  0.31310643  1
  Se  Se204  1  0.91126219  0.91743644  0.80202314  1
  Se  Se205  1  0.09113663  0.09143188  0.30567520  1
  Se  Se206  1  0.08574179  0.08134691  0.79997491  1
  Se  Se207  1  0.08736509  0.42928438  0.31138920  1
  Se  Se208  1  0.08963736  0.41512610  0.81412070  1
  Se  Se209  1  0.08478787  0.75334462  0.29701903  1
  Se  Se210  1  0.07353742  0.74453224  0.80351662  1
  Se  Se211  1  0.40782282  0.07369765  0.29484477  1
  Se  Se212  1  0.42733040  0.09595163  0.82041126  1
  Se  Se213  1  0.41070348  0.40896519  0.29984809  1
  Se  Se214  1  0.41947315  0.42784905  0.80570734  1
  Se  Se215  1  0.42229208  0.75174815  0.29975494  1
  Se  Se216  1  0.41865243  0.77064843  0.81999283  1
  Se  Se217  1  0.74331570  0.07384640  0.29758364  1
  Se  Se218  1  0.74727373  0.08859759  0.80601034  1
  Se  Se219  1  0.74795567  0.41822035  0.30600821  1
  Se  Se220  1  0.74326052  0.41701350  0.79696150  1
  Se  Se221  1  0.74984647  0.75180082  0.30077450  1
  Se  Se222  1  0.74422017  0.75280623  0.80697950  1
  Se  Se223  1  0.24618041  0.07012853  0.18155089  1
  Se  Se224  1  0.25098135  0.08468895  0.69269486  1
  Se  Se225  1  0.24659247  0.41460177  0.19546702  1
  Se  Se226  1  0.25530916  0.41720675  0.70677119  1
  Se  Se227  1  0.25717592  0.74671921  0.19732904  1
  Se  Se228  1  0.24971661  0.75324015  0.69525319  1
  Se  Se229  1  0.57935571  0.07904346  0.19120134  1
  Se  Se230  1  0.58300514  0.08437040  0.70191190  1
  Se  Se231  1  0.58192201  0.40861332  0.19538204  1
  Se  Se232  1  0.58091284  0.42123018  0.69212046  1
  Se  Se233  1  0.58676403  0.74912495  0.19486393  1
  Se  Se234  1  0.57690554  0.75514436  0.70052106  1
  Se  Se235  1  0.91039649  0.09442631  0.19276985  1
  Se  Se236  1  0.92059128  0.07930822  0.70159558  1
  Se  Se237  1  0.90886438  0.42738789  0.18887211  1
  Se  Se238  1  0.91122913  0.42374403  0.68916881  1
  Se  Se239  1  0.92291070  0.75214614  0.19396965  1
  Se  Se240  1  0.90542159  0.74989202  0.69383652  1
  Se  Se241  1  0.08357888  0.24895893  0.18934026  1
  Se  Se242  1  0.09725220  0.24060880  0.69143113  1
  Se  Se243  1  0.08418084  0.58741733  0.19635354  1
  Se  Se244  1  0.08418134  0.58050569  0.69986259  1
  Se  Se245  1  0.08891616  0.91773091  0.18328505  1
  Se  Se246  1  0.08258870  0.91201555  0.69809082  1
  Se  Se247  1  0.40899774  0.23927671  0.18633181  1
  Se  Se248  1  0.41634026  0.25260600  0.70039007  1
  Se  Se249  1  0.42026629  0.57780614  0.19611683  1
  Se  Se250  1  0.41597882  0.58568254  0.69223240  1
  Se  Se251  1  0.41607487  0.91422968  0.18836176  1
  Se  Se252  1  0.42138996  0.91502224  0.69689337  1
  Se  Se253  1  0.74534755  0.25055174  0.20234645  1
  Se  Se254  1  0.75824541  0.24916372  0.69529030  1
  Se  Se255  1  0.74755780  0.58536404  0.19744579  1
  Se  Se256  1  0.74107628  0.58621086  0.69139778  1
  Se  Se257  1  0.75539788  0.91611809  0.19470470  1
  Se  Se258  1  0.74362393  0.92169811  0.70004302  1
