# generated using pymatgen
data_In86Cu29Se144
_symmetry_space_group_name_H-M   'P 1'
_cell_length_a   17.57548977
_cell_length_b   17.57781619
_cell_length_c   23.42949542
_cell_angle_alpha   89.99224599
_cell_angle_beta   89.98239418
_cell_angle_gamma   89.98379268
_symmetry_Int_Tables_number   1
_chemical_formula_structural   In86Cu29Se144
_chemical_formula_sum   'In86 Cu29 Se144'
_cell_volume   7238.27783089
_cell_formula_units_Z   1
loop_
 _symmetry_equiv_pos_site_id
 _symmetry_equiv_pos_as_xyz
  1  'x, y, z'
loop_
 _atom_site_type_symbol
 _atom_site_label
 _atom_site_symmetry_multiplicity
 _atom_site_fract_x
 _atom_site_fract_y
 _atom_site_fract_z
 _atom_site_occupancy
  In  In0  1  -0.01249414  0.15882068  0.12546219  1
  In  In1  1  0.00564036  0.18355427  0.62354264  1
  In  In2  1  0.00286890  0.51570339  0.12610060  1
  In  In3  1  0.00092200  0.48870383  0.62712251  1
  In  In4  1  0.01275672  0.82416419  0.13373210  1
  In  In5  1  0.00746427  0.82065064  0.62212781  1
  In  In6  1  0.32835156  0.15542654  0.11949541  1
  In  In7  1  0.33462228  0.15253695  0.63280268  1
  In  In8  1  0.34729140  0.50939404  0.12470201  1
  In  In9  1  0.33608589  0.50362086  0.62177239  1
  In  In10  1  0.33895535  0.83214402  0.12477996  1
  In  In11  1  0.33551164  0.83648214  0.63142702  1
  In  In12  1  0.67224850  0.16823063  0.11755232  1
  In  In13  1  0.65449921  0.16336680  0.61989479  1
  In  In14  1  0.66687273  0.48866577  0.12924222  1
  In  In15  1  0.66121902  0.51609700  0.63444408  1
  In  In16  1  0.65063050  0.83832222  0.12202478  1
  In  In17  1  0.64042713  0.83996867  0.64817622  1
  In  In18  1  0.16299900  -0.01256147  0.36500105  1
  In  In19  1  0.16795721  -0.01203064  0.87823826  1
  In  In20  1  0.19162315  0.34806003  0.38711127  1
  In  In21  1  0.17650341  0.34161195  0.85569297  1
  In  In22  1  0.16831735  0.67023109  0.37816358  1
  In  In23  1  0.18059343  0.67196788  0.87441347  1
  In  In24  1  0.49268438  0.01083233  0.37749767  1
  In  In25  1  0.50009307  -0.00041388  0.87230478  1
  In  In26  1  0.49841546  0.33395013  0.38609654  1
  In  In27  1  0.48755840  0.33855024  0.86959326  1
  In  In28  1  0.49525725  0.65690901  0.37544763  1
  In  In29  1  0.50565020  0.67791432  0.85999958  1
  In  In30  1  0.84272996  0.00128543  0.37628724  1
  In  In31  1  0.83744115  0.01470327  0.87776422  1
  In  In32  1  0.81678890  0.33949842  0.37740648  1
  In  In33  1  0.83514456  0.32774747  0.87821333  1
  In  In34  1  0.83528043  0.66120967  0.36422684  1
  In  In35  1  0.81856562  0.66746825  0.88034200  1
  In  In36  1  0.00188187  0.15333084  0.37883711  1
  In  In37  1  -0.00793308  0.17121991  0.87750292  1
  In  In38  1  0.00689177  0.51235802  0.37049013  1
  In  In39  1  0.00003056  0.48749239  0.87506075  1
  In  In40  1  0.01586276  0.83778503  0.36277607  1
  In  In41  1  0.01004051  0.84727222  0.88246228  1
  In  In42  1  0.34591005  0.16821068  0.37731064  1
  In  In43  1  0.34119646  0.17864722  0.86252632  1
  In  In44  1  0.32219237  0.52222601  0.40582506  1
  In  In45  1  0.35882784  0.51849610  0.84267397  1
  In  In46  1  0.31180564  0.81265508  0.35932016  1
  In  In47  1  0.33604723  0.83337803  0.87353959  1
  In  In48  1  0.65267022  0.18097682  0.38284554  1
  In  In49  1  0.67284380  0.15778990  0.87712587  1
  In  In50  1  0.66510771  0.49665056  0.36957077  1
  In  In51  1  0.66545326  0.51362973  0.87055885  1
  In  In52  1  0.68018262  0.83049951  0.37019829  1
  In  In53  1  0.64771825  0.82463768  0.86527324  1
  In  In54  1  0.18973829  -0.02702393  0.14912141  1
  In  In55  1  0.18594385  0.00290682  0.62599058  1
  In  In56  1  0.17184462  0.33510237  0.12537194  1
  In  In57  1  0.15767571  0.33130800  0.63089826  1
  In  In58  1  0.16365430  0.68325109  0.14096618  1
  In  In59  1  0.18883951  0.67977865  0.60021851  1
  In  In60  1  0.49300962  -0.00670191  0.11322191  1
  In  In61  1  0.48805410  0.00540480  0.63723644  1
  In  In62  1  0.51221540  0.33834660  0.12085702  1
  In  In63  1  0.48823812  0.33103925  0.61432772  1
  In  In64  1  0.48951402  0.67514930  0.13270702  1
  In  In65  1  0.49842354  0.66102628  0.63094533  1
  In  In66  1  0.83311816  0.01250044  0.12604603  1
  In  In67  1  0.81484189  -0.00208728  0.62726839  1
  In  In68  1  0.82335353  0.31893356  0.11681963  1
  In  In69  1  0.84975615  0.33914891  0.62827539  1
  In  In70  1  0.83590471  0.65761607  0.12545069  1
  In  In71  1  0.81792304  0.65623326  0.62805928  1
  In  In72  1  0.50225563  0.50260521  -0.01029002  1
  In  In73  1  0.00168479  0.00728387  0.75531838  1
  In  In74  1  -0.00234504  0.65847965  0.74737899  1
  In  In75  1  0.15786434  0.15946688  -0.00277703  1
  In  In76  1  0.34845119  0.33594793  0.25965060  1
  In  In77  1  0.17198946  0.50086233  -0.00434352  1
  In  In78  1  -0.00411129  0.33230673  0.25124929  1
  In  In79  1  0.17025924  0.16644074  0.50014153  1
  In  In80  1  0.83547955  0.83275645  0.49995043  1
  In  In81  1  0.83057422  0.83639370  -0.00074887  1
  In  In82  1  0.49370675  0.83290355  0.50315366  1
  In  In83  1  0.66717326  0.00056588  0.24632394  1
  In  In84  1  0.66339315  0.33559565  0.74532711  1
  In  In85  1  0.83259162  0.49828728  0.50606642  1
  Cu  Cu86  1  0.65835256  0.66372595  -0.00276591  1
  Cu  Cu87  1  0.50183535  0.16223238  0.74709754  1
  Cu  Cu88  1  0.33101272  0.67633029  0.00057918  1
  Cu  Cu89  1  0.83601228  0.17059050  0.75211234  1
  Cu  Cu90  1  0.50101590  0.50517507  0.25572885  1
  Cu  Cu91  1  -0.00030444  -0.00060799  0.49521920  1
  Cu  Cu92  1  0.16504044  0.50458384  0.73964395  1
  Cu  Cu93  1  0.82901173  0.49663874  0.24591213  1
  Cu  Cu94  1  0.82464636  0.17017187  0.24850414  1
  Cu  Cu95  1  0.49985006  0.83366048  0.24775626  1
  Cu  Cu96  1  0.66748269  0.33111634  0.50236669  1
  Cu  Cu97  1  0.66281595  -0.00067226  -0.00451841  1
  Cu  Cu98  1  0.33737717  -0.00133685  -0.00025211  1
  Cu  Cu99  1  0.33261080  0.33354125  -0.01574809  1
  Cu  Cu100  1  0.16638707  0.16080659  0.25289301  1
  Cu  Cu101  1  0.17876783  0.50439726  0.25621538  1
  Cu  Cu102  1  0.67218738  0.32551130  -0.00060874  1
  Cu  Cu103  1  0.00707886  0.66904657  0.49421519  1
  Cu  Cu104  1  0.00854753  -0.00027022  0.00724170  1
  Cu  Cu105  1  0.33633572  -0.00448053  0.50238437  1
  Cu  Cu106  1  -0.00452827  0.33141413  -0.00207891  1
  Cu  Cu107  1  0.83875374  0.82415681  0.24818638  1
  Cu  Cu108  1  0.17030995  0.83409969  0.74880286  1
  Cu  Cu109  1  0.66823941  0.67178327  0.50549823  1
  Cu  Cu110  1  -0.00195140  0.33159198  0.50075864  1
  Cu  Cu111  1  0.50122371  0.16967356  0.25162385  1
  Cu  Cu112  1  0.65957720  0.01208479  0.50340201  1
  Cu  Cu113  1  0.00269298  0.66777706  0.00724751  1
  Cu  Cu114  1  0.82323963  0.83034221  0.75384369  1
  Se  Se115  1  0.08965196  0.07278718  0.07218947  1
  Se  Se116  1  0.07899114  0.07590253  0.56093488  1
  Se  Se117  1  0.07759303  0.41092477  0.05788798  1
  Se  Se118  1  0.08138869  0.41192382  0.55488806  1
  Se  Se119  1  0.08966196  0.74840172  0.05761341  1
  Se  Se120  1  0.08808277  0.75909888  0.54302963  1
  Se  Se121  1  0.41877490  0.08900031  0.04827970  1
  Se  Se122  1  0.41666112  0.07906130  0.55707840  1
  Se  Se123  1  0.40961082  0.41091889  0.05125723  1
  Se  Se124  1  0.43008721  0.43672567  0.55076929  1
  Se  Se125  1  0.42265700  0.75217895  0.05265218  1
  Se  Se126  1  0.40731535  0.73911919  0.55960561  1
  Se  Se127  1  0.74982677  0.07881240  0.04960907  1
  Se  Se128  1  0.75101864  0.08814669  0.55454508  1
  Se  Se129  1  0.74788539  0.41552081  0.05387729  1
  Se  Se130  1  0.74070089  0.41159196  0.56658740  1
  Se  Se131  1  0.73982526  0.74453155  0.05764842  1
  Se  Se132  1  0.74069304  0.75713154  0.56600594  1
  Se  Se133  1  0.25446910  0.25819058  0.05031448  1
  Se  Se134  1  0.25500073  0.24933714  0.56596497  1
  Se  Se135  1  0.25400813  0.59189673  0.06103872  1
  Se  Se136  1  0.23843403  0.56196307  0.54668462  1
  Se  Se137  1  0.25438966  0.91941639  0.05817704  1
  Se  Se138  1  0.25358278  0.91253442  0.55570832  1
  Se  Se139  1  0.58207737  0.24797562  0.05129722  1
  Se  Se140  1  0.57827086  0.24837307  0.55024160  1
  Se  Se141  1  0.58165340  0.58558214  0.06248912  1
  Se  Se142  1  0.58518206  0.58782116  0.55673246  1
  Se  Se143  1  0.57882643  0.91300074  0.04441855  1
  Se  Se144  1  0.58573588  0.92333164  0.56194567  1
  Se  Se145  1  0.91788441  0.24362780  0.05173800  1
  Se  Se146  1  0.91338112  0.25030326  0.55234604  1
  Se  Se147  1  0.91584083  0.58047770  0.05077971  1
  Se  Se148  1  0.92480580  0.59564070  0.55908597  1
  Se  Se149  1  0.92190056  0.91902311  0.06347996  1
  Se  Se150  1  0.92309610  0.92366755  0.56298903  1
  Se  Se151  1  0.08186881  0.25936655  0.43692742  1
  Se  Se152  1  0.08633938  0.26501415  0.93667679  1
  Se  Se153  1  0.08816695  0.57871530  0.44667155  1
  Se  Se154  1  0.07811146  0.59216101  0.93839462  1
  Se  Se155  1  0.08284297  0.91692204  0.44237991  1
  Se  Se156  1  0.09304105  0.91491948  0.95770807  1
  Se  Se157  1  0.40592197  0.25709820  0.45028189  1
  Se  Se158  1  0.42077526  0.24660770  0.94163167  1
  Se  Se159  1  0.43834508  0.57940058  0.45833372  1
  Se  Se160  1  0.40335155  0.59011533  0.93826158  1
  Se  Se161  1  0.40657633  0.91489107  0.43557975  1
  Se  Se162  1  0.41839486  0.91598038  0.94296321  1
  Se  Se163  1  0.75190261  0.24853009  0.44928116  1
  Se  Se164  1  0.75533479  0.24138788  0.94585983  1
  Se  Se165  1  0.74815167  0.59167507  0.44368959  1
  Se  Se166  1  0.74565498  0.57888009  0.95072993  1
  Se  Se167  1  0.74032220  0.92888833  0.44492994  1
  Se  Se168  1  0.74296680  0.91986014  0.93364183  1
  Se  Se169  1  0.25454117  0.07294487  0.43843288  1
  Se  Se170  1  0.25895450  0.08133872  0.93855286  1
  Se  Se171  1  0.25357607  0.42124443  0.46899820  1
  Se  Se172  1  0.26128275  0.42312611  0.92802174  1
  Se  Se173  1  0.25262308  0.75054680  0.44743483  1
  Se  Se174  1  0.24726173  0.75906167  0.94753716  1
  Se  Se175  1  0.57393003  0.08977174  0.44816907  1
  Se  Se176  1  0.57981575  0.08459608  0.94363756  1
  Se  Se177  1  0.59233715  0.41853817  0.44571361  1
  Se  Se178  1  0.59322466  0.40490658  0.93713361  1
  Se  Se179  1  0.59320969  0.75149339  0.44113768  1
  Se  Se180  1  0.57611039  0.74592889  0.94292032  1
  Se  Se181  1  0.91228985  0.08612024  0.45133068  1
  Se  Se182  1  0.92640021  0.08118319  0.95135650  1
  Se  Se183  1  0.92328308  0.41568496  0.43816852  1
  Se  Se184  1  0.91284401  0.41747369  0.94743094  1
  Se  Se185  1  0.92135136  0.74499547  0.43548461  1
  Se  Se186  1  0.92544975  0.74568487  0.94138019  1
  Se  Se187  1  0.24370580  0.24733285  0.31066062  1
  Se  Se188  1  0.24986065  0.24724317  0.79390828  1
  Se  Se189  1  0.25878802  0.58084674  0.31618529  1
  Se  Se190  1  0.24304005  0.58775296  0.79740681  1
  Se  Se191  1  0.25732255  0.92101935  0.29768480  1
  Se  Se192  1  0.25092645  0.91742753  0.80369934  1
  Se  Se193  1  0.57548298  0.25708603  0.30744202  1
  Se  Se194  1  0.58022037  0.24292891  0.80911932  1
  Se  Se195  1  0.58916268  0.58971108  0.30457651  1
  Se  Se196  1  0.54637650  0.55040656  0.81375828  1
  Se  Se197  1  0.57820718  0.91393826  0.31082234  1
  Se  Se198  1  0.58194013  0.92106644  0.80024190  1
  Se  Se199  1  0.90712265  0.24392060  0.31327461  1
  Se  Se200  1  0.91891987  0.25408351  0.80378783  1
  Se  Se201  1  0.91762260  0.57646981  0.29692511  1
  Se  Se202  1  0.90947116  0.58043906  0.81525324  1
  Se  Se203  1  0.91149353  0.91238295  0.30553209  1
  Se  Se204  1  0.90936377  0.90903871  0.81055043  1
  Se  Se205  1  0.07882315  0.08033852  0.30339653  1
  Se  Se206  1  0.09267179  0.09232881  0.81588407  1
  Se  Se207  1  0.09830277  0.41541185  0.30969774  1
  Se  Se208  1  0.08233806  0.42442057  0.79652380  1
  Se  Se209  1  0.08002117  0.73436261  0.30294587  1
  Se  Se210  1  0.08337234  0.75789027  0.80756748  1
  Se  Se211  1  0.41547362  0.08582308  0.30089048  1
  Se  Se212  1  0.41664303  0.08090409  0.80125273  1
  Se  Se213  1  0.41892917  0.43538012  0.32237730  1
  Se  Se214  1  0.40083208  0.39573298  0.79286549  1
  Se  Se215  1  0.42428839  0.74867678  0.30582734  1
  Se  Se216  1  0.39500024  0.73468811  0.80340043  1
  Se  Se217  1  0.74761940  0.09042389  0.31363270  1
  Se  Se218  1  0.75435123  0.08317681  0.80201918  1
  Se  Se219  1  0.74601006  0.41321133  0.29883208  1
  Se  Se220  1  0.75243383  0.41900336  0.81048726  1
  Se  Se221  1  0.74919421  0.74416193  0.29792785  1
  Se  Se222  1  0.74301836  0.74281194  0.80492178  1
  Se  Se223  1  0.25748949  0.08604527  0.20037129  1
  Se  Se224  1  0.24713049  0.08131519  0.70459655  1
  Se  Se225  1  0.25389791  0.42249798  0.19354962  1
  Se  Se226  1  0.24867485  0.41931845  0.68897809  1
  Se  Se227  1  0.26971836  0.74478668  0.19841855  1
  Se  Se228  1  0.24350372  0.74774428  0.69010595  1
  Se  Se229  1  0.57571890  0.08860839  0.18695194  1
  Se  Se230  1  0.58969741  0.08043546  0.69716224  1
  Se  Se231  1  0.57709231  0.41653929  0.20047916  1
  Se  Se232  1  0.56912741  0.42059991  0.68832999  1
  Se  Se233  1  0.58605934  0.75112509  0.19654257  1
  Se  Se234  1  0.59437146  0.72331159  0.70229789  1
  Se  Se235  1  0.91237479  0.08393548  0.20301041  1
  Se  Se236  1  0.91166105  0.08819115  0.68804437  1
  Se  Se237  1  0.91162111  0.41776832  0.18437836  1
  Se  Se238  1  0.91001827  0.43046521  0.70053128  1
  Se  Se239  1  0.91923251  0.74054688  0.19315084  1
  Se  Se240  1  0.90515359  0.75603955  0.69127078  1
  Se  Se241  1  0.09023213  0.24280074  0.19091815  1
  Se  Se242  1  0.07837282  0.25011957  0.70247040  1
  Se  Se243  1  0.09087202  0.57964747  0.19979561  1
  Se  Se244  1  0.09236035  0.59032057  0.67802904  1
  Se  Se245  1  0.07078473  0.92483854  0.20073175  1
  Se  Se246  1  0.08475327  0.91270259  0.69112742  1
  Se  Se247  1  0.42058431  0.24675726  0.18600992  1
  Se  Se248  1  0.42196736  0.24530118  0.69086632  1
  Se  Se249  1  0.41495239  0.58621862  0.20279532  1
  Se  Se250  1  0.40059252  0.59241060  0.69661807  1
  Se  Se251  1  0.42205810  0.92002725  0.19276631  1
  Se  Se252  1  0.43832613  0.89395445  0.69726954  1
  Se  Se253  1  0.74151097  0.25118480  0.19459200  1
  Se  Se254  1  0.75568292  0.24447413  0.68699301  1
  Se  Se255  1  0.74595862  0.58143094  0.19308589  1
  Se  Se256  1  0.75716705  0.57413414  0.70534895  1
  Se  Se257  1  0.75849117  0.90671108  0.18814808  1
  Se  Se258  1  0.74341210  0.91856870  0.70276840  1
