# generated using pymatgen
data_In86Cu29Se144
_symmetry_space_group_name_H-M   'P 1'
_cell_length_a   17.59220765
_cell_length_b   17.58428775
_cell_length_c   23.44516874
_cell_angle_alpha   90.00792068
_cell_angle_beta   90.00949805
_cell_angle_gamma   89.98540349
_symmetry_Int_Tables_number   1
_chemical_formula_structural   In86Cu29Se144
_chemical_formula_sum   'In86 Cu29 Se144'
_cell_volume   7252.67911762
_cell_formula_units_Z   1
loop_
 _symmetry_equiv_pos_site_id
 _symmetry_equiv_pos_as_xyz
  1  'x, y, z'
loop_
 _atom_site_type_symbol
 _atom_site_label
 _atom_site_symmetry_multiplicity
 _atom_site_fract_x
 _atom_site_fract_y
 _atom_site_fract_z
 _atom_site_occupancy
  In  In0  1  -0.00133898  0.17118479  0.12865419  1
  In  In1  1  -0.00184135  0.18188060  0.62911642  1
  In  In2  1  -0.01099796  0.50024513  0.12686153  1
  In  In3  1  0.00126643  0.48267596  0.62326544  1
  In  In4  1  0.02086892  0.84906459  0.13403082  1
  In  In5  1  -0.00844976  0.84791161  0.62063149  1
  In  In6  1  0.31923150  0.14704054  0.09467158  1
  In  In7  1  0.32082251  0.16676071  0.64591560  1
  In  In8  1  0.34122787  0.49416956  0.12545206  1
  In  In9  1  0.33471584  0.50061695  0.62268696  1
  In  In10  1  0.33426622  0.82769393  0.13343166  1
  In  In11  1  0.33453342  0.83084077  0.63141666  1
  In  In12  1  0.66675768  0.16661977  0.11886000  1
  In  In13  1  0.67502818  0.15903283  0.64053023  1
  In  In14  1  0.65458941  0.48256342  0.12001047  1
  In  In15  1  0.65786357  0.49723891  0.62650745  1
  In  In16  1  0.66537802  0.85165465  0.12563663  1
  In  In17  1  0.67147935  0.84099754  0.61865090  1
  In  In18  1  0.15871517  -0.00560388  0.35160476  1
  In  In19  1  0.19082366  0.00948113  0.87637042  1
  In  In20  1  0.16642038  0.34660365  0.36935327  1
  In  In21  1  0.15817019  0.31451134  0.86427251  1
  In  In22  1  0.17380055  0.65225614  0.37680840  1
  In  In23  1  0.17497908  0.65246658  0.87471095  1
  In  In24  1  0.49792384  -0.00520095  0.36166413  1
  In  In25  1  0.49677087  -0.00296480  0.88198423  1
  In  In26  1  0.51005210  0.33320366  0.37375309  1
  In  In27  1  0.50086287  0.33318445  0.87654049  1
  In  In28  1  0.47649725  0.65991083  0.37401364  1
  In  In29  1  0.49559732  0.67440650  0.88194125  1
  In  In30  1  0.83106337  0.00766689  0.37283783  1
  In  In31  1  0.83393254  0.02352099  0.87406490  1
  In  In32  1  0.82286213  0.32381417  0.36992048  1
  In  In33  1  0.83520827  0.32550206  0.87220997  1
  In  In34  1  0.85004391  0.67107423  0.37841091  1
  In  In35  1  0.81298906  0.66439301  0.87622756  1
  In  In36  1  -0.00718166  0.15838175  0.36308638  1
  In  In37  1  -0.01109748  0.18033882  0.88621164  1
  In  In38  1  0.01581143  0.49862340  0.37215776  1
  In  In39  1  0.00794327  0.47430227  0.87538697  1
  In  In40  1  -0.01152254  0.83705694  0.37632644  1
  In  In41  1  -0.00269978  0.84710262  0.88115201  1
  In  In42  1  0.33365298  0.15714706  0.36945440  1
  In  In43  1  0.33445267  0.16753233  0.88132143  1
  In  In44  1  0.32314562  0.51294285  0.39362331  1
  In  In45  1  0.34197533  0.50518380  0.87035458  1
  In  In46  1  0.32320269  0.82974757  0.35684206  1
  In  In47  1  0.35524825  0.84537505  0.86709012  1
  In  In48  1  0.66943645  0.17784903  0.36593442  1
  In  In49  1  0.66945287  0.16543544  0.87209249  1
  In  In50  1  0.66508255  0.48222672  0.37683974  1
  In  In51  1  0.67423455  0.48889325  0.88142420  1
  In  In52  1  0.66657436  0.85077933  0.37258433  1
  In  In53  1  0.64870777  0.83297610  0.87835384  1
  In  In54  1  0.16170187  0.01261681  0.14309658  1
  In  In55  1  0.17230748  0.01083499  0.63067555  1
  In  In56  1  0.17170518  0.31327328  0.13320774  1
  In  In57  1  0.16150375  0.33784421  0.62810956  1
  In  In58  1  0.17580700  0.67990369  0.13417997  1
  In  In59  1  0.18742393  0.65986880  0.62204598  1
  In  In60  1  0.49876747  0.00410478  0.11579512  1
  In  In61  1  0.49184643  0.01026897  0.63357247  1
  In  In62  1  0.49973718  0.33385118  0.11548778  1
  In  In63  1  0.49374429  0.33464691  0.63547304  1
  In  In64  1  0.48685283  0.65830109  0.12019726  1
  In  In65  1  0.49566844  0.65327240  0.62005106  1
  In  In66  1  0.82517115  0.01350801  0.12838312  1
  In  In67  1  0.82594323  0.00429921  0.61962088  1
  In  In68  1  0.83022159  0.32807530  0.12263362  1
  In  In69  1  0.84008689  0.32187900  0.63809585  1
  In  In70  1  0.84212293  0.65675852  0.12514729  1
  In  In71  1  0.81956831  0.67322951  0.61944357  1
  In  In72  1  0.00774323  0.66761749  0.25187580  1
  In  In73  1  0.82992187  0.83335989  0.00817202  1
  In  In74  1  0.50052154  0.83119026  0.49994257  1
  In  In75  1  0.17334203  0.83560545  0.00794423  1
  In  In76  1  0.49908631  0.16584615  0.50387692  1
  In  In77  1  0.16272911  0.82932362  0.49063451  1
  In  In78  1  0.33833748  0.32719641  0.24700301  1
  In  In79  1  0.16307986  0.16980653  0.50126971  1
  In  In80  1  0.66559623  0.66715440  0.25493529  1
  In  In81  1  0.00219626  0.66203548  0.75229228  1
  In  In82  1  0.16671965  0.49088996  0.00376650  1
  In  In83  1  0.83409533  0.50197035  0.49981125  1
  In  In84  1  0.65821791  0.66593693  0.74260199  1
  In  In85  1  0.00651545  0.00792762  0.75059832  1
  Cu  Cu86  1  0.32993965  -0.00400752  0.49616638  1
  Cu  Cu87  1  0.49373016  0.49602919  0.24553806  1
  Cu  Cu88  1  0.17222679  0.82453643  0.75380519  1
  Cu  Cu89  1  0.49519682  0.83702402  0.75281500  1
  Cu  Cu90  1  0.82694521  0.84265556  0.74225930  1
  Cu  Cu91  1  0.83126184  0.16728533  0.24594494  1
  Cu  Cu92  1  0.17651680  0.49501446  0.74956922  1
  Cu  Cu93  1  -0.01358743  0.00756169  0.49629481  1
  Cu  Cu94  1  0.66072697  0.65641227  0.00370650  1
  Cu  Cu95  1  0.33922106  0.33799831  0.50405920  1
  Cu  Cu96  1  0.33462184  0.33599279  -0.00457499  1
  Cu  Cu97  1  0.66656056  0.32949875  0.50106617  1
  Cu  Cu98  1  0.66877725  0.33163969  -0.00401914  1
  Cu  Cu99  1  -0.00123414  0.33151991  0.50025826  1
  Cu  Cu100  1  0.66445549  0.67303188  0.49803803  1
  Cu  Cu101  1  0.82717943  0.48944549  0.24802944  1
  Cu  Cu102  1  0.00471402  0.01061607  0.00657136  1
  Cu  Cu103  1  0.00481769  0.67053569  0.49743009  1
  Cu  Cu104  1  0.50345351  0.83539109  0.24506592  1
  Cu  Cu105  1  0.49996804  0.49867940  0.75106773  1
  Cu  Cu106  1  0.84042225  0.49241537  0.75517466  1
  Cu  Cu107  1  0.50223379  0.16562937  0.23846671  1
  Cu  Cu108  1  -0.00555186  0.32614664  0.00081531  1
  Cu  Cu109  1  0.50074874  0.16381418  0.76122145  1
  Cu  Cu110  1  0.84078394  0.84321754  0.24977655  1
  Cu  Cu111  1  0.33613045  0.67031154  0.00000004  1
  Cu  Cu112  1  -0.00798479  0.66069859  0.00300324  1
  Cu  Cu113  1  0.67063604  0.01055706  0.49651137  1
  Cu  Cu114  1  0.66695656  0.00188254  -0.00220177  1
  Se  Se115  1  0.08814865  0.08701171  0.06370308  1
  Se  Se116  1  0.07229718  0.07581297  0.56002906  1
  Se  Se117  1  0.07475366  0.40505093  0.06368218  1
  Se  Se118  1  0.08658677  0.41364297  0.54982309  1
  Se  Se119  1  0.07345021  0.74209783  0.06099698  1
  Se  Se120  1  0.07971418  0.74777037  0.56434738  1
  Se  Se121  1  0.43769799  0.09873535  0.04346856  1
  Se  Se122  1  0.39840421  0.08150796  0.56014835  1
  Se  Se123  1  0.41599981  0.42100084  0.04874485  1
  Se  Se124  1  0.42495523  0.41584113  0.55829395  1
  Se  Se125  1  0.41443021  0.75529988  0.05586649  1
  Se  Se126  1  0.40589551  0.74250874  0.55529356  1
  Se  Se127  1  0.75272636  0.08458163  0.04897456  1
  Se  Se128  1  0.74555653  0.09500268  0.55484789  1
  Se  Se129  1  0.75025503  0.41476592  0.05275338  1
  Se  Se130  1  0.74883281  0.41068168  0.56108088  1
  Se  Se131  1  0.73917111  0.73842523  0.06577088  1
  Se  Se132  1  0.74894156  0.75830224  0.54658893  1
  Se  Se133  1  0.24468102  0.25772521  0.04658060  1
  Se  Se134  1  0.26165418  0.25104008  0.56072204  1
  Se  Se135  1  0.25261614  0.59213794  0.05937562  1
  Se  Se136  1  0.24990743  0.57367049  0.54895486  1
  Se  Se137  1  0.25250630  0.92651152  0.07086808  1
  Se  Se138  1  0.24938484  0.91853234  0.55801780  1
  Se  Se139  1  0.58444398  0.24968832  0.04960228  1
  Se  Se140  1  0.58788500  0.25261040  0.56525037  1
  Se  Se141  1  0.57540315  0.57523517  0.05655807  1
  Se  Se142  1  0.59030703  0.58463781  0.55241164  1
  Se  Se143  1  0.58410741  0.91601412  0.04839782  1
  Se  Se144  1  0.58241374  0.93508886  0.55575000  1
  Se  Se145  1  0.91198166  0.24261673  0.05450311  1
  Se  Se146  1  0.91392163  0.25396723  0.55554635  1
  Se  Se147  1  0.90944037  0.57282777  0.04984521  1
  Se  Se148  1  0.92516912  0.59180296  0.56221132  1
  Se  Se149  1  0.92696898  0.92202849  0.06323194  1
  Se  Se150  1  0.90729110  0.92022017  0.54937583  1
  Se  Se151  1  0.07648436  0.25444697  0.43570061  1
  Se  Se152  1  0.08869353  0.25106365  0.94995133  1
  Se  Se153  1  0.08412262  0.58191505  0.44810806  1
  Se  Se154  1  0.07469645  0.58420308  0.94288108  1
  Se  Se155  1  0.07718721  0.93323438  0.43945455  1
  Se  Se156  1  0.08418876  0.92980579  0.94673648  1
  Se  Se157  1  0.40898986  0.25349129  0.44004372  1
  Se  Se158  1  0.42183026  0.25069636  0.94827816  1
  Se  Se159  1  0.43265751  0.57033727  0.45287812  1
  Se  Se160  1  0.41596663  0.58323993  0.94706987  1
  Se  Se161  1  0.41045521  0.91783535  0.43665402  1
  Se  Se162  1  0.41868468  0.90977274  0.95102889  1
  Se  Se163  1  0.74683048  0.24688498  0.44576731  1
  Se  Se164  1  0.75188150  0.24715829  0.94352003  1
  Se  Se165  1  0.74400987  0.59120483  0.43627011  1
  Se  Se166  1  0.74966369  0.57948476  0.95134597  1
  Se  Se167  1  0.75091602  0.92248252  0.44476130  1
  Se  Se168  1  0.74952561  0.91913102  0.93829239  1
  Se  Se169  1  0.24537434  0.07457673  0.43856740  1
  Se  Se170  1  0.25863941  0.08346369  0.95461769  1
  Se  Se171  1  0.24752173  0.40997448  0.44911873  1
  Se  Se172  1  0.25183140  0.41287205  0.93386963  1
  Se  Se173  1  0.26403365  0.74432771  0.44042305  1
  Se  Se174  1  0.25350033  0.74671761  0.93947946  1
  Se  Se175  1  0.58227334  0.07972988  0.43532016  1
  Se  Se176  1  0.58604339  0.08480894  0.94278514  1
  Se  Se177  1  0.58103818  0.41314653  0.45147140  1
  Se  Se178  1  0.58091922  0.41770249  0.94816544  1
  Se  Se179  1  0.58655416  0.74563165  0.43149960  1
  Se  Se180  1  0.58310831  0.74766722  0.95328579  1
  Se  Se181  1  0.91056192  0.09493738  0.44229194  1
  Se  Se182  1  0.91545323  0.08589766  0.95289261  1
  Se  Se183  1  0.92002305  0.41247270  0.43717975  1
  Se  Se184  1  0.91500724  0.41092610  0.94528206  1
  Se  Se185  1  0.91724501  0.75648535  0.45292360  1
  Se  Se186  1  0.91790750  0.74409305  0.94100736  1
  Se  Se187  1  0.24281464  0.24312240  0.30817484  1
  Se  Se188  1  0.26749121  0.25652251  0.80742931  1
  Se  Se189  1  0.25807921  0.57686191  0.30795397  1
  Se  Se190  1  0.25580410  0.58429786  0.79927768  1
  Se  Se191  1  0.27654778  0.94397006  0.29998715  1
  Se  Se192  1  0.25090741  0.91202541  0.80653415  1
  Se  Se193  1  0.57796219  0.25065393  0.29737637  1
  Se  Se194  1  0.58485040  0.25284657  0.80681289  1
  Se  Se195  1  0.57483890  0.57280694  0.31004904  1
  Se  Se196  1  0.58087961  0.57934858  0.81254281  1
  Se  Se197  1  0.58941410  0.91939532  0.29457496  1
  Se  Se198  1  0.57957859  0.91815261  0.80613671  1
  Se  Se199  1  0.91251783  0.25219047  0.30059991  1
  Se  Se200  1  0.92588840  0.25180147  0.80375496  1
  Se  Se201  1  0.90879950  0.57330216  0.30528043  1
  Se  Se202  1  0.91162896  0.57795653  0.81634767  1
  Se  Se203  1  0.92056806  0.92622898  0.30524036  1
  Se  Se204  1  0.90873576  0.91453781  0.80613791  1
  Se  Se205  1  0.08570108  0.09291174  0.29363941  1
  Se  Se206  1  0.08486472  0.08932395  0.82173102  1
  Se  Se207  1  0.07926507  0.41508312  0.29692915  1
  Se  Se208  1  0.08739213  0.41095025  0.79666158  1
  Se  Se209  1  0.09051924  0.75553477  0.31799179  1
  Se  Se210  1  0.08600984  0.75608164  0.81590268  1
  Se  Se211  1  0.42091783  0.08721257  0.29768271  1
  Se  Se212  1  0.41554570  0.07997537  0.81183239  1
  Se  Se213  1  0.41696301  0.42018794  0.31280385  1
  Se  Se214  1  0.41803801  0.41412140  0.80447285  1
  Se  Se215  1  0.42088254  0.75033932  0.29797552  1
  Se  Se216  1  0.41879067  0.74297609  0.80199603  1
  Se  Se217  1  0.74687019  0.08537109  0.30158721  1
  Se  Se218  1  0.75050010  0.08609023  0.79933794  1
  Se  Se219  1  0.74128326  0.40910052  0.30082047  1
  Se  Se220  1  0.75068157  0.41431573  0.80598683  1
  Se  Se221  1  0.76390181  0.75768896  0.30922470  1
  Se  Se222  1  0.74869924  0.75985843  0.80308513  1
  Se  Se223  1  0.26212260  0.10150807  0.18949079  1
  Se  Se224  1  0.25131884  0.07022080  0.70988996  1
  Se  Se225  1  0.24448809  0.42146337  0.19189152  1
  Se  Se226  1  0.25622861  0.41332152  0.69201015  1
  Se  Se227  1  0.24785172  0.75862933  0.20735634  1
  Se  Se228  1  0.25372711  0.74336542  0.69824609  1
  Se  Se229  1  0.58641729  0.08010013  0.18755846  1
  Se  Se230  1  0.58101426  0.08090491  0.70297301  1
  Se  Se231  1  0.57505713  0.40924655  0.19521352  1
  Se  Se232  1  0.58559279  0.41585075  0.70028969  1
  Se  Se233  1  0.58160052  0.75081467  0.18637973  1
  Se  Se234  1  0.57110744  0.76150557  0.68373445  1
  Se  Se235  1  0.91791685  0.08215885  0.19694770  1
  Se  Se236  1  0.91025977  0.09000121  0.69119846  1
  Se  Se237  1  0.91265724  0.41154286  0.19361878  1
  Se  Se238  1  0.92468916  0.41225404  0.70041315  1
  Se  Se239  1  0.91536691  0.75897194  0.18981865  1
  Se  Se240  1  0.90943711  0.75464666  0.69140366  1
  Se  Se241  1  0.07443930  0.25477540  0.20123816  1
  Se  Se242  1  0.11151449  0.22531973  0.68869582  1
  Se  Se243  1  0.09180107  0.57645137  0.18946122  1
  Se  Se244  1  0.09085521  0.57470500  0.68961440  1
  Se  Se245  1  0.09900862  0.91314037  0.21118165  1
  Se  Se246  1  0.09200475  0.90472782  0.69337661  1
  Se  Se247  1  0.41593079  0.23930308  0.17850349  1
  Se  Se248  1  0.41890397  0.24508601  0.70346700  1
  Se  Se249  1  0.41087284  0.58354784  0.19757589  1
  Se  Se250  1  0.41756225  0.58164985  0.69592924  1
  Se  Se251  1  0.42386280  0.91955423  0.18975208  1
  Se  Se252  1  0.41159385  0.91969911  0.69761432  1
  Se  Se253  1  0.74519839  0.24873267  0.19249126  1
  Se  Se254  1  0.73404758  0.26690363  0.70011390  1
  Se  Se255  1  0.74936694  0.57531351  0.19073569  1
  Se  Se256  1  0.76170824  0.57358416  0.69341029  1
  Se  Se257  1  0.75244704  0.92099515  0.19717520  1
  Se  Se258  1  0.74282761  0.92506823  0.69176256  1
