# generated using pymatgen
data_In86Cu29Se144
_symmetry_space_group_name_H-M   'P 1'
_cell_length_a   17.58087051
_cell_length_b   17.57906839
_cell_length_c   23.44179786
_cell_angle_alpha   89.98933943
_cell_angle_beta   89.98197043
_cell_angle_gamma   89.99624648
_symmetry_Int_Tables_number   1
_chemical_formula_structural   In86Cu29Se144
_chemical_formula_sum   'In86 Cu29 Se144'
_cell_volume   7244.81196210
_cell_formula_units_Z   1
loop_
 _symmetry_equiv_pos_site_id
 _symmetry_equiv_pos_as_xyz
  1  'x, y, z'
loop_
 _atom_site_type_symbol
 _atom_site_label
 _atom_site_symmetry_multiplicity
 _atom_site_fract_x
 _atom_site_fract_y
 _atom_site_fract_z
 _atom_site_occupancy
  In  In0  1  0.00004997  0.16590420  0.13490994  1
  In  In1  1  -0.00495333  0.15818898  0.61582244  1
  In  In2  1  0.00107862  0.49047325  0.12356422  1
  In  In3  1  0.01201336  0.49937207  0.62297006  1
  In  In4  1  0.00229354  0.84610799  0.11540591  1
  In  In5  1  -0.00527029  0.84183395  0.62899561  1
  In  In6  1  0.33950325  0.15696399  0.12087131  1
  In  In7  1  0.33340191  0.16649965  0.62814915  1
  In  In8  1  0.33235033  0.51260669  0.12030443  1
  In  In9  1  0.33707116  0.50332756  0.62942426  1
  In  In10  1  0.32975377  0.84656210  0.11421371  1
  In  In11  1  0.34142528  0.82519181  0.63447670  1
  In  In12  1  0.65964818  0.16639224  0.13473524  1
  In  In13  1  0.66084278  0.15595444  0.61819358  1
  In  In14  1  0.66126181  0.49666859  0.12747074  1
  In  In15  1  0.66163187  0.51869045  0.62883931  1
  In  In16  1  0.71128018  0.84819019  0.10187913  1
  In  In17  1  0.66722625  0.83844122  0.62477267  1
  In  In18  1  0.16947398  0.01158986  0.37784340  1
  In  In19  1  0.15094548  -0.01294358  0.85358284  1
  In  In20  1  0.16105130  0.33631089  0.38073549  1
  In  In21  1  0.18704275  0.32618820  0.87424180  1
  In  In22  1  0.15041323  0.65606687  0.38784976  1
  In  In23  1  0.16479534  0.66917807  0.87352967  1
  In  In24  1  0.50474054  -0.00304766  0.38306165  1
  In  In25  1  0.51213466  0.01078035  0.86986874  1
  In  In26  1  0.51710852  0.31904243  0.39082691  1
  In  In27  1  0.48586604  0.33455385  0.87195023  1
  In  In28  1  0.49725653  0.66946424  0.38800808  1
  In  In29  1  0.50106848  0.66289750  0.85504983  1
  In  In30  1  0.83219399  0.00100364  0.37709033  1
  In  In31  1  0.82319641  -0.01334258  0.87206115  1
  In  In32  1  0.81808242  0.32022861  0.36759794  1
  In  In33  1  0.83838784  0.33084213  0.87464623  1
  In  In34  1  0.83933630  0.68414599  0.38593119  1
  In  In35  1  0.84160429  0.68146772  0.86587618  1
  In  In36  1  -0.00279464  0.16277655  0.37453888  1
  In  In37  1  0.00738446  0.14270642  0.87314183  1
  In  In38  1  0.01192839  0.49848321  0.38223667  1
  In  In39  1  0.00034149  0.51840769  0.87159152  1
  In  In40  1  -0.02180905  0.83264256  0.38227335  1
  In  In41  1  0.00297977  0.84013542  0.87530119  1
  In  In42  1  0.33639134  0.16330094  0.38845272  1
  In  In43  1  0.33639727  0.17554656  0.86290701  1
  In  In44  1  0.33166359  0.49996713  0.38662013  1
  In  In45  1  0.32979870  0.48773097  0.86267070  1
  In  In46  1  0.33580146  0.84642169  0.38220050  1
  In  In47  1  0.32196004  0.82293045  0.86406076  1
  In  In48  1  0.66492952  0.16629365  0.37731717  1
  In  In49  1  0.66219627  0.14117018  0.87726061  1
  In  In50  1  0.66817420  0.48656092  0.37817914  1
  In  In51  1  0.65139493  0.50589562  0.86876954  1
  In  In52  1  0.66235730  0.84211545  0.38130947  1
  In  In53  1  0.67039429  0.83860723  0.87116576  1
  In  In54  1  0.16306750  -0.00866232  0.11968515  1
  In  In55  1  0.16060260  0.01242740  0.63744854  1
  In  In56  1  0.15443574  0.32879694  0.12413670  1
  In  In57  1  0.17722751  0.34196395  0.62062568  1
  In  In58  1  0.16135983  0.66908656  0.11114325  1
  In  In59  1  0.17469166  0.65765424  0.63410686  1
  In  In60  1  0.50172448  0.01217662  0.12008160  1
  In  In61  1  0.50374163  0.00258578  0.62687724  1
  In  In62  1  0.51183316  0.32668235  0.13427029  1
  In  In63  1  0.49170941  0.32261972  0.61821029  1
  In  In64  1  0.50784629  0.66506485  0.12252517  1
  In  In65  1  0.49694207  0.67054320  0.62573674  1
  In  In66  1  0.83331804  0.00141969  0.13366281  1
  In  In67  1  0.83521456  -0.00352032  0.62278694  1
  In  In68  1  0.83742584  0.32582187  0.13548692  1
  In  In69  1  0.84296808  0.32482525  0.61876874  1
  In  In70  1  0.83136625  0.69162654  0.11850269  1
  In  In71  1  0.82339389  0.68050634  0.63194003  1
  In  In72  1  0.16743272  0.16106216  -0.00299013  1
  In  In73  1  0.33743940  0.00666366  0.25494896  1
  In  In74  1  0.49613397  0.50031696  -0.00129965  1
  In  In75  1  -0.00145588  0.66323622  0.26074737  1
  In  In76  1  0.66276899  0.33259731  0.74380103  1
  In  In77  1  0.83181761  0.49844251  0.50034090  1
  In  In78  1  0.33253804  0.66878102  0.25015153  1
  In  In79  1  0.83373573  0.16045261  -0.00194684  1
  In  In80  1  0.83335450  0.51010903  0.00285904  1
  In  In81  1  0.49785777  0.83201888  -0.01267043  1
  In  In82  1  0.00343080  0.33266337  0.74485533  1
  In  In83  1  0.66767289  0.66678991  0.24137383  1
  In  In84  1  0.17207055  0.83021739  0.50955628  1
  In  In85  1  0.33338478  0.33469831  0.25302948  1
  Cu  Cu86  1  0.50774434  0.49242171  0.25800878  1
  Cu  Cu87  1  0.32962760  0.00249627  -0.00877408  1
  Cu  Cu88  1  0.33356447  0.66353736  0.51129604  1
  Cu  Cu89  1  0.66388560  0.33272878  0.49950502  1
  Cu  Cu90  1  0.32882029  0.33562920  0.50442245  1
  Cu  Cu91  1  0.83056877  0.16291118  0.25474565  1
  Cu  Cu92  1  0.83781208  0.15441421  0.74690798  1
  Cu  Cu93  1  0.66361829  0.32421019  0.00683122  1
  Cu  Cu94  1  0.16745558  0.50013923  0.75006108  1
  Cu  Cu95  1  0.50363962  0.83777497  0.74697193  1
  Cu  Cu96  1  0.50809819  0.83745459  0.25189848  1
  Cu  Cu97  1  0.00342255  0.67747636  -0.00835983  1
  Cu  Cu98  1  0.32821782  0.66543563  -0.00946615  1
  Cu  Cu99  1  0.16165779  0.49612423  0.25367477  1
  Cu  Cu100  1  0.00850711  0.33737174  0.00111112  1
  Cu  Cu101  1  0.83703743  0.49615873  0.25004105  1
  Cu  Cu102  1  0.83181385  0.84207164  0.25022488  1
  Cu  Cu103  1  0.15844820  0.83265346  0.24378446  1
  Cu  Cu104  1  0.33934080  0.00224509  0.50899491  1
  Cu  Cu105  1  0.67317003  -0.00037285  0.50092444  1
  Cu  Cu106  1  0.50141735  0.16652974  0.74517219  1
  Cu  Cu107  1  0.82968170  0.50925172  0.75010421  1
  Cu  Cu108  1  0.83260543  0.83749118  0.74900851  1
  Cu  Cu109  1  -0.00040402  0.32261803  0.49697991  1
  Cu  Cu110  1  0.33735755  0.33436386  -0.00731034  1
  Cu  Cu111  1  0.15954631  0.16710763  0.25310838  1
  Cu  Cu112  1  0.66292707  0.67530700  0.50634941  1
  Cu  Cu113  1  0.00084343  -0.00378042  0.50171320  1
  Cu  Cu114  1  0.16247465  0.83221743  0.74746384  1
  Se  Se115  1  0.06973942  0.07913276  0.05715956  1
  Se  Se116  1  0.08836744  0.07726287  0.55285803  1
  Se  Se117  1  0.09153471  0.42208434  0.05179312  1
  Se  Se118  1  0.07817635  0.40808793  0.55221914  1
  Se  Se119  1  0.08488288  0.76167875  0.04805317  1
  Se  Se120  1  0.08168731  0.74363497  0.56853365  1
  Se  Se121  1  0.41491926  0.08087876  0.04572480  1
  Se  Se122  1  0.42294400  0.08931840  0.55836572  1
  Se  Se123  1  0.41291907  0.40702712  0.06344770  1
  Se  Se124  1  0.41381859  0.41849894  0.55656524  1
  Se  Se125  1  0.40891937  0.74011707  0.05574506  1
  Se  Se126  1  0.41672797  0.75577946  0.55423006  1
  Se  Se127  1  0.74315412  0.08098429  0.06289538  1
  Se  Se128  1  0.75670719  0.08405780  0.55316840  1
  Se  Se129  1  0.74868449  0.40675825  0.05993734  1
  Se  Se130  1  0.74039913  0.41170730  0.56397749  1
  Se  Se131  1  0.73762570  0.73094882  0.04042711  1
  Se  Se132  1  0.75209348  0.75707300  0.55369037  1
  Se  Se133  1  0.25761041  0.25620688  0.05756321  1
  Se  Se134  1  0.24979222  0.24589780  0.55559207  1
  Se  Se135  1  0.24768728  0.58254679  0.04787712  1
  Se  Se136  1  0.24677957  0.57814505  0.55765500  1
  Se  Se137  1  0.24470261  0.92011265  0.04363885  1
  Se  Se138  1  0.25695830  0.92314896  0.56890563  1
  Se  Se139  1  0.57900688  0.24362657  0.05861865  1
  Se  Se140  1  0.58282912  0.24577997  0.55209994  1
  Se  Se141  1  0.59730961  0.58863726  0.05142194  1
  Se  Se142  1  0.57951638  0.58753360  0.55352532  1
  Se  Se143  1  0.58172167  0.91083461  0.05924931  1
  Se  Se144  1  0.58506502  0.92086433  0.55482966  1
  Se  Se145  1  0.92560589  0.25578676  0.05707709  1
  Se  Se146  1  0.91203947  0.24025568  0.54565938  1
  Se  Se147  1  0.93013275  0.59916423  0.06076807  1
  Se  Se148  1  0.91187983  0.58527941  0.56708069  1
  Se  Se149  1  0.88569387  0.89950003  0.06220147  1
  Se  Se150  1  0.91559410  0.91207858  0.55136561  1
  Se  Se151  1  0.08561640  0.24103886  0.44400332  1
  Se  Se152  1  0.07735415  0.25411863  0.93631327  1
  Se  Se153  1  0.07759626  0.57620584  0.46047956  1
  Se  Se154  1  0.08452603  0.58520828  0.94639326  1
  Se  Se155  1  0.08424722  0.91587460  0.44181053  1
  Se  Se156  1  0.08614768  0.92765843  0.94011848  1
  Se  Se157  1  0.41546774  0.25205252  0.45353830  1
  Se  Se158  1  0.41613972  0.24540852  0.94294032  1
  Se  Se159  1  0.41622274  0.58243098  0.45303354  1
  Se  Se160  1  0.41225047  0.58772326  0.93344757  1
  Se  Se161  1  0.41968580  0.91743248  0.45395421  1
  Se  Se162  1  0.40689110  0.92131262  0.92897777  1
  Se  Se163  1  0.74892796  0.24847300  0.44856784  1
  Se  Se164  1  0.74229541  0.25397689  0.93944278  1
  Se  Se165  1  0.73995336  0.59412391  0.44175730  1
  Se  Se166  1  0.75031536  0.58504323  0.93009619  1
  Se  Se167  1  0.75581854  0.91339683  0.44812809  1
  Se  Se168  1  0.73553257  0.92386564  0.94675484  1
  Se  Se169  1  0.25148914  0.07948030  0.45399247  1
  Se  Se170  1  0.25164619  0.08040355  0.92848360  1
  Se  Se171  1  0.24387880  0.41744092  0.44998107  1
  Se  Se172  1  0.25306919  0.41994737  0.94427121  1
  Se  Se173  1  0.25845520  0.73976770  0.44166183  1
  Se  Se174  1  0.24562760  0.75465547  0.94393188  1
  Se  Se175  1  0.58624304  0.08306436  0.44952040  1
  Se  Se176  1  0.57883900  0.07947618  0.95361442  1
  Se  Se177  1  0.58083611  0.42423135  0.45383289  1
  Se  Se178  1  0.58961690  0.40665563  0.94271414  1
  Se  Se179  1  0.58067265  0.75785950  0.44981389  1
  Se  Se180  1  0.58459330  0.73674597  0.93157273  1
  Se  Se181  1  0.91853920  0.08013201  0.44642869  1
  Se  Se182  1  0.92169622  0.06517551  0.94348232  1
  Se  Se183  1  0.91568413  0.40436093  0.43815870  1
  Se  Se184  1  0.92405950  0.41552485  0.94245871  1
  Se  Se185  1  0.93647974  0.73537892  0.45711511  1
  Se  Se186  1  0.91434239  0.75795078  0.94308828  1
  Se  Se187  1  0.24618977  0.24064365  0.31254253  1
  Se  Se188  1  0.25261226  0.25539694  0.79384799  1
  Se  Se189  1  0.24095803  0.57949438  0.31160571  1
  Se  Se190  1  0.24825492  0.58485304  0.80499179  1
  Se  Se191  1  0.24179723  0.90900799  0.30607474  1
  Se  Se192  1  0.25355135  0.91622436  0.79421687  1
  Se  Se193  1  0.58819629  0.25662371  0.30905873  1
  Se  Se194  1  0.58225012  0.24238714  0.81119976  1
  Se  Se195  1  0.58072351  0.58552848  0.31267021  1
  Se  Se196  1  0.57890929  0.57303022  0.78981252  1
  Se  Se197  1  0.58536480  0.92162671  0.30763915  1
  Se  Se198  1  0.58650987  0.91982058  0.80183440  1
  Se  Se199  1  0.91627202  0.24801690  0.30470906  1
  Se  Se200  1  0.91462083  0.23808641  0.80732154  1
  Se  Se201  1  0.90363182  0.57489709  0.31833152  1
  Se  Se202  1  0.91899598  0.59071960  0.79839504  1
  Se  Se203  1  0.91784928  0.91915216  0.30614716  1
  Se  Se204  1  0.91784218  0.91897867  0.80345441  1
  Se  Se205  1  0.08132229  0.07813044  0.30496427  1
  Se  Se206  1  0.09855456  0.10053865  0.79521535  1
  Se  Se207  1  0.07937103  0.41366369  0.30661318  1
  Se  Se208  1  0.08734093  0.41950766  0.81218825  1
  Se  Se209  1  0.09022385  0.75805345  0.31562968  1
  Se  Se210  1  0.08027720  0.75150282  0.80566537  1
  Se  Se211  1  0.42705548  0.09448378  0.31375186  1
  Se  Se212  1  0.42038400  0.08350450  0.80150782  1
  Se  Se213  1  0.42166191  0.41991579  0.31727153  1
  Se  Se214  1  0.42809050  0.42244978  0.79746040  1
  Se  Se215  1  0.42343792  0.76034419  0.30993268  1
  Se  Se216  1  0.41630472  0.75312878  0.79582746  1
  Se  Se217  1  0.74662946  0.08063684  0.30836632  1
  Se  Se218  1  0.75013398  0.07887670  0.80231422  1
  Se  Se219  1  0.74730512  0.41729105  0.30113822  1
  Se  Se220  1  0.75648520  0.42035292  0.80795682  1
  Se  Se221  1  0.75431526  0.75477374  0.30786496  1
  Se  Se222  1  0.74635649  0.75285155  0.79974671  1
  Se  Se223  1  0.24007200  0.08903016  0.19087779  1
  Se  Se224  1  0.26134057  0.07826060  0.69917520  1
  Se  Se225  1  0.24563704  0.42558010  0.18984298  1
  Se  Se226  1  0.25173546  0.41754959  0.69728861  1
  Se  Se227  1  0.24372554  0.75725015  0.18597172  1
  Se  Se228  1  0.25064126  0.74756888  0.70070669  1
  Se  Se229  1  0.57613205  0.07857069  0.19865526  1
  Se  Se230  1  0.58980816  0.08275539  0.69796096  1
  Se  Se231  1  0.59064929  0.41361309  0.20189199  1
  Se  Se232  1  0.57440346  0.42024915  0.68454790  1
  Se  Se233  1  0.58266508  0.76339780  0.18463331  1
  Se  Se234  1  0.58494115  0.75313486  0.69240552  1
  Se  Se235  1  0.91717063  0.08222082  0.20140392  1
  Se  Se236  1  0.92341094  0.07699273  0.69182585  1
  Se  Se237  1  0.92276813  0.41496728  0.19761012  1
  Se  Se238  1  0.90626381  0.42482781  0.69027753  1
  Se  Se239  1  0.91706890  0.75750762  0.19670867  1
  Se  Se240  1  0.91785888  0.75298973  0.69827147  1
  Se  Se241  1  0.07998814  0.25512802  0.20098338  1
  Se  Se242  1  0.08661194  0.24629555  0.68110533  1
  Se  Se243  1  0.08944829  0.58271343  0.19213568  1
  Se  Se244  1  0.07963729  0.58104545  0.69968953  1
  Se  Se245  1  0.07824315  0.92020936  0.19361960  1
  Se  Se246  1  0.07886875  0.91985012  0.69920403  1
  Se  Se247  1  0.41924057  0.23805650  0.19620582  1
  Se  Se248  1  0.41655553  0.25240279  0.69749547  1
  Se  Se249  1  0.43004460  0.57408588  0.19637588  1
  Se  Se250  1  0.40475087  0.60092771  0.69488447  1
  Se  Se251  1  0.41868830  0.91030620  0.19156623  1
  Se  Se252  1  0.41882534  0.92159771  0.69608455  1
  Se  Se253  1  0.74864967  0.24778466  0.20006615  1
  Se  Se254  1  0.75942850  0.24119526  0.69004481  1
  Se  Se255  1  0.76722605  0.57904927  0.18440964  1
  Se  Se256  1  0.74446261  0.59290235  0.70067633  1
  Se  Se257  1  0.74131872  0.91663190  0.19661338  1
  Se  Se258  1  0.74987794  0.92102004  0.69482346  1
