# generated using pymatgen
data_In86Cu29Se144
_symmetry_space_group_name_H-M   'P 1'
_cell_length_a   17.57064502
_cell_length_b   17.57230613
_cell_length_c   23.43275521
_cell_angle_alpha   89.99047825
_cell_angle_beta   90.00538871
_cell_angle_gamma   90.00627063
_symmetry_Int_Tables_number   1
_chemical_formula_structural   In86Cu29Se144
_chemical_formula_sum   'In86 Cu29 Se144'
_cell_volume   7235.02123900
_cell_formula_units_Z   1
loop_
 _symmetry_equiv_pos_site_id
 _symmetry_equiv_pos_as_xyz
  1  'x, y, z'
loop_
 _atom_site_type_symbol
 _atom_site_label
 _atom_site_symmetry_multiplicity
 _atom_site_fract_x
 _atom_site_fract_y
 _atom_site_fract_z
 _atom_site_occupancy
  In  In0  1  -0.00589270  0.15856392  0.13496830  1
  In  In1  1  -0.00153425  0.18499550  0.62898490  1
  In  In2  1  -0.01375927  0.50525098  0.12613319  1
  In  In3  1  -0.00223963  0.49963238  0.62450964  1
  In  In4  1  0.01026232  0.84210368  0.11578254  1
  In  In5  1  -0.00826988  0.82517476  0.62206511  1
  In  In6  1  0.33256805  0.16909941  0.09932993  1
  In  In7  1  0.34435510  0.16214431  0.63075807  1
  In  In8  1  0.34266454  0.48239305  0.11633720  1
  In  In9  1  0.32470762  0.50512232  0.63648124  1
  In  In10  1  0.33149415  0.84043820  0.10729904  1
  In  In11  1  0.31978851  0.82977317  0.62549767  1
  In  In12  1  0.67466979  0.17826587  0.12002778  1
  In  In13  1  0.66768738  0.16446329  0.63231229  1
  In  In14  1  0.65926767  0.48881203  0.11317915  1
  In  In15  1  0.68072519  0.48874909  0.63466302  1
  In  In16  1  0.67172964  0.84228010  0.10140699  1
  In  In17  1  0.67142999  0.82800886  0.63782165  1
  In  In18  1  0.15104343  0.00975097  0.37857347  1
  In  In19  1  0.18754266  -0.00415328  0.89662281  1
  In  In20  1  0.14595813  0.34811279  0.38210396  1
  In  In21  1  0.16442380  0.32686737  0.87380805  1
  In  In22  1  0.16469197  0.66496880  0.38333679  1
  In  In23  1  0.17267955  0.67227315  0.86617223  1
  In  In24  1  0.51038410  -0.00639159  0.37078554  1
  In  In25  1  0.51365047  -0.01269544  0.89478342  1
  In  In26  1  0.50120776  0.31927651  0.37241637  1
  In  In27  1  0.50121406  0.33304851  0.87762265  1
  In  In28  1  0.49892371  0.66611356  0.37426277  1
  In  In29  1  0.50016616  0.66457711  0.87114434  1
  In  In30  1  0.84885435  -0.01520474  0.38645494  1
  In  In31  1  0.81036884  -0.00206889  0.87846086  1
  In  In32  1  0.83410135  0.33132842  0.37865760  1
  In  In33  1  0.84051424  0.34469353  0.86826715  1
  In  In34  1  0.84348312  0.66061626  0.39061209  1
  In  In35  1  0.83312272  0.66793052  0.87058345  1
  In  In36  1  -0.01534214  0.15492665  0.35880973  1
  In  In37  1  0.00198855  0.18022948  0.87292657  1
  In  In38  1  0.00521691  0.48883794  0.37822396  1
  In  In39  1  -0.01018187  0.49425550  0.86918840  1
  In  In40  1  -0.00182465  0.83667062  0.38206962  1
  In  In41  1  0.00742090  0.82804674  0.87818414  1
  In  In42  1  0.33018659  0.16650655  0.37453891  1
  In  In43  1  0.33355014  0.17410087  0.89153677  1
  In  In44  1  0.32162532  0.48519467  0.37661384  1
  In  In45  1  0.33731128  0.50521030  0.86882721  1
  In  In46  1  0.33326108  0.82138804  0.37828875  1
  In  In47  1  0.34070368  0.82857487  0.88388088  1
  In  In48  1  0.67387306  0.18573999  0.36821428  1
  In  In49  1  0.65444726  0.15823747  0.87002227  1
  In  In50  1  0.68009285  0.49058482  0.38330823  1
  In  In51  1  0.66980416  0.50127782  0.87035617  1
  In  In52  1  0.67556438  0.84563706  0.37460439  1
  In  In53  1  0.67061181  0.83257907  0.87702431  1
  In  In54  1  0.16190055  0.00065448  0.11719508  1
  In  In55  1  0.17723632  -0.01778326  0.62195877  1
  In  In56  1  0.16524824  0.32627671  0.12460879  1
  In  In57  1  0.15155190  0.34424014  0.63631752  1
  In  In58  1  0.15566171  0.67488195  0.12231945  1
  In  In59  1  0.16243284  0.66147253  0.62952655  1
  In  In60  1  0.50663811  0.00759345  0.09270043  1
  In  In61  1  0.50411700  0.01076015  0.63043789  1
  In  In62  1  0.50553520  0.34223608  0.10744614  1
  In  In63  1  0.50076149  0.32676151  0.63800724  1
  In  In64  1  0.50085151  0.66553633  0.10947065  1
  In  In65  1  0.50044195  0.66573947  0.64088107  1
  In  In66  1  0.84596584  0.00437201  0.12432596  1
  In  In67  1  0.82652706  -0.00711333  0.62228436  1
  In  In68  1  0.82295831  0.32956032  0.13138598  1
  In  In69  1  0.82759936  0.33910509  0.62203192  1
  In  In70  1  0.82943824  0.66098404  0.11708348  1
  In  In71  1  0.83498168  0.66871661  0.62986386  1
  In  In72  1  0.32805997  0.32759639  0.24239240  1
  In  In73  1  0.33180304  0.66354788  0.25310832  1
  In  In74  1  0.16557290  0.16785465  0.50346313  1
  In  In75  1  0.50398816  0.16424966  0.50921514  1
  In  In76  1  0.50019021  0.50092681  0.50176482  1
  In  In77  1  0.00061206  0.66346198  0.24972606  1
  In  In78  1  0.32846748  0.00020269  0.24438826  1
  In  In79  1  0.66752352  0.66388950  0.25497293  1
  In  In80  1  -0.00096956  0.00607753  0.75538745  1
  In  In81  1  0.83167743  0.16454699  0.00163620  1
  In  In82  1  0.17190434  0.50730165  -0.00429308  1
  In  In83  1  0.33985553  0.00021559  0.75928126  1
  In  In84  1  0.68115412  0.01762631  0.23711121  1
  In  In85  1  0.50118271  0.83336933  0.49808735  1
  Cu  Cu86  1  0.83062110  0.17391127  0.75208693  1
  Cu  Cu87  1  0.00230602  0.33626683  -0.00230488  1
  Cu  Cu88  1  0.50584780  0.48990524  0.23920488  1
  Cu  Cu89  1  0.16323074  0.84236484  0.24488101  1
  Cu  Cu90  1  -0.00115843  0.00268622  -0.00096024  1
  Cu  Cu91  1  0.00409871  0.00190420  0.50231503  1
  Cu  Cu92  1  0.82773358  0.48889589  0.25152662  1
  Cu  Cu93  1  -0.00709218  0.33566723  0.50224843  1
  Cu  Cu94  1  0.16226239  0.16985500  0.24626075  1
  Cu  Cu95  1  0.17119123  0.16398795  0.75842646  1
  Cu  Cu96  1  0.33320967  0.66661362  -0.00879621  1
  Cu  Cu97  1  0.84347839  0.83387346  0.25049815  1
  Cu  Cu98  1  0.00247873  0.66723997  0.50707010  1
  Cu  Cu99  1  0.49968439  0.83753578  0.76103970  1
  Cu  Cu100  1  0.50658462  0.83734293  0.22912142  1
  Cu  Cu101  1  0.66785779  0.66324808  -0.00968890  1
  Cu  Cu102  1  -0.00535450  0.66924960  -0.00266677  1
  Cu  Cu103  1  0.50030488  0.16846973  0.75902357  1
  Cu  Cu104  1  0.32270688  0.66519783  0.50740607  1
  Cu  Cu105  1  0.67332427  0.33357793  -0.00608706  1
  Cu  Cu106  1  0.83290611  0.50310604  0.74649146  1
  Cu  Cu107  1  0.82952632  0.83570000  0.75075655  1
  Cu  Cu108  1  0.49986913  0.17081048  0.24130462  1
  Cu  Cu109  1  0.16300209  0.49434553  0.75336651  1
  Cu  Cu110  1  0.32540455  0.33766963  0.50881160  1
  Cu  Cu111  1  0.50202298  0.49755224  0.75489420  1
  Cu  Cu112  1  0.16410335  0.82595057  0.75071284  1
  Cu  Cu113  1  0.67288076  0.00161822  0.50237755  1
  Cu  Cu114  1  0.67430883  0.66825851  0.51190273  1
  Se  Se115  1  0.07344092  0.08951768  0.05691517  1
  Se  Se116  1  0.07933081  0.07756733  0.56889091  1
  Se  Se117  1  0.07855752  0.42150247  0.05776651  1
  Se  Se118  1  0.08133273  0.41454015  0.55506763  1
  Se  Se119  1  0.08322980  0.75159204  0.04616981  1
  Se  Se120  1  0.08757865  0.75032619  0.55890297  1
  Se  Se121  1  0.40534915  0.07782115  0.03356407  1
  Se  Se122  1  0.40584693  0.06763111  0.55514018  1
  Se  Se123  1  0.42382180  0.42277188  0.03880130  1
  Se  Se124  1  0.41300196  0.41230944  0.56591210  1
  Se  Se125  1  0.41624230  0.75149903  0.04536387  1
  Se  Se126  1  0.41622802  0.73970963  0.56056363  1
  Se  Se127  1  0.74134693  0.06997368  0.05740113  1
  Se  Se128  1  0.74934474  0.08787033  0.55856425  1
  Se  Se129  1  0.75644725  0.41108128  0.05255846  1
  Se  Se130  1  0.74937354  0.42449984  0.55205895  1
  Se  Se131  1  0.75312558  0.74453673  0.04576689  1
  Se  Se132  1  0.75316020  0.75764640  0.56181809  1
  Se  Se133  1  0.25790469  0.27574561  0.04996028  1
  Se  Se134  1  0.25261906  0.25275088  0.56942515  1
  Se  Se135  1  0.26007503  0.59434986  0.06299853  1
  Se  Se136  1  0.24532772  0.57648281  0.55955156  1
  Se  Se137  1  0.23644450  0.91568250  0.04724516  1
  Se  Se138  1  0.25873879  0.91299669  0.54829727  1
  Se  Se139  1  0.58998457  0.24931993  0.04719269  1
  Se  Se140  1  0.59047516  0.26102561  0.56163646  1
  Se  Se141  1  0.58499388  0.57942891  0.04571386  1
  Se  Se142  1  0.58657529  0.58945657  0.56591982  1
  Se  Se143  1  0.56452708  0.89465262  0.03901345  1
  Se  Se144  1  0.58826077  0.92312897  0.56137054  1
  Se  Se145  1  0.92241467  0.25556157  0.05978019  1
  Se  Se146  1  0.91220824  0.25039645  0.55523641  1
  Se  Se147  1  0.91461362  0.58101905  0.04823319  1
  Se  Se148  1  0.91500002  0.58643091  0.55857146  1
  Se  Se149  1  0.91588261  0.91777631  0.05153292  1
  Se  Se150  1  0.91935485  0.91961300  0.55609727  1
  Se  Se151  1  0.06964505  0.24758111  0.44290941  1
  Se  Se152  1  0.08428298  0.24941475  0.94897145  1
  Se  Se153  1  0.07809894  0.58272243  0.44701757  1
  Se  Se154  1  0.07657880  0.59002768  0.93520673  1
  Se  Se155  1  0.08650970  0.91706033  0.44943899  1
  Se  Se156  1  0.08146628  0.91787212  0.94722409  1
  Se  Se157  1  0.40535425  0.25647598  0.44858073  1
  Se  Se158  1  0.43860498  0.24025018  0.95059872  1
  Se  Se159  1  0.40185815  0.58904537  0.44149265  1
  Se  Se160  1  0.41757583  0.58243602  0.94205135  1
  Se  Se161  1  0.41232488  0.92566716  0.43797882  1
  Se  Se162  1  0.39153455  0.93947517  0.94431255  1
  Se  Se163  1  0.74761244  0.25158095  0.44698952  1
  Se  Se164  1  0.75143835  0.25246927  0.93336937  1
  Se  Se165  1  0.74900917  0.58288035  0.45252667  1
  Se  Se166  1  0.75517191  0.58071031  0.94053742  1
  Se  Se167  1  0.75420835  0.91123201  0.45318228  1
  Se  Se168  1  0.74474581  0.91404336  0.95244421  1
  Se  Se169  1  0.25763815  0.07589624  0.44423347  1
  Se  Se170  1  0.23096170  0.10975179  0.95523280  1
  Se  Se171  1  0.24101850  0.41572338  0.45266711  1
  Se  Se172  1  0.25691726  0.41329484  0.93783670  1
  Se  Se173  1  0.24637972  0.75137157  0.45019263  1
  Se  Se174  1  0.24331754  0.74941249  0.94448713  1
  Se  Se175  1  0.59157422  0.07944317  0.43984730  1
  Se  Se176  1  0.59404941  0.08361671  0.95246088  1
  Se  Se177  1  0.58274972  0.40363568  0.44342857  1
  Se  Se178  1  0.58961266  0.41907238  0.94214396  1
  Se  Se179  1  0.59668360  0.74105326  0.44204785  1
  Se  Se180  1  0.58159342  0.74723450  0.94121459  1
  Se  Se181  1  0.92450615  0.08534483  0.44624083  1
  Se  Se182  1  0.92107549  0.07875915  0.93525640  1
  Se  Se183  1  0.91237307  0.42223508  0.44798669  1
  Se  Se184  1  0.91586166  0.41788353  0.94703093  1
  Se  Se185  1  0.91995403  0.75348759  0.45343977  1
  Se  Se186  1  0.91269420  0.75266327  0.94252183  1
  Se  Se187  1  0.23697315  0.24806825  0.31174288  1
  Se  Se188  1  0.25716657  0.24495786  0.81104681  1
  Se  Se189  1  0.23840422  0.57397156  0.30851770  1
  Se  Se190  1  0.24879173  0.58163569  0.80030594  1
  Se  Se191  1  0.24540733  0.91228844  0.31206702  1
  Se  Se192  1  0.24205640  0.90925815  0.81114848  1
  Se  Se193  1  0.58297545  0.25269368  0.29552744  1
  Se  Se194  1  0.58690461  0.25661059  0.80417994  1
  Se  Se195  1  0.57470282  0.56795864  0.30969648  1
  Se  Se196  1  0.58620269  0.58542364  0.80239701  1
  Se  Se197  1  0.58818940  0.91240387  0.29414917  1
  Se  Se198  1  0.58409955  0.92126373  0.81119122  1
  Se  Se199  1  0.93977107  0.27742785  0.31162102  1
  Se  Se200  1  0.91958475  0.25486408  0.80074969  1
  Se  Se201  1  0.90518812  0.57619143  0.30856103  1
  Se  Se202  1  0.91731552  0.58545403  0.80062178  1
  Se  Se203  1  0.92466210  0.91568904  0.30563179  1
  Se  Se204  1  0.90873382  0.91493202  0.81319478  1
  Se  Se205  1  0.08277366  0.07918452  0.29669521  1
  Se  Se206  1  0.09629068  0.08160487  0.81900819  1
  Se  Se207  1  0.08463171  0.42202874  0.30029039  1
  Se  Se208  1  0.08049085  0.41080481  0.80679236  1
  Se  Se209  1  0.09159773  0.75637827  0.30760889  1
  Se  Se210  1  0.07576854  0.74580156  0.80141550  1
  Se  Se211  1  0.42601269  0.09055470  0.30475227  1
  Se  Se212  1  0.42526571  0.08648049  0.82183876  1
  Se  Se213  1  0.42173894  0.41897426  0.30496724  1
  Se  Se214  1  0.41762044  0.41301746  0.80580499  1
  Se  Se215  1  0.43194012  0.76283969  0.29971733  1
  Se  Se216  1  0.41198023  0.75157282  0.80662861  1
  Se  Se217  1  0.75763265  0.07740591  0.32044184  1
  Se  Se218  1  0.74921898  0.08567891  0.80222758  1
  Se  Se219  1  0.74422937  0.40842546  0.30629351  1
  Se  Se220  1  0.75031449  0.41748663  0.79907681  1
  Se  Se221  1  0.76472990  0.75347809  0.31173528  1
  Se  Se222  1  0.74680157  0.75013065  0.80306419  1
  Se  Se223  1  0.24812987  0.09819694  0.18396911  1
  Se  Se224  1  0.24330013  0.08254374  0.69455152  1
  Se  Se225  1  0.24274850  0.42833703  0.18983229  1
  Se  Se226  1  0.25054271  0.41071320  0.70207756  1
  Se  Se227  1  0.24799900  0.76030527  0.18988615  1
  Se  Se228  1  0.24982171  0.74464724  0.69788622  1
  Se  Se229  1  0.57089606  0.08545700  0.17928783  1
  Se  Se230  1  0.58277807  0.08522980  0.70377561  1
  Se  Se231  1  0.58757256  0.40553161  0.18803013  1
  Se  Se232  1  0.58464472  0.41575603  0.69972685  1
  Se  Se233  1  0.58943029  0.74885920  0.18057344  1
  Se  Se234  1  0.58225316  0.75296336  0.70563731  1
  Se  Se235  1  0.90224274  0.08704911  0.20320931  1
  Se  Se236  1  0.90982429  0.09131043  0.69131727  1
  Se  Se237  1  0.91379345  0.41443014  0.19402272  1
  Se  Se238  1  0.91404035  0.41628277  0.69293831  1
  Se  Se239  1  0.91448515  0.75274478  0.18524493  1
  Se  Se240  1  0.91672326  0.75372229  0.69996876  1
  Se  Se241  1  0.07781704  0.25350513  0.19496965  1
  Se  Se242  1  0.08692922  0.24600646  0.70476687  1
  Se  Se243  1  0.09261734  0.57481611  0.19106025  1
  Se  Se244  1  0.08037638  0.57772093  0.69785297  1
  Se  Se245  1  0.08032748  0.92419537  0.19224387  1
  Se  Se246  1  0.08639752  0.91210547  0.69469259  1
  Se  Se247  1  0.41907899  0.24491325  0.17814583  1
  Se  Se248  1  0.41254570  0.24655586  0.70466091  1
  Se  Se249  1  0.42360743  0.57795387  0.18761845  1
  Se  Se250  1  0.41441454  0.58127674  0.70403919  1
  Se  Se251  1  0.42222537  0.92112282  0.17795662  1
  Se  Se252  1  0.42252013  0.90902325  0.69124967  1
  Se  Se253  1  0.75941803  0.23088862  0.19907878  1
  Se  Se254  1  0.74842399  0.25553292  0.69557761  1
  Se  Se255  1  0.75078386  0.57320934  0.19052670  1
  Se  Se256  1  0.74654966  0.59028274  0.69851652  1
  Se  Se257  1  0.75546754  0.90345454  0.18721401  1
  Se  Se258  1  0.74746248  0.92473182  0.70092671  1
