# generated using pymatgen
data_In86Cu29Se144
_symmetry_space_group_name_H-M   'P 1'
_cell_length_a   17.57405707
_cell_length_b   17.57485199
_cell_length_c   23.43395442
_cell_angle_alpha   89.97775288
_cell_angle_beta   90.03074813
_cell_angle_gamma   90.01729966
_symmetry_Int_Tables_number   1
_chemical_formula_structural   In86Cu29Se144
_chemical_formula_sum   'In86 Cu29 Se144'
_cell_volume   7237.84326758
_cell_formula_units_Z   1
loop_
 _symmetry_equiv_pos_site_id
 _symmetry_equiv_pos_as_xyz
  1  'x, y, z'
loop_
 _atom_site_type_symbol
 _atom_site_label
 _atom_site_symmetry_multiplicity
 _atom_site_fract_x
 _atom_site_fract_y
 _atom_site_fract_z
 _atom_site_occupancy
  In  In0  1  0.00596435  0.18115435  0.12279119  1
  In  In1  1  0.00596256  0.17106490  0.63154719  1
  In  In2  1  0.00228913  0.50663102  0.12783332  1
  In  In3  1  -0.00961484  0.51083217  0.63134549  1
  In  In4  1  -0.00744177  0.82608584  0.11746798  1
  In  In5  1  -0.00174606  0.81968502  0.60461621  1
  In  In6  1  0.33279929  0.16272594  0.13197718  1
  In  In7  1  0.32834916  0.15125396  0.62483767  1
  In  In8  1  0.32050832  0.48912123  0.11916915  1
  In  In9  1  0.34423839  0.50204953  0.63096983  1
  In  In10  1  0.33296860  0.83667877  0.12167727  1
  In  In11  1  0.32388932  0.83279268  0.62929948  1
  In  In12  1  0.66362871  0.16347974  0.11538619  1
  In  In13  1  0.66951388  0.18268706  0.62456273  1
  In  In14  1  0.67744408  0.51292825  0.11563629  1
  In  In15  1  0.67050116  0.48758768  0.62928330  1
  In  In16  1  0.66188695  0.83129472  0.12048368  1
  In  In17  1  0.67507678  0.81954798  0.62727833  1
  In  In18  1  0.16160792  -0.02922082  0.36416549  1
  In  In19  1  0.16299201  -0.02089405  0.88094457  1
  In  In20  1  0.16575956  0.33171281  0.35523866  1
  In  In21  1  0.16437715  0.35264688  0.87909216  1
  In  In22  1  0.16249835  0.67839540  0.37786590  1
  In  In23  1  0.16485293  0.66789065  0.87692514  1
  In  In24  1  0.49874738  0.00837943  0.38018697  1
  In  In25  1  0.48848341  0.00745296  0.87842817  1
  In  In26  1  0.48795426  0.33186792  0.36947462  1
  In  In27  1  0.50669934  0.32406813  0.88377981  1
  In  In28  1  0.49666909  0.65786589  0.37012747  1
  In  In29  1  0.48960320  0.67989051  0.88669551  1
  In  In30  1  0.83571338  -0.00668721  0.37804673  1
  In  In31  1  0.85253319  -0.00662957  0.89336048  1
  In  In32  1  0.85029257  0.33401065  0.36866056  1
  In  In33  1  0.83376991  0.33782232  0.87502190  1
  In  In34  1  0.83997124  0.66929611  0.37185115  1
  In  In35  1  0.84299469  0.65464255  0.87935072  1
  In  In36  1  -0.00364197  0.17131176  0.36798285  1
  In  In37  1  -0.01593843  0.16935234  0.87988826  1
  In  In38  1  -0.00072467  0.49658346  0.37044184  1
  In  In39  1  0.00010642  0.50304239  0.87366475  1
  In  In40  1  0.01892864  0.81933289  0.39723484  1
  In  In41  1  0.01206148  0.82231649  0.88885412  1
  In  In42  1  0.33521981  0.16946339  0.36486853  1
  In  In43  1  0.34604179  0.16617104  0.87511782  1
  In  In44  1  0.33900154  0.49910718  0.37039310  1
  In  In45  1  0.31967305  0.51449071  0.88783771  1
  In  In46  1  0.29541553  0.82542058  0.36627124  1
  In  In47  1  0.32812428  0.83258245  0.87699380  1
  In  In48  1  0.66372870  0.15158350  0.37698624  1
  In  In49  1  0.66243076  0.17572131  0.87783595  1
  In  In50  1  0.66699841  0.51801368  0.36833959  1
  In  In51  1  0.67517875  0.48860538  0.88326491  1
  In  In52  1  0.68219941  0.82865321  0.37284124  1
  In  In53  1  0.67194739  0.82656196  0.88078244  1
  In  In54  1  0.17937929  0.00264693  0.12755165  1
  In  In55  1  0.17520734  -0.00339797  0.62671305  1
  In  In56  1  0.14869344  0.35370126  0.14759163  1
  In  In57  1  0.15791575  0.32183070  0.62910863  1
  In  In58  1  0.15587967  0.65811753  0.12303598  1
  In  In59  1  0.15959021  0.67392444  0.62740450  1
  In  In60  1  0.48705424  -0.00528698  0.11698262  1
  In  In61  1  0.48255177  -0.00199676  0.62699115  1
  In  In62  1  0.48976105  0.32677809  0.11573081  1
  In  In63  1  0.51286014  0.33997363  0.62477863  1
  In  In64  1  0.50591955  0.67736329  0.11784201  1
  In  In65  1  0.49725614  0.65193352  0.63081376  1
  In  In66  1  0.83426545  -0.00525455  0.10750728  1
  In  In67  1  0.84538632  -0.01765036  0.62521100  1
  In  In68  1  0.84635450  0.35155956  0.11410685  1
  In  In69  1  0.82815916  0.33961453  0.63138912  1
  In  In70  1  0.83528194  0.66535335  0.12454145  1
  In  In71  1  0.85087238  0.67290722  0.61125794  1
  In  In72  1  0.83411840  0.16436081  0.49477779  1
  In  In73  1  0.66629237  0.33679394  0.23845314  1
  In  In74  1  0.16999264  0.16902617  0.01093184  1
  In  In75  1  0.00474802  -0.00182052  0.24648654  1
  In  In76  1  0.16715455  0.50649111  0.49591275  1
  In  In77  1  0.66957512  -0.00910512  0.25215448  1
  In  In78  1  0.49847771  0.83324340  0.50403825  1
  In  In79  1  0.16510738  0.15665307  0.49560632  1
  In  In80  1  0.00544517  -0.00123994  0.75219101  1
  In  In81  1  0.50282088  0.50066486  0.49405728  1
  In  In82  1  0.66523556  0.65726540  0.75275247  1
  In  In83  1  0.32460585  0.66147043  0.24754803  1
  In  In84  1  0.66134410  0.00857880  0.76378867  1
  In  In85  1  0.33448758  0.33593102  0.75414205  1
  Cu  Cu86  1  -0.00092747  0.33937220  0.49754354  1
  Cu  Cu87  1  0.83942345  0.17237473  0.24193183  1
  Cu  Cu88  1  0.67769107  0.66713066  0.49658732  1
  Cu  Cu89  1  0.33186349  0.33647968  0.00125353  1
  Cu  Cu90  1  0.32985972  0.67245160  0.00411435  1
  Cu  Cu91  1  0.33565140  0.00189599  0.00111687  1
  Cu  Cu92  1  0.33563882  0.32452995  0.49135574  1
  Cu  Cu93  1  -0.00257822  0.65980342  0.00086451  1
  Cu  Cu94  1  0.84199135  0.82343451  0.24838322  1
  Cu  Cu95  1  0.84124138  0.83037726  0.74610974  1
  Cu  Cu96  1  0.50002223  0.16912636  0.75339495  1
  Cu  Cu97  1  0.83841015  0.49933859  0.75268959  1
  Cu  Cu98  1  0.66486717  0.00292239  0.50289388  1
  Cu  Cu99  1  0.49689515  0.83143902  0.24313188  1
  Cu  Cu100  1  0.00025873  0.34103242  0.00191591  1
  Cu  Cu101  1  0.49759229  0.49913967  0.75929566  1
  Cu  Cu102  1  0.83690907  0.50507909  0.24535978  1
  Cu  Cu103  1  0.66731418  0.33351081  0.50150685  1
  Cu  Cu104  1  0.50056113  0.16336936  0.24698258  1
  Cu  Cu105  1  0.66285023  0.00176956  -0.00644139  1
  Cu  Cu106  1  0.66580196  0.33362044  0.00107335  1
  Cu  Cu107  1  0.82918485  0.17307554  0.75538188  1
  Cu  Cu108  1  0.16411963  0.16779337  0.75239997  1
  Cu  Cu109  1  0.66823163  0.66884258  0.00087714  1
  Cu  Cu110  1  0.16201474  0.50542637  0.75388251  1
  Cu  Cu111  1  0.48548902  0.83237333  0.75459160  1
  Cu  Cu112  1  0.33513906  -0.00214854  0.49851998  1
  Cu  Cu113  1  0.16566932  0.82705180  0.75290728  1
  Cu  Cu114  1  0.49822936  0.50284795  0.24435617  1
  Se  Se115  1  0.07654496  0.07497928  0.06188898  1
  Se  Se116  1  0.07458270  0.07588447  0.56243369  1
  Se  Se117  1  0.08482557  0.41739376  0.06008448  1
  Se  Se118  1  0.08209220  0.41281143  0.55989994  1
  Se  Se119  1  0.08230049  0.74482082  0.05134832  1
  Se  Se120  1  0.09810825  0.74908158  0.54487814  1
  Se  Se121  1  0.41323726  0.09196533  0.05366932  1
  Se  Se122  1  0.41623145  0.08381514  0.55114690  1
  Se  Se123  1  0.41759992  0.42275185  0.05051560  1
  Se  Se124  1  0.41016504  0.40799502  0.55433606  1
  Se  Se125  1  0.41737896  0.75763653  0.05182859  1
  Se  Se126  1  0.41410703  0.73973071  0.56417211  1
  Se  Se127  1  0.74780204  0.08375409  0.04698576  1
  Se  Se128  1  0.74968376  0.07789727  0.56466403  1
  Se  Se129  1  0.75121288  0.42140837  0.04794804  1
  Se  Se130  1  0.75152486  0.41495328  0.55409334  1
  Se  Se131  1  0.75184961  0.75075843  0.05600382  1
  Se  Se132  1  0.75544910  0.75478033  0.55033975  1
  Se  Se133  1  0.25312838  0.26445180  0.06885579  1
  Se  Se134  1  0.25393615  0.25307997  0.55654899  1
  Se  Se135  1  0.24763330  0.58464078  0.05419648  1
  Se  Se136  1  0.25774781  0.58407708  0.56393802  1
  Se  Se137  1  0.24974424  0.91950827  0.05202924  1
  Se  Se138  1  0.25259905  0.91615704  0.55395596  1
  Se  Se139  1  0.58012026  0.24798464  0.04990582  1
  Se  Se140  1  0.58098090  0.25138344  0.55164984  1
  Se  Se141  1  0.58128838  0.58549366  0.05067092  1
  Se  Se142  1  0.59614673  0.58790168  0.55786013  1
  Se  Se143  1  0.58327137  0.92059009  0.05387698  1
  Se  Se144  1  0.59113151  0.92158456  0.56710750  1
  Se  Se145  1  0.91785011  0.25231396  0.05113462  1
  Se  Se146  1  0.92227842  0.25467398  0.55826478  1
  Se  Se147  1  0.91379642  0.57785972  0.05533620  1
  Se  Se148  1  0.91427000  0.57046104  0.54933282  1
  Se  Se149  1  0.91846370  0.91032940  0.04515631  1
  Se  Se150  1  0.91750572  0.91617656  0.54624142  1
  Se  Se151  1  0.08081426  0.25878082  0.43947593  1
  Se  Se152  1  0.08153259  0.25697380  0.94382862  1
  Se  Se153  1  0.06920658  0.59294815  0.44266620  1
  Se  Se154  1  0.08399529  0.58092441  0.94519982  1
  Se  Se155  1  0.08951202  0.92572977  0.45197477  1
  Se  Se156  1  0.07140600  0.92423144  0.95468832  1
  Se  Se157  1  0.42011033  0.24198301  0.44088524  1
  Se  Se158  1  0.41374264  0.24897319  0.95057147  1
  Se  Se159  1  0.40409306  0.59337176  0.44574447  1
  Se  Se160  1  0.41499811  0.58707839  0.95315893  1
  Se  Se161  1  0.40882429  0.91219748  0.43678996  1
  Se  Se162  1  0.41446487  0.91596192  0.94519410  1
  Se  Se163  1  0.74466097  0.25743243  0.43458744  1
  Se  Se164  1  0.75099908  0.25405301  0.94466424  1
  Se  Se165  1  0.75547843  0.58216754  0.44106491  1
  Se  Se166  1  0.75027366  0.58356225  0.94716341  1
  Se  Se167  1  0.74424511  0.92100381  0.44627675  1
  Se  Se168  1  0.74995108  0.91497704  0.94766042  1
  Se  Se169  1  0.25546993  0.07320015  0.43345440  1
  Se  Se170  1  0.25250550  0.08103533  0.94023730  1
  Se  Se171  1  0.25314459  0.40711338  0.43690575  1
  Se  Se172  1  0.24437163  0.42230134  0.95499640  1
  Se  Se173  1  0.25580962  0.74196372  0.44984323  1
  Se  Se174  1  0.24487583  0.75259562  0.94750789  1
  Se  Se175  1  0.57996422  0.08637296  0.45333891  1
  Se  Se176  1  0.57945814  0.08717905  0.94240284  1
  Se  Se177  1  0.59199819  0.41012579  0.43328771  1
  Se  Se178  1  0.57982588  0.41804700  0.95002998  1
  Se  Se179  1  0.58739114  0.74190174  0.44017538  1
  Se  Se180  1  0.58313147  0.75553610  0.95133295  1
  Se  Se181  1  0.93176818  0.07626514  0.44155592  1
  Se  Se182  1  0.91889189  0.09148141  0.95771064  1
  Se  Se183  1  0.91454844  0.41936373  0.44399907  1
  Se  Se184  1  0.91719000  0.42074916  0.94377536  1
  Se  Se185  1  0.89817872  0.76680146  0.44293802  1
  Se  Se186  1  0.91325703  0.74593037  0.94889944  1
  Se  Se187  1  0.26017526  0.25491083  0.29589022  1
  Se  Se188  1  0.24261592  0.24758514  0.81473970  1
  Se  Se189  1  0.23635237  0.57549732  0.31219410  1
  Se  Se190  1  0.24899107  0.58514712  0.80652405  1
  Se  Se191  1  0.26447786  0.92820274  0.29245599  1
  Se  Se192  1  0.24677274  0.91498609  0.80423914  1
  Se  Se193  1  0.58546906  0.24209049  0.30509056  1
  Se  Se194  1  0.58296531  0.25442921  0.80355797  1
  Se  Se195  1  0.58070219  0.58827277  0.29552665  1
  Se  Se196  1  0.57615076  0.57975106  0.82087933  1
  Se  Se197  1  0.57479714  0.90539771  0.31197262  1
  Se  Se198  1  0.57394703  0.90590607  0.81305277  1
  Se  Se199  1  0.92370771  0.25431523  0.29388827  1
  Se  Se200  1  0.91788117  0.25476354  0.80482552  1
  Se  Se201  1  0.91988267  0.58510489  0.30248262  1
  Se  Se202  1  0.92121426  0.58736430  0.80083184  1
  Se  Se203  1  0.91534742  0.90952623  0.30810894  1
  Se  Se204  1  0.91606641  0.90816747  0.81170196  1
  Se  Se205  1  0.09307932  0.08693878  0.30994348  1
  Se  Se206  1  0.08889399  0.08886054  0.81775858  1
  Se  Se207  1  0.07418469  0.41446542  0.29812600  1
  Se  Se208  1  0.08042527  0.41717030  0.80296269  1
  Se  Se209  1  0.08786071  0.76576551  0.30927730  1
  Se  Se210  1  0.07836854  0.74875132  0.80704198  1
  Se  Se211  1  0.42164509  0.07898400  0.30266225  1
  Se  Se212  1  0.41424576  0.08234687  0.79933688  1
  Se  Se213  1  0.41718926  0.41855554  0.29782594  1
  Se  Se214  1  0.41636175  0.42233862  0.82137040  1
  Se  Se215  1  0.41546965  0.75550933  0.30834272  1
  Se  Se216  1  0.40821097  0.74451967  0.80795012  1
  Se  Se217  1  0.76376873  0.09064122  0.30407268  1
  Se  Se218  1  0.76455144  0.08581119  0.81970554  1
  Se  Se219  1  0.75432804  0.42216886  0.30457339  1
  Se  Se220  1  0.74968539  0.41877133  0.80324907  1
  Se  Se221  1  0.75061804  0.74461341  0.29910772  1
  Se  Se222  1  0.75935807  0.75165676  0.80593810  1
  Se  Se223  1  0.24774378  0.08560220  0.20138630  1
  Se  Se224  1  0.24617578  0.08256541  0.70056203  1
  Se  Se225  1  0.25918620  0.41733604  0.20273217  1
  Se  Se226  1  0.24025339  0.42248572  0.69201606  1
  Se  Se227  1  0.24101727  0.75466941  0.18790809  1
  Se  Se228  1  0.25011433  0.74418285  0.69922700  1
  Se  Se229  1  0.58202104  0.08132979  0.19001701  1
  Se  Se230  1  0.57861120  0.08928382  0.68958119  1
  Se  Se231  1  0.57634796  0.42625979  0.18009427  1
  Se  Se232  1  0.58071388  0.42032179  0.70214351  1
  Se  Se233  1  0.58539217  0.75078070  0.19496676  1
  Se  Se234  1  0.57251428  0.75538026  0.69657618  1
  Se  Se235  1  0.91053884  0.08296902  0.18336978  1
  Se  Se236  1  0.90585426  0.08857942  0.69464444  1
  Se  Se237  1  0.91890279  0.41743685  0.19556614  1
  Se  Se238  1  0.92012308  0.41428747  0.69778036  1
  Se  Se239  1  0.92467838  0.74200480  0.19399858  1
  Se  Se240  1  0.92243128  0.75376893  0.68716899  1
  Se  Se241  1  0.09266783  0.23696888  0.19939667  1
  Se  Se242  1  0.07738202  0.25318724  0.70613180  1
  Se  Se243  1  0.09048149  0.57640703  0.20015794  1
  Se  Se244  1  0.08132148  0.58753607  0.69676802  1
  Se  Se245  1  0.08812982  0.90668367  0.18482070  1
  Se  Se246  1  0.08546324  0.90511742  0.68904108  1
  Se  Se247  1  0.42095892  0.25087999  0.19523082  1
  Se  Se248  1  0.41986158  0.24681750  0.68835293  1
  Se  Se249  1  0.41889680  0.58279098  0.18289918  1
  Se  Se250  1  0.41492075  0.58315622  0.70687404  1
  Se  Se251  1  0.41419728  0.91769203  0.19409321  1
  Se  Se252  1  0.40738113  0.91664364  0.69862576  1
  Se  Se253  1  0.75811823  0.24743463  0.18054145  1
  Se  Se254  1  0.74615979  0.25515302  0.70083966  1
  Se  Se255  1  0.74832173  0.58620291  0.19545490  1
  Se  Se256  1  0.76100583  0.58103832  0.68833947  1
  Se  Se257  1  0.76354125  0.90948904  0.18953057  1
  Se  Se258  1  0.74976886  0.91455516  0.69931438  1
