# generated using pymatgen
data_In86Cu29Se144
_symmetry_space_group_name_H-M   'P 1'
_cell_length_a   17.58432833
_cell_length_b   17.58381304
_cell_length_c   23.44455957
_cell_angle_alpha   89.98712853
_cell_angle_beta   89.99907528
_cell_angle_gamma   90.00687488
_symmetry_Int_Tables_number   1
_chemical_formula_structural   In86Cu29Se144
_chemical_formula_sum   'In86 Cu29 Se144'
_cell_volume   7249.04684116
_cell_formula_units_Z   1
loop_
 _symmetry_equiv_pos_site_id
 _symmetry_equiv_pos_as_xyz
  1  'x, y, z'
loop_
 _atom_site_type_symbol
 _atom_site_label
 _atom_site_symmetry_multiplicity
 _atom_site_fract_x
 _atom_site_fract_y
 _atom_site_fract_z
 _atom_site_occupancy
  In  In0  1  0.00657730  0.18305878  0.11039193  1
  In  In1  1  0.00055158  0.16771024  0.61607422  1
  In  In2  1  -0.01431838  0.47487648  0.09590079  1
  In  In3  1  0.01650596  0.48666600  0.64083287  1
  In  In4  1  0.00114275  0.81899207  0.12627535  1
  In  In5  1  -0.01367459  0.82817908  0.61354018  1
  In  In6  1  0.33562138  0.16272601  0.13108262  1
  In  In7  1  0.32391632  0.17373367  0.62460852  1
  In  In8  1  0.32460445  0.48930319  0.11684149  1
  In  In9  1  0.33464817  0.49407613  0.61610487  1
  In  In10  1  0.34430751  0.83070133  0.12923070  1
  In  In11  1  0.33520583  0.83436633  0.61300285  1
  In  In12  1  0.67593593  0.18000712  0.11877536  1
  In  In13  1  0.66918989  0.14467316  0.63946353  1
  In  In14  1  0.66368991  0.50161771  0.12326301  1
  In  In15  1  0.66875715  0.51212254  0.62846770  1
  In  In16  1  0.65685816  0.83790913  0.13173075  1
  In  In17  1  0.66985165  0.82816343  0.62163157  1
  In  In18  1  0.17097182  -0.00123832  0.38094313  1
  In  In19  1  0.17308657  0.00728644  0.87241482  1
  In  In20  1  0.17995264  0.32746352  0.37630299  1
  In  In21  1  0.14225003  0.35109864  0.89775954  1
  In  In22  1  0.16254477  0.66784571  0.38637753  1
  In  In23  1  0.15290867  0.65487683  0.86283595  1
  In  In24  1  0.48620836  0.00484781  0.37506263  1
  In  In25  1  0.50513672  -0.00398246  0.88008017  1
  In  In26  1  0.50097245  0.33721753  0.36652065  1
  In  In27  1  0.50154582  0.33194667  0.88706740  1
  In  In28  1  0.51073667  0.65906132  0.37933324  1
  In  In29  1  0.51229764  0.65997177  0.88222858  1
  In  In30  1  0.83927305  -0.00209514  0.38845493  1
  In  In31  1  0.82930079  0.02729771  0.86849003  1
  In  In32  1  0.82024779  0.32685020  0.37269283  1
  In  In33  1  0.84538758  0.32659141  0.88323534  1
  In  In34  1  0.82370195  0.68181993  0.37575778  1
  In  In35  1  0.82649442  0.66020959  0.86904543  1
  In  In36  1  0.00767247  0.15570050  0.39212544  1
  In  In37  1  -0.01310457  0.19147169  0.89403906  1
  In  In38  1  0.00227629  0.50951078  0.37853883  1
  In  In39  1  -0.00336445  0.49356788  0.87595979  1
  In  In40  1  -0.00369756  0.84391975  0.39225021  1
  In  In41  1  0.00724157  0.82923565  0.86615847  1
  In  In42  1  0.32219772  0.16384697  0.35519967  1
  In  In43  1  0.32202915  0.17552418  0.88674513  1
  In  In44  1  0.33769609  0.49613618  0.37488422  1
  In  In45  1  0.33486842  0.50127477  0.88096204  1
  In  In46  1  0.32382227  0.84195644  0.38337725  1
  In  In47  1  0.34167813  0.84359066  0.87691090  1
  In  In48  1  0.66499751  0.17614575  0.37431401  1
  In  In49  1  0.66825501  0.16214649  0.87473163  1
  In  In50  1  0.65314480  0.49048475  0.36718702  1
  In  In51  1  0.66279973  0.50796815  0.88127901  1
  In  In52  1  0.67814304  0.82087243  0.38128947  1
  In  In53  1  0.66378795  0.82804047  0.87037025  1
  In  In54  1  0.16791756  0.01424239  0.13198515  1
  In  In55  1  0.15341767  -0.00094387  0.60632241  1
  In  In56  1  0.17185590  0.33519610  0.12404576  1
  In  In57  1  0.16258962  0.32422280  0.61724953  1
  In  In58  1  0.17404341  0.65705644  0.12552243  1
  In  In59  1  0.15651074  0.65381190  0.61816907  1
  In  In60  1  0.49638725  -0.01006602  0.12209781  1
  In  In61  1  0.52182240  -0.00225734  0.62800041  1
  In  In62  1  0.50201851  0.33490876  0.12267971  1
  In  In63  1  0.48872012  0.32957009  0.62446928  1
  In  In64  1  0.50571520  0.67752128  0.11918369  1
  In  In65  1  0.50625680  0.67280636  0.61938576  1
  In  In66  1  0.82331808  0.01083973  0.12491556  1
  In  In67  1  0.83192488  -0.00969690  0.61506612  1
  In  In68  1  0.82443400  0.32505077  0.11778665  1
  In  In69  1  0.84672458  0.33794021  0.62835610  1
  In  In70  1  0.83873710  0.65491625  0.12854976  1
  In  In71  1  0.82663497  0.66982148  0.63157616  1
  In  In72  1  0.49785575  0.16754393  0.50233029  1
  In  In73  1  0.33562497  0.00306365  0.74828532  1
  In  In74  1  0.66448067  0.00241114  0.25155492  1
  In  In75  1  -0.00412882  -0.00031261  0.74483294  1
  In  In76  1  0.83080045  0.83863708  -0.00024753  1
  In  In77  1  0.33408158  0.66158558  0.75416395  1
  In  In78  1  0.83448792  0.50233474  0.50532415  1
  In  In79  1  -0.00165906  0.00387328  0.26166743  1
  In  In80  1  0.17541726  0.83392830  -0.01162037  1
  In  In81  1  -0.00073080  0.33064207  0.24274708  1
  In  In82  1  0.33710714  0.66452656  0.25278623  1
  In  In83  1  0.32840648  0.32902765  0.74961066  1
  In  In84  1  -0.00024441  0.66396273  0.25099430  1
  In  In85  1  0.67030871  0.33152896  0.75986135  1
  Cu  Cu86  1  0.66648731  0.67024040  0.00043223  1
  Cu  Cu87  1  0.33911225  -0.00050118  0.00389514  1
  Cu  Cu88  1  0.16499785  0.82385631  0.74150774  1
  Cu  Cu89  1  0.00025306  0.66389601  0.50474240  1
  Cu  Cu90  1  0.82879456  0.83684983  0.74367999  1
  Cu  Cu91  1  0.50315144  0.17313514  0.24595865  1
  Cu  Cu92  1  0.33855321  0.32776855  0.00729849  1
  Cu  Cu93  1  0.33397724  0.00530928  0.49645393  1
  Cu  Cu94  1  0.15638735  0.17004451  0.74747379  1
  Cu  Cu95  1  0.66766466  -0.00759669  0.50355481  1
  Cu  Cu96  1  0.49968188  0.49948733  0.24520129  1
  Cu  Cu97  1  0.50594348  0.50236301  0.75378859  1
  Cu  Cu98  1  0.00291004  0.66045848  -0.00672433  1
  Cu  Cu99  1  0.51178085  0.83085441  0.74817846  1
  Cu  Cu100  1  0.16052514  0.50070350  0.24396818  1
  Cu  Cu101  1  0.33539100  0.33635716  0.49481655  1
  Cu  Cu102  1  0.66647795  0.00738418  0.00093149  1
  Cu  Cu103  1  0.33761962  0.66482638  0.49689011  1
  Cu  Cu104  1  -0.00347259  0.00733009  0.00151398  1
  Cu  Cu105  1  0.83844364  0.16937604  0.24762243  1
  Cu  Cu106  1  0.82031870  0.49869782  0.24773841  1
  Cu  Cu107  1  0.00163309  0.33693670  0.50266030  1
  Cu  Cu108  1  0.66623439  0.66533859  0.50205985  1
  Cu  Cu109  1  0.33475779  0.66371373  0.00154824  1
  Cu  Cu110  1  0.16536663  0.84133564  0.25959560  1
  Cu  Cu111  1  0.49893940  0.83459754  0.25166204  1
  Cu  Cu112  1  0.84125853  0.50249039  0.75194525  1
  Cu  Cu113  1  0.66441336  0.34069073  -0.00079295  1
  Cu  Cu114  1  0.66232922  0.32965690  0.49701819  1
  Se  Se115  1  0.08620828  0.08164050  0.05539255  1
  Se  Se116  1  0.09566012  0.10470001  0.54593876  1
  Se  Se117  1  0.09654027  0.41083809  0.04680156  1
  Se  Se118  1  0.08402280  0.42129106  0.55527911  1
  Se  Se119  1  0.08491011  0.74239210  0.05171656  1
  Se  Se120  1  0.08542929  0.75106276  0.55344936  1
  Se  Se121  1  0.41985680  0.08350280  0.05855765  1
  Se  Se122  1  0.41210149  0.07499698  0.56561336  1
  Se  Se123  1  0.42186075  0.41983624  0.05224687  1
  Se  Se124  1  0.42271175  0.41437421  0.54900505  1
  Se  Se125  1  0.41395305  0.75323900  0.05149272  1
  Se  Se126  1  0.42082298  0.74930878  0.54943585  1
  Se  Se127  1  0.75400800  0.09120471  0.04957836  1
  Se  Se128  1  0.74354797  0.08308623  0.55615514  1
  Se  Se129  1  0.74923037  0.42099364  0.05421070  1
  Se  Se130  1  0.74074071  0.40927252  0.56123418  1
  Se  Se131  1  0.74652924  0.74798973  0.06349728  1
  Se  Se132  1  0.75534901  0.74598695  0.55275829  1
  Se  Se133  1  0.25419867  0.24530478  0.06017784  1
  Se  Se134  1  0.25318159  0.25037173  0.54759964  1
  Se  Se135  1  0.24684904  0.58071175  0.04966353  1
  Se  Se136  1  0.25378156  0.58349108  0.55235943  1
  Se  Se137  1  0.25329887  0.91754690  0.06158126  1
  Se  Se138  1  0.25071749  0.91896736  0.54812981  1
  Se  Se139  1  0.58373172  0.25242221  0.05152734  1
  Se  Se140  1  0.59171959  0.24966684  0.56521408  1
  Se  Se141  1  0.58218120  0.58652362  0.05333053  1
  Se  Se142  1  0.58368075  0.57926048  0.55373584  1
  Se  Se143  1  0.58942803  0.91739879  0.05391670  1
  Se  Se144  1  0.58147524  0.90884127  0.55301285  1
  Se  Se145  1  0.91863958  0.26143025  0.04710195  1
  Se  Se146  1  0.91331067  0.25555950  0.55199329  1
  Se  Se147  1  0.91303536  0.58693842  0.04833140  1
  Se  Se148  1  0.92506746  0.58372001  0.56925634  1
  Se  Se149  1  0.92513093  0.92279294  0.06370904  1
  Se  Se150  1  0.92900197  0.92871941  0.54626328  1
  Se  Se151  1  0.08596790  0.25877084  0.44541356  1
  Se  Se152  1  0.11159849  0.22317142  0.94546002  1
  Se  Se153  1  0.08413267  0.57890286  0.45348728  1
  Se  Se154  1  0.08794281  0.57799377  0.94248436  1
  Se  Se155  1  0.08427138  0.92717297  0.45179351  1
  Se  Se156  1  0.07303535  0.92646541  0.93931707  1
  Se  Se157  1  0.41225306  0.25066966  0.43516590  1
  Se  Se158  1  0.41961779  0.24453238  0.95218339  1
  Se  Se159  1  0.41915096  0.57984204  0.44332998  1
  Se  Se160  1  0.42060723  0.58271271  0.94729696  1
  Se  Se161  1  0.41864162  0.91809765  0.44856040  1
  Se  Se162  1  0.42169444  0.91465758  0.95156510  1
  Se  Se163  1  0.74936893  0.24611147  0.44917262  1
  Se  Se164  1  0.74182807  0.25483877  0.94240248  1
  Se  Se165  1  0.74218757  0.58147606  0.43928813  1
  Se  Se166  1  0.75215140  0.58841071  0.94805376  1
  Se  Se167  1  0.75225596  0.91074379  0.44980527  1
  Se  Se168  1  0.74611949  0.92892005  0.93700269  1
  Se  Se169  1  0.25873526  0.09167925  0.43977297  1
  Se  Se170  1  0.25012337  0.07581746  0.95057154  1
  Se  Se171  1  0.24924448  0.42172163  0.44495693  1
  Se  Se172  1  0.25979716  0.41061839  0.94812692  1
  Se  Se173  1  0.24915282  0.75066738  0.45035248  1
  Se  Se174  1  0.25883997  0.73570320  0.93030200  1
  Se  Se175  1  0.59016505  0.07578466  0.44222635  1
  Se  Se176  1  0.58115692  0.08765190  0.94680016  1
  Se  Se177  1  0.57959386  0.41202674  0.44362863  1
  Se  Se178  1  0.57926566  0.42572879  0.94943525  1
  Se  Se179  1  0.58346805  0.74972701  0.44847916  1
  Se  Se180  1  0.58474369  0.75627037  0.94775650  1
  Se  Se181  1  0.90504457  0.09406339  0.45361959  1
  Se  Se182  1  0.91057478  0.08718281  0.94908424  1
  Se  Se183  1  0.91790444  0.41056333  0.43912533  1
  Se  Se184  1  0.91686516  0.41821953  0.95082116  1
  Se  Se185  1  0.91652850  0.74352882  0.44840574  1
  Se  Se186  1  0.92347560  0.74929357  0.93951496  1
  Se  Se187  1  0.25502873  0.26623179  0.29472596  1
  Se  Se188  1  0.23630798  0.24533626  0.81044976  1
  Se  Se189  1  0.23591778  0.58116705  0.30817716  1
  Se  Se190  1  0.24289546  0.56232325  0.80258827  1
  Se  Se191  1  0.25359609  0.92295386  0.30675987  1
  Se  Se192  1  0.24151928  0.90504580  0.80307130  1
  Se  Se193  1  0.58745737  0.25291402  0.30065376  1
  Se  Se194  1  0.56905333  0.24577249  0.81040465  1
  Se  Se195  1  0.58103818  0.58406042  0.29950360  1
  Se  Se196  1  0.58884088  0.58753183  0.80416544  1
  Se  Se197  1  0.57873955  0.91287516  0.31461845  1
  Se  Se198  1  0.58444782  0.91919882  0.80516151  1
  Se  Se199  1  0.91959001  0.24197688  0.31270477  1
  Se  Se200  1  0.91065480  0.24022888  0.80849690  1
  Se  Se201  1  0.90226988  0.57553932  0.30940122  1
  Se  Se202  1  0.92313192  0.58682622  0.80610105  1
  Se  Se203  1  0.90733263  0.90671666  0.31211163  1
  Se  Se204  1  0.90471230  0.91339692  0.81057698  1
  Se  Se205  1  0.09454041  0.09559322  0.31084246  1
  Se  Se206  1  0.08008332  0.08827359  0.80964009  1
  Se  Se207  1  0.08231636  0.42289916  0.30796582  1
  Se  Se208  1  0.07797552  0.40595764  0.80956137  1
  Se  Se209  1  0.08312090  0.75876739  0.31483865  1
  Se  Se210  1  0.07864730  0.74437164  0.79399722  1
  Se  Se211  1  0.42188150  0.08580624  0.29718740  1
  Se  Se212  1  0.41173955  0.08789040  0.81868007  1
  Se  Se213  1  0.41431756  0.41944334  0.29952736  1
  Se  Se214  1  0.42380499  0.41955486  0.80904073  1
  Se  Se215  1  0.41979179  0.75658338  0.31546825  1
  Se  Se216  1  0.42652132  0.75571267  0.80912167  1
  Se  Se217  1  0.76061159  0.08852638  0.31049149  1
  Se  Se218  1  0.73960777  0.08723162  0.79564615  1
  Se  Se219  1  0.74444480  0.41087078  0.30221648  1
  Se  Se220  1  0.75957469  0.42606303  0.81552434  1
  Se  Se221  1  0.74168251  0.74647582  0.29952741  1
  Se  Se222  1  0.75140792  0.75149211  0.80209615  1
  Se  Se223  1  0.26014968  0.07523648  0.20166228  1
  Se  Se224  1  0.23442277  0.08443342  0.68934045  1
  Se  Se225  1  0.24966858  0.41890583  0.19624176  1
  Se  Se226  1  0.24416347  0.41888067  0.68699340  1
  Se  Se227  1  0.23957791  0.75700492  0.19652408  1
  Se  Se228  1  0.25270575  0.74952602  0.68539754  1
  Se  Se229  1  0.58275637  0.09111354  0.18544720  1
  Se  Se230  1  0.56973445  0.08602325  0.70643430  1
  Se  Se231  1  0.58517304  0.41600807  0.19356269  1
  Se  Se232  1  0.57895701  0.41686262  0.69205919  1
  Se  Se233  1  0.57984503  0.74927861  0.19935669  1
  Se  Se234  1  0.58952956  0.74444696  0.69367456  1
  Se  Se235  1  0.92039300  0.09236647  0.18806984  1
  Se  Se236  1  0.90805383  0.08772842  0.68454011  1
  Se  Se237  1  0.90788453  0.42511843  0.18735686  1
  Se  Se238  1  0.92172204  0.41176098  0.70516519  1
  Se  Se239  1  0.90511828  0.75816815  0.19799469  1
  Se  Se240  1  0.91683379  0.75456705  0.69424529  1
  Se  Se241  1  0.09436182  0.23791620  0.19246468  1
  Se  Se242  1  0.07737480  0.25118123  0.68990642  1
  Se  Se243  1  0.07532746  0.57158998  0.18241247  1
  Se  Se244  1  0.08592736  0.58875159  0.70049739  1
  Se  Se245  1  0.08301315  0.91044206  0.19335915  1
  Se  Se246  1  0.08743831  0.91024882  0.68508374  1
  Se  Se247  1  0.41850731  0.25542660  0.19357962  1
  Se  Se248  1  0.42312246  0.23378955  0.69682484  1
  Se  Se249  1  0.41898525  0.57973861  0.18434728  1
  Se  Se250  1  0.42313854  0.57527998  0.68985844  1
  Se  Se251  1  0.41622963  0.91872547  0.19987592  1
  Se  Se252  1  0.42303799  0.90635616  0.69092728  1
  Se  Se253  1  0.75183078  0.25213148  0.19757474  1
  Se  Se254  1  0.75566179  0.24902303  0.69204749  1
  Se  Se255  1  0.74319246  0.58700995  0.19496569  1
  Se  Se256  1  0.75135140  0.58276954  0.70251573  1
  Se  Se257  1  0.75979772  0.91282865  0.19492238  1
  Se  Se258  1  0.74739181  0.91865766  0.68928074  1
