# generated using pymatgen
data_In86Cu29Se144
_symmetry_space_group_name_H-M   'P 1'
_cell_length_a   17.58527008
_cell_length_b   17.58340458
_cell_length_c   23.44733029
_cell_angle_alpha   89.99465546
_cell_angle_beta   90.02136138
_cell_angle_gamma   89.99931762
_symmetry_Int_Tables_number   1
_chemical_formula_structural   In86Cu29Se144
_chemical_formula_sum   'In86 Cu29 Se144'
_cell_volume   7250.12310757
_cell_formula_units_Z   1
loop_
 _symmetry_equiv_pos_site_id
 _symmetry_equiv_pos_as_xyz
  1  'x, y, z'
loop_
 _atom_site_type_symbol
 _atom_site_label
 _atom_site_symmetry_multiplicity
 _atom_site_fract_x
 _atom_site_fract_y
 _atom_site_fract_z
 _atom_site_occupancy
  In  In0  1  0.00134877  0.16712418  0.13717383  1
  In  In1  1  0.00142900  0.14843651  0.62102472  1
  In  In2  1  0.00458231  0.50586757  0.14344361  1
  In  In3  1  0.01537209  0.49793921  0.61937188  1
  In  In4  1  -0.01400949  0.83879191  0.14387486  1
  In  In5  1  -0.00816485  0.84101194  0.62193774  1
  In  In6  1  0.35769157  0.15391870  0.14476618  1
  In  In7  1  0.33664346  0.16464793  0.62422279  1
  In  In8  1  0.33807299  0.47862470  0.13151179  1
  In  In9  1  0.32276539  0.50584601  0.62655269  1
  In  In10  1  0.35048900  0.82870580  0.12360707  1
  In  In11  1  0.34381398  0.82984843  0.64001065  1
  In  In12  1  0.63651038  0.18572598  0.14941728  1
  In  In13  1  0.67501706  0.18457297  0.62478108  1
  In  In14  1  0.66240174  0.50715933  0.12556656  1
  In  In15  1  0.66362678  0.50280610  0.62931549  1
  In  In16  1  0.65863411  0.84551855  0.13938705  1
  In  In17  1  0.66720684  0.81349757  0.61990206  1
  In  In18  1  0.17439225  0.00846045  0.36826279  1
  In  In19  1  0.16551136  -0.00024345  0.86419731  1
  In  In20  1  0.16685203  0.33361042  0.37940038  1
  In  In21  1  0.17702735  0.31890315  0.87428637  1
  In  In22  1  0.16230342  0.66826413  0.38582755  1
  In  In23  1  0.16910136  0.67237021  0.86329111  1
  In  In24  1  0.50528751  0.01450905  0.36342889  1
  In  In25  1  0.49643670  0.00949238  0.88238413  1
  In  In26  1  0.48489431  0.31770118  0.35551199  1
  In  In27  1  0.49721330  0.33160624  0.87512411  1
  In  In28  1  0.50437279  0.65555108  0.37390294  1
  In  In29  1  0.49892808  0.66625651  0.87366147  1
  In  In30  1  0.82749905  -0.01403923  0.36728207  1
  In  In31  1  0.82851609  -0.01073763  0.87039263  1
  In  In32  1  0.83157993  0.33127112  0.36633656  1
  In  In33  1  0.83434310  0.35000392  0.87384621  1
  In  In34  1  0.82576507  0.67608137  0.37686943  1
  In  In35  1  0.83495517  0.66981657  0.86270832  1
  In  In36  1  0.01009594  0.17618131  0.37048449  1
  In  In37  1  0.01376341  0.16786920  0.87015439  1
  In  In38  1  0.01338093  0.50929908  0.36830180  1
  In  In39  1  -0.00985274  0.51016691  0.87372475  1
  In  In40  1  -0.01352060  0.81881624  0.36350060  1
  In  In41  1  -0.00007667  0.83555090  0.86373155  1
  In  In42  1  0.33319632  0.16452852  0.37512705  1
  In  In43  1  0.33992729  0.17597801  0.86482932  1
  In  In44  1  0.34155760  0.48852778  0.37980858  1
  In  In45  1  0.34567264  0.51098823  0.86626820  1
  In  In46  1  0.32233216  0.84168692  0.37575704  1
  In  In47  1  0.35192801  0.84717556  0.85555823  1
  In  In48  1  0.65702827  0.16399505  0.36670691  1
  In  In49  1  0.64817698  0.15764581  0.87519123  1
  In  In50  1  0.66505042  0.49928553  0.36669300  1
  In  In51  1  0.65397726  0.49009322  0.86857130  1
  In  In52  1  0.66986220  0.83432141  0.37135774  1
  In  In53  1  0.67049383  0.82369902  0.87468643  1
  In  In54  1  0.16577759  0.00760905  0.13167061  1
  In  In55  1  0.16553008  0.00052784  0.62274852  1
  In  In56  1  0.18847947  0.33124100  0.14488312  1
  In  In57  1  0.18000469  0.33903481  0.61521613  1
  In  In58  1  0.15790145  0.65417415  0.13125105  1
  In  In59  1  0.17495925  0.65175075  0.62626600  1
  In  In60  1  0.49985572  -0.00155941  0.12780287  1
  In  In61  1  0.48749079  -0.00658949  0.62779398  1
  In  In62  1  0.49739000  0.33738079  0.12206084  1
  In  In63  1  0.50747972  0.32553493  0.63029510  1
  In  In64  1  0.50933396  0.67430261  0.11420453  1
  In  In65  1  0.50340647  0.66707117  0.63360052  1
  In  In66  1  0.81984284  -0.00138887  0.14175494  1
  In  In67  1  0.84737067  0.00522252  0.62069387  1
  In  In68  1  0.83140955  0.33801403  0.13525835  1
  In  In69  1  0.81682840  0.32568304  0.62627088  1
  In  In70  1  0.83118984  0.67929072  0.14208682  1
  In  In71  1  0.82307202  0.68139637  0.62516228  1
  In  In72  1  0.49820441  0.83250535  0.50469334  1
  In  In73  1  0.82120658  0.15964230  0.00088437  1
  In  In74  1  0.17903036  0.16357708  0.00679161  1
  In  In75  1  0.82470483  0.83119037  0.00381112  1
  In  In76  1  -0.00036838  0.33452404  0.74707579  1
  In  In77  1  0.17349060  0.49922923  0.00616120  1
  In  In78  1  0.83680068  0.16541703  0.49848466  1
  In  In79  1  0.33167232  0.66770267  0.25244479  1
  In  In80  1  0.16293212  0.83726916  0.50220316  1
  In  In81  1  0.49899353  0.49867248  0.50352119  1
  In  In82  1  0.82704314  0.50744925  0.00707007  1
  In  In83  1  0.83647942  0.50199358  0.48961181  1
  In  In84  1  0.17401278  0.82696431  0.00164110  1
  In  In85  1  0.66878562  0.00274318  0.74983419  1
  Cu  Cu86  1  0.00366289  0.33510668  0.01491601  1
  Cu  Cu87  1  0.65457235  0.32396506  -0.00158068  1
  Cu  Cu88  1  0.83762939  0.83731090  0.74613438  1
  Cu  Cu89  1  0.16492118  0.49451220  0.74603216  1
  Cu  Cu90  1  0.83494735  0.50809843  0.74598824  1
  Cu  Cu91  1  -0.00044877  0.66872732  0.00359314  1
  Cu  Cu92  1  0.50205530  0.49498972  0.74953849  1
  Cu  Cu93  1  -0.00708368  -0.00498202  -0.00333664  1
  Cu  Cu94  1  0.00300508  -0.00281278  0.49167675  1
  Cu  Cu95  1  -0.00463369  0.66581193  0.49622685  1
  Cu  Cu96  1  0.33746536  0.00465909  0.50020086  1
  Cu  Cu97  1  0.83250369  0.49635873  0.25323363  1
  Cu  Cu98  1  0.16961211  0.17382723  0.25564578  1
  Cu  Cu99  1  0.66014961  0.66301732  -0.00291460  1
  Cu  Cu100  1  0.65154589  0.00153688  0.01371160  1
  Cu  Cu101  1  0.00607827  0.32872846  0.49810076  1
  Cu  Cu102  1  0.16585037  0.83979054  0.25176332  1
  Cu  Cu103  1  0.33660724  0.32373654  0.49629636  1
  Cu  Cu104  1  0.16727130  0.16339175  0.74420913  1
  Cu  Cu105  1  0.50094542  0.83882177  0.24926560  1
  Cu  Cu106  1  0.34130166  0.00106531  0.00029381  1
  Cu  Cu107  1  0.83439400  0.15977171  0.25518092  1
  Cu  Cu108  1  0.34370570  0.33267351  -0.00056364  1
  Cu  Cu109  1  0.15684883  0.83153997  0.74113951  1
  Cu  Cu110  1  0.49817394  0.16646848  0.75157899  1
  Cu  Cu111  1  0.65644880  0.33577567  0.49592946  1
  Cu  Cu112  1  0.50423950  0.50192544  0.24607830  1
  Cu  Cu113  1  0.66419925  0.00190464  0.48975504  1
  Cu  Cu114  1  0.34145492  0.66360337  -0.00433508  1
  Se  Se115  1  0.07145189  0.07799612  0.05644933  1
  Se  Se116  1  0.08593920  0.07756347  0.54727006  1
  Se  Se117  1  0.08465120  0.41465787  0.07150262  1
  Se  Se118  1  0.08952260  0.41568485  0.54741397  1
  Se  Se119  1  0.07588136  0.75043574  0.06561223  1
  Se  Se120  1  0.07700281  0.74152223  0.56077420  1
  Se  Se121  1  0.41807936  0.08425520  0.05860700  1
  Se  Se122  1  0.42307615  0.08355075  0.55477949  1
  Se  Se123  1  0.42041887  0.42401662  0.05006320  1
  Se  Se124  1  0.41127427  0.40532808  0.56160301  1
  Se  Se125  1  0.42199050  0.75376401  0.04596070  1
  Se  Se126  1  0.40852341  0.74079125  0.56200206  1
  Se  Se127  1  0.73611445  0.08056365  0.07048477  1
  Se  Se128  1  0.74173366  0.07824542  0.55682362  1
  Se  Se129  1  0.74091511  0.40312694  0.05639462  1
  Se  Se130  1  0.74152593  0.41410767  0.55262875  1
  Se  Se131  1  0.73789612  0.73993897  0.06300074  1
  Se  Se132  1  0.75680044  0.75643758  0.54501008  1
  Se  Se133  1  0.26483795  0.25705419  0.06430394  1
  Se  Se134  1  0.25243410  0.24214275  0.55152287  1
  Se  Se135  1  0.26370873  0.59267831  0.06364809  1
  Se  Se136  1  0.24560280  0.57574702  0.54901846  1
  Se  Se137  1  0.25666300  0.92583602  0.06112341  1
  Se  Se138  1  0.26561260  0.91676471  0.56105058  1
  Se  Se139  1  0.57715981  0.24332010  0.05784616  1
  Se  Se140  1  0.58283631  0.24887161  0.55271886  1
  Se  Se141  1  0.58033794  0.57590419  0.04896167  1
  Se  Se142  1  0.59157540  0.59347201  0.55702674  1
  Se  Se143  1  0.57629268  0.90571019  0.05912227  1
  Se  Se144  1  0.59190488  0.92546196  0.56009995  1
  Se  Se145  1  0.91630457  0.24937382  0.06229215  1
  Se  Se146  1  0.92235907  0.25886972  0.56083441  1
  Se  Se147  1  0.92190746  0.59147267  0.06689484  1
  Se  Se148  1  0.91870894  0.58572795  0.56015710  1
  Se  Se149  1  0.91593097  0.92268262  0.06235927  1
  Se  Se150  1  0.91646580  0.91980339  0.54631732  1
  Se  Se151  1  0.08984987  0.24229838  0.44916653  1
  Se  Se152  1  0.07943508  0.25627017  0.95011486  1
  Se  Se153  1  0.08255875  0.57910588  0.45157842  1
  Se  Se154  1  0.08111232  0.59011264  0.94342027  1
  Se  Se155  1  0.08040741  0.91692783  0.43127024  1
  Se  Se156  1  0.07969399  0.91790264  0.94082306  1
  Se  Se157  1  0.42364133  0.24781587  0.44113955  1
  Se  Se158  1  0.41764765  0.24293968  0.94439806  1
  Se  Se159  1  0.40827022  0.59244213  0.44641857  1
  Se  Se160  1  0.42406409  0.57663224  0.94579820  1
  Se  Se161  1  0.41575408  0.92405538  0.43963489  1
  Se  Se162  1  0.41497734  0.91339513  0.94314128  1
  Se  Se163  1  0.74407460  0.25479889  0.44090617  1
  Se  Se164  1  0.74380344  0.25757812  0.93666713  1
  Se  Se165  1  0.73399584  0.58833423  0.44247785  1
  Se  Se166  1  0.74651104  0.59034433  0.93536324  1
  Se  Se167  1  0.74938723  0.91476039  0.44503088  1
  Se  Se168  1  0.73514935  0.92891131  0.94818226  1
  Se  Se169  1  0.25017847  0.08181489  0.44618880  1
  Se  Se170  1  0.25679269  0.07484044  0.93735930  1
  Se  Se171  1  0.25459662  0.41328000  0.44886941  1
  Se  Se172  1  0.25888133  0.41085681  0.93967103  1
  Se  Se173  1  0.26065296  0.74669980  0.44916758  1
  Se  Se174  1  0.26009399  0.74318075  0.93618864  1
  Se  Se175  1  0.58020233  0.08765102  0.44288582  1
  Se  Se176  1  0.57651502  0.08833912  0.95591113  1
  Se  Se177  1  0.57793404  0.41148073  0.43327510  1
  Se  Se178  1  0.57987096  0.41512379  0.94551661  1
  Se  Se179  1  0.58534037  0.74582804  0.44097621  1
  Se  Se180  1  0.58240625  0.75076513  0.94343712  1
  Se  Se181  1  0.92119582  0.07869651  0.43341974  1
  Se  Se182  1  0.92031995  0.07954234  0.93661037  1
  Se  Se183  1  0.92470454  0.40483311  0.43781449  1
  Se  Se184  1  0.92759455  0.41565485  0.95142662  1
  Se  Se185  1  0.91425875  0.75277508  0.44649173  1
  Se  Se186  1  0.92187282  0.74724420  0.94073384  1
  Se  Se187  1  0.25322367  0.25555152  0.30882680  1
  Se  Se188  1  0.25053469  0.25015764  0.79487374  1
  Se  Se189  1  0.24957732  0.58085769  0.31857535  1
  Se  Se190  1  0.24728843  0.57906778  0.80094147  1
  Se  Se191  1  0.25498855  0.92205396  0.29913964  1
  Se  Se192  1  0.24182782  0.91084930  0.79795359  1
  Se  Se193  1  0.59069650  0.25537896  0.29584601  1
  Se  Se194  1  0.58186241  0.24944232  0.80481756  1
  Se  Se195  1  0.58582400  0.58695593  0.29806342  1
  Se  Se196  1  0.58237157  0.58385684  0.80230181  1
  Se  Se197  1  0.58568962  0.91802031  0.30402990  1
  Se  Se198  1  0.58275398  0.91779257  0.81511163  1
  Se  Se199  1  0.91775016  0.24810143  0.30222657  1
  Se  Se200  1  0.91273690  0.24899658  0.81239718  1
  Se  Se201  1  0.90459018  0.57887840  0.31508415  1
  Se  Se202  1  0.92310829  0.58969406  0.79618016  1
  Se  Se203  1  0.92713436  0.92360009  0.30159463  1
  Se  Se204  1  0.91856319  0.92371686  0.79848467  1
  Se  Se205  1  0.08366629  0.08536560  0.30168765  1
  Se  Se206  1  0.08105484  0.08222728  0.79643637  1
  Se  Se207  1  0.07105103  0.39991472  0.31078626  1
  Se  Se208  1  0.08826845  0.42027992  0.81497084  1
  Se  Se209  1  0.09551959  0.75032010  0.30880771  1
  Se  Se210  1  0.07672048  0.74665267  0.79741883  1
  Se  Se211  1  0.41036612  0.08600061  0.30045257  1
  Se  Se212  1  0.41745328  0.07942995  0.80371722  1
  Se  Se213  1  0.41536305  0.42361493  0.29767708  1
  Se  Se214  1  0.41691302  0.41286391  0.80289177  1
  Se  Se215  1  0.42255721  0.75891018  0.31287563  1
  Se  Se216  1  0.39922415  0.72730351  0.80545389  1
  Se  Se217  1  0.74708122  0.07916848  0.30538474  1
  Se  Se218  1  0.75732554  0.09437573  0.81133800  1
  Se  Se219  1  0.74444983  0.41163759  0.30044365  1
  Se  Se220  1  0.75384869  0.42469900  0.80102471  1
  Se  Se221  1  0.74558871  0.74761992  0.30146208  1
  Se  Se222  1  0.75093616  0.75513507  0.79788339  1
  Se  Se223  1  0.24886821  0.08751878  0.20053793  1
  Se  Se224  1  0.25126120  0.08008447  0.69142998  1
  Se  Se225  1  0.22543510  0.45369084  0.19827174  1
  Se  Se226  1  0.25090515  0.41248104  0.69562755  1
  Se  Se227  1  0.24333559  0.75871534  0.18834676  1
  Se  Se228  1  0.24454672  0.74697376  0.69409585  1
  Se  Se229  1  0.59715998  0.06106055  0.19740214  1
  Se  Se230  1  0.57981760  0.09232795  0.68698006  1
  Se  Se231  1  0.58512625  0.41650958  0.19153332  1
  Se  Se232  1  0.58819437  0.41375786  0.69653110  1
  Se  Se233  1  0.57615435  0.74768512  0.19613327  1
  Se  Se234  1  0.57491844  0.76499913  0.69580045  1
  Se  Se235  1  0.91767108  0.07853765  0.19990134  1
  Se  Se236  1  0.90551633  0.09738319  0.69351315  1
  Se  Se237  1  0.91970747  0.41416324  0.20261128  1
  Se  Se238  1  0.90968421  0.42367813  0.68413640  1
  Se  Se239  1  0.93974222  0.72822431  0.20586958  1
  Se  Se240  1  0.91836084  0.75187029  0.69236381  1
  Se  Se241  1  0.08472399  0.25542672  0.20004964  1
  Se  Se242  1  0.08811157  0.24677104  0.68387299  1
  Se  Se243  1  0.08121618  0.59264098  0.21136072  1
  Se  Se244  1  0.08149253  0.58028505  0.69613071  1
  Se  Se245  1  0.08297550  0.92310098  0.19834225  1
  Se  Se246  1  0.07815760  0.92076504  0.69003573  1
  Se  Se247  1  0.39778101  0.27845511  0.19232849  1
  Se  Se248  1  0.41535354  0.24900596  0.69599533  1
  Se  Se249  1  0.42243486  0.58498675  0.18670719  1
  Se  Se250  1  0.41907686  0.57552201  0.69337592  1
  Se  Se251  1  0.41204018  0.91776724  0.19768159  1
  Se  Se252  1  0.42013184  0.91800909  0.70645575  1
  Se  Se253  1  0.75471397  0.24536242  0.19930040  1
  Se  Se254  1  0.74787741  0.25294140  0.70479510  1
  Se  Se255  1  0.75144893  0.57848436  0.19628308  1
  Se  Se256  1  0.74898486  0.58924866  0.69251893  1
  Se  Se257  1  0.77739047  0.88055712  0.19838173  1
  Se  Se258  1  0.75545187  0.91477639  0.68494302  1
