# generated using pymatgen
data_In86Cu29Se144
_symmetry_space_group_name_H-M   'P 1'
_cell_length_a   17.58910035
_cell_length_b   17.58884793
_cell_length_c   23.44744324
_cell_angle_alpha   89.98363178
_cell_angle_beta   89.99519244
_cell_angle_gamma   89.96345084
_symmetry_Int_Tables_number   1
_chemical_formula_structural   In86Cu29Se144
_chemical_formula_sum   'In86 Cu29 Se144'
_cell_volume   7253.98087397
_cell_formula_units_Z   1
loop_
 _symmetry_equiv_pos_site_id
 _symmetry_equiv_pos_as_xyz
  1  'x, y, z'
loop_
 _atom_site_type_symbol
 _atom_site_label
 _atom_site_symmetry_multiplicity
 _atom_site_fract_x
 _atom_site_fract_y
 _atom_site_fract_z
 _atom_site_occupancy
  In  In0  1  0.02061552  0.17796124  0.12075475  1
  In  In1  1  0.01362615  0.16641144  0.64335961  1
  In  In2  1  0.00101181  0.49176456  0.11415645  1
  In  In3  1  -0.00273131  0.49904274  0.63375135  1
  In  In4  1  0.00214055  0.83938581  0.11016762  1
  In  In5  1  -0.01559042  0.83074374  0.64616478  1
  In  In6  1  0.31833908  0.16721862  0.14355162  1
  In  In7  1  0.32789738  0.14592269  0.62078470  1
  In  In8  1  0.32221993  0.50408791  0.12981334  1
  In  In9  1  0.32574038  0.49699940  0.61086567  1
  In  In10  1  0.33413940  0.83290754  0.12387268  1
  In  In11  1  0.34366282  0.83715745  0.62160055  1
  In  In12  1  0.65252112  0.16612744  0.12613916  1
  In  In13  1  0.65947516  0.17434847  0.62061366  1
  In  In14  1  0.67822355  0.49762092  0.12349262  1
  In  In15  1  0.68153956  0.51108302  0.61493983  1
  In  In16  1  0.67605202  0.84051770  0.12136876  1
  In  In17  1  0.66195905  0.82519975  0.62582290  1
  In  In18  1  0.17733700  0.00049181  0.36957392  1
  In  In19  1  0.16460252  -0.00086586  0.87694980  1
  In  In20  1  0.17700516  0.34145675  0.35918310  1
  In  In21  1  0.13371195  0.35641947  0.90871994  1
  In  In22  1  0.16274421  0.65476942  0.37604190  1
  In  In23  1  0.15768183  0.68000781  0.88066650  1
  In  In24  1  0.49546911  -0.00642799  0.37868624  1
  In  In25  1  0.47873518  -0.00186612  0.87448661  1
  In  In26  1  0.48982791  0.34375304  0.38189952  1
  In  In27  1  0.49697837  0.33756655  0.88076734  1
  In  In28  1  0.49307116  0.67316715  0.38146182  1
  In  In29  1  0.51028297  0.67807992  0.87001802  1
  In  In30  1  0.82465783  0.00163918  0.37618383  1
  In  In31  1  0.83980647  -0.02195239  0.87447264  1
  In  In32  1  0.84561259  0.33887042  0.37440085  1
  In  In33  1  0.85845613  0.34278301  0.87145542  1
  In  In34  1  0.83021801  0.66998054  0.38685715  1
  In  In35  1  0.83517667  0.67539820  0.86784122  1
  In  In36  1  -0.01108489  0.17629928  0.37418210  1
  In  In37  1  0.02822105  0.18070979  0.85811529  1
  In  In38  1  0.00719598  0.49420793  0.38636495  1
  In  In39  1  -0.00825586  0.51386797  0.87047498  1
  In  In40  1  -0.00091759  0.82441134  0.38134500  1
  In  In41  1  -0.00284135  0.83439385  0.86768640  1
  In  In42  1  0.33315843  0.17159266  0.36826297  1
  In  In43  1  0.30617419  0.14320097  0.86770542  1
  In  In44  1  0.32875957  0.49964622  0.37335408  1
  In  In45  1  0.32737799  0.48845886  0.87654671  1
  In  In46  1  0.35113921  0.84411527  0.36523972  1
  In  In47  1  0.31735315  0.85829886  0.89496352  1
  In  In48  1  0.66450714  0.14467425  0.37131184  1
  In  In49  1  0.66555932  0.17565250  0.87245798  1
  In  In50  1  0.66778402  0.50404251  0.38425839  1
  In  In51  1  0.68165856  0.53486858  0.85549016  1
  In  In52  1  0.65771443  0.84320032  0.38337222  1
  In  In53  1  0.67631728  0.82126527  0.88413690  1
  In  In54  1  0.19013950  0.01242144  0.10204962  1
  In  In55  1  0.17364220  0.00376443  0.63781483  1
  In  In56  1  0.16418688  0.33237143  0.12849566  1
  In  In57  1  0.15331471  0.33508785  0.62898830  1
  In  In58  1  0.17486615  0.67473554  0.11517507  1
  In  In59  1  0.16627765  0.65478861  0.62567865  1
  In  In60  1  0.50394031  -0.00564914  0.13338176  1
  In  In61  1  0.49038732  -0.01292451  0.61369499  1
  In  In62  1  0.49219096  0.31750461  0.12790384  1
  In  In63  1  0.49765436  0.33325503  0.60770959  1
  In  In64  1  0.48745194  0.66659372  0.12890933  1
  In  In65  1  0.50955669  0.67549580  0.61648184  1
  In  In66  1  0.83700274  -0.00982855  0.12116538  1
  In  In67  1  0.84618560  -0.00525102  0.63050348  1
  In  In68  1  0.84054146  0.35135064  0.11773558  1
  In  In69  1  0.84379379  0.34247668  0.62730763  1
  In  In70  1  0.84121654  0.66952806  0.11709656  1
  In  In71  1  0.83017785  0.66160419  0.63786003  1
  In  In72  1  0.84527624  0.16177194  -0.00223957  1
  In  In73  1  0.82998280  0.16793112  0.50133156  1
  In  In74  1  0.66369828  0.66931899  0.26384784  1
  In  In75  1  0.66324744  0.33029808  0.24752544  1
  In  In76  1  0.33664890  0.67213623  0.74894018  1
  In  In77  1  0.50419885  0.50125088  -0.00035102  1
  In  In78  1  0.16967690  0.17026087  0.49457814  1
  In  In79  1  0.32400084  0.32062652  0.75320513  1
  In  In80  1  0.00723596  0.00595862  0.23908401  1
  In  In81  1  0.66635298  -0.00670464  0.74719543  1
  In  In82  1  0.16979825  0.82793230  0.50578636  1
  In  In83  1  0.00208397  0.66520683  0.24776447  1
  In  In84  1  0.49298172  0.16379817  0.00497288  1
  In  In85  1  0.67077315  0.33795860  0.74577581  1
  Cu  Cu86  1  0.66520824  0.33052146  0.49742490  1
  Cu  Cu87  1  0.49907863  0.83083373  0.25336949  1
  Cu  Cu88  1  0.67119328  0.67125156  -0.00585831  1
  Cu  Cu89  1  0.32852185  0.32505518  0.00449436  1
  Cu  Cu90  1  0.33114924  0.66520368  0.49652989  1
  Cu  Cu91  1  0.67666049  0.34673956  -0.00743278  1
  Cu  Cu92  1  0.83468081  0.17157641  0.24992385  1
  Cu  Cu93  1  0.84027892  0.50253648  0.24827158  1
  Cu  Cu94  1  0.00286454  -0.00755815  0.51045154  1
  Cu  Cu95  1  0.49461926  0.84091418  0.74913318  1
  Cu  Cu96  1  -0.00209392  0.34064022  0.50476902  1
  Cu  Cu97  1  0.67224039  0.66107606  0.50571519  1
  Cu  Cu98  1  0.17770552  0.83058104  0.24165266  1
  Cu  Cu99  1  0.34036600  0.66679351  0.00160218  1
  Cu  Cu100  1  0.49980334  0.50236236  0.73935236  1
  Cu  Cu101  1  0.00002364  -0.00838013  -0.01003470  1
  Cu  Cu102  1  0.16953221  0.83842051  0.75625867  1
  Cu  Cu103  1  0.16555166  0.49719470  0.24992386  1
  Cu  Cu104  1  0.83956318  0.15932547  0.75401935  1
  Cu  Cu105  1  0.49739040  0.16011566  0.25349596  1
  Cu  Cu106  1  0.32633397  0.33378257  0.49097597  1
  Cu  Cu107  1  0.16218456  0.49830260  0.75686990  1
  Cu  Cu108  1  0.66630205  -0.00899943  0.49972820  1
  Cu  Cu109  1  0.49097137  0.16337398  0.74451405  1
  Cu  Cu110  1  0.48622196  0.49227359  0.25071647  1
  Cu  Cu111  1  0.65948525  -0.00134281  0.00001434  1
  Cu  Cu112  1  -0.00488302  0.66142690  -0.00794242  1
  Cu  Cu113  1  0.83431827  0.84531984  0.24865588  1
  Cu  Cu114  1  -0.01111302  0.66492642  0.50921151  1
  Se  Se115  1  0.07173829  0.07202720  0.05392341  1
  Se  Se116  1  0.08244566  0.08150459  0.56150377  1
  Se  Se117  1  0.09674010  0.41778420  0.05275502  1
  Se  Se118  1  0.08187823  0.42265078  0.55856928  1
  Se  Se119  1  0.07710084  0.74253628  0.04927809  1
  Se  Se120  1  0.07298048  0.74681222  0.56643111  1
  Se  Se121  1  0.40916671  0.08149473  0.07149883  1
  Se  Se122  1  0.42938059  0.09393957  0.55364758  1
  Se  Se123  1  0.41422765  0.40845283  0.05948728  1
  Se  Se124  1  0.41193632  0.41802120  0.54347343  1
  Se  Se125  1  0.42173016  0.75114532  0.05429219  1
  Se  Se126  1  0.41380309  0.74841669  0.55091610  1
  Se  Se127  1  0.74070229  0.08247157  0.05704303  1
  Se  Se128  1  0.74459793  0.07174916  0.56245199  1
  Se  Se129  1  0.75799039  0.42968795  0.04642201  1
  Se  Se130  1  0.75037989  0.40546684  0.55566080  1
  Se  Se131  1  0.75275478  0.75188478  0.05351560  1
  Se  Se132  1  0.75241348  0.74301536  0.56301672  1
  Se  Se133  1  0.25096615  0.24425353  0.06314646  1
  Se  Se134  1  0.25415355  0.25919399  0.56184172  1
  Se  Se135  1  0.25448215  0.58190298  0.05089723  1
  Se  Se136  1  0.24247585  0.58465043  0.54670048  1
  Se  Se137  1  0.23452978  0.89038608  0.05359309  1
  Se  Se138  1  0.25489982  0.92876690  0.55868555  1
  Se  Se139  1  0.59360257  0.26543264  0.05061897  1
  Se  Se140  1  0.58016603  0.24316678  0.54379609  1
  Se  Se141  1  0.59358532  0.59364326  0.06062214  1
  Se  Se142  1  0.57977639  0.57811364  0.55152117  1
  Se  Se143  1  0.58105061  0.91684874  0.05767557  1
  Se  Se144  1  0.58375347  0.90651997  0.55329406  1
  Se  Se145  1  0.92783269  0.26078020  0.05404713  1
  Se  Se146  1  0.92965856  0.24617083  0.56225190  1
  Se  Se147  1  0.91592299  0.57980482  0.05082134  1
  Se  Se148  1  0.91140001  0.57992476  0.56516051  1
  Se  Se149  1  0.90945583  0.91472427  0.04380644  1
  Se  Se150  1  0.92141076  0.90709371  0.56147906  1
  Se  Se151  1  0.07522273  0.26241520  0.44069726  1
  Se  Se152  1  0.08537398  0.23066195  0.95133695  1
  Se  Se153  1  0.07711372  0.59041352  0.45210655  1
  Se  Se154  1  0.08576031  0.58179294  0.94252312  1
  Se  Se155  1  0.08280860  0.92345683  0.44251785  1
  Se  Se156  1  0.08426833  0.90561389  0.94098866  1
  Se  Se157  1  0.41168037  0.24772278  0.44326126  1
  Se  Se158  1  0.40560341  0.24914131  0.93887803  1
  Se  Se159  1  0.41354258  0.57972742  0.44354840  1
  Se  Se160  1  0.41523807  0.58847590  0.93537315  1
  Se  Se161  1  0.42197112  0.90435093  0.44855541  1
  Se  Se162  1  0.42136118  0.92192591  0.95637790  1
  Se  Se163  1  0.74337477  0.25264308  0.43301982  1
  Se  Se164  1  0.75396534  0.25807654  0.93816275  1
  Se  Se165  1  0.75667949  0.57744238  0.45296258  1
  Se  Se166  1  0.75481563  0.58965186  0.94081710  1
  Se  Se167  1  0.75705120  0.91309866  0.44851808  1
  Se  Se168  1  0.74790992  0.91851402  0.94859416  1
  Se  Se169  1  0.26168322  0.07481217  0.44357065  1
  Se  Se170  1  0.25074756  0.07086258  0.95150300  1
  Se  Se171  1  0.24034014  0.41741079  0.44121728  1
  Se  Se172  1  0.25286294  0.42011387  0.95571304  1
  Se  Se173  1  0.25407507  0.74783395  0.43507012  1
  Se  Se174  1  0.25343087  0.74691353  0.94869370  1
  Se  Se175  1  0.58424644  0.07593317  0.44695888  1
  Se  Se176  1  0.58667410  0.08268974  0.93866192  1
  Se  Se177  1  0.58272116  0.41819793  0.44756324  1
  Se  Se178  1  0.59851583  0.42614300  0.93034392  1
  Se  Se179  1  0.59151738  0.74140270  0.44628873  1
  Se  Se180  1  0.57777603  0.75300162  0.95060376  1
  Se  Se181  1  0.92581743  0.07419546  0.44647780  1
  Se  Se182  1  0.92664295  0.07783669  0.92911874  1
  Se  Se183  1  0.91064971  0.42093042  0.45191416  1
  Se  Se184  1  0.92417227  0.42473818  0.94516527  1
  Se  Se185  1  0.91414904  0.75380337  0.45352982  1
  Se  Se186  1  0.91669468  0.75226593  0.94089481  1
  Se  Se187  1  0.23415027  0.23311703  0.30092588  1
  Se  Se188  1  0.23955021  0.26805596  0.83392131  1
  Se  Se189  1  0.24639121  0.58319884  0.30295556  1
  Se  Se190  1  0.24730249  0.58138892  0.81078230  1
  Se  Se191  1  0.25331132  0.91478073  0.30047781  1
  Se  Se192  1  0.25553340  0.92028499  0.80671041  1
  Se  Se193  1  0.57724046  0.24474215  0.31305799  1
  Se  Se194  1  0.56937547  0.24829974  0.80246317  1
  Se  Se195  1  0.57086524  0.56920811  0.31051080  1
  Se  Se196  1  0.57400414  0.59152123  0.79351731  1
  Se  Se197  1  0.58225386  0.91587305  0.30625347  1
  Se  Se198  1  0.57739052  0.91257123  0.81422411  1
  Se  Se199  1  0.91691098  0.25782410  0.29886439  1
  Se  Se200  1  0.92121151  0.24951833  0.80094895  1
  Se  Se201  1  0.91231420  0.58278905  0.31393843  1
  Se  Se202  1  0.92752568  0.60434078  0.79732065  1
  Se  Se203  1  0.92164687  0.91754851  0.30947363  1
  Se  Se204  1  0.90888774  0.90602062  0.79577580  1
  Se  Se205  1  0.08312640  0.09037571  0.31226459  1
  Se  Se206  1  0.07631092  0.06512071  0.80263939  1
  Se  Se207  1  0.07519511  0.42204564  0.30444173  1
  Se  Se208  1  0.08298424  0.41806850  0.81533550  1
  Se  Se209  1  0.09322620  0.75940910  0.30580963  1
  Se  Se210  1  0.08531480  0.75007848  0.80092471  1
  Se  Se211  1  0.41534050  0.07711755  0.30778543  1
  Se  Se212  1  0.40927403  0.08431272  0.80094064  1
  Se  Se213  1  0.40640238  0.40845069  0.30473735  1
  Se  Se214  1  0.42398871  0.42188164  0.80216639  1
  Se  Se215  1  0.41654169  0.74113744  0.30130271  1
  Se  Se216  1  0.41256018  0.76670136  0.81367283  1
  Se  Se217  1  0.75557881  0.08122484  0.29837205  1
  Se  Se218  1  0.75280447  0.08548098  0.81140941  1
  Se  Se219  1  0.75253056  0.42553912  0.30592167  1
  Se  Se220  1  0.76182468  0.42446398  0.80506202  1
  Se  Se221  1  0.76077213  0.76390097  0.31239770  1
  Se  Se222  1  0.73152815  0.74012744  0.80422007  1
  Se  Se223  1  0.24139213  0.06427564  0.19654775  1
  Se  Se224  1  0.23808336  0.10581499  0.70118145  1
  Se  Se225  1  0.25108506  0.41330189  0.19858126  1
  Se  Se226  1  0.24816779  0.42634161  0.69476611  1
  Se  Se227  1  0.25697319  0.74068434  0.19287396  1
  Se  Se228  1  0.24351775  0.76008053  0.68828949  1
  Se  Se229  1  0.58600900  0.08219097  0.20087202  1
  Se  Se230  1  0.57690201  0.08568796  0.68828440  1
  Se  Se231  1  0.57324583  0.42424095  0.18720585  1
  Se  Se232  1  0.57764423  0.41893098  0.68139716  1
  Se  Se233  1  0.58299446  0.75325117  0.19276241  1
  Se  Se234  1  0.57429832  0.75239798  0.69774166  1
  Se  Se235  1  0.91131992  0.09575587  0.18252475  1
  Se  Se236  1  0.92325944  0.07753106  0.70087923  1
  Se  Se237  1  0.92165116  0.42099141  0.19371728  1
  Se  Se238  1  0.92669228  0.40573091  0.70236183  1
  Se  Se239  1  0.91399462  0.76293382  0.19090334  1
  Se  Se240  1  0.92950273  0.72273440  0.70823396  1
  Se  Se241  1  0.08750800  0.24893602  0.20111304  1
  Se  Se242  1  0.09676671  0.25103763  0.70723895  1
  Se  Se243  1  0.09020868  0.57853320  0.18572955  1
  Se  Se244  1  0.08564877  0.58288632  0.69986696  1
  Se  Se245  1  0.09101879  0.90686790  0.18488380  1
  Se  Se246  1  0.08562376  0.91514130  0.69697002  1
  Se  Se247  1  0.41432098  0.24816436  0.20436139  1
  Se  Se248  1  0.41883336  0.24949297  0.68431832  1
  Se  Se249  1  0.41089681  0.58207779  0.19780434  1
  Se  Se250  1  0.41513230  0.57975378  0.68159777  1
  Se  Se251  1  0.41555706  0.91167654  0.19726007  1
  Se  Se252  1  0.41237077  0.92374074  0.69556185  1
  Se  Se253  1  0.75699927  0.24866553  0.18353285  1
  Se  Se254  1  0.75969334  0.23759473  0.69121567  1
  Se  Se255  1  0.75705500  0.58766332  0.19527599  1
  Se  Se256  1  0.74105558  0.57659371  0.70052108  1
  Se  Se257  1  0.74858206  0.92484074  0.19580599  1
  Se  Se258  1  0.75926624  0.90227344  0.69359018  1
