# generated using pymatgen
data_In86Cu29Se144
_symmetry_space_group_name_H-M   'P 1'
_cell_length_a   17.58047179
_cell_length_b   17.57890928
_cell_length_c   23.43727663
_cell_angle_alpha   90.00622414
_cell_angle_beta   89.97181696
_cell_angle_gamma   90.01669068
_symmetry_Int_Tables_number   1
_chemical_formula_structural   In86Cu29Se144
_chemical_formula_sum   'In86 Cu29 Se144'
_cell_volume   7243.18408826
_cell_formula_units_Z   1
loop_
 _symmetry_equiv_pos_site_id
 _symmetry_equiv_pos_as_xyz
  1  'x, y, z'
loop_
 _atom_site_type_symbol
 _atom_site_label
 _atom_site_symmetry_multiplicity
 _atom_site_fract_x
 _atom_site_fract_y
 _atom_site_fract_z
 _atom_site_occupancy
  In  In0  1  0.00636868  0.15727696  0.13108641  1
  In  In1  1  -0.00242899  0.18329912  0.62179330  1
  In  In2  1  0.00001183  0.50190995  0.12557444  1
  In  In3  1  0.00957649  0.50218549  0.61937889  1
  In  In4  1  -0.00149835  0.83023687  0.12655228  1
  In  In5  1  -0.00019482  0.81608382  0.62409055  1
  In  In6  1  0.33601111  0.17860864  0.10736420  1
  In  In7  1  0.34288889  0.16060154  0.63109857  1
  In  In8  1  0.33802744  0.50299260  0.11481269  1
  In  In9  1  0.31736670  0.49829043  0.62862047  1
  In  In10  1  0.31316877  0.83158862  0.12160177  1
  In  In11  1  0.33259322  0.84085021  0.62633526  1
  In  In12  1  0.66098526  0.18173248  0.11617796  1
  In  In13  1  0.66178592  0.17267987  0.62423093  1
  In  In14  1  0.67456978  0.49303299  0.10920341  1
  In  In15  1  0.69212457  0.47809487  0.65106104  1
  In  In16  1  0.67444440  0.81596909  0.11788691  1
  In  In17  1  0.67386102  0.82970674  0.63912451  1
  In  In18  1  0.15025173  0.00103044  0.37535427  1
  In  In19  1  0.17924401  -0.01342943  0.87681302  1
  In  In20  1  0.16705988  0.35603981  0.37632263  1
  In  In21  1  0.18436220  0.32250357  0.89256293  1
  In  In22  1  0.16128314  0.66672571  0.37301186  1
  In  In23  1  0.15785925  0.66816179  0.88098718  1
  In  In24  1  0.50666576  0.00807162  0.37627611  1
  In  In25  1  0.50481888  0.01150615  0.86997988  1
  In  In26  1  0.48661478  0.32707533  0.38643892  1
  In  In27  1  0.50134016  0.33338491  0.87577798  1
  In  In28  1  0.50135847  0.66950091  0.37436422  1
  In  In29  1  0.49955908  0.64768772  0.87612541  1
  In  In30  1  0.84577032  0.00395092  0.37605418  1
  In  In31  1  0.82178638  -0.00069605  0.87386904  1
  In  In32  1  0.83810073  0.32499133  0.38115309  1
  In  In33  1  0.82574758  0.35485552  0.87252466  1
  In  In34  1  0.83337978  0.65837998  0.37428675  1
  In  In35  1  0.84089327  0.65994993  0.86930728  1
  In  In36  1  -0.00537279  0.15825662  0.36862354  1
  In  In37  1  0.00511985  0.17815634  0.87694013  1
  In  In38  1  -0.00041325  0.50209303  0.37052322  1
  In  In39  1  -0.00943047  0.51113046  0.88112553  1
  In  In40  1  0.00361547  0.84852255  0.36726926  1
  In  In41  1  0.01901392  0.81285368  0.88073681  1
  In  In42  1  0.34070451  0.18224505  0.37931070  1
  In  In43  1  0.33804007  0.16941509  0.87352176  1
  In  In44  1  0.31032429  0.49538627  0.37760670  1
  In  In45  1  0.34971046  0.48155122  0.89570683  1
  In  In46  1  0.33003357  0.81235961  0.37083072  1
  In  In47  1  0.30878673  0.83418147  0.87041321  1
  In  In48  1  0.66161368  0.17635837  0.39248204  1
  In  In49  1  0.65712672  0.16086744  0.86865332  1
  In  In50  1  0.67391356  0.50967937  0.38272714  1
  In  In51  1  0.67038424  0.49687232  0.86539083  1
  In  In52  1  0.67050875  0.82274419  0.37787366  1
  In  In53  1  0.67608285  0.84138873  0.87205226  1
  In  In54  1  0.15905441  -0.00911698  0.11542336  1
  In  In55  1  0.18065683  -0.00243978  0.62682111  1
  In  In56  1  0.16234878  0.32522456  0.11573131  1
  In  In57  1  0.16325642  0.34658861  0.62980065  1
  In  In58  1  0.16125491  0.66790917  0.12674012  1
  In  In59  1  0.16027910  0.65550304  0.62094237  1
  In  In60  1  0.49126550  0.00980172  0.12101079  1
  In  In61  1  0.49523610  0.00885651  0.63453085  1
  In  In62  1  0.50199407  0.33760269  0.10015286  1
  In  In63  1  0.50869266  0.32320462  0.63136912  1
  In  In64  1  0.49947521  0.65063962  0.11997718  1
  In  In65  1  0.50365072  0.67602217  0.63202836  1
  In  In66  1  0.84965760  -0.00426387  0.12875423  1
  In  In67  1  0.81965346  0.00210565  0.62866105  1
  In  In68  1  0.83502244  0.35417333  0.11919355  1
  In  In69  1  0.82197625  0.32796035  0.61137608  1
  In  In70  1  0.84706133  0.67487342  0.11634409  1
  In  In71  1  0.85304200  0.64528530  0.64516893  1
  In  In72  1  0.83366159  0.16751175  -0.00313771  1
  In  In73  1  0.49149366  0.84093113  0.50841337  1
  In  In74  1  0.16612423  0.17003881  0.50132414  1
  In  In75  1  0.66818726  0.33760719  0.24595956  1
  In  In76  1  -0.00208581  0.34485360  0.75556482  1
  In  In77  1  0.50318882  0.83646434  -0.00795253  1
  In  In78  1  0.67426949  -0.00077631  0.25106631  1
  In  In79  1  0.33144321  0.66507546  0.75620768  1
  In  In80  1  0.32501659  -0.00083475  0.24005333  1
  In  In81  1  0.50314435  0.49586937  0.50907027  1
  In  In82  1  0.32645745  0.33583375  0.24605944  1
  In  In83  1  0.00213480  -0.00470374  0.74927068  1
  In  In84  1  0.67579282  0.66500724  0.25308067  1
  In  In85  1  0.83383406  0.83568734  0.49871898  1
  Cu  Cu86  1  0.83807095  0.83013527  0.75349016  1
  Cu  Cu87  1  0.49687636  0.17426263  0.24867568  1
  Cu  Cu88  1  0.49871084  0.83940075  0.75524484  1
  Cu  Cu89  1  0.16078041  0.83152871  0.24711021  1
  Cu  Cu90  1  0.66220426  0.01002455  0.50590625  1
  Cu  Cu91  1  0.16109681  0.50814626  0.24904144  1
  Cu  Cu92  1  0.32174062  0.65681089  0.49599053  1
  Cu  Cu93  1  0.83681134  0.16875169  0.25299248  1
  Cu  Cu94  1  0.82361630  0.16953978  0.74811541  1
  Cu  Cu95  1  0.32678688  0.67142523  -0.00102273  1
  Cu  Cu96  1  0.33192536  0.00782602  -0.00469242  1
  Cu  Cu97  1  -0.00413584  0.66424067  0.00482144  1
  Cu  Cu98  1  -0.00171188  0.34086699  0.49622839  1
  Cu  Cu99  1  0.67388519  0.66570305  0.51093015  1
  Cu  Cu100  1  0.67254733  -0.00213097  -0.00315394  1
  Cu  Cu101  1  0.00339429  0.66088020  0.49813207  1
  Cu  Cu102  1  0.50054192  0.17044882  0.75140166  1
  Cu  Cu103  1  0.49480026  0.82572333  0.25131538  1
  Cu  Cu104  1  0.84008260  0.50338837  0.24732766  1
  Cu  Cu105  1  0.16249108  0.16690312  0.24407200  1
  Cu  Cu106  1  0.16664786  0.50073104  0.75850013  1
  Cu  Cu107  1  -0.00154635  0.00145062  0.49699793  1
  Cu  Cu108  1  0.49829766  0.49467858  0.75676093  1
  Cu  Cu109  1  0.32839803  -0.00357742  0.50200516  1
  Cu  Cu110  1  0.17670472  0.16711438  0.75543446  1
  Cu  Cu111  1  0.00505655  -0.00251911  0.00373253  1
  Cu  Cu112  1  0.67756621  0.65785176  -0.00609169  1
  Cu  Cu113  1  0.00189493  0.33603550  0.00011908  1
  Cu  Cu114  1  0.49146989  0.49623728  0.24308877  1
  Se  Se115  1  0.08497864  0.08834083  0.05233597  1
  Se  Se116  1  0.07726134  0.07747131  0.56255269  1
  Se  Se117  1  0.08226405  0.42057374  0.05502495  1
  Se  Se118  1  0.08829761  0.41587301  0.54977946  1
  Se  Se119  1  0.08114696  0.75043753  0.05549306  1
  Se  Se120  1  0.08512241  0.74579985  0.55107258  1
  Se  Se121  1  0.42052729  0.08791528  0.04563527  1
  Se  Se122  1  0.41379767  0.07542566  0.55629276  1
  Se  Se123  1  0.40539814  0.41460753  0.04345339  1
  Se  Se124  1  0.41072212  0.41049207  0.56799318  1
  Se  Se125  1  0.41411723  0.75044958  0.05782580  1
  Se  Se126  1  0.40330963  0.73626497  0.55717671  1
  Se  Se127  1  0.74798575  0.07645192  0.06314221  1
  Se  Se128  1  0.75142092  0.08901226  0.55663665  1
  Se  Se129  1  0.73365170  0.38898000  0.04613568  1
  Se  Se130  1  0.74476151  0.42958479  0.55609271  1
  Se  Se131  1  0.75739449  0.74698762  0.04436053  1
  Se  Se132  1  0.75670261  0.74661962  0.56756889  1
  Se  Se133  1  0.25518422  0.26379931  0.04354240  1
  Se  Se134  1  0.25115979  0.25209337  0.56813726  1
  Se  Se135  1  0.24622820  0.58930852  0.05591413  1
  Se  Se136  1  0.24271932  0.57217217  0.55084466  1
  Se  Se137  1  0.25119012  0.91913500  0.04658939  1
  Se  Se138  1  0.24674836  0.91025000  0.55141354  1
  Se  Se139  1  0.57796965  0.24157450  0.03975126  1
  Se  Se140  1  0.58189125  0.25244394  0.55256535  1
  Se  Se141  1  0.58844643  0.58257608  0.04885927  1
  Se  Se142  1  0.58942072  0.58838908  0.56810038  1
  Se  Se143  1  0.59010063  0.92200149  0.06128843  1
  Se  Se144  1  0.59232546  0.92014327  0.56603193  1
  Se  Se145  1  0.92264321  0.25243789  0.06137668  1
  Se  Se146  1  0.91722384  0.25209229  0.54633340  1
  Se  Se147  1  0.91166778  0.57363715  0.05207398  1
  Se  Se148  1  0.91773599  0.58515067  0.55625787  1
  Se  Se149  1  0.91860721  0.91429569  0.05343974  1
  Se  Se150  1  0.92191871  0.92445554  0.56347352  1
  Se  Se151  1  0.07838783  0.25596178  0.43616927  1
  Se  Se152  1  0.08460472  0.24642325  0.95341531  1
  Se  Se153  1  0.08567689  0.57789836  0.44258052  1
  Se  Se154  1  0.08117373  0.58239640  0.95151056  1
  Se  Se155  1  0.08176880  0.91426849  0.44861693  1
  Se  Se156  1  0.08434181  0.91623790  0.94413007  1
  Se  Se157  1  0.42029250  0.24057168  0.45879645  1
  Se  Se158  1  0.42267096  0.24584438  0.94333331  1
  Se  Se159  1  0.41361804  0.58276660  0.44048658  1
  Se  Se160  1  0.41818852  0.58709636  0.95566409  1
  Se  Se161  1  0.40684332  0.92057589  0.43446658  1
  Se  Se162  1  0.40793338  0.92184635  0.93442133  1
  Se  Se163  1  0.74692443  0.26118315  0.45265149  1
  Se  Se164  1  0.74674452  0.25179048  0.93297544  1
  Se  Se165  1  0.75657386  0.58768929  0.45304107  1
  Se  Se166  1  0.75699981  0.57545680  0.93737490  1
  Se  Se167  1  0.73778613  0.92840822  0.44221562  1
  Se  Se168  1  0.75687933  0.91226022  0.94964314  1
  Se  Se169  1  0.25470259  0.07833957  0.43756126  1
  Se  Se170  1  0.24717752  0.08706088  0.94012415  1
  Se  Se171  1  0.27114457  0.39124820  0.44835392  1
  Se  Se172  1  0.23369851  0.43471314  0.95286889  1
  Se  Se173  1  0.24449909  0.74833949  0.44550591  1
  Se  Se174  1  0.24239101  0.75424722  0.94871638  1
  Se  Se175  1  0.57372471  0.08767331  0.45296464  1
  Se  Se176  1  0.58704503  0.08020016  0.94665742  1
  Se  Se177  1  0.58965750  0.41211633  0.44032666  1
  Se  Se178  1  0.57426712  0.43488006  0.93544813  1
  Se  Se179  1  0.58786519  0.74347127  0.45278802  1
  Se  Se180  1  0.59310355  0.74068521  0.93732805  1
  Se  Se181  1  0.91601383  0.08958694  0.44876240  1
  Se  Se182  1  0.92596189  0.07471255  0.93878746  1
  Se  Se183  1  0.91508078  0.42316662  0.44160837  1
  Se  Se184  1  0.91571947  0.41580565  0.94744339  1
  Se  Se185  1  0.92473165  0.74658619  0.43921215  1
  Se  Se186  1  0.91806850  0.74451806  0.94326716  1
  Se  Se187  1  0.23952596  0.24400282  0.30904594  1
  Se  Se188  1  0.25299581  0.25709070  0.80731084  1
  Se  Se189  1  0.24904328  0.58491028  0.30383474  1
  Se  Se190  1  0.25129712  0.57417915  0.82082358  1
  Se  Se191  1  0.24328572  0.91180848  0.30852649  1
  Se  Se192  1  0.24758161  0.91858141  0.79387444  1
  Se  Se193  1  0.57758537  0.25019263  0.31038804  1
  Se  Se194  1  0.58527118  0.25497535  0.80243925  1
  Se  Se195  1  0.57703988  0.57069644  0.30529796  1
  Se  Se196  1  0.58356240  0.58522900  0.79935881  1
  Se  Se197  1  0.57654153  0.90491131  0.30901070  1
  Se  Se198  1  0.58644497  0.92073443  0.80635852  1
  Se  Se199  1  0.91901734  0.25446064  0.30488908  1
  Se  Se200  1  0.90536204  0.24620913  0.80947874  1
  Se  Se201  1  0.91933529  0.58901876  0.30122116  1
  Se  Se202  1  0.92193272  0.57846956  0.79879454  1
  Se  Se203  1  0.90929943  0.92066711  0.30161386  1
  Se  Se204  1  0.91743453  0.90974752  0.81556990  1
  Se  Se205  1  0.08224514  0.08148269  0.29862591  1
  Se  Se206  1  0.08832643  0.08928929  0.81011587  1
  Se  Se207  1  0.08205042  0.41787959  0.29993061  1
  Se  Se208  1  0.09099989  0.41924601  0.82187831  1
  Se  Se209  1  0.07929394  0.75176019  0.30498543  1
  Se  Se210  1  0.09529516  0.74843093  0.80103383  1
  Se  Se211  1  0.41673817  0.08891507  0.30408402  1
  Se  Se212  1  0.41501377  0.08410288  0.80084817  1
  Se  Se213  1  0.41943768  0.41973577  0.31064571  1
  Se  Se214  1  0.41007064  0.41479801  0.80823849  1
  Se  Se215  1  0.41506799  0.73685917  0.30026194  1
  Se  Se216  1  0.42247865  0.75656996  0.81714203  1
  Se  Se217  1  0.74872672  0.09880632  0.31415962  1
  Se  Se218  1  0.74683029  0.08093723  0.80146305  1
  Se  Se219  1  0.75579590  0.42686071  0.30837005  1
  Se  Se220  1  0.75564401  0.42312860  0.79210279  1
  Se  Se221  1  0.76604114  0.76287307  0.30540921  1
  Se  Se222  1  0.75231395  0.74904754  0.80680086  1
  Se  Se223  1  0.24533819  0.09610769  0.17999448  1
  Se  Se224  1  0.25329710  0.08161171  0.69878139  1
  Se  Se225  1  0.23971691  0.42696985  0.18643182  1
  Se  Se226  1  0.24799424  0.41578593  0.70495083  1
  Se  Se227  1  0.24807441  0.74874394  0.19768542  1
  Se  Se228  1  0.24654371  0.74723394  0.68794684  1
  Se  Se229  1  0.58015508  0.09209639  0.19216757  1
  Se  Se230  1  0.58687101  0.08717821  0.69804262  1
  Se  Se231  1  0.57396072  0.42103898  0.18314022  1
  Se  Se232  1  0.58113713  0.41121166  0.70325607  1
  Se  Se233  1  0.57791004  0.74892249  0.19072543  1
  Se  Se234  1  0.58162834  0.75352731  0.70487137  1
  Se  Se235  1  0.91859310  0.08224598  0.20161747  1
  Se  Se236  1  0.91404463  0.09432537  0.69162246  1
  Se  Se237  1  0.91973843  0.41450805  0.19639453  1
  Se  Se238  1  0.91457367  0.41490074  0.68070819  1
  Se  Se239  1  0.91583509  0.74696389  0.19489135  1
  Se  Se240  1  0.92556310  0.74743959  0.70420630  1
  Se  Se241  1  0.08199771  0.25527572  0.19336137  1
  Se  Se242  1  0.08956746  0.24561663  0.69861145  1
  Se  Se243  1  0.07530436  0.58939946  0.19650526  1
  Se  Se244  1  0.08583232  0.57729055  0.69756125  1
  Se  Se245  1  0.08299971  0.91933067  0.19305038  1
  Se  Se246  1  0.08948425  0.90696060  0.68790358  1
  Se  Se247  1  0.42365880  0.25371921  0.18490296  1
  Se  Se248  1  0.41406117  0.25273933  0.69978415  1
  Se  Se249  1  0.41077596  0.58322529  0.19259554  1
  Se  Se250  1  0.42108816  0.57504914  0.69297381  1
  Se  Se251  1  0.42303850  0.90626062  0.18714081  1
  Se  Se252  1  0.41516700  0.91628864  0.69785775  1
  Se  Se253  1  0.75971645  0.24532958  0.18793829  1
  Se  Se254  1  0.74875162  0.25531132  0.69162314  1
  Se  Se255  1  0.75417395  0.57502995  0.18520992  1
  Se  Se256  1  0.72924179  0.60648721  0.69512037  1
  Se  Se257  1  0.75382020  0.90516814  0.18861944  1
  Se  Se258  1  0.75435315  0.91822966  0.70490133  1
