# generated using pymatgen
data_In86Cu29Se144
_symmetry_space_group_name_H-M   'P 1'
_cell_length_a   17.58672510
_cell_length_b   17.58050285
_cell_length_c   23.43963497
_cell_angle_alpha   89.99020158
_cell_angle_beta   90.02014737
_cell_angle_gamma   89.98140101
_symmetry_Int_Tables_number   1
_chemical_formula_structural   In86Cu29Se144
_chemical_formula_sum   'In86 Cu29 Se144'
_cell_volume   7247.14675526
_cell_formula_units_Z   1
loop_
 _symmetry_equiv_pos_site_id
 _symmetry_equiv_pos_as_xyz
  1  'x, y, z'
loop_
 _atom_site_type_symbol
 _atom_site_label
 _atom_site_symmetry_multiplicity
 _atom_site_fract_x
 _atom_site_fract_y
 _atom_site_fract_z
 _atom_site_occupancy
  In  In0  1  0.00020030  0.15130497  0.12585417  1
  In  In1  1  -0.01086283  0.15028587  0.61083526  1
  In  In2  1  -0.00308963  0.49658638  0.11332983  1
  In  In3  1  0.00365888  0.49411684  0.62774211  1
  In  In4  1  0.01626568  0.85095787  0.11411857  1
  In  In5  1  0.01471439  0.84438194  0.62576138  1
  In  In6  1  0.33072334  0.15891659  0.12658825  1
  In  In7  1  0.32522468  0.15171859  0.61782702  1
  In  In8  1  0.33206361  0.51120788  0.12237413  1
  In  In9  1  0.34541952  0.50554751  0.63035450  1
  In  In10  1  0.33447511  0.83568947  0.12485908  1
  In  In11  1  0.34151814  0.83370890  0.63135716  1
  In  In12  1  0.66436401  0.16488199  0.13072654  1
  In  In13  1  0.67051598  0.17833016  0.61157576  1
  In  In14  1  0.68028178  0.49298076  0.13133195  1
  In  In15  1  0.66708349  0.49921575  0.63513656  1
  In  In16  1  0.65075452  0.84232232  0.12817697  1
  In  In17  1  0.65248591  0.83653042  0.62356269  1
  In  In18  1  0.16695632  0.01309809  0.36436939  1
  In  In19  1  0.16973373  -0.00222181  0.88408129  1
  In  In20  1  0.15115414  0.31080560  0.37098784  1
  In  In21  1  0.16378165  0.33149268  0.88575737  1
  In  In22  1  0.17157492  0.66060569  0.36704054  1
  In  In23  1  0.17553946  0.66513555  0.88067396  1
  In  In24  1  0.49446716  0.00142592  0.36919726  1
  In  In25  1  0.49122157  0.00860421  0.88380975  1
  In  In26  1  0.51905498  0.31203158  0.37665219  1
  In  In27  1  0.50295478  0.31600456  0.87532267  1
  In  In28  1  0.50583591  0.68023242  0.36875733  1
  In  In29  1  0.50434056  0.67570571  0.87472860  1
  In  In30  1  0.83932297  0.02996921  0.34217769  1
  In  In31  1  0.84685880  0.00299755  0.87711079  1
  In  In32  1  0.81925448  0.32186909  0.37250918  1
  In  In33  1  0.82926984  0.33361775  0.87896659  1
  In  In34  1  0.82848199  0.67970122  0.37119902  1
  In  In35  1  0.81815778  0.66655270  0.87880380  1
  In  In36  1  0.00414791  0.15168997  0.38878087  1
  In  In37  1  0.00977906  0.14845774  0.89378283  1
  In  In38  1  -0.00629185  0.48406114  0.37132357  1
  In  In39  1  0.00256631  0.49408550  0.88377482  1
  In  In40  1  -0.01409641  0.85448556  0.37473015  1
  In  In41  1  0.00458256  0.86087584  0.87999610  1
  In  In42  1  0.34135610  0.15236596  0.37127349  1
  In  In43  1  0.34148070  0.15624505  0.88184918  1
  In  In44  1  0.32756345  0.50386861  0.36838725  1
  In  In45  1  0.31970766  0.50191111  0.87639570  1
  In  In46  1  0.34206441  0.84801789  0.36535800  1
  In  In47  1  0.33599540  0.83763169  0.88045053  1
  In  In48  1  0.66384826  0.16593000  0.36737004  1
  In  In49  1  0.66263970  0.17386298  0.87906408  1
  In  In50  1  0.65909656  0.49733447  0.36708683  1
  In  In51  1  0.67152012  0.50179756  0.87499828  1
  In  In52  1  0.66242642  0.82896975  0.37276424  1
  In  In53  1  0.66345984  0.82134330  0.87668093  1
  In  In54  1  0.17489528  0.00689611  0.12841639  1
  In  In55  1  0.16265603  0.01310430  0.63634030  1
  In  In56  1  0.15991157  0.32462158  0.11537276  1
  In  In57  1  0.17313547  0.32011816  0.62288455  1
  In  In58  1  0.17538009  0.68076152  0.11398921  1
  In  In59  1  0.17610032  0.68448962  0.63038744  1
  In  In60  1  0.50369027  0.00401766  0.12784794  1
  In  In61  1  0.49867017  -0.00887916  0.61314461  1
  In  In62  1  0.51850206  0.32746045  0.13271065  1
  In  In63  1  0.51053499  0.33054206  0.62407057  1
  In  In64  1  0.48757735  0.67449845  0.13114076  1
  In  In65  1  0.49267478  0.67501536  0.63372789  1
  In  In66  1  0.82541206  0.01555106  0.13380197  1
  In  In67  1  0.83574167  0.01241951  0.62454807  1
  In  In68  1  0.81758207  0.31759686  0.12540453  1
  In  In69  1  0.82823670  0.31563608  0.62184091  1
  In  In70  1  0.83577436  0.65742383  0.12216430  1
  In  In71  1  0.83136591  0.65270846  0.62990145  1
  In  In72  1  0.82457586  0.84353057  0.50112486  1
  In  In73  1  0.49649559  0.49267998  0.49826313  1
  In  In74  1  -0.00477549  0.67642048  0.76342775  1
  In  In75  1  -0.00410327  0.32248891  0.24169446  1
  In  In76  1  0.16903681  0.48959595  0.50605473  1
  In  In77  1  0.50013226  0.49712393  0.00662817  1
  In  In78  1  0.82844389  0.48826795  0.49371844  1
  In  In79  1  0.83225832  0.83610008  -0.00177783  1
  In  In80  1  0.33642940  0.33803372  0.74890418  1
  In  In81  1  0.34148893  0.33044464  0.25512330  1
  In  In82  1  0.17357554  0.84587594  0.48907419  1
  In  In83  1  0.00661770  0.67820131  0.24016604  1
  In  In84  1  -0.00595371  0.32588813  0.74587732  1
  In  In85  1  0.66574868  0.00077372  0.74372922  1
  Cu  Cu86  1  0.83580511  0.16650512  0.74725126  1
  Cu  Cu87  1  0.32896051  0.32049874  0.49247768  1
  Cu  Cu88  1  0.81816245  0.49733027  0.75511834  1
  Cu  Cu89  1  0.00188082  0.66601046  -0.00255454  1
  Cu  Cu90  1  0.66230039  0.66430879  0.00000829  1
  Cu  Cu91  1  0.17206445  0.50040887  0.24131961  1
  Cu  Cu92  1  0.16289029  0.50894479  0.75402955  1
  Cu  Cu93  1  0.83562517  0.50730823  0.24963855  1
  Cu  Cu94  1  0.83674713  0.83377152  0.75757066  1
  Cu  Cu95  1  0.66491001  0.00575102  0.00634006  1
  Cu  Cu96  1  0.67134896  0.32869446  0.00594008  1
  Cu  Cu97  1  0.50180559  0.50502215  0.24825185  1
  Cu  Cu98  1  0.50411639  0.50695125  0.75420360  1
  Cu  Cu99  1  0.50239979  0.16370729  0.75046450  1
  Cu  Cu100  1  0.33576912  0.32672915  0.00061204  1
  Cu  Cu101  1  0.82791250  0.83330772  0.24567200  1
  Cu  Cu102  1  0.00575895  0.66302905  0.49712115  1
  Cu  Cu103  1  0.65768151  0.66522804  0.49962933  1
  Cu  Cu104  1  -0.00363888  0.33005151  0.00360661  1
  Cu  Cu105  1  0.17763613  0.84499894  0.75444898  1
  Cu  Cu106  1  0.66592234  0.00437829  0.48975677  1
  Cu  Cu107  1  0.33434697  -0.00063044  0.00618059  1
  Cu  Cu108  1  0.17262610  0.16040206  0.75717685  1
  Cu  Cu109  1  0.49533942  0.82949252  0.24793262  1
  Cu  Cu110  1  0.34091550  0.67509742  0.50321291  1
  Cu  Cu111  1  0.33117650  0.67120607  0.00263750  1
  Cu  Cu112  1  0.33420926  -0.00122430  0.49535076  1
  Cu  Cu113  1  0.16670633  0.83542219  0.24220840  1
  Cu  Cu114  1  0.49763762  0.83675224  0.75168617  1
  Se  Se115  1  0.08933216  0.08106114  0.05602077  1
  Se  Se116  1  0.09487579  0.08166946  0.55501173  1
  Se  Se117  1  0.08621874  0.41725203  0.04860411  1
  Se  Se118  1  0.07194450  0.39942671  0.55854432  1
  Se  Se119  1  0.08267613  0.75404758  0.04736907  1
  Se  Se120  1  0.08461064  0.74724872  0.55266890  1
  Se  Se121  1  0.41994614  0.08411315  0.05729444  1
  Se  Se122  1  0.41861657  0.08254502  0.54910238  1
  Se  Se123  1  0.41269829  0.40398266  0.06623785  1
  Se  Se124  1  0.40049867  0.40442112  0.55712920  1
  Se  Se125  1  0.41764506  0.75256035  0.05371213  1
  Se  Se126  1  0.42265794  0.75671588  0.55717425  1
  Se  Se127  1  0.74850490  0.08946356  0.05669923  1
  Se  Se128  1  0.74740412  0.07920431  0.55229593  1
  Se  Se129  1  0.75505705  0.41625508  0.05503935  1
  Se  Se130  1  0.73810697  0.40983864  0.56057234  1
  Se  Se131  1  0.74261332  0.74735406  0.06025616  1
  Se  Se132  1  0.74490966  0.73926703  0.56036637  1
  Se  Se133  1  0.25322948  0.24358915  0.05482536  1
  Se  Se134  1  0.24728563  0.24038168  0.54938431  1
  Se  Se135  1  0.24698379  0.58188289  0.04944713  1
  Se  Se136  1  0.25781997  0.59332858  0.55954593  1
  Se  Se137  1  0.24873523  0.91605767  0.05704079  1
  Se  Se138  1  0.25627946  0.92315603  0.56227853  1
  Se  Se139  1  0.58472937  0.24607786  0.05580470  1
  Se  Se140  1  0.57249755  0.24799480  0.54777200  1
  Se  Se141  1  0.58809168  0.58693125  0.06685949  1
  Se  Se142  1  0.58228013  0.58461570  0.56227891  1
  Se  Se143  1  0.57828772  0.91955545  0.05184790  1
  Se  Se144  1  0.58849574  0.91553275  0.54433730  1
  Se  Se145  1  0.92106351  0.24995959  0.06498497  1
  Se  Se146  1  0.91806528  0.25059208  0.55252450  1
  Se  Se147  1  0.91487091  0.58367977  0.04711360  1
  Se  Se148  1  0.92398266  0.58293632  0.55461779  1
  Se  Se149  1  0.91209673  0.93027449  0.05941348  1
  Se  Se150  1  0.92614912  0.92483177  0.55717544  1
  Se  Se151  1  0.07915415  0.24732288  0.45160508  1
  Se  Se152  1  0.08488462  0.24762249  0.95382563  1
  Se  Se153  1  0.08065901  0.57884659  0.43797834  1
  Se  Se154  1  0.08703537  0.58241827  0.94529860  1
  Se  Se155  1  0.07321509  0.93461139  0.44205548  1
  Se  Se156  1  0.07884549  0.93045155  0.95707771  1
  Se  Se157  1  0.41660516  0.24498970  0.43819582  1
  Se  Se158  1  0.42142561  0.24498317  0.94915110  1
  Se  Se159  1  0.41099681  0.58930808  0.44006121  1
  Se  Se160  1  0.41212336  0.58666278  0.94345158  1
  Se  Se161  1  0.41898574  0.91528045  0.44426769  1
  Se  Se162  1  0.41926112  0.91675790  0.95180170  1
  Se  Se163  1  0.74346017  0.24120304  0.44296645  1
  Se  Se164  1  0.75253767  0.24670640  0.94879598  1
  Se  Se165  1  0.74241536  0.59152073  0.43976319  1
  Se  Se166  1  0.74798751  0.57967035  0.95113879  1
  Se  Se167  1  0.74971376  0.92783635  0.42936730  1
  Se  Se168  1  0.73871844  0.92619253  0.93873146  1
  Se  Se169  1  0.24999962  0.08049750  0.44162424  1
  Se  Se170  1  0.25273015  0.08488771  0.95151661  1
  Se  Se171  1  0.25175209  0.40593187  0.43472095  1
  Se  Se172  1  0.25352414  0.41392494  0.94943672  1
  Se  Se173  1  0.25855174  0.74348322  0.43676981  1
  Se  Se174  1  0.24903916  0.75554156  0.94840751  1
  Se  Se175  1  0.57873027  0.08388329  0.43720077  1
  Se  Se176  1  0.58343518  0.08763840  0.94712940  1
  Se  Se177  1  0.59625965  0.40792331  0.44532727  1
  Se  Se178  1  0.58802776  0.40742669  0.94442374  1
  Se  Se179  1  0.57994672  0.75315714  0.44750328  1
  Se  Se180  1  0.57987708  0.75208022  0.95181696  1
  Se  Se181  1  0.89516742  0.07626784  0.43703608  1
  Se  Se182  1  0.90070733  0.09157166  0.95333211  1
  Se  Se183  1  0.92390947  0.39649298  0.44291499  1
  Se  Se184  1  0.91513833  0.41325679  0.94821263  1
  Se  Se185  1  0.92269525  0.74736917  0.44410882  1
  Se  Se186  1  0.92392314  0.74770520  0.93513511  1
  Se  Se187  1  0.24472281  0.23792887  0.30463519  1
  Se  Se188  1  0.24861462  0.24949723  0.81252351  1
  Se  Se189  1  0.25303549  0.58530797  0.29420189  1
  Se  Se190  1  0.25128544  0.58935508  0.80296070  1
  Se  Se191  1  0.24468398  0.91790727  0.30168841  1
  Se  Se192  1  0.25814558  0.92602401  0.81151151  1
  Se  Se193  1  0.60162618  0.26292287  0.29406395  1
  Se  Se194  1  0.58688984  0.24825687  0.80002314  1
  Se  Se195  1  0.58424601  0.59016922  0.30255163  1
  Se  Se196  1  0.58695388  0.58778747  0.81000147  1
  Se  Se197  1  0.57661240  0.90947200  0.30530740  1
  Se  Se198  1  0.57971890  0.91631470  0.81144885  1
  Se  Se199  1  0.91356085  0.24091969  0.30985937  1
  Se  Se200  1  0.91507872  0.23910014  0.81418692  1
  Se  Se201  1  0.91961183  0.58627630  0.30712413  1
  Se  Se202  1  0.90803942  0.57208342  0.81228016  1
  Se  Se203  1  0.91427611  0.91939885  0.29295356  1
  Se  Se204  1  0.92034614  0.92279088  0.80155356  1
  Se  Se205  1  0.06740482  0.08452026  0.30360227  1
  Se  Se206  1  0.08691183  0.08295189  0.81320704  1
  Se  Se207  1  0.09202494  0.41911125  0.30061708  1
  Se  Se208  1  0.08777458  0.41797193  0.80665025  1
  Se  Se209  1  0.08677728  0.76442416  0.31182147  1
  Se  Se210  1  0.09316164  0.76603796  0.81463120  1
  Se  Se211  1  0.40561435  0.06988430  0.29455642  1
  Se  Se212  1  0.41887858  0.08337507  0.80436226  1
  Se  Se213  1  0.43241533  0.42220793  0.31531368  1
  Se  Se214  1  0.42518015  0.42439234  0.81484374  1
  Se  Se215  1  0.40900422  0.74663018  0.30116018  1
  Se  Se216  1  0.41623861  0.75439631  0.80813794  1
  Se  Se217  1  0.71333730  0.06399790  0.29224430  1
  Se  Se218  1  0.75433271  0.08634295  0.80812043  1
  Se  Se219  1  0.75759511  0.42378887  0.30650903  1
  Se  Se220  1  0.74206984  0.40701335  0.80686300  1
  Se  Se221  1  0.74568207  0.75019239  0.29868756  1
  Se  Se222  1  0.74945568  0.74998815  0.80339993  1
  Se  Se223  1  0.26904543  0.06998211  0.20181373  1
  Se  Se224  1  0.25990977  0.08235776  0.70272282  1
  Se  Se225  1  0.24936895  0.41250222  0.18648501  1
  Se  Se226  1  0.23878562  0.42767761  0.69020906  1
  Se  Se227  1  0.25050068  0.74902348  0.19366333  1
  Se  Se228  1  0.25743576  0.75537598  0.70373816  1
  Se  Se229  1  0.59969641  0.06638767  0.20013882  1
  Se  Se230  1  0.57856595  0.08990309  0.68252772  1
  Se  Se231  1  0.58789496  0.42139488  0.19952303  1
  Se  Se232  1  0.57734777  0.41742650  0.69867170  1
  Se  Se233  1  0.58253184  0.74742381  0.19658694  1
  Se  Se234  1  0.58426430  0.75370448  0.69930289  1
  Se  Se235  1  0.91343321  0.09021310  0.20266764  1
  Se  Se236  1  0.92250753  0.08376308  0.69671001  1
  Se  Se237  1  0.90934814  0.42378198  0.18841269  1
  Se  Se238  1  0.90127892  0.42346709  0.69175967  1
  Se  Se239  1  0.91382923  0.76454370  0.18050344  1
  Se  Se240  1  0.91407095  0.75767620  0.68824974  1
  Se  Se241  1  0.09751879  0.23611335  0.19238196  1
  Se  Se242  1  0.09253558  0.23728101  0.69432932  1
  Se  Se243  1  0.08904836  0.57928389  0.18268858  1
  Se  Se244  1  0.08365000  0.58959466  0.69336834  1
  Se  Se245  1  0.08334691  0.92334107  0.19512708  1
  Se  Se246  1  0.08587465  0.92071919  0.70261393  1
  Se  Se247  1  0.42829146  0.24039975  0.19476556  1
  Se  Se248  1  0.41858451  0.24251688  0.68891841  1
  Se  Se249  1  0.41183997  0.58250636  0.19799635  1
  Se  Se250  1  0.41550362  0.58823162  0.70407019  1
  Se  Se251  1  0.41839664  0.91668157  0.19334463  1
  Se  Se252  1  0.42304672  0.92456260  0.69501227  1
  Se  Se253  1  0.73255358  0.25818420  0.20303142  1
  Se  Se254  1  0.74591689  0.24399223  0.69554438  1
  Se  Se255  1  0.75125026  0.59064459  0.19772539  1
  Se  Se256  1  0.74270850  0.58926750  0.70344018  1
  Se  Se257  1  0.74585438  0.91663593  0.19201688  1
  Se  Se258  1  0.75982491  0.90736368  0.68811630  1
