# generated using pymatgen
data_In86Cu29Se144
_symmetry_space_group_name_H-M   'P 1'
_cell_length_a   17.71106783
_cell_length_b   17.70137416
_cell_length_c   23.55191054
_cell_angle_alpha   90.01029186
_cell_angle_beta   89.99507742
_cell_angle_gamma   90.02969877
_symmetry_Int_Tables_number   1
_chemical_formula_structural   In86Cu29Se144
_chemical_formula_sum   'In86 Cu29 Se144'
_cell_volume   7383.76395361
_cell_formula_units_Z   1
loop_
 _symmetry_equiv_pos_site_id
 _symmetry_equiv_pos_as_xyz
  1  'x, y, z'
loop_
 _atom_site_type_symbol
 _atom_site_label
 _atom_site_symmetry_multiplicity
 _atom_site_fract_x
 _atom_site_fract_y
 _atom_site_fract_z
 _atom_site_occupancy
  In  In0  1  -0.00185247  0.16659803  0.11614526  1
  In  In1  1  -0.01329477  0.16502102  0.62618924  1
  In  In2  1  0.00713414  0.50994585  0.12477350  1
  In  In3  1  0.01640205  0.51454138  0.60505603  1
  In  In4  1  0.00878517  0.81898773  0.12899401  1
  In  In5  1  0.01103926  0.83359301  0.60864082  1
  In  In6  1  0.33073795  0.16798886  0.11918298  1
  In  In7  1  0.33412250  0.14659951  0.62909008  1
  In  In8  1  0.32829510  0.51667161  0.12744601  1
  In  In9  1  0.38562839  0.55982337  0.56430626  1
  In  In10  1  0.32112581  0.82834315  0.12368276  1
  In  In11  1  0.33936845  0.83550012  0.62560760  1
  In  In12  1  0.66844370  0.15252703  0.12665750  1
  In  In13  1  0.65345832  0.15215300  0.61938169  1
  In  In14  1  0.68233510  0.50907138  0.13153127  1
  In  In15  1  0.67473555  0.50366499  0.61707485  1
  In  In16  1  0.66587427  0.83296211  0.13683266  1
  In  In17  1  0.66370698  0.82922394  0.62926125  1
  In  In18  1  0.16006301  -0.02067850  0.37658597  1
  In  In19  1  0.16605511  -0.00243518  0.87291542  1
  In  In20  1  0.17438012  0.35212320  0.37779056  1
  In  In21  1  0.16314851  0.33749105  0.88267519  1
  In  In22  1  0.16579673  0.67250846  0.36473247  1
  In  In23  1  0.17445050  0.65977136  0.87905017  1
  In  In24  1  0.50700106  -0.01533614  0.39611431  1
  In  In25  1  0.48649182  -0.02425914  0.84818958  1
  In  In26  1  0.48356419  0.33760933  0.39719940  1
  In  In27  1  0.49943330  0.33488882  0.87068098  1
  In  In28  1  0.49544936  0.66562273  0.37753470  1
  In  In29  1  0.50579614  0.68175879  0.85041123  1
  In  In30  1  0.82783932  -0.00123464  0.38176290  1
  In  In31  1  0.84102439  -0.00044296  0.86717050  1
  In  In32  1  0.82925371  0.33864274  0.37923661  1
  In  In33  1  0.83349600  0.33174687  0.88227559  1
  In  In34  1  0.82225630  0.68001745  0.37547915  1
  In  In35  1  0.82855998  0.66335936  0.87741275  1
  In  In36  1  -0.00501428  0.15289095  0.37419700  1
  In  In37  1  0.00582317  0.15827028  0.87993550  1
  In  In38  1  -0.04008748  0.55455965  0.42835238  1
  In  In39  1  0.00251703  0.49706793  0.88064356  1
  In  In40  1  0.01649056  0.80153021  0.40593244  1
  In  In41  1  0.00626971  0.84331262  0.87078540  1
  In  In42  1  0.33883757  0.17584808  0.38438840  1
  In  In43  1  0.33115374  0.15055846  0.87384319  1
  In  In44  1  0.27359708  0.53686261  0.43059810  1
  In  In45  1  0.32391865  0.50673577  0.87355860  1
  In  In46  1  0.33880460  0.82719134  0.38953614  1
  In  In47  1  0.32460156  0.82404534  0.86596236  1
  In  In48  1  0.66907969  0.16059977  0.38012302  1
  In  In49  1  0.67733468  0.15842276  0.87735622  1
  In  In50  1  0.64745047  0.50712424  0.38580547  1
  In  In51  1  0.66722385  0.51291572  0.86920503  1
  In  In52  1  0.66251527  0.83480280  0.37939843  1
  In  In53  1  0.66820292  0.83284446  0.86442275  1
  In  In54  1  0.16113623  -0.00723596  0.11389837  1
  In  In55  1  0.17890745  -0.01386309  0.63753973  1
  In  In56  1  0.16438246  0.33486881  0.11813137  1
  In  In57  1  0.16849920  0.34051329  0.62775935  1
  In  In58  1  0.17189365  0.66303666  0.12243322  1
  In  In59  1  0.20130166  0.72214118  0.56613014  1
  In  In60  1  0.50458170  0.00572927  0.13158008  1
  In  In61  1  0.49750220  -0.00934443  0.63152943  1
  In  In62  1  0.49592407  0.33180667  0.12934360  1
  In  In63  1  0.48514208  0.34272377  0.60386412  1
  In  In64  1  0.49607254  0.67274947  0.13840965  1
  In  In65  1  0.50959661  0.67861634  0.63109218  1
  In  In66  1  0.82638459  -0.00376111  0.12206170  1
  In  In67  1  0.83348966  -0.00172097  0.62706260  1
  In  In68  1  0.84046316  0.34301640  0.12143143  1
  In  In69  1  0.83817513  0.33681262  0.61700160  1
  In  In70  1  0.84179548  0.66690810  0.13264858  1
  In  In71  1  0.83021311  0.65782006  0.61331275  1
  In  In72  1  0.66797875  0.33523117  0.74076396  1
  In  In73  1  0.15986598  0.16084054  0.50115620  1
  In  In74  1  0.66774815  0.33193293  0.25456370  1
  In  In75  1  0.00011676  0.66593856  0.73931324  1
  In  In76  1  0.83794252  0.82999565  0.00190331  1
  In  In77  1  -0.00155565  -0.01270325  0.24604446  1
  In  In78  1  0.49601137  0.50279295  -0.00111734  1
  In  In79  1  0.00471987  0.34063346  0.24826661  1
  In  In80  1  0.33682445  0.33974823  0.25425618  1
  In  In81  1  0.50444279  0.16200931  -0.00331349  1
  In  In82  1  0.33139950  0.33770888  0.74640189  1
  In  In83  1  0.33694494  -0.00784650  0.25901398  1
  In  In84  1  0.49800920  0.83515620  -0.01172230  1
  In  In85  1  -0.00040398  0.33694524  0.75479026  1
  Cu  Cu86  1  0.66951016  0.33398903  0.49894951  1
  Cu  Cu87  1  0.16651370  0.82486529  0.73871510  1
  Cu  Cu88  1  0.16094058  0.16206186  0.75624614  1
  Cu  Cu89  1  0.50800203  0.16096444  0.25812950  1
  Cu  Cu90  1  0.67017598  -0.00330211  0.50891571  1
  Cu  Cu91  1  0.82924793  0.16013700  0.74777230  1
  Cu  Cu92  1  0.50172667  0.16532206  0.74412004  1
  Cu  Cu93  1  0.83096998  0.82839152  0.74538846  1
  Cu  Cu94  1  0.67225972  0.33563726  0.00271286  1
  Cu  Cu95  1  0.66147143  0.67205821  0.49921850  1
  Cu  Cu96  1  0.33344725  0.66524973  -0.00435098  1
  Cu  Cu97  1  0.49900727  0.83257159  0.26328677  1
  Cu  Cu98  1  0.00140877  0.00144714  -0.00698358  1
  Cu  Cu99  1  0.83951915  0.49804855  0.74130247  1
  Cu  Cu100  1  0.66601201  -0.00049137  -0.00039017  1
  Cu  Cu101  1  0.83493351  0.51888046  0.26124345  1
  Cu  Cu102  1  0.17386314  0.16107800  0.24748252  1
  Cu  Cu103  1  0.50018002  0.50111235  0.25856427  1
  Cu  Cu104  1  0.00206571  0.32627145  0.50154445  1
  Cu  Cu105  1  0.17670088  0.51459169  0.74571716  1
  Cu  Cu106  1  0.83138875  0.84057989  0.25529983  1
  Cu  Cu107  1  0.49712409  0.50922883  0.73559139  1
  Cu  Cu108  1  0.16578913  0.51197723  0.25500273  1
  Cu  Cu109  1  0.66968119  0.65898929  -0.00089857  1
  Cu  Cu110  1  -0.00707335  0.00244944  0.50309151  1
  Cu  Cu111  1  0.00403546  0.66178912  0.00480378  1
  Cu  Cu112  1  0.32514784  0.33272637  -0.00128915  1
  Cu  Cu113  1  -0.00651583  0.33589524  0.00163399  1
  Cu  Cu114  1  0.82969141  0.16242794  0.25468795  1
  Se  Se115  1  0.08187974  0.08375705  0.05084736  1
  Se  Se116  1  0.07704077  0.07362170  0.56669051  1
  Se  Se117  1  0.07750697  0.41795256  0.05575675  1
  Se  Se118  1  0.08890755  0.40867373  0.55057832  1
  Se  Se119  1  0.08765013  0.74695597  0.05429166  1
  Se  Se120  1  0.05827265  0.72726478  0.54222293  1
  Se  Se121  1  0.41424716  0.07283757  0.05671361  1
  Se  Se122  1  0.42906563  0.08449243  0.56237420  1
  Se  Se123  1  0.40714031  0.40984241  0.06006094  1
  Se  Se124  1  0.37919911  0.40918924  0.54895525  1
  Se  Se125  1  0.41855956  0.74201521  0.05453600  1
  Se  Se126  1  0.41546663  0.74250234  0.55964229  1
  Se  Se127  1  0.75016542  0.08193839  0.05171041  1
  Se  Se128  1  0.75396253  0.08417448  0.55723906  1
  Se  Se129  1  0.74817560  0.42156817  0.05824137  1
  Se  Se130  1  0.75499604  0.41811879  0.54979609  1
  Se  Se131  1  0.74152692  0.74527592  0.06071599  1
  Se  Se132  1  0.74519362  0.74995978  0.55586780  1
  Se  Se133  1  0.24590338  0.24802618  0.05276128  1
  Se  Se134  1  0.24875013  0.24103181  0.56710478  1
  Se  Se135  1  0.25087647  0.58099753  0.04846115  1
  Se  Se136  1  0.24018234  0.58041502  0.54025088  1
  Se  Se137  1  0.26238371  0.92373820  0.05550025  1
  Se  Se138  1  0.24582439  0.91162868  0.55888007  1
  Se  Se139  1  0.58991354  0.25606864  0.06124474  1
  Se  Se140  1  0.58917865  0.25789280  0.55902734  1
  Se  Se141  1  0.58544273  0.58947407  0.06297272  1
  Se  Se142  1  0.58493093  0.58928771  0.55831618  1
  Se  Se143  1  0.58723636  0.91784785  0.05889323  1
  Se  Se144  1  0.58438542  0.91425343  0.56013850  1
  Se  Se145  1  0.91131742  0.25124029  0.05389019  1
  Se  Se146  1  0.91604535  0.24627505  0.55175359  1
  Se  Se147  1  0.91519714  0.58628190  0.05851644  1
  Se  Se148  1  0.91074933  0.57352294  0.54268121  1
  Se  Se149  1  0.92957749  0.92050450  0.06038676  1
  Se  Se150  1  0.91229552  0.91667990  0.55486779  1
  Se  Se151  1  0.07979953  0.25231159  0.43380289  1
  Se  Se152  1  0.07552157  0.25485143  0.94523528  1
  Se  Se153  1  0.10729539  0.56293156  0.43164906  1
  Se  Se154  1  0.08491400  0.58243690  0.94539088  1
  Se  Se155  1  0.08037766  0.91708493  0.45565769  1
  Se  Se156  1  0.08515682  0.91482279  0.94534081  1
  Se  Se157  1  0.43527915  0.22476736  0.45669204  1
  Se  Se158  1  0.41105757  0.25703201  0.94019192  1
  Se  Se159  1  0.41808288  0.58050094  0.44951624  1
  Se  Se160  1  0.42086658  0.59677374  0.93250061  1
  Se  Se161  1  0.39478518  0.93276680  0.45194445  1
  Se  Se162  1  0.40547564  0.92414119  0.93394297  1
  Se  Se163  1  0.75006779  0.25119072  0.44430773  1
  Se  Se164  1  0.74696884  0.24904882  0.94688744  1
  Se  Se165  1  0.74219284  0.58893713  0.44309069  1
  Se  Se166  1  0.75155859  0.57659822  0.94623456  1
  Se  Se167  1  0.74641844  0.91484521  0.44907204  1
  Se  Se168  1  0.74660592  0.91677688  0.94129915  1
  Se  Se169  1  0.24579992  0.07700773  0.43535244  1
  Se  Se170  1  0.23682078  0.09076561  0.94114648  1
  Se  Se171  1  0.28155287  0.38746441  0.44647557  1
  Se  Se172  1  0.25063621  0.42222707  0.94517428  1
  Se  Se173  1  0.23699669  0.75031503  0.44551176  1
  Se  Se174  1  0.25096685  0.75119966  0.94478840  1
  Se  Se175  1  0.59033863  0.08046186  0.45228596  1
  Se  Se176  1  0.58287768  0.06757662  0.93424585  1
  Se  Se177  1  0.57780859  0.41867365  0.45654384  1
  Se  Se178  1  0.59062399  0.41144958  0.94078163  1
  Se  Se179  1  0.57627880  0.75178741  0.44535477  1
  Se  Se180  1  0.59262236  0.73881413  0.93701031  1
  Se  Se181  1  0.91252742  0.08501905  0.44824788  1
  Se  Se182  1  0.91176149  0.08027044  0.94334523  1
  Se  Se183  1  0.93265527  0.40748184  0.43695720  1
  Se  Se184  1  0.91358971  0.41978582  0.94671412  1
  Se  Se185  1  0.89076444  0.76493390  0.45075460  1
  Se  Se186  1  0.92859865  0.74215244  0.94036707  1
  Se  Se187  1  0.24465941  0.24457021  0.30932949  1
  Se  Se188  1  0.24186736  0.24984025  0.81018412  1
  Se  Se189  1  0.25598673  0.56977369  0.32029049  1
  Se  Se190  1  0.25824861  0.59532158  0.80105257  1
  Se  Se191  1  0.24450851  0.89793749  0.30859436  1
  Se  Se192  1  0.23869385  0.90885146  0.80166719  1
  Se  Se193  1  0.57557337  0.25158385  0.31731600  1
  Se  Se194  1  0.58149963  0.24457435  0.80593569  1
  Se  Se195  1  0.58291712  0.58718294  0.30723368  1
  Se  Se196  1  0.58434378  0.58109128  0.79491631  1
  Se  Se197  1  0.57854778  0.92170993  0.31227080  1
  Se  Se198  1  0.60035064  0.92298362  0.79639296  1
  Se  Se199  1  0.91354534  0.24585247  0.30674891  1
  Se  Se200  1  0.90743542  0.24287747  0.80834078  1
  Se  Se201  1  0.91803831  0.58839872  0.32352123  1
  Se  Se202  1  0.91552753  0.57551611  0.80641501  1
  Se  Se203  1  0.91555272  0.91100740  0.31679952  1
  Se  Se204  1  0.91504769  0.90837518  0.80055972  1
  Se  Se205  1  0.09163989  0.08187488  0.30479074  1
  Se  Se206  1  0.07635990  0.07747941  0.80508645  1
  Se  Se207  1  0.08501731  0.42956829  0.31158713  1
  Se  Se208  1  0.09791854  0.43138805  0.80497755  1
  Se  Se209  1  0.06787703  0.75432184  0.31071305  1
  Se  Se210  1  0.08900056  0.74957402  0.80597182  1
  Se  Se211  1  0.42208384  0.08699588  0.31615142  1
  Se  Se212  1  0.41572897  0.08677000  0.79855237  1
  Se  Se213  1  0.42168213  0.42258018  0.31792735  1
  Se  Se214  1  0.42637648  0.43155395  0.80473702  1
  Se  Se215  1  0.41119657  0.75151336  0.31159967  1
  Se  Se216  1  0.41688235  0.76423911  0.79266210  1
  Se  Se217  1  0.74952614  0.08069160  0.30863309  1
  Se  Se218  1  0.74871801  0.07822712  0.80295041  1
  Se  Se219  1  0.75097079  0.43086088  0.31147063  1
  Se  Se220  1  0.75941656  0.42088472  0.80445337  1
  Se  Se221  1  0.74231399  0.75879565  0.30347029  1
  Se  Se222  1  0.75660867  0.74490547  0.80478913  1
  Se  Se223  1  0.25145421  0.08008903  0.18964912  1
  Se  Se224  1  0.24799616  0.08169131  0.70431213  1
  Se  Se225  1  0.23957383  0.42440251  0.19316847  1
  Se  Se226  1  0.25374640  0.43269399  0.68614378  1
  Se  Se227  1  0.26718442  0.72906748  0.19067728  1
  Se  Se228  1  0.23697868  0.74535700  0.67397315  1
  Se  Se229  1  0.58913788  0.08079915  0.20221263  1
  Se  Se230  1  0.58459340  0.07772835  0.69773349  1
  Se  Se231  1  0.57731964  0.42471601  0.19333156  1
  Se  Se232  1  0.57282228  0.41931167  0.68161487  1
  Se  Se233  1  0.58191846  0.75274192  0.20412369  1
  Se  Se234  1  0.59640991  0.74388232  0.70423480  1
  Se  Se235  1  0.91171602  0.08873680  0.19099512  1
  Se  Se236  1  0.91747172  0.07927010  0.69835523  1
  Se  Se237  1  0.90688734  0.43439442  0.19734654  1
  Se  Se238  1  0.92594399  0.42597041  0.68307432  1
  Se  Se239  1  0.91436543  0.75853181  0.19952771  1
  Se  Se240  1  0.90970555  0.75413889  0.68112545  1
  Se  Se241  1  0.09086282  0.24069023  0.19089748  1
  Se  Se242  1  0.08720449  0.24471908  0.69454580  1
  Se  Se243  1  0.08453741  0.58985751  0.19609526  1
  Se  Se244  1  0.09584602  0.58536354  0.68177821  1
  Se  Se245  1  0.10015944  0.90449836  0.19334748  1
  Se  Se246  1  0.07676823  0.90706668  0.69134621  1
  Se  Se247  1  0.42318520  0.23588633  0.19726294  1
  Se  Se248  1  0.42494890  0.25102219  0.68742429  1
  Se  Se249  1  0.41741426  0.57944432  0.20014648  1
  Se  Se250  1  0.41374872  0.57878220  0.67470675  1
  Se  Se251  1  0.42586030  0.90622490  0.19236255  1
  Se  Se252  1  0.41604359  0.91005176  0.70130788  1
  Se  Se253  1  0.75769791  0.24592399  0.19098456  1
  Se  Se254  1  0.75761552  0.24303585  0.68481467  1
  Se  Se255  1  0.75115693  0.59539799  0.20322030  1
  Se  Se256  1  0.75550915  0.58039708  0.69017719  1
  Se  Se257  1  0.75083402  0.92199191  0.19762496  1
  Se  Se258  1  0.75070817  0.91517171  0.69439007  1
