# generated using pymatgen
data_In86Cu29Se144
_symmetry_space_group_name_H-M   'P 1'
_cell_length_a   17.58152818
_cell_length_b   17.58182031
_cell_length_c   23.44350173
_cell_angle_alpha   89.99926310
_cell_angle_beta   90.00922979
_cell_angle_gamma   90.00362178
_symmetry_Int_Tables_number   1
_chemical_formula_structural   In86Cu29Se144
_chemical_formula_sum   'In86 Cu29 Se144'
_cell_volume   7246.74424276
_cell_formula_units_Z   1
loop_
 _symmetry_equiv_pos_site_id
 _symmetry_equiv_pos_as_xyz
  1  'x, y, z'
loop_
 _atom_site_type_symbol
 _atom_site_label
 _atom_site_symmetry_multiplicity
 _atom_site_fract_x
 _atom_site_fract_y
 _atom_site_fract_z
 _atom_site_occupancy
  In  In0  1  -0.00219519  0.18425474  0.13153986  1
  In  In1  1  0.01689179  0.16836283  0.62261247  1
  In  In2  1  0.00548219  0.49018004  0.13665133  1
  In  In3  1  -0.01244099  0.50575387  0.62262993  1
  In  In4  1  -0.01862847  0.83189376  0.12356210  1
  In  In5  1  -0.00606519  0.82432759  0.61286121  1
  In  In6  1  0.34997251  0.17183780  0.11550367  1
  In  In7  1  0.32349274  0.17725877  0.63810434  1
  In  In8  1  0.33284239  0.49916359  0.12249390  1
  In  In9  1  0.33783984  0.49615162  0.63354377  1
  In  In10  1  0.33744978  0.81756572  0.12293381  1
  In  In11  1  0.33105575  0.83912313  0.63060171  1
  In  In12  1  0.65142155  0.18706141  0.14187768  1
  In  In13  1  0.65233421  0.16265303  0.62961029  1
  In  In14  1  0.66279425  0.50518460  0.13134717  1
  In  In15  1  0.67907543  0.50536365  0.62110878  1
  In  In16  1  0.66441203  0.82823944  0.12477085  1
  In  In17  1  0.66703981  0.83319114  0.63126116  1
  In  In18  1  0.16492958  0.00043155  0.38554423  1
  In  In19  1  0.17472979  -0.01236875  0.87077881  1
  In  In20  1  0.16830026  0.33407508  0.37383778  1
  In  In21  1  0.17074191  0.33457078  0.87491990  1
  In  In22  1  0.17217409  0.67086859  0.37243416  1
  In  In23  1  0.16896482  0.65013581  0.87687436  1
  In  In24  1  0.51050098  -0.00364803  0.37347144  1
  In  In25  1  0.50078745  -0.00188817  0.87552341  1
  In  In26  1  0.50465298  0.33854546  0.36827169  1
  In  In27  1  0.49497959  0.34600955  0.88943539  1
  In  In28  1  0.50415922  0.66825803  0.36550452  1
  In  In29  1  0.50098145  0.66390863  0.87631854  1
  In  In30  1  0.81633736  0.00206898  0.37330573  1
  In  In31  1  0.81835344  -0.00018429  0.87557836  1
  In  In32  1  0.85074108  0.34866901  0.35004856  1
  In  In33  1  0.83050777  0.32879595  0.87460368  1
  In  In34  1  0.83213322  0.66396917  0.37160041  1
  In  In35  1  0.83429055  0.67926312  0.88035293  1
  In  In36  1  0.00628132  0.18065982  0.37382416  1
  In  In37  1  -0.00728213  0.18151905  0.87370469  1
  In  In38  1  -0.01350902  0.49558031  0.36234656  1
  In  In39  1  0.01352783  0.49636359  0.88369176  1
  In  In40  1  0.00642112  0.82201528  0.38028169  1
  In  In41  1  -0.00376508  0.82194051  0.88038871  1
  In  In42  1  0.32211764  0.17401200  0.38097658  1
  In  In43  1  0.35283516  0.17931921  0.86017130  1
  In  In44  1  0.33429345  0.49864728  0.36818723  1
  In  In45  1  0.33469858  0.49663427  0.87577488  1
  In  In46  1  0.33551581  0.82304837  0.37530065  1
  In  In47  1  0.34577975  0.84433021  0.86426848  1
  In  In48  1  0.68595944  0.17732001  0.35251885  1
  In  In49  1  0.66922132  0.15647679  0.87449629  1
  In  In50  1  0.69758579  0.52211203  0.34449454  1
  In  In51  1  0.64945996  0.49648390  0.88128105  1
  In  In52  1  0.67089849  0.83592025  0.37214216  1
  In  In53  1  0.66499250  0.82819454  0.87719483  1
  In  In54  1  0.16666239  0.00615200  0.12289850  1
  In  In55  1  0.17151106  0.00810888  0.61660246  1
  In  In56  1  0.15158479  0.35503350  0.13224815  1
  In  In57  1  0.17667556  0.32214286  0.62919558  1
  In  In58  1  0.18154000  0.65352432  0.13354922  1
  In  In59  1  0.16507251  0.67425157  0.62226808  1
  In  In60  1  0.51446940  0.00977731  0.11132025  1
  In  In61  1  0.50280237  0.00899251  0.64408942  1
  In  In62  1  0.49786566  0.33159584  0.12073222  1
  In  In63  1  0.48872654  0.32602309  0.62924386  1
  In  In64  1  0.49965328  0.66320833  0.12205044  1
  In  In65  1  0.50271426  0.66388977  0.63496465  1
  In  In66  1  0.82473042  -0.01498279  0.12288723  1
  In  In67  1  0.83001467  -0.01420141  0.62394458  1
  In  In68  1  0.82874677  0.34291380  0.14359970  1
  In  In69  1  0.83309305  0.35205007  0.62271440  1
  In  In70  1  0.81862020  0.66861989  0.14211590  1
  In  In71  1  0.82102495  0.66627129  0.61436852  1
  In  In72  1  0.50606252  0.50054859  0.50559273  1
  In  In73  1  0.00175983  0.66342934  0.74867956  1
  In  In74  1  0.49878988  0.16336187  0.50258262  1
  In  In75  1  0.82195209  0.17290586  0.01203463  1
  In  In76  1  0.00170170  0.00160817  0.74361274  1
  In  In77  1  0.50280737  0.83423386  0.49687902  1
  In  In78  1  0.16815361  0.82815273  -0.00298021  1
  In  In79  1  -0.00296520  -0.00066324  0.24959192  1
  In  In80  1  0.83764106  0.16806652  0.49254865  1
  In  In81  1  0.17093906  0.17054470  -0.00849320  1
  In  In82  1  0.16372539  0.49789520  0.49367885  1
  In  In83  1  0.34152218  -0.00103263  0.24908706  1
  In  In84  1  0.65923962  0.33436749  0.75221487  1
  In  In85  1  0.83095196  0.50048301  0.01585223  1
  Cu  Cu86  1  -0.00057541  0.66560505  0.00600001  1
  Cu  Cu87  1  0.16558628  0.82888589  0.25077769  1
  Cu  Cu88  1  0.49732484  0.50029555  0.75657355  1
  Cu  Cu89  1  0.17159758  0.48983323  0.75520367  1
  Cu  Cu90  1  0.17148289  0.83061610  0.74285761  1
  Cu  Cu91  1  0.66893869  0.34167387  0.49274046  1
  Cu  Cu92  1  0.49560054  0.49847382  0.24380975  1
  Cu  Cu93  1  0.34151305  -0.00469428  -0.00668920  1
  Cu  Cu94  1  0.17052094  0.50328531  0.25321384  1
  Cu  Cu95  1  0.32672189  0.00091965  0.50810880  1
  Cu  Cu96  1  0.17258615  0.17645882  0.24947756  1
  Cu  Cu97  1  0.83583407  0.50662814  0.74745911  1
  Cu  Cu98  1  0.50540932  0.82959598  0.75594108  1
  Cu  Cu99  1  0.82541604  0.83480497  0.75161829  1
  Cu  Cu100  1  0.00057927  -0.00610533  0.50037561  1
  Cu  Cu101  1  0.32861164  0.33598131  -0.00022944  1
  Cu  Cu102  1  -0.00971387  0.66465101  0.49650353  1
  Cu  Cu103  1  0.33900430  0.66201911  -0.00153055  1
  Cu  Cu104  1  0.66723403  0.66554552  0.00549027  1
  Cu  Cu105  1  0.66521835  -0.01006433  -0.00242072  1
  Cu  Cu106  1  0.83411419  0.17174149  0.75074821  1
  Cu  Cu107  1  0.00099579  0.33826074  0.49303659  1
  Cu  Cu108  1  0.49605313  0.16772415  0.24311831  1
  Cu  Cu109  1  0.66380494  0.00140582  0.49778213  1
  Cu  Cu110  1  0.16643609  0.16800367  0.74998748  1
  Cu  Cu111  1  0.50393211  0.82984397  0.24587694  1
  Cu  Cu112  1  0.82932128  0.83009609  0.25105335  1
  Cu  Cu113  1  -0.01028414  0.00722256  0.00322810  1
  Cu  Cu114  1  0.33231352  0.66857976  0.49800421  1
  Se  Se115  1  0.07341831  0.08698720  0.05818442  1
  Se  Se116  1  0.08300726  0.08387245  0.54752662  1
  Se  Se117  1  0.08014354  0.42640400  0.05411739  1
  Se  Se118  1  0.07792293  0.41272247  0.56077096  1
  Se  Se119  1  0.08338475  0.74607557  0.06574926  1
  Se  Se120  1  0.08151573  0.74284850  0.54729510  1
  Se  Se121  1  0.42056781  0.08342235  0.04546172  1
  Se  Se122  1  0.41192454  0.07622539  0.56657893  1
  Se  Se123  1  0.41500320  0.41709955  0.05291229  1
  Se  Se124  1  0.40840309  0.40863252  0.55648911  1
  Se  Se125  1  0.42107685  0.74835443  0.04927025  1
  Se  Se126  1  0.41518163  0.74434781  0.55987658  1
  Se  Se127  1  0.73330575  0.07489309  0.06309002  1
  Se  Se128  1  0.74433476  0.08395406  0.55828603  1
  Se  Se129  1  0.73907859  0.40358688  0.06483263  1
  Se  Se130  1  0.75314121  0.42322634  0.54711795  1
  Se  Se131  1  0.75396235  0.74444895  0.05976670  1
  Se  Se132  1  0.75364847  0.77038147  0.55618200  1
  Se  Se133  1  0.24753951  0.25800070  0.06220825  1
  Se  Se134  1  0.25256780  0.24361119  0.55622255  1
  Se  Se135  1  0.25077551  0.58353972  0.05161989  1
  Se  Se136  1  0.25662810  0.58365229  0.55804346  1
  Se  Se137  1  0.25757620  0.92335924  0.05692846  1
  Se  Se138  1  0.24687823  0.90875235  0.55557283  1
  Se  Se139  1  0.57331179  0.23506423  0.05729935  1
  Se  Se140  1  0.59237342  0.26298379  0.55641326  1
  Se  Se141  1  0.58403007  0.57845945  0.05467294  1
  Se  Se142  1  0.59371107  0.59984402  0.55760399  1
  Se  Se143  1  0.58175502  0.90565278  0.05120255  1
  Se  Se144  1  0.58085821  0.93040334  0.56172655  1
  Se  Se145  1  0.91612331  0.26766940  0.06186940  1
  Se  Se146  1  0.92299793  0.25806973  0.55789237  1
  Se  Se147  1  0.92152056  0.59248023  0.07183898  1
  Se  Se148  1  0.90802976  0.58116872  0.54978119  1
  Se  Se149  1  0.91057117  0.91492070  0.04904031  1
  Se  Se150  1  0.91151035  0.91421529  0.54974827  1
  Se  Se151  1  0.08875564  0.25338630  0.44719555  1
  Se  Se152  1  0.07049223  0.26335612  0.94691988  1
  Se  Se153  1  0.07232686  0.58647447  0.43526279  1
  Se  Se154  1  0.08524791  0.58535619  0.95395938  1
  Se  Se155  1  0.08550117  0.90982275  0.44858272  1
  Se  Se156  1  0.07357139  0.92706968  0.94379761  1
  Se  Se157  1  0.41740020  0.25898729  0.44275830  1
  Se  Se158  1  0.41036991  0.24918414  0.94762797  1
  Se  Se159  1  0.41491842  0.58949343  0.44047027  1
  Se  Se160  1  0.42052603  0.57702665  0.94457975  1
  Se  Se161  1  0.40754900  0.92873629  0.44180511  1
  Se  Se162  1  0.42356717  0.90690889  0.94540915  1
  Se  Se163  1  0.74844386  0.25872258  0.43512599  1
  Se  Se164  1  0.73687567  0.25827011  0.94399834  1
  Se  Se165  1  0.75010106  0.57607140  0.43751090  1
  Se  Se166  1  0.74815858  0.58580124  0.94422642  1
  Se  Se167  1  0.74716659  0.91661791  0.44731339  1
  Se  Se168  1  0.75307487  0.90924067  0.94659871  1
  Se  Se169  1  0.24944545  0.08537531  0.45054106  1
  Se  Se170  1  0.25923299  0.07593399  0.93584577  1
  Se  Se171  1  0.26359550  0.41028740  0.44389851  1
  Se  Se172  1  0.24633341  0.41930532  0.94590846  1
  Se  Se173  1  0.24817920  0.75249615  0.44730448  1
  Se  Se174  1  0.26063891  0.74422971  0.93590086  1
  Se  Se175  1  0.59562560  0.08911233  0.43630779  1
  Se  Se176  1  0.58630255  0.07865716  0.94512803  1
  Se  Se177  1  0.59101592  0.42375434  0.43466241  1
  Se  Se178  1  0.58500507  0.41734978  0.95831307  1
  Se  Se179  1  0.59135537  0.74101700  0.44115658  1
  Se  Se180  1  0.58460207  0.74469242  0.94696352  1
  Se  Se181  1  0.92646840  0.07319743  0.43467039  1
  Se  Se182  1  0.91262042  0.08681767  0.94112959  1
  Se  Se183  1  0.91350499  0.41381332  0.43795788  1
  Se  Se184  1  0.91357477  0.41502863  0.94428118  1
  Se  Se185  1  0.90891757  0.75080912  0.44412534  1
  Se  Se186  1  0.91606872  0.75114544  0.95579354  1
  Se  Se187  1  0.25673629  0.25668065  0.30388353  1
  Se  Se188  1  0.24915005  0.25219253  0.80345806  1
  Se  Se189  1  0.25517970  0.58869011  0.30397195  1
  Se  Se190  1  0.25265570  0.57970713  0.80370001  1
  Se  Se191  1  0.24388355  0.91442431  0.30878569  1
  Se  Se192  1  0.25272919  0.91622424  0.79514706  1
  Se  Se193  1  0.57910798  0.24926675  0.29888001  1
  Se  Se194  1  0.57615995  0.25062294  0.81858914  1
  Se  Se195  1  0.57993007  0.58377325  0.29499899  1
  Se  Se196  1  0.58573731  0.58197578  0.80547978  1
  Se  Se197  1  0.58382682  0.91420256  0.30170955  1
  Se  Se198  1  0.58796821  0.91535353  0.80797023  1
  Se  Se199  1  0.90631949  0.22754859  0.30359600  1
  Se  Se200  1  0.91527275  0.25895883  0.79960133  1
  Se  Se201  1  0.91387674  0.58798864  0.29789607  1
  Se  Se202  1  0.91497426  0.57815012  0.81522547  1
  Se  Se203  1  0.91193572  0.90875701  0.31235607  1
  Se  Se204  1  0.91558996  0.91089294  0.80865757  1
  Se  Se205  1  0.09578144  0.08754919  0.30612289  1
  Se  Se206  1  0.08593934  0.08940390  0.81231996  1
  Se  Se207  1  0.08748636  0.41737702  0.30546787  1
  Se  Se208  1  0.08080003  0.41416192  0.80717305  1
  Se  Se209  1  0.08208856  0.74666181  0.30353554  1
  Se  Se210  1  0.09307130  0.75579281  0.80831856  1
  Se  Se211  1  0.42231363  0.09315286  0.31341958  1
  Se  Se212  1  0.40231141  0.06196392  0.80773358  1
  Se  Se213  1  0.41542846  0.41512042  0.30016269  1
  Se  Se214  1  0.41828439  0.41123963  0.80760381  1
  Se  Se215  1  0.41658683  0.75208784  0.30064970  1
  Se  Se216  1  0.41817391  0.74395640  0.80411375  1
  Se  Se217  1  0.74499108  0.06943193  0.29324993  1
  Se  Se218  1  0.75238093  0.08429704  0.79983541  1
  Se  Se219  1  0.72597350  0.39033431  0.30224451  1
  Se  Se220  1  0.75282163  0.42771504  0.80881744  1
  Se  Se221  1  0.74441191  0.74671581  0.30308910  1
  Se  Se222  1  0.74950672  0.74636275  0.80583222  1
  Se  Se223  1  0.24993392  0.09270978  0.19013681  1
  Se  Se224  1  0.24388862  0.07851497  0.69700952  1
  Se  Se225  1  0.25218737  0.41982341  0.19695109  1
  Se  Se226  1  0.25448622  0.40957134  0.69786868  1
  Se  Se227  1  0.25450344  0.75042275  0.19869762  1
  Se  Se228  1  0.25371003  0.74237492  0.69399174  1
  Se  Se229  1  0.57933264  0.07790675  0.19640758  1
  Se  Se230  1  0.58636958  0.09150218  0.70999616  1
  Se  Se231  1  0.57892694  0.41316464  0.19236050  1
  Se  Se232  1  0.57580279  0.42751252  0.68688569  1
  Se  Se233  1  0.58401009  0.74260754  0.19349935  1
  Se  Se234  1  0.58767563  0.74802468  0.69979982  1
  Se  Se235  1  0.91104137  0.08303018  0.18425138  1
  Se  Se236  1  0.90934127  0.09288405  0.68457663  1
  Se  Se237  1  0.91887529  0.41939585  0.20853936  1
  Se  Se238  1  0.91864328  0.42018994  0.69764828  1
  Se  Se239  1  0.91796441  0.74950105  0.20077123  1
  Se  Se240  1  0.90943687  0.75479889  0.69240044  1
  Se  Se241  1  0.08316340  0.25844458  0.20137169  1
  Se  Se242  1  0.08188499  0.25251318  0.69874359  1
  Se  Se243  1  0.08532011  0.58496705  0.19976918  1
  Se  Se244  1  0.09434031  0.57108399  0.69096949  1
  Se  Se245  1  0.09024470  0.90961523  0.18808016  1
  Se  Se246  1  0.08506899  0.90595813  0.68379293  1
  Se  Se247  1  0.41165605  0.25305985  0.19409983  1
  Se  Se248  1  0.43129389  0.23341267  0.70049083  1
  Se  Se249  1  0.41289137  0.58502870  0.19169588  1
  Se  Se250  1  0.41505844  0.58378053  0.70082563  1
  Se  Se251  1  0.42641719  0.91247390  0.18415380  1
  Se  Se252  1  0.42180422  0.91055145  0.69961665  1
  Se  Se253  1  0.76482724  0.23419239  0.20048482  1
  Se  Se254  1  0.75403966  0.25085807  0.68730301  1
  Se  Se255  1  0.75707713  0.56483708  0.20440318  1
  Se  Se256  1  0.75220043  0.58875154  0.69476013  1
  Se  Se257  1  0.74493569  0.91131646  0.19730254  1
  Se  Se258  1  0.74517737  0.92275519  0.70027217  1
