# generated using pymatgen
data_In86Cu29Se144
_symmetry_space_group_name_H-M   'P 1'
_cell_length_a   17.69033335
_cell_length_b   17.68346616
_cell_length_c   23.54681538
_cell_angle_alpha   90.00538275
_cell_angle_beta   89.95030600
_cell_angle_gamma   90.03584642
_symmetry_Int_Tables_number   1
_chemical_formula_structural   In86Cu29Se144
_chemical_formula_sum   'In86 Cu29 Se144'
_cell_volume   7366.06150500
_cell_formula_units_Z   1
loop_
 _symmetry_equiv_pos_site_id
 _symmetry_equiv_pos_as_xyz
  1  'x, y, z'
loop_
 _atom_site_type_symbol
 _atom_site_label
 _atom_site_symmetry_multiplicity
 _atom_site_fract_x
 _atom_site_fract_y
 _atom_site_fract_z
 _atom_site_occupancy
  In  In0  1  -0.00054330  0.17338824  0.12462464  1
  In  In1  1  -0.00333696  0.16691082  0.62865934  1
  In  In2  1  0.00554336  0.49595477  0.13055816  1
  In  In3  1  -0.02679677  0.48994511  0.61129441  1
  In  In4  1  -0.00114318  0.82065699  0.12449960  1
  In  In5  1  0.00669501  0.84395168  0.62296996  1
  In  In6  1  0.33866747  0.15361970  0.13321003  1
  In  In7  1  0.35026808  0.18076219  0.61297699  1
  In  In8  1  0.33653766  0.49292747  0.13205007  1
  In  In9  1  0.34267998  0.49296290  0.62973387  1
  In  In10  1  0.33597686  0.83578040  0.12548398  1
  In  In11  1  0.33264008  0.82246847  0.62554896  1
  In  In12  1  0.66757681  0.16877065  0.11350680  1
  In  In13  1  0.65831863  0.17837908  0.62852722  1
  In  In14  1  0.65849796  0.50463646  0.12168694  1
  In  In15  1  0.66777345  0.49972001  0.62374222  1
  In  In16  1  0.65139527  0.83940963  0.12154522  1
  In  In17  1  0.66381554  0.85179981  0.62792702  1
  In  In18  1  0.17418175  0.00246114  0.37606454  1
  In  In19  1  0.15527913  -0.00753761  0.87815192  1
  In  In20  1  0.16153896  0.32449303  0.37128067  1
  In  In21  1  0.16470706  0.33173283  0.86649872  1
  In  In22  1  0.17328500  0.67555942  0.36150477  1
  In  In23  1  0.17658371  0.66233909  0.88123087  1
  In  In24  1  0.49555536  0.00521669  0.38027222  1
  In  In25  1  0.50431084  0.00123793  0.87409368  1
  In  In26  1  0.49510048  0.33931927  0.38302709  1
  In  In27  1  0.48245274  0.34086801  0.88378219  1
  In  In28  1  0.48899414  0.67421621  0.38396365  1
  In  In29  1  0.49888096  0.66363730  0.87580049  1
  In  In30  1  0.84111271  0.00859357  0.38136196  1
  In  In31  1  0.84401923  0.02187181  0.85530186  1
  In  In32  1  0.84121109  0.32676447  0.38706648  1
  In  In33  1  0.83699079  0.31976026  0.85834084  1
  In  In34  1  0.83924100  0.65357927  0.38022128  1
  In  In35  1  0.82326139  0.66075569  0.87810954  1
  In  In36  1  -0.01018321  0.17596849  0.38655108  1
  In  In37  1  0.00159241  0.16411269  0.86745182  1
  In  In38  1  0.00255711  0.49697997  0.37453282  1
  In  In39  1  -0.01217534  0.48816483  0.86550436  1
  In  In40  1  0.01471876  0.83086730  0.37065295  1
  In  In41  1  -0.00849150  0.84207211  0.88049315  1
  In  In42  1  0.33410224  0.16495246  0.37613531  1
  In  In43  1  0.33693827  0.17891799  0.87261062  1
  In  In44  1  0.34178639  0.50690712  0.37058242  1
  In  In45  1  0.33113615  0.51034780  0.87018487  1
  In  In46  1  0.34269799  0.84856059  0.35251298  1
  In  In47  1  0.34417477  0.82307145  0.88393414  1
  In  In48  1  0.66209356  0.17388369  0.38822801  1
  In  In49  1  0.66677189  0.17252704  0.86750536  1
  In  In50  1  0.66914041  0.49983165  0.38733777  1
  In  In51  1  0.65037675  0.39434270  0.83387708  1
  In  In52  1  0.65826187  0.82965291  0.37744550  1
  In  In53  1  0.65352658  0.83748362  0.87578752  1
  In  In54  1  0.18310043  0.00282289  0.12258640  1
  In  In55  1  0.15313575  0.00718009  0.63046478  1
  In  In56  1  0.16112123  0.33538901  0.13168687  1
  In  In57  1  0.17986243  0.32493392  0.63031134  1
  In  In58  1  0.16719046  0.67479234  0.13553472  1
  In  In59  1  0.16952719  0.67498489  0.62415070  1
  In  In60  1  0.49465711  -0.00671152  0.11080234  1
  In  In61  1  0.50896993  0.01029766  0.61929583  1
  In  In62  1  0.49259590  0.32332161  0.11807240  1
  In  In63  1  0.49914895  0.33661593  0.62485151  1
  In  In64  1  0.48904642  0.66297681  0.12352570  1
  In  In65  1  0.49533913  0.65774132  0.61968067  1
  In  In66  1  0.81901825  0.00555710  0.12227404  1
  In  In67  1  0.79603802  0.05604482  0.67106805  1
  In  In68  1  0.84785408  0.32968944  0.12137011  1
  In  In69  1  0.83639358  0.33211944  0.63352739  1
  In  In70  1  0.83719694  0.66415306  0.12801080  1
  In  In71  1  0.83776762  0.65532893  0.61756684  1
  In  In72  1  0.17285054  0.83696721  0.49271433  1
  In  In73  1  0.83211356  0.84118264  0.50313872  1
  In  In74  1  0.01390824  0.67432043  0.74026271  1
  In  In75  1  0.66130090  0.00212627  0.25082057  1
  In  In76  1  0.00662703  -0.00298136  0.25025331  1
  In  In77  1  0.82419399  0.83637498  0.00129282  1
  In  In78  1  0.82150131  0.49171689  -0.01424831  1
  In  In79  1  0.65869583  0.66322775  0.75336732  1
  In  In80  1  0.17071957  0.16279835  -0.00589592  1
  In  In81  1  0.66175157  0.66580170  0.24747397  1
  In  In82  1  0.16789490  0.50183562  0.49102923  1
  In  In83  1  0.16496959  0.49876497  0.00624760  1
  In  In84  1  0.66736975  0.33103099  0.25702095  1
  In  In85  1  0.33737357  0.00482782  0.75412176  1
  Cu  Cu86  1  0.32871496  0.33290667  0.00444842  1
  Cu  Cu87  1  0.16630525  0.50123372  0.74657354  1
  Cu  Cu88  1  0.34201980  -0.00102095  0.00183846  1
  Cu  Cu89  1  0.67354248  0.01158559  -0.01099218  1
  Cu  Cu90  1  0.16946548  0.16644839  0.74912557  1
  Cu  Cu91  1  0.66514942  0.66600505  0.50034747  1
  Cu  Cu92  1  0.83640105  0.17224867  0.25573246  1
  Cu  Cu93  1  0.49482279  0.83335690  0.75420757  1
  Cu  Cu94  1  0.83563719  0.83685707  0.74957157  1
  Cu  Cu95  1  0.00092864  0.65669586  0.00548630  1
  Cu  Cu96  1  0.49571491  0.50137209  0.74880674  1
  Cu  Cu97  1  0.83677729  0.82437952  0.24886165  1
  Cu  Cu98  1  0.84489235  0.49425678  0.25407094  1
  Cu  Cu99  1  0.33210763  -0.00408465  0.49554942  1
  Cu  Cu100  1  0.16777009  0.49665470  0.25227789  1
  Cu  Cu101  1  -0.00105819  -0.00199428  -0.00632665  1
  Cu  Cu102  1  0.66334150  0.00690418  0.51080786  1
  Cu  Cu103  1  0.49109825  0.16149966  0.24818939  1
  Cu  Cu104  1  -0.00746253  0.00970016  0.50869309  1
  Cu  Cu105  1  0.33919696  0.66459987  0.49801554  1
  Cu  Cu106  1  0.16850441  0.16970479  0.25149300  1
  Cu  Cu107  1  0.33478074  0.32912079  0.50206435  1
  Cu  Cu108  1  0.67174778  0.33308555  0.50902551  1
  Cu  Cu109  1  0.33699218  0.67069506  0.00186840  1
  Cu  Cu110  1  0.65384760  0.66483882  -0.00039284  1
  Cu  Cu111  1  0.00362307  0.33495176  0.50338322  1
  Cu  Cu112  1  0.50162772  0.49658641  0.25401621  1
  Cu  Cu113  1  0.66463815  0.33423839  -0.01027966  1
  Cu  Cu114  1  0.17306211  0.82973486  0.75107314  1
  Se  Se115  1  0.07912471  0.07547457  0.05728995  1
  Se  Se116  1  0.08381710  0.08937305  0.55610721  1
  Se  Se117  1  0.07105247  0.40311406  0.05546681  1
  Se  Se118  1  0.08777411  0.41446155  0.56049609  1
  Se  Se119  1  0.08293653  0.74003614  0.05709441  1
  Se  Se120  1  0.07974470  0.74945322  0.55270847  1
  Se  Se121  1  0.41722200  0.09189973  0.05175960  1
  Se  Se122  1  0.41498543  0.07791352  0.55051113  1
  Se  Se123  1  0.41344566  0.41691860  0.05592715  1
  Se  Se124  1  0.41543108  0.41660269  0.55329714  1
  Se  Se125  1  0.42002420  0.75465271  0.05427018  1
  Se  Se126  1  0.41740403  0.74966095  0.55398083  1
  Se  Se127  1  0.75539536  0.08940862  0.04673609  1
  Se  Se128  1  0.74556621  0.08418999  0.56841334  1
  Se  Se129  1  0.74055762  0.40658995  0.06009764  1
  Se  Se130  1  0.75529098  0.41514841  0.56137545  1
  Se  Se131  1  0.73765545  0.73873524  0.06105131  1
  Se  Se132  1  0.74074110  0.74820788  0.56261520  1
  Se  Se133  1  0.25067559  0.25038151  0.06349732  1
  Se  Se134  1  0.24702670  0.24726583  0.55096543  1
  Se  Se135  1  0.25720556  0.58848107  0.06201066  1
  Se  Se136  1  0.25608385  0.58722175  0.55731994  1
  Se  Se137  1  0.25527884  0.91745286  0.05191199  1
  Se  Se138  1  0.25289298  0.92390239  0.56299576  1
  Se  Se139  1  0.58481185  0.25409127  0.04900478  1
  Se  Se140  1  0.57892765  0.25318380  0.55407206  1
  Se  Se141  1  0.57375350  0.58095824  0.05443545  1
  Se  Se142  1  0.58482885  0.58041750  0.55436042  1
  Se  Se143  1  0.59379162  0.92618894  0.04493146  1
  Se  Se144  1  0.57874480  0.91420206  0.55152669  1
  Se  Se145  1  0.90734989  0.23314021  0.05370366  1
  Se  Se146  1  0.92017327  0.25535409  0.55996898  1
  Se  Se147  1  0.91366230  0.57587102  0.05687178  1
  Se  Se148  1  0.92957270  0.59737122  0.54580555  1
  Se  Se149  1  0.91994932  0.92369599  0.06054765  1
  Se  Se150  1  0.91263020  0.93026288  0.56705111  1
  Se  Se151  1  0.08513603  0.25177599  0.44893148  1
  Se  Se152  1  0.07994693  0.25422990  0.94004839  1
  Se  Se153  1  0.08446630  0.59822769  0.43468746  1
  Se  Se154  1  0.07247542  0.57936383  0.93845342  1
  Se  Se155  1  0.07064281  0.93084880  0.44499520  1
  Se  Se156  1  0.08343829  0.90776969  0.95161060  1
  Se  Se157  1  0.41739397  0.24652504  0.44621107  1
  Se  Se158  1  0.41151843  0.24793357  0.95263971  1
  Se  Se159  1  0.42095662  0.57522533  0.44881497  1
  Se  Se160  1  0.41132479  0.58407029  0.94456080  1
  Se  Se161  1  0.40987087  0.91193075  0.43921449  1
  Se  Se162  1  0.42319012  0.91862762  0.94360892  1
  Se  Se163  1  0.75262481  0.24900966  0.45340154  1
  Se  Se164  1  0.75099117  0.25585307  0.93540229  1
  Se  Se165  1  0.75366161  0.58368843  0.45245451  1
  Se  Se166  1  0.72615433  0.58365434  0.93697074  1
  Se  Se167  1  0.73768819  0.92972078  0.44160433  1
  Se  Se168  1  0.75283230  0.92714255  0.93141520  1
  Se  Se169  1  0.25022662  0.08384468  0.44699971  1
  Se  Se170  1  0.26204983  0.07200766  0.93551182  1
  Se  Se171  1  0.25925234  0.40816169  0.43706684  1
  Se  Se172  1  0.25118928  0.41109693  0.94175576  1
  Se  Se173  1  0.26323456  0.74610215  0.43676167  1
  Se  Se174  1  0.24917918  0.75036628  0.95017270  1
  Se  Se175  1  0.58133686  0.08266831  0.44940871  1
  Se  Se176  1  0.58540709  0.09115483  0.93850575  1
  Se  Se177  1  0.58842474  0.41078953  0.44992322  1
  Se  Se178  1  0.58996655  0.41984942  0.93317351  1
  Se  Se179  1  0.58221618  0.74989506  0.44911732  1
  Se  Se180  1  0.57805091  0.75174861  0.94451180  1
  Se  Se181  1  0.90832857  0.09182469  0.45522456  1
  Se  Se182  1  0.92108946  0.08148514  0.93854539  1
  Se  Se183  1  0.92312862  0.41896828  0.44806485  1
  Se  Se184  1  0.92193047  0.40198228  0.94116014  1
  Se  Se185  1  0.92056245  0.75530727  0.43926180  1
  Se  Se186  1  0.91750036  0.73872370  0.94759987  1
  Se  Se187  1  0.25358102  0.24884206  0.30591380  1
  Se  Se188  1  0.25200957  0.25089210  0.80143899  1
  Se  Se189  1  0.25296443  0.58025760  0.30221077  1
  Se  Se190  1  0.24372239  0.58717397  0.80157960  1
  Se  Se191  1  0.22346425  0.90335746  0.30650406  1
  Se  Se192  1  0.25047402  0.90957713  0.81310913  1
  Se  Se193  1  0.57282859  0.23871554  0.30987795  1
  Se  Se194  1  0.57755263  0.26777464  0.81019160  1
  Se  Se195  1  0.58098452  0.57639015  0.31400528  1
  Se  Se196  1  0.58068344  0.56782811  0.81413353  1
  Se  Se197  1  0.57387857  0.91011343  0.30771414  1
  Se  Se198  1  0.58103201  0.91786074  0.80148099  1
  Se  Se199  1  0.91808619  0.25418637  0.30923625  1
  Se  Se200  1  0.93033835  0.24818303  0.79512120  1
  Se  Se201  1  0.92152537  0.58363316  0.30573948  1
  Se  Se202  1  0.91976827  0.59721148  0.80628293  1
  Se  Se203  1  0.90771406  0.91129402  0.30981873  1
  Se  Se204  1  0.92132487  0.91636934  0.80275365  1
  Se  Se205  1  0.08356319  0.09417212  0.31315053  1
  Se  Se206  1  0.09231051  0.08067951  0.80485187  1
  Se  Se207  1  0.08363816  0.41449369  0.30579068  1
  Se  Se208  1  0.08435357  0.41904476  0.80105776  1
  Se  Se209  1  0.08625831  0.75559819  0.29585063  1
  Se  Se210  1  0.08937642  0.75735167  0.81548538  1
  Se  Se211  1  0.41406758  0.07909229  0.30625791  1
  Se  Se212  1  0.42918945  0.09846458  0.80616495  1
  Se  Se213  1  0.41863534  0.41211312  0.30613355  1
  Se  Se214  1  0.41182095  0.42087069  0.80633488  1
  Se  Se215  1  0.41761244  0.74090646  0.30457478  1
  Se  Se216  1  0.41628078  0.74668911  0.80639673  1
  Se  Se217  1  0.75262117  0.09231238  0.31224808  1
  Se  Se218  1  0.74212087  0.08776811  0.79557402  1
  Se  Se219  1  0.75876516  0.42182409  0.31436146  1
  Se  Se220  1  0.78217297  0.44607717  0.81732474  1
  Se  Se221  1  0.75498378  0.75075723  0.31154935  1
  Se  Se222  1  0.75373208  0.75875067  0.80917608  1
  Se  Se223  1  0.24838832  0.08076709  0.20177813  1
  Se  Se224  1  0.25198846  0.09028155  0.68832429  1
  Se  Se225  1  0.24899154  0.41254727  0.19785999  1
  Se  Se226  1  0.25306049  0.41749064  0.69669340  1
  Se  Se227  1  0.26836490  0.74203680  0.19423406  1
  Se  Se228  1  0.25251752  0.74528944  0.69848446  1
  Se  Se229  1  0.57869820  0.09149151  0.18634339  1
  Se  Se230  1  0.58361589  0.08276438  0.69377709  1
  Se  Se231  1  0.57924290  0.41677122  0.19262350  1
  Se  Se232  1  0.58192062  0.42282027  0.69368569  1
  Se  Se233  1  0.57153136  0.75788937  0.19299957  1
  Se  Se234  1  0.57581322  0.75596020  0.69036780  1
  Se  Se235  1  0.90688127  0.08418265  0.19507225  1
  Se  Se236  1  0.93659235  0.06621636  0.69587572  1
  Se  Se237  1  0.91962293  0.41145064  0.19527491  1
  Se  Se238  1  0.91920867  0.42218802  0.69706256  1
  Se  Se239  1  0.91951837  0.74221919  0.19724664  1
  Se  Se240  1  0.90961946  0.75772634  0.68618397  1
  Se  Se241  1  0.08110097  0.24644559  0.19732483  1
  Se  Se242  1  0.08708671  0.24870986  0.69446251  1
  Se  Se243  1  0.08648370  0.57976526  0.19631971  1
  Se  Se244  1  0.08777888  0.57288686  0.68032969  1
  Se  Se245  1  0.08924196  0.91276849  0.18381962  1
  Se  Se246  1  0.08847667  0.91168488  0.69951255  1
  Se  Se247  1  0.41508161  0.25086353  0.19480820  1
  Se  Se248  1  0.41467647  0.25479988  0.69202867  1
  Se  Se249  1  0.42043877  0.57799439  0.19789967  1
  Se  Se250  1  0.41526269  0.58746553  0.69621704  1
  Se  Se251  1  0.41700669  0.92863063  0.18783477  1
  Se  Se252  1  0.41992871  0.91302127  0.68980365  1
  Se  Se253  1  0.75347094  0.24387211  0.19205344  1
  Se  Se254  1  0.75542542  0.24291149  0.69727174  1
  Se  Se255  1  0.75756506  0.56868007  0.19506049  1
  Se  Se256  1  0.75698340  0.58235838  0.69398883  1
  Se  Se257  1  0.75368299  0.90502621  0.19274169  1
  Se  Se258  1  0.74799445  0.91918844  0.70140888  1
