# generated using pymatgen
data_In86Cu29Se144
_symmetry_space_group_name_H-M   'P 1'
_cell_length_a   17.58031351
_cell_length_b   17.57842651
_cell_length_c   23.43973755
_cell_angle_alpha   89.98249030
_cell_angle_beta   89.98749181
_cell_angle_gamma   90.02242049
_symmetry_Int_Tables_number   1
_chemical_formula_structural   In86Cu29Se144
_chemical_formula_sum   'In86 Cu29 Se144'
_cell_volume   7243.68062677
_cell_formula_units_Z   1
loop_
 _symmetry_equiv_pos_site_id
 _symmetry_equiv_pos_as_xyz
  1  'x, y, z'
loop_
 _atom_site_type_symbol
 _atom_site_label
 _atom_site_symmetry_multiplicity
 _atom_site_fract_x
 _atom_site_fract_y
 _atom_site_fract_z
 _atom_site_occupancy
  In  In0  1  0.00100418  0.16364934  0.12836079  1
  In  In1  1  0.00842809  0.16470185  0.61686213  1
  In  In2  1  0.00168517  0.49803740  0.13452744  1
  In  In3  1  -0.00458713  0.48182420  0.61754745  1
  In  In4  1  0.00091438  0.83579965  0.13052185  1
  In  In5  1  0.01148058  0.83809768  0.62809629  1
  In  In6  1  0.33731566  0.17741250  0.11380766  1
  In  In7  1  0.33839276  0.17790836  0.61988516  1
  In  In8  1  0.33869462  0.49747476  0.13313049  1
  In  In9  1  0.32896038  0.49703066  0.61930870  1
  In  In10  1  0.32672198  0.82801893  0.11839966  1
  In  In11  1  0.33393148  0.82080061  0.62965249  1
  In  In12  1  0.67406495  0.17375894  0.12335876  1
  In  In13  1  0.66635186  0.16605685  0.61747533  1
  In  In14  1  0.66007305  0.49288060  0.13021291  1
  In  In15  1  0.66246527  0.51166072  0.61853523  1
  In  In16  1  0.67783153  0.84013924  0.11096379  1
  In  In17  1  0.66442575  0.84174291  0.62482922  1
  In  In18  1  0.15678197  0.01371831  0.37983375  1
  In  In19  1  0.15582353  0.01499594  0.88132172  1
  In  In20  1  0.16825118  0.33257662  0.37141526  1
  In  In21  1  0.16506787  0.32800779  0.87103710  1
  In  In22  1  0.15542090  0.65023127  0.37148583  1
  In  In23  1  0.17961454  0.66302915  0.87583517  1
  In  In24  1  0.50127832  -0.00190899  0.38378666  1
  In  In25  1  0.50091675  -0.00331673  0.88218813  1
  In  In26  1  0.49481879  0.33703389  0.37786050  1
  In  In27  1  0.48764601  0.33912936  0.87717784  1
  In  In28  1  0.49104943  0.67487356  0.37911206  1
  In  In29  1  0.48177936  0.68522939  0.87473859  1
  In  In30  1  0.86334440  0.02131997  0.35411550  1
  In  In31  1  0.83809487  -0.00380699  0.88249946  1
  In  In32  1  0.82519065  0.31700553  0.36161220  1
  In  In33  1  0.83660432  0.31492457  0.88055361  1
  In  In34  1  0.84141474  0.66761043  0.36781792  1
  In  In35  1  0.84031418  0.67399054  0.88433237  1
  In  In36  1  -0.00231127  0.16682133  0.37072705  1
  In  In37  1  0.00187972  0.16628448  0.87489062  1
  In  In38  1  0.01448753  0.50323099  0.37191569  1
  In  In39  1  0.01613868  0.49777890  0.87164598  1
  In  In40  1  0.00000042  0.83311134  0.36493248  1
  In  In41  1  -0.00894621  0.84890207  0.88540642  1
  In  In42  1  0.32082795  0.17774719  0.38231995  1
  In  In43  1  0.32668990  0.17827048  0.88608179  1
  In  In44  1  0.33079770  0.49951151  0.37549275  1
  In  In45  1  0.32627876  0.49549592  0.86288846  1
  In  In46  1  0.34517506  0.83333484  0.37394707  1
  In  In47  1  0.33945591  0.82417932  0.87949768  1
  In  In48  1  0.65642004  0.17291319  0.38037043  1
  In  In49  1  0.66996756  0.16390636  0.88641906  1
  In  In50  1  0.66860271  0.48497968  0.37691660  1
  In  In51  1  0.66013442  0.50164496  0.87375900  1
  In  In52  1  0.66548935  0.83066419  0.37517683  1
  In  In53  1  0.65737184  0.83758905  0.88658486  1
  In  In54  1  0.15846155  -0.00617255  0.12084512  1
  In  In55  1  0.14737996  0.00455706  0.62512238  1
  In  In56  1  0.17886936  0.32070208  0.12872652  1
  In  In57  1  0.16631241  0.33146458  0.61803404  1
  In  In58  1  0.15876127  0.67537522  0.13364356  1
  In  In59  1  0.17894909  0.67004055  0.62111018  1
  In  In60  1  0.50084971  0.00087119  0.11756553  1
  In  In61  1  0.49773945  0.00010153  0.61830003  1
  In  In62  1  0.50084584  0.32898260  0.13156149  1
  In  In63  1  0.48702445  0.32664728  0.61938764  1
  In  In64  1  0.49327567  0.66215189  0.12561297  1
  In  In65  1  0.49105725  0.65896394  0.61615372  1
  In  In66  1  0.84647987  0.00892445  0.12795593  1
  In  In67  1  0.83887117  0.01471764  0.62035363  1
  In  In68  1  0.85172869  0.30532852  0.14831356  1
  In  In69  1  0.85406281  0.32941655  0.62291754  1
  In  In70  1  0.83832536  0.69181024  0.12850610  1
  In  In71  1  0.83243084  0.66370321  0.62252123  1
  In  In72  1  0.00986349  0.66526209  0.74894706  1
  In  In73  1  0.32685837  0.00350850  0.25173400  1
  In  In74  1  0.16866530  0.49656346  -0.00174320  1
  In  In75  1  0.83078426  0.49837094  0.00520826  1
  In  In76  1  0.65892838  0.67068551  0.75770707  1
  In  In77  1  0.50097068  0.49932746  0.00637788  1
  In  In78  1  0.83244165  0.84249258  0.48507590  1
  In  In79  1  0.67135186  0.00372878  0.23987884  1
  In  In80  1  0.16949361  0.83450940  0.50270476  1
  In  In81  1  0.66484431  0.33291547  0.74966789  1
  In  In82  1  0.66774151  0.66392354  0.24837892  1
  In  In83  1  0.83435506  0.49344969  0.49461116  1
  In  In84  1  0.33072702  -0.00118030  0.74948497  1
  In  In85  1  0.66666374  -0.00242286  0.76371651  1
  Cu  Cu86  1  0.49982244  0.83044902  0.24760721  1
  Cu  Cu87  1  0.66604796  -0.00121147  0.00510557  1
  Cu  Cu88  1  0.65951587  0.67158891  0.49681190  1
  Cu  Cu89  1  0.83624776  0.49656580  0.25425258  1
  Cu  Cu90  1  0.00325400  0.32611857  0.49276760  1
  Cu  Cu91  1  0.49184171  0.17522299  0.25437823  1
  Cu  Cu92  1  0.16945461  0.83195872  0.24627223  1
  Cu  Cu93  1  0.83955263  0.49387764  0.74836264  1
  Cu  Cu94  1  0.33239605  0.66659818  0.00197464  1
  Cu  Cu95  1  0.67083808  0.32504874  0.01018230  1
  Cu  Cu96  1  0.17055705  0.49145988  0.74321627  1
  Cu  Cu97  1  0.49819205  0.16372150  0.74928989  1
  Cu  Cu98  1  0.49552873  0.49774319  0.25342531  1
  Cu  Cu99  1  0.16478116  0.17215062  0.74992699  1
  Cu  Cu100  1  0.17244260  0.49691264  0.25135025  1
  Cu  Cu101  1  0.00084815  0.68155703  0.00827523  1
  Cu  Cu102  1  0.33042179  -0.00084840  -0.00178610  1
  Cu  Cu103  1  0.66618059  0.00239616  0.49838617  1
  Cu  Cu104  1  0.48561623  0.49989264  0.74105449  1
  Cu  Cu105  1  0.83989762  0.84132378  0.75644643  1
  Cu  Cu106  1  0.16533312  0.83822067  0.75358865  1
  Cu  Cu107  1  0.16377593  0.16833367  0.25103263  1
  Cu  Cu108  1  0.33198254  0.66370744  0.49841728  1
  Cu  Cu109  1  0.33043879  0.33584210  0.49747578  1
  Cu  Cu110  1  0.84887100  0.16926606  0.74772951  1
  Cu  Cu111  1  0.66316066  0.33135667  0.49704822  1
  Cu  Cu112  1  0.33514944  0.00267552  0.50152017  1
  Cu  Cu113  1  -0.00142145  0.32625907  0.00234871  1
  Cu  Cu114  1  0.00136941  0.00480321  0.00398846  1
  Se  Se115  1  0.08578350  0.08908270  0.05519885  1
  Se  Se116  1  0.08149055  0.07734966  0.54539297  1
  Se  Se117  1  0.07742631  0.41047430  0.06018462  1
  Se  Se118  1  0.08314906  0.41287038  0.54610158  1
  Se  Se119  1  0.09048569  0.75972083  0.05861934  1
  Se  Se120  1  0.07436788  0.74122809  0.55748420  1
  Se  Se121  1  0.41496013  0.08205166  0.05149051  1
  Se  Se122  1  0.41844954  0.08841407  0.55344727  1
  Se  Se123  1  0.40792432  0.40704432  0.05850165  1
  Se  Se124  1  0.41646940  0.41832099  0.55046860  1
  Se  Se125  1  0.41909229  0.74779564  0.05421866  1
  Se  Se126  1  0.41263017  0.75196204  0.55126187  1
  Se  Se127  1  0.74992981  0.07952034  0.06013813  1
  Se  Se128  1  0.75135834  0.08582865  0.54971319  1
  Se  Se129  1  0.75180308  0.40493742  0.06908893  1
  Se  Se130  1  0.74503081  0.40733240  0.56196172  1
  Se  Se131  1  0.75097585  0.74192323  0.05023461  1
  Se  Se132  1  0.74567187  0.74888543  0.55449469  1
  Se  Se133  1  0.24462591  0.25005656  0.04690553  1
  Se  Se134  1  0.24846659  0.24758901  0.54890725  1
  Se  Se135  1  0.25335566  0.58640329  0.06317945  1
  Se  Se136  1  0.24623843  0.58092655  0.54934129  1
  Se  Se137  1  0.24779924  0.91654437  0.05315122  1
  Se  Se138  1  0.25707520  0.92494634  0.56636947  1
  Se  Se139  1  0.57752469  0.24708009  0.05826796  1
  Se  Se140  1  0.58054685  0.25063042  0.55440591  1
  Se  Se141  1  0.59594651  0.59124205  0.05928016  1
  Se  Se142  1  0.57887418  0.58254336  0.54604637  1
  Se  Se143  1  0.57745752  0.91165724  0.05024241  1
  Se  Se144  1  0.58473620  0.91754666  0.55192043  1
  Se  Se145  1  0.91486543  0.24719912  0.05840125  1
  Se  Se146  1  0.91850439  0.24518268  0.54775071  1
  Se  Se147  1  0.92486037  0.58866569  0.06176468  1
  Se  Se148  1  0.92215081  0.58744776  0.55459079  1
  Se  Se149  1  0.92096645  0.91957319  0.05912530  1
  Se  Se150  1  0.92014842  0.91640295  0.55848937  1
  Se  Se151  1  0.08802576  0.24489809  0.43901554  1
  Se  Se152  1  0.08418034  0.25085830  0.94419869  1
  Se  Se153  1  0.08348617  0.57877666  0.45090602  1
  Se  Se154  1  0.07466333  0.59626890  0.94614964  1
  Se  Se155  1  0.07446852  0.91764304  0.44259888  1
  Se  Se156  1  0.08593686  0.92118126  0.95047518  1
  Se  Se157  1  0.41622801  0.25017005  0.44761363  1
  Se  Se158  1  0.43293873  0.24163747  0.94606211  1
  Se  Se159  1  0.41670673  0.58178925  0.44456308  1
  Se  Se160  1  0.40609015  0.58058473  0.94076180  1
  Se  Se161  1  0.41537908  0.91481634  0.44974842  1
  Se  Se162  1  0.41514877  0.91350943  0.94781889  1
  Se  Se163  1  0.75044057  0.25182736  0.44468159  1
  Se  Se164  1  0.75530709  0.24414992  0.95518157  1
  Se  Se165  1  0.74426148  0.59281227  0.43827960  1
  Se  Se166  1  0.74192883  0.58745644  0.94232847  1
  Se  Se167  1  0.74510255  0.93669749  0.42867406  1
  Se  Se168  1  0.74918991  0.91733265  0.94896275  1
  Se  Se169  1  0.24915790  0.08240031  0.44865036  1
  Se  Se170  1  0.24710092  0.08736717  0.94979892  1
  Se  Se171  1  0.24593372  0.41728324  0.44351088  1
  Se  Se172  1  0.26015890  0.40801154  0.94052494  1
  Se  Se173  1  0.25326129  0.74555570  0.43759639  1
  Se  Se174  1  0.24793551  0.74945833  0.94903778  1
  Se  Se175  1  0.57798134  0.08745243  0.45020697  1
  Se  Se176  1  0.58299085  0.08073336  0.94992791  1
  Se  Se177  1  0.57974204  0.41860801  0.44911095  1
  Se  Se178  1  0.59526418  0.40631499  0.94669426  1
  Se  Se179  1  0.57832846  0.75817381  0.44522266  1
  Se  Se180  1  0.58462630  0.73495878  0.94205696  1
  Se  Se181  1  0.92134793  0.08114067  0.44261463  1
  Se  Se182  1  0.91848221  0.08638126  0.94658346  1
  Se  Se183  1  0.91943766  0.40479353  0.43175524  1
  Se  Se184  1  0.92612351  0.41441770  0.94152012  1
  Se  Se185  1  0.92683706  0.74223085  0.44165337  1
  Se  Se186  1  0.91407550  0.75976901  0.95387355  1
  Se  Se187  1  0.25245657  0.24974024  0.30099323  1
  Se  Se188  1  0.25370954  0.24763122  0.80416443  1
  Se  Se189  1  0.25284330  0.58469569  0.30380597  1
  Se  Se190  1  0.24503379  0.58268691  0.79710428  1
  Se  Se191  1  0.24034282  0.91249255  0.31425665  1
  Se  Se192  1  0.24280688  0.91664223  0.81666686  1
  Se  Se193  1  0.57840561  0.25400041  0.30808037  1
  Se  Se194  1  0.58054285  0.24075197  0.81141364  1
  Se  Se195  1  0.57911329  0.57815578  0.31283268  1
  Se  Se196  1  0.56275596  0.57453695  0.80795516  1
  Se  Se197  1  0.57773518  0.91549919  0.30432883  1
  Se  Se198  1  0.56854176  0.90157067  0.80715369  1
  Se  Se199  1  0.92147137  0.24847273  0.29715493  1
  Se  Se200  1  0.92405381  0.25582765  0.80439563  1
  Se  Se201  1  0.92182182  0.57981278  0.30420849  1
  Se  Se202  1  0.91234462  0.57944035  0.81046144  1
  Se  Se203  1  0.90843288  0.90550043  0.29810378  1
  Se  Se204  1  0.92207470  0.92687446  0.80621985  1
  Se  Se205  1  0.08133387  0.08078319  0.30027986  1
  Se  Se206  1  0.08262428  0.08594515  0.80163678  1
  Se  Se207  1  0.08490353  0.41374687  0.30119497  1
  Se  Se208  1  0.08586924  0.41287486  0.79963506  1
  Se  Se209  1  0.08944780  0.74840433  0.30383441  1
  Se  Se210  1  0.08568293  0.75786870  0.81623868  1
  Se  Se211  1  0.41927668  0.08782407  0.31439361  1
  Se  Se212  1  0.41955712  0.08653997  0.81226541  1
  Se  Se213  1  0.41118348  0.41409712  0.30564406  1
  Se  Se214  1  0.41330911  0.41095210  0.79846825  1
  Se  Se215  1  0.41612740  0.74828459  0.30014986  1
  Se  Se216  1  0.39998115  0.74644407  0.79767408  1
  Se  Se217  1  0.74715188  0.09508482  0.30679604  1
  Se  Se218  1  0.76247682  0.09606075  0.80943398  1
  Se  Se219  1  0.74608820  0.41437478  0.30058709  1
  Se  Se220  1  0.75821272  0.42027000  0.81220027  1
  Se  Se221  1  0.75757579  0.76044616  0.30301321  1
  Se  Se222  1  0.75712594  0.76024378  0.81235492  1
  Se  Se223  1  0.24389539  0.09114570  0.18662101  1
  Se  Se224  1  0.24428981  0.09070099  0.68808779  1
  Se  Se225  1  0.25278591  0.41279377  0.19667293  1
  Se  Se226  1  0.25295361  0.40888425  0.68916621  1
  Se  Se227  1  0.25704609  0.74977983  0.19697195  1
  Se  Se228  1  0.24312899  0.75127338  0.70017148  1
  Se  Se229  1  0.56874154  0.09357581  0.19216699  1
  Se  Se230  1  0.58232549  0.08484999  0.69351217  1
  Se  Se231  1  0.57982988  0.41485939  0.20132269  1
  Se  Se232  1  0.57801687  0.42472592  0.68766572  1
  Se  Se233  1  0.58423463  0.75815232  0.18609413  1
  Se  Se234  1  0.57711174  0.75129996  0.68681445  1
  Se  Se235  1  0.90869110  0.09840205  0.20108332  1
  Se  Se236  1  0.92590161  0.08470933  0.69170297  1
  Se  Se237  1  0.92199922  0.41306494  0.20304099  1
  Se  Se238  1  0.92405097  0.41118565  0.69884224  1
  Se  Se239  1  0.93668799  0.73789306  0.19982625  1
  Se  Se240  1  0.90988363  0.75538184  0.69336099  1
  Se  Se241  1  0.08288902  0.25275362  0.19568507  1
  Se  Se242  1  0.08346401  0.25029434  0.68901105  1
  Se  Se243  1  0.08722471  0.58136309  0.19974692  1
  Se  Se244  1  0.08837295  0.57232073  0.68342974  1
  Se  Se245  1  0.08499241  0.92039560  0.19943388  1
  Se  Se246  1  0.08063454  0.92120744  0.70270953  1
  Se  Se247  1  0.40732615  0.25012236  0.19583129  1
  Se  Se248  1  0.41636894  0.24957283  0.69803255  1
  Se  Se249  1  0.41688380  0.58586346  0.20075866  1
  Se  Se250  1  0.40656325  0.58682940  0.68920622  1
  Se  Se251  1  0.41875922  0.91507289  0.19102659  1
  Se  Se252  1  0.42545155  0.91065547  0.69245286  1
  Se  Se253  1  0.73144295  0.25990794  0.20080455  1
  Se  Se254  1  0.75862610  0.24398721  0.69053361  1
  Se  Se255  1  0.76210609  0.57720806  0.18864464  1
  Se  Se256  1  0.75464082  0.57730752  0.69673661  1
  Se  Se257  1  0.76168835  0.90665614  0.18945283  1
  Se  Se258  1  0.75859610  0.91767092  0.69377632  1
