# generated using pymatgen
data_In86Cu29Se144
_symmetry_space_group_name_H-M   'P 1'
_cell_length_a   17.57624002
_cell_length_b   17.57574231
_cell_length_c   23.43427081
_cell_angle_alpha   89.98596551
_cell_angle_beta   89.99996901
_cell_angle_gamma   89.99868840
_symmetry_Int_Tables_number   1
_chemical_formula_structural   In86Cu29Se144
_chemical_formula_sum   'In86 Cu29 Se144'
_cell_volume   7239.20845259
_cell_formula_units_Z   1
loop_
 _symmetry_equiv_pos_site_id
 _symmetry_equiv_pos_as_xyz
  1  'x, y, z'
loop_
 _atom_site_type_symbol
 _atom_site_label
 _atom_site_symmetry_multiplicity
 _atom_site_fract_x
 _atom_site_fract_y
 _atom_site_fract_z
 _atom_site_occupancy
  In  In0  1  -0.00924627  0.15591967  0.12813915  1
  In  In1  1  -0.00155865  0.17308417  0.63273651  1
  In  In2  1  -0.00228043  0.51225047  0.11987733  1
  In  In3  1  0.01313508  0.49686707  0.63783568  1
  In  In4  1  0.00738527  0.83899276  0.11268249  1
  In  In5  1  0.00499142  0.82969463  0.62677819  1
  In  In6  1  0.33376414  0.14773942  0.12876013  1
  In  In7  1  0.32802372  0.11967777  0.61894822  1
  In  In8  1  0.33544661  0.48782303  0.12143538  1
  In  In9  1  0.32790381  0.51621472  0.63569530  1
  In  In10  1  0.33893607  0.84315287  0.11572857  1
  In  In11  1  0.33192146  0.83775489  0.62134895  1
  In  In12  1  0.66723420  0.17440489  0.12233610  1
  In  In13  1  0.65215133  0.15121980  0.61447475  1
  In  In14  1  0.65914079  0.48592538  0.10426082  1
  In  In15  1  0.67567106  0.50389288  0.63091819  1
  In  In16  1  0.66642992  0.83926065  0.10918770  1
  In  In17  1  0.66785527  0.83569060  0.63035501  1
  In  In18  1  0.16090155  0.00146834  0.36905353  1
  In  In19  1  0.15122250  -0.00938633  0.85651136  1
  In  In20  1  0.17748022  0.33473497  0.38627063  1
  In  In21  1  0.15320774  0.34520119  0.86760611  1
  In  In22  1  0.14497767  0.67859382  0.40352116  1
  In  In23  1  0.18034804  0.67205880  0.85658528  1
  In  In24  1  0.49030906  0.00973660  0.38521479  1
  In  In25  1  0.49633155  -0.00327985  0.87471994  1
  In  In26  1  0.49889795  0.32283354  0.37414925  1
  In  In27  1  0.51674243  0.32365650  0.89091326  1
  In  In28  1  0.50768041  0.68074297  0.37474299  1
  In  In29  1  0.49959625  0.67222057  0.87288778  1
  In  In30  1  0.84452531  -0.00882266  0.38569819  1
  In  In31  1  0.82176035  -0.00885315  0.86278782  1
  In  In32  1  0.81789478  0.33223681  0.36842630  1
  In  In33  1  0.84423719  0.33371299  0.87634797  1
  In  In34  1  0.84175805  0.67636563  0.38394162  1
  In  In35  1  0.83481538  0.67439421  0.87197421  1
  In  In36  1  0.00791350  0.14130997  0.38006175  1
  In  In37  1  -0.00009491  0.16855520  0.85532668  1
  In  In38  1  0.00139749  0.51029875  0.38078801  1
  In  In39  1  -0.00227406  0.49858300  0.86012629  1
  In  In40  1  -0.00796758  0.84091121  0.38938149  1
  In  In41  1  0.00119138  0.83510204  0.86980876  1
  In  In42  1  0.34071841  0.16875203  0.37545992  1
  In  In43  1  0.34595709  0.15992858  0.87403498  1
  In  In44  1  0.32820802  0.48891713  0.38402234  1
  In  In45  1  0.33621410  0.51214938  0.86698632  1
  In  In46  1  0.31560368  0.85368124  0.39257383  1
  In  In47  1  0.33098475  0.83347000  0.87085160  1
  In  In48  1  0.65890846  0.17084190  0.37576029  1
  In  In49  1  0.66338315  0.15249927  0.87911331  1
  In  In50  1  0.67867962  0.49462184  0.37062349  1
  In  In51  1  0.65647205  0.51058757  0.88634700  1
  In  In52  1  0.65936603  0.84454583  0.38845571  1
  In  In53  1  0.66906003  0.83994833  0.87657926  1
  In  In54  1  0.17703256  -0.00525715  0.13501466  1
  In  In55  1  0.18517727  -0.01070807  0.64246480  1
  In  In56  1  0.15981720  0.33432437  0.12571319  1
  In  In57  1  0.15053808  0.32298063  0.62721575  1
  In  In58  1  0.14994942  0.67375357  0.12222298  1
  In  In59  1  0.16528995  0.67217346  0.62597049  1
  In  In60  1  0.49097418  -0.00980170  0.11155891  1
  In  In61  1  0.50059138  -0.00424517  0.62314939  1
  In  In62  1  0.51146305  0.33948571  0.10824754  1
  In  In63  1  0.50731291  0.31956657  0.62568974  1
  In  In64  1  0.50773950  0.67267678  0.11355786  1
  In  In65  1  0.48455120  0.68529738  0.64378821  1
  In  In66  1  0.84382864  0.00063062  0.12251117  1
  In  In67  1  0.83462570  -0.00102127  0.62638332  1
  In  In68  1  0.81215796  0.32505071  0.11681690  1
  In  In69  1  0.84488522  0.33292047  0.62669758  1
  In  In70  1  0.83383427  0.66545639  0.11230152  1
  In  In71  1  0.82917827  0.67372335  0.63678745  1
  In  In72  1  0.17076134  0.16421676  0.00165489  1
  In  In73  1  0.67050326  0.33273129  0.75757926  1
  In  In74  1  0.33612055  0.31714488  0.25738720  1
  In  In75  1  0.17566251  0.51443837  -0.01275560  1
  In  In76  1  0.83207712  0.16063104  -0.00338994  1
  In  In77  1  0.33059355  0.66508109  0.25494067  1
  In  In78  1  0.66537640  0.66636044  0.24815849  1
  In  In79  1  -0.00210994  0.32379202  0.24553835  1
  In  In80  1  -0.00338140  0.67075861  0.25822344  1
  In  In81  1  0.16471994  0.16225257  0.50473891  1
  In  In82  1  0.83793322  0.50471491  0.50672714  1
  In  In83  1  0.66900871  0.00154349  0.24653249  1
  In  In84  1  0.49554834  0.50590138  0.50327177  1
  In  In85  1  0.33474542  0.32990414  0.75305306  1
  Cu  Cu86  1  -0.00068822  -0.00247959  -0.00846601  1
  Cu  Cu87  1  0.33206634  0.67124670  0.50989710  1
  Cu  Cu88  1  0.32962864  0.33571461  0.51077525  1
  Cu  Cu89  1  0.83245746  0.51002032  0.75086522  1
  Cu  Cu90  1  0.16975458  0.83138231  0.74445293  1
  Cu  Cu91  1  0.50556991  0.49365820  0.23629792  1
  Cu  Cu92  1  -0.00853511  0.33418047  0.50621362  1
  Cu  Cu93  1  0.83762975  0.83084896  0.25441763  1
  Cu  Cu94  1  -0.00081555  0.67521156  -0.00806011  1
  Cu  Cu95  1  0.66391140  0.67099613  0.51274999  1
  Cu  Cu96  1  0.17083241  0.83824788  0.25041348  1
  Cu  Cu97  1  0.67070279  0.67102511  -0.00819321  1
  Cu  Cu98  1  0.17086811  0.49719928  0.26287022  1
  Cu  Cu99  1  0.49089214  0.84516317  0.24595599  1
  Cu  Cu100  1  0.33401616  0.67106688  -0.00762811  1
  Cu  Cu101  1  0.00157017  0.33867748  -0.00574193  1
  Cu  Cu102  1  0.82586426  0.16877411  0.74579975  1
  Cu  Cu103  1  0.00175051  -0.00209220  0.50830596  1
  Cu  Cu104  1  0.67476302  -0.00549729  0.50440353  1
  Cu  Cu105  1  0.82408901  0.49043646  0.24257308  1
  Cu  Cu106  1  0.34085250  0.33431172  -0.00180165  1
  Cu  Cu107  1  0.32643290  -0.00780139  -0.00453325  1
  Cu  Cu108  1  0.50026096  0.83707618  0.75249450  1
  Cu  Cu109  1  0.66550773  0.32419303  0.49659636  1
  Cu  Cu110  1  0.83555768  0.84042475  0.75073640  1
  Cu  Cu111  1  0.83445653  0.15908243  0.24945248  1
  Cu  Cu112  1  0.49566278  0.15374845  0.74483517  1
  Cu  Cu113  1  0.50218003  0.50081319  0.75842054  1
  Cu  Cu114  1  0.50162855  0.16557624  0.25065497  1
  Se  Se115  1  0.07609524  0.07459176  0.05825338  1
  Se  Se116  1  0.08144298  0.07503509  0.57001073  1
  Se  Se117  1  0.08458102  0.42072135  0.05161366  1
  Se  Se118  1  0.07843991  0.41366064  0.55793128  1
  Se  Se119  1  0.08770972  0.75447983  0.04335388  1
  Se  Se120  1  0.09785763  0.76433110  0.55536115  1
  Se  Se121  1  0.40671321  0.08050196  0.04790907  1
  Se  Se122  1  0.43654473  0.09185737  0.55142333  1
  Se  Se123  1  0.42145071  0.42546760  0.04619202  1
  Se  Se124  1  0.41379934  0.41504373  0.56889306  1
  Se  Se125  1  0.41617582  0.75208694  0.05016845  1
  Se  Se126  1  0.42226874  0.75168113  0.55745392  1
  Se  Se127  1  0.74270461  0.07230780  0.05892402  1
  Se  Se128  1  0.75575648  0.08360619  0.55399249  1
  Se  Se129  1  0.77326724  0.43071160  0.04839115  1
  Se  Se130  1  0.74173796  0.40741218  0.55753841  1
  Se  Se131  1  0.75405796  0.75404220  0.04714622  1
  Se  Se132  1  0.75316843  0.75163170  0.56117501  1
  Se  Se133  1  0.25953161  0.25968738  0.06174086  1
  Se  Se134  1  0.25778377  0.24645515  0.56828247  1
  Se  Se135  1  0.25797956  0.59485205  0.06217319  1
  Se  Se136  1  0.25004308  0.58349534  0.55774974  1
  Se  Se137  1  0.23998461  0.91703552  0.05323019  1
  Se  Se138  1  0.26435177  0.94026548  0.55801377  1
  Se  Se139  1  0.58499252  0.24224479  0.04773579  1
  Se  Se140  1  0.57697190  0.24429986  0.54694854  1
  Se  Se141  1  0.58541853  0.58732210  0.04555098  1
  Se  Se142  1  0.58175223  0.59000756  0.56963340  1
  Se  Se143  1  0.57619546  0.91304193  0.04468091  1
  Se  Se144  1  0.58768646  0.91305656  0.55578482  1
  Se  Se145  1  0.92558085  0.25514247  0.05600868  1
  Se  Se146  1  0.91418517  0.24349496  0.55585850  1
  Se  Se147  1  0.92108305  0.58602502  0.04445505  1
  Se  Se148  1  0.92205258  0.58723704  0.57193819  1
  Se  Se149  1  0.91522898  0.91743850  0.04821433  1
  Se  Se150  1  0.91799892  0.91328507  0.55943689  1
  Se  Se151  1  0.07278834  0.25457450  0.44343352  1
  Se  Se152  1  0.07696412  0.25044438  0.93857516  1
  Se  Se153  1  0.08438983  0.56820923  0.45870661  1
  Se  Se154  1  0.07839297  0.59469811  0.92956039  1
  Se  Se155  1  0.08632715  0.92518165  0.44703008  1
  Se  Se156  1  0.08738436  0.91733649  0.93987834  1
  Se  Se157  1  0.40825382  0.25992977  0.44754302  1
  Se  Se158  1  0.41799712  0.24317121  0.94784995  1
  Se  Se159  1  0.40811529  0.59751422  0.43971664  1
  Se  Se160  1  0.41660717  0.58478260  0.94191614  1
  Se  Se161  1  0.43792221  0.89634659  0.44251549  1
  Se  Se162  1  0.41268750  0.91133126  0.94351167  1
  Se  Se163  1  0.75233271  0.24593909  0.44301967  1
  Se  Se164  1  0.74501815  0.25543990  0.93874317  1
  Se  Se165  1  0.73996660  0.59209345  0.44593523  1
  Se  Se166  1  0.75794107  0.58753010  0.94338683  1
  Se  Se167  1  0.75984658  0.90832128  0.45291471  1
  Se  Se168  1  0.75105919  0.92589334  0.94401335  1
  Se  Se169  1  0.25478531  0.07912702  0.44027642  1
  Se  Se170  1  0.24762551  0.07372598  0.93451440  1
  Se  Se171  1  0.24548661  0.42044515  0.46043638  1
  Se  Se172  1  0.25862251  0.40889240  0.93635601  1
  Se  Se173  1  0.24672690  0.75619290  0.45795899  1
  Se  Se174  1  0.24604995  0.74712822  0.93858699  1
  Se  Se175  1  0.59380187  0.07698352  0.44573333  1
  Se  Se176  1  0.56903604  0.08676544  0.94533414  1
  Se  Se177  1  0.58814447  0.41564981  0.44163200  1
  Se  Se178  1  0.59081431  0.41586340  0.95439043  1
  Se  Se179  1  0.58273162  0.75051706  0.45319181  1
  Se  Se180  1  0.58322678  0.75335199  0.94219001  1
  Se  Se181  1  0.91853846  0.08194180  0.45516517  1
  Se  Se182  1  0.92514685  0.08168472  0.93095431  1
  Se  Se183  1  0.91505560  0.40920429  0.43880112  1
  Se  Se184  1  0.92324219  0.42477984  0.94083282  1
  Se  Se185  1  0.93941838  0.73104665  0.45229455  1
  Se  Se186  1  0.91478800  0.76041350  0.94194133  1
  Se  Se187  1  0.23302063  0.23744450  0.31159480  1
  Se  Se188  1  0.24510249  0.24576571  0.81707949  1
  Se  Se189  1  0.24128413  0.58360016  0.32270776  1
  Se  Se190  1  0.23848119  0.56347602  0.79591831  1
  Se  Se191  1  0.25412056  0.91904592  0.30525080  1
  Se  Se192  1  0.25316729  0.91631681  0.79809861  1
  Se  Se193  1  0.58414386  0.25226703  0.30075879  1
  Se  Se194  1  0.57220589  0.23859342  0.80553912  1
  Se  Se195  1  0.57358650  0.57302249  0.30725443  1
  Se  Se196  1  0.58711374  0.58652671  0.80702459  1
  Se  Se197  1  0.57824471  0.91547880  0.30853609  1
  Se  Se198  1  0.58436197  0.91966363  0.80532621  1
  Se  Se199  1  0.91314717  0.23879113  0.31256821  1
  Se  Se200  1  0.90867418  0.25571539  0.79648218  1
  Se  Se201  1  0.89908874  0.57208693  0.30764247  1
  Se  Se202  1  0.91781313  0.59433266  0.80027323  1
  Se  Se203  1  0.91938872  0.91292044  0.30899988  1
  Se  Se204  1  0.92346438  0.92430347  0.80040490  1
  Se  Se205  1  0.07648312  0.07692535  0.29802407  1
  Se  Se206  1  0.08848646  0.09072872  0.79137627  1
  Se  Se207  1  0.08352282  0.41430620  0.31364771  1
  Se  Se208  1  0.07830915  0.41595771  0.79133552  1
  Se  Se209  1  0.09206403  0.75880009  0.31424716  1
  Se  Se210  1  0.08329074  0.75271814  0.79888677  1
  Se  Se211  1  0.41896833  0.08407795  0.30521550  1
  Se  Se212  1  0.41195346  0.07302620  0.79980554  1
  Se  Se213  1  0.42295954  0.42495231  0.30626491  1
  Se  Se214  1  0.43173934  0.41101214  0.81680572  1
  Se  Se215  1  0.41709803  0.76301392  0.30978721  1
  Se  Se216  1  0.41498408  0.75036969  0.80238611  1
  Se  Se217  1  0.75744558  0.08142058  0.31424978  1
  Se  Se218  1  0.74396628  0.08767696  0.80076817  1
  Se  Se219  1  0.73832461  0.40822029  0.29363585  1
  Se  Se220  1  0.75531114  0.42900475  0.81436315  1
  Se  Se221  1  0.75172436  0.75635352  0.31420241  1
  Se  Se222  1  0.75088223  0.75825919  0.80466176  1
  Se  Se223  1  0.24680002  0.08706799  0.20270072  1
  Se  Se224  1  0.24107708  0.09849255  0.70470435  1
  Se  Se225  1  0.24539679  0.41823173  0.19873373  1
  Se  Se226  1  0.24549310  0.41315462  0.68916988  1
  Se  Se227  1  0.24396472  0.75286106  0.18845561  1
  Se  Se228  1  0.25775718  0.75083595  0.69295193  1
  Se  Se229  1  0.57447267  0.08458480  0.18572857  1
  Se  Se230  1  0.58673607  0.07529263  0.69522392  1
  Se  Se231  1  0.59008188  0.41210553  0.18585609  1
  Se  Se232  1  0.57619072  0.42101018  0.69457678  1
  Se  Se233  1  0.57651769  0.76321826  0.19012892  1
  Se  Se234  1  0.58852512  0.75250263  0.70298246  1
  Se  Se235  1  0.91801560  0.07236635  0.20151449  1
  Se  Se236  1  0.91297429  0.08581781  0.69658525  1
  Se  Se237  1  0.91304558  0.41819071  0.18404729  1
  Se  Se238  1  0.91109761  0.42257491  0.69732977  1
  Se  Se239  1  0.91285779  0.75286381  0.18806639  1
  Se  Se240  1  0.91960246  0.75432224  0.70032006  1
  Se  Se241  1  0.09413283  0.23302117  0.19108670  1
  Se  Se242  1  0.07868603  0.25128172  0.70531476  1
  Se  Se243  1  0.09017664  0.57509128  0.19928193  1
  Se  Se244  1  0.09069896  0.58883378  0.69942713  1
  Se  Se245  1  0.08113670  0.91031364  0.19276909  1
  Se  Se246  1  0.08062115  0.91768446  0.69844715  1
  Se  Se247  1  0.42644637  0.24732815  0.18502045  1
  Se  Se248  1  0.41501753  0.23653067  0.68787667  1
  Se  Se249  1  0.42126683  0.58000041  0.18714499  1
  Se  Se250  1  0.41623814  0.58437209  0.70738376  1
  Se  Se251  1  0.40874046  0.92642511  0.19148564  1
  Se  Se252  1  0.41806350  0.91528417  0.69392550  1
  Se  Se253  1  0.75239520  0.24327553  0.19746368  1
  Se  Se254  1  0.74421214  0.24699739  0.68408671  1
  Se  Se255  1  0.75099952  0.57938649  0.18383621  1
  Se  Se256  1  0.74186582  0.59074477  0.70363708  1
  Se  Se257  1  0.75688215  0.90424957  0.19001032  1
  Se  Se258  1  0.74937714  0.92193643  0.69793374  1
