# generated using pymatgen
data_In86Cu29Se144
_symmetry_space_group_name_H-M   'P 1'
_cell_length_a   17.59428742
_cell_length_b   17.59590846
_cell_length_c   23.45038318
_cell_angle_alpha   90.02275470
_cell_angle_beta   90.03053293
_cell_angle_gamma   89.98441333
_symmetry_Int_Tables_number   1
_chemical_formula_structural   In86Cu29Se144
_chemical_formula_sum   'In86 Cu29 Se144'
_cell_volume   7259.94295046
_cell_formula_units_Z   1
loop_
 _symmetry_equiv_pos_site_id
 _symmetry_equiv_pos_as_xyz
  1  'x, y, z'
loop_
 _atom_site_type_symbol
 _atom_site_label
 _atom_site_symmetry_multiplicity
 _atom_site_fract_x
 _atom_site_fract_y
 _atom_site_fract_z
 _atom_site_occupancy
  In  In0  1  -0.01908415  0.17907597  0.14630454  1
  In  In1  1  -0.00412740  0.16949337  0.62674587  1
  In  In2  1  -0.00027457  0.50026562  0.12810059  1
  In  In3  1  0.00021371  0.48329832  0.62088390  1
  In  In4  1  0.00572224  0.82224596  0.13644083  1
  In  In5  1  0.00996647  0.84367525  0.60933862  1
  In  In6  1  0.34491609  0.17367771  0.12276067  1
  In  In7  1  0.32708045  0.16868226  0.63317979  1
  In  In8  1  0.31793186  0.51303272  0.12934156  1
  In  In9  1  0.33006735  0.49097884  0.61873523  1
  In  In10  1  0.31707894  0.83484874  0.12102508  1
  In  In11  1  0.33060174  0.84255618  0.62689624  1
  In  In12  1  0.66627420  0.19140122  0.13508672  1
  In  In13  1  0.68276121  0.16683608  0.62239016  1
  In  In14  1  0.66618205  0.50227148  0.12903276  1
  In  In15  1  0.65668146  0.50960671  0.62693861  1
  In  In16  1  0.66820768  0.81734068  0.12870137  1
  In  In17  1  0.67083641  0.82392086  0.62422602  1
  In  In18  1  0.14638965  -0.00255170  0.38354926  1
  In  In19  1  0.15867390  -0.00610686  0.86975396  1
  In  In20  1  0.17490443  0.33811676  0.37039595  1
  In  In21  1  0.16888216  0.33409857  0.87224748  1
  In  In22  1  0.16842023  0.66490519  0.37590328  1
  In  In23  1  0.17465287  0.66532709  0.89476758  1
  In  In24  1  0.49099026  -0.00120323  0.37596101  1
  In  In25  1  0.50245012  0.01882351  0.87565819  1
  In  In26  1  0.52249786  0.34292257  0.35820321  1
  In  In27  1  0.49439483  0.33461102  0.87231173  1
  In  In28  1  0.48701533  0.65673976  0.36704814  1
  In  In29  1  0.51172915  0.65308793  0.87829644  1
  In  In30  1  0.85600970  -0.01086725  0.39083007  1
  In  In31  1  0.84393301  -0.00928878  0.86936039  1
  In  In32  1  0.83218706  0.33262133  0.36406955  1
  In  In33  1  0.84336706  0.34383542  0.86987180  1
  In  In34  1  0.84192070  0.65798472  0.35726613  1
  In  In35  1  0.82017751  0.65926042  0.87476260  1
  In  In36  1  -0.01766062  0.15285358  0.35805750  1
  In  In37  1  0.00219358  0.16682891  0.86893657  1
  In  In38  1  0.00614806  0.50866399  0.36326755  1
  In  In39  1  0.00925052  0.49389613  0.88199220  1
  In  In40  1  0.00571444  0.82630482  0.37651229  1
  In  In41  1  0.00447934  0.84300838  0.87329160  1
  In  In42  1  0.33559389  0.17001278  0.36803548  1
  In  In43  1  0.34188774  0.17943939  0.86837798  1
  In  In44  1  0.33326133  0.50007956  0.37541053  1
  In  In45  1  0.33656384  0.49243544  0.87998437  1
  In  In46  1  0.33354969  0.81634616  0.37637093  1
  In  In47  1  0.31624582  0.82957500  0.87635195  1
  In  In48  1  0.67862144  0.18569106  0.36758205  1
  In  In49  1  0.65240967  0.17441202  0.87826699  1
  In  In50  1  0.66809879  0.49374488  0.36457050  1
  In  In51  1  0.67869812  0.50427738  0.86894916  1
  In  In52  1  0.68305041  0.82910694  0.37846322  1
  In  In53  1  0.67837861  0.82649287  0.87138148  1
  In  In54  1  0.15835677  -0.01029611  0.12370599  1
  In  In55  1  0.16551658  -0.00338263  0.62873867  1
  In  In56  1  0.15361711  0.34808539  0.13280925  1
  In  In57  1  0.16288060  0.33409552  0.62637052  1
  In  In58  1  0.16792389  0.66640252  0.12032985  1
  In  In59  1  0.16319730  0.66230034  0.61596011  1
  In  In60  1  0.49033363  0.00584660  0.11969512  1
  In  In61  1  0.48938434  -0.00648881  0.63004324  1
  In  In62  1  0.49852847  0.32541074  0.13200481  1
  In  In63  1  0.49258723  0.33995733  0.62864982  1
  In  In64  1  0.50201910  0.65975444  0.13376982  1
  In  In65  1  0.52000479  0.66001105  0.62429528  1
  In  In66  1  0.84100079  0.01391805  0.13116502  1
  In  In67  1  0.84846766  0.01151801  0.60636006  1
  In  In68  1  0.80926292  0.36112871  0.16137764  1
  In  In69  1  0.83729315  0.32650457  0.62882851  1
  In  In70  1  0.83914534  0.65345306  0.13882760  1
  In  In71  1  0.81418065  0.66920375  0.61679734  1
  In  In72  1  0.32676368  -0.00031582  0.25139206  1
  In  In73  1  0.49587353  0.49853979  0.00572122  1
  In  In74  1  0.16166073  0.16931203  0.50152527  1
  In  In75  1  0.66795516  0.00327771  0.74970438  1
  In  In76  1  0.49727388  0.83289773  -0.00148956  1
  In  In77  1  0.50392416  0.82665554  0.50857232  1
  In  In78  1  0.33727134  0.66274897  0.75766056  1
  In  In79  1  0.83820841  0.82961126  0.00127182  1
  In  In80  1  -0.00406657  0.66859816  0.74776413  1
  In  In81  1  0.83546298  0.50143500  0.49286594  1
  In  In82  1  0.50495745  0.17300797  0.49652202  1
  In  In83  1  0.83402702  0.17604512  0.00748979  1
  In  In84  1  0.16219553  0.16617457  0.00092876  1
  In  In85  1  0.67136473  0.00077904  0.25259769  1
  Cu  Cu86  1  0.49900183  0.82851035  0.25170618  1
  Cu  Cu87  1  0.49453786  0.49440062  0.24951825  1
  Cu  Cu88  1  0.66270538  0.00546919  -0.00008662  1
  Cu  Cu89  1  0.49856626  0.83244555  0.74730452  1
  Cu  Cu90  1  0.83545175  0.16796610  0.74731097  1
  Cu  Cu91  1  0.16381341  0.83252932  0.74937090  1
  Cu  Cu92  1  -0.00221271  0.66468115  0.49068700  1
  Cu  Cu93  1  0.49727623  0.17418604  0.75071605  1
  Cu  Cu94  1  -0.00795141  0.34478026  0.00517349  1
  Cu  Cu95  1  0.00652355  0.33031277  0.49835636  1
  Cu  Cu96  1  0.32490616  -0.00090377  0.50558026  1
  Cu  Cu97  1  0.83450069  0.83273907  0.74480083  1
  Cu  Cu98  1  0.34062494  0.34373404  0.49529218  1
  Cu  Cu99  1  0.00445208  -0.00005457  0.00118151  1
  Cu  Cu100  1  0.33061088  0.00741935  -0.00065643  1
  Cu  Cu101  1  0.16567852  0.48954768  0.75087600  1
  Cu  Cu102  1  0.16427994  0.82755130  0.25114840  1
  Cu  Cu103  1  0.83810517  0.83237850  0.25669061  1
  Cu  Cu104  1  0.83320818  0.49493893  0.74430068  1
  Cu  Cu105  1  -0.00148763  0.66743161  0.00898979  1
  Cu  Cu106  1  0.17236074  0.50742865  0.24896037  1
  Cu  Cu107  1  0.66789540  0.34000866  0.00881737  1
  Cu  Cu108  1  0.33189608  0.66082876  0.49761172  1
  Cu  Cu109  1  0.50332181  0.49562932  0.75117216  1
  Cu  Cu110  1  0.67139286  0.34145590  0.49328362  1
  Cu  Cu111  1  0.32808922  0.33509859  -0.00318181  1
  Cu  Cu112  1  0.16750445  0.16839876  0.25186242  1
  Cu  Cu113  1  0.67243483  0.00661850  0.49685029  1
  Cu  Cu114  1  0.16433924  0.16028705  0.74962582  1
  Se  Se115  1  0.06877372  0.08778397  0.06589041  1
  Se  Se116  1  0.07484861  0.07512246  0.55798260  1
  Se  Se117  1  0.08347670  0.42383772  0.05416656  1
  Se  Se118  1  0.09012147  0.41466749  0.54980087  1
  Se  Se119  1  0.08182045  0.75659642  0.05583022  1
  Se  Se120  1  0.08258737  0.74493461  0.54758227  1
  Se  Se121  1  0.41676608  0.09043058  0.04799204  1
  Se  Se122  1  0.41047394  0.08282236  0.55765503  1
  Se  Se123  1  0.40498879  0.40993096  0.06389262  1
  Se  Se124  1  0.42625419  0.42164615  0.55088453  1
  Se  Se125  1  0.41441847  0.74600930  0.06373793  1
  Se  Se126  1  0.40769607  0.73758510  0.56609800  1
  Se  Se127  1  0.74098224  0.08246651  0.06332143  1
  Se  Se128  1  0.75638283  0.09425231  0.54470380  1
  Se  Se129  1  0.75327520  0.41450316  0.06641028  1
  Se  Se130  1  0.74982026  0.41579223  0.55997185  1
  Se  Se131  1  0.75229509  0.73759245  0.05904769  1
  Se  Se132  1  0.73699306  0.74858811  0.54515998  1
  Se  Se133  1  0.24776746  0.25897877  0.06098466  1
  Se  Se134  1  0.26272646  0.25813996  0.55426850  1
  Se  Se135  1  0.24826899  0.58429101  0.04991729  1
  Se  Se136  1  0.24857041  0.57738067  0.55232023  1
  Se  Se137  1  0.24666458  0.92363273  0.04981045  1
  Se  Se138  1  0.24325337  0.91340605  0.55569073  1
  Se  Se139  1  0.58295722  0.25343820  0.05642144  1
  Se  Se140  1  0.59437675  0.26058854  0.55818053  1
  Se  Se141  1  0.58939899  0.59289394  0.05605530  1
  Se  Se142  1  0.58733611  0.58284058  0.54716057  1
  Se  Se143  1  0.59174703  0.91958516  0.06173175  1
  Se  Se144  1  0.59105615  0.93169489  0.56037103  1
  Se  Se145  1  0.91648102  0.26751429  0.06888919  1
  Se  Se146  1  0.92015038  0.25374109  0.55432598  1
  Se  Se147  1  0.91469577  0.58344097  0.05922014  1
  Se  Se148  1  0.92380896  0.58903772  0.55980772  1
  Se  Se149  1  0.92296953  0.92209892  0.06275090  1
  Se  Se150  1  0.89518825  0.89388064  0.55261186  1
  Se  Se151  1  0.07933056  0.25119495  0.43220010  1
  Se  Se152  1  0.06874287  0.25918575  0.94539399  1
  Se  Se153  1  0.08257633  0.57898635  0.44211992  1
  Se  Se154  1  0.08006936  0.58368419  0.95255652  1
  Se  Se155  1  0.07668057  0.90972250  0.45206794  1
  Se  Se156  1  0.08603757  0.91619838  0.94794766  1
  Se  Se157  1  0.41684398  0.26072492  0.43497025  1
  Se  Se158  1  0.41629360  0.25433756  0.94611725  1
  Se  Se159  1  0.41841938  0.58010597  0.44651283  1
  Se  Se160  1  0.40800484  0.59404315  0.94549977  1
  Se  Se161  1  0.40899583  0.91798607  0.44854883  1
  Se  Se162  1  0.41109773  0.92720428  0.93768938  1
  Se  Se163  1  0.75715741  0.25808027  0.44374272  1
  Se  Se164  1  0.74519861  0.26143878  0.94240316  1
  Se  Se165  1  0.74692845  0.58821850  0.43196338  1
  Se  Se166  1  0.74873098  0.57861543  0.94761530  1
  Se  Se167  1  0.75307042  0.91588841  0.44958487  1
  Se  Se168  1  0.74547100  0.92693288  0.94289211  1
  Se  Se169  1  0.25617890  0.08018244  0.43936340  1
  Se  Se170  1  0.25154951  0.08400951  0.93489973  1
  Se  Se171  1  0.24765026  0.41969730  0.44562629  1
  Se  Se172  1  0.24340912  0.41750216  0.94532327  1
  Se  Se173  1  0.24832776  0.74811616  0.44939299  1
  Se  Se174  1  0.25498809  0.75446195  0.95700312  1
  Se  Se175  1  0.59097451  0.08077432  0.43484869  1
  Se  Se176  1  0.57943815  0.09211797  0.95221380  1
  Se  Se177  1  0.58502537  0.41947866  0.44015118  1
  Se  Se178  1  0.58818975  0.41445955  0.94238971  1
  Se  Se179  1  0.57867202  0.74676594  0.43384124  1
  Se  Se180  1  0.59661137  0.74506244  0.94442620  1
  Se  Se181  1  0.92400904  0.09448773  0.44829782  1
  Se  Se182  1  0.92010343  0.07953584  0.94378094  1
  Se  Se183  1  0.92769594  0.41141214  0.43598484  1
  Se  Se184  1  0.91015500  0.42470526  0.94773136  1
  Se  Se185  1  0.91182886  0.73836676  0.43420318  1
  Se  Se186  1  0.92622763  0.74132854  0.93659774  1
  Se  Se187  1  0.25392953  0.25147830  0.30055246  1
  Se  Se188  1  0.24524030  0.24796757  0.80249988  1
  Se  Se189  1  0.25522880  0.58727052  0.30604654  1
  Se  Se190  1  0.23855336  0.57557115  0.81236835  1
  Se  Se191  1  0.24179093  0.90927390  0.31423182  1
  Se  Se192  1  0.24854263  0.91484837  0.80240524  1
  Se  Se193  1  0.58503969  0.24040890  0.29515104  1
  Se  Se194  1  0.58269572  0.25592869  0.80304281  1
  Se  Se195  1  0.57841354  0.57921745  0.30156458  1
  Se  Se196  1  0.58756233  0.58239711  0.80100118  1
  Se  Se197  1  0.57728932  0.90876719  0.31199005  1
  Se  Se198  1  0.57834161  0.91211728  0.81151780  1
  Se  Se199  1  0.93064730  0.26420929  0.29967387  1
  Se  Se200  1  0.91736513  0.25018150  0.80376464  1
  Se  Se201  1  0.90137623  0.55544011  0.29265398  1
  Se  Se202  1  0.91225655  0.57427634  0.80811358  1
  Se  Se203  1  0.92209261  0.91383872  0.30931230  1
  Se  Se204  1  0.92187511  0.91293485  0.79679375  1
  Se  Se205  1  0.08890268  0.07951686  0.30293004  1
  Se  Se206  1  0.07770929  0.07816808  0.80133669  1
  Se  Se207  1  0.09202768  0.42039398  0.30138348  1
  Se  Se208  1  0.07831977  0.41206231  0.80511437  1
  Se  Se209  1  0.08248173  0.74195343  0.30436352  1
  Se  Se210  1  0.09358074  0.74661627  0.81209986  1
  Se  Se211  1  0.42876335  0.08957121  0.30036591  1
  Se  Se212  1  0.41672491  0.08553367  0.80138706  1
  Se  Se213  1  0.41248165  0.41299673  0.30542114  1
  Se  Se214  1  0.41271390  0.41902409  0.80333094  1
  Se  Se215  1  0.40933084  0.74635466  0.29867523  1
  Se  Se216  1  0.42741955  0.75549795  0.81618580  1
  Se  Se217  1  0.76106486  0.07643313  0.31984074  1
  Se  Se218  1  0.75634609  0.09257271  0.81401723  1
  Se  Se219  1  0.73582255  0.39893486  0.29630999  1
  Se  Se220  1  0.75003483  0.41289939  0.80012173  1
  Se  Se221  1  0.74863537  0.74807740  0.30101383  1
  Se  Se222  1  0.75506184  0.74726261  0.79871828  1
  Se  Se223  1  0.24269342  0.08937760  0.18566302  1
  Se  Se224  1  0.24975963  0.07766628  0.69742837  1
  Se  Se225  1  0.25221107  0.41666989  0.19784251  1
  Se  Se226  1  0.25152120  0.41426363  0.69354358  1
  Se  Se227  1  0.24817947  0.74994421  0.19401520  1
  Se  Se228  1  0.24395438  0.74718505  0.69265127  1
  Se  Se229  1  0.58085834  0.08508938  0.18842978  1
  Se  Se230  1  0.57581842  0.09348939  0.68811314  1
  Se  Se231  1  0.58035135  0.41633251  0.19397069  1
  Se  Se232  1  0.58585867  0.41535530  0.69441637  1
  Se  Se233  1  0.58450362  0.74554345  0.20093319  1
  Se  Se234  1  0.58513932  0.75137590  0.69707655  1
  Se  Se235  1  0.92813857  0.06896798  0.20735561  1
  Se  Se236  1  0.91231136  0.08087507  0.69228169  1
  Se  Se237  1  0.91819158  0.43401525  0.20803317  1
  Se  Se238  1  0.92074149  0.41172754  0.69629599  1
  Se  Se239  1  0.91870327  0.74496416  0.20353283  1
  Se  Se240  1  0.91126069  0.75285075  0.68147162  1
  Se  Se241  1  0.08396675  0.25466503  0.20140015  1
  Se  Se242  1  0.08504445  0.24648164  0.69398767  1
  Se  Se243  1  0.08744057  0.58625714  0.19216030  1
  Se  Se244  1  0.08769117  0.57346096  0.69146041  1
  Se  Se245  1  0.08283415  0.91655294  0.20106563  1
  Se  Se246  1  0.07906681  0.91093945  0.69378700  1
  Se  Se247  1  0.41061937  0.25019547  0.20087923  1
  Se  Se248  1  0.41190862  0.25476929  0.69663417  1
  Se  Se249  1  0.41221307  0.58182598  0.19856892  1
  Se  Se250  1  0.42227999  0.57778629  0.69083855  1
  Se  Se251  1  0.42078782  0.90967944  0.19065122  1
  Se  Se252  1  0.41005534  0.91676987  0.70279598  1
  Se  Se253  1  0.78451993  0.22329188  0.19395165  1
  Se  Se254  1  0.74771556  0.25053260  0.69861520  1
  Se  Se255  1  0.73494773  0.59164538  0.20012880  1
  Se  Se256  1  0.75214329  0.58265236  0.69358217  1
  Se  Se257  1  0.75978030  0.90799816  0.19040560  1
  Se  Se258  1  0.75653654  0.91861287  0.68647955  1
