# generated using pymatgen
data_In86Cu29Se144
_symmetry_space_group_name_H-M   'P 1'
_cell_length_a   17.58390570
_cell_length_b   17.58486385
_cell_length_c   23.44720899
_cell_angle_alpha   90.00737559
_cell_angle_beta   90.00145825
_cell_angle_gamma   89.99748932
_symmetry_Int_Tables_number   1
_chemical_formula_structural   In86Cu29Se144
_chemical_formula_sum   'In86 Cu29 Se144'
_cell_volume   7250.12520182
_cell_formula_units_Z   1
loop_
 _symmetry_equiv_pos_site_id
 _symmetry_equiv_pos_as_xyz
  1  'x, y, z'
loop_
 _atom_site_type_symbol
 _atom_site_label
 _atom_site_symmetry_multiplicity
 _atom_site_fract_x
 _atom_site_fract_y
 _atom_site_fract_z
 _atom_site_occupancy
  In  In0  1  -0.01390325  0.17008642  0.12888709  1
  In  In1  1  -0.00013316  0.17375140  0.62504500  1
  In  In2  1  0.01791846  0.52490397  0.10464378  1
  In  In3  1  -0.01574974  0.50542083  0.62769108  1
  In  In4  1  0.00117771  0.83160947  0.12625299  1
  In  In5  1  -0.00096335  0.83520859  0.60629464  1
  In  In6  1  0.35295480  0.15908282  0.12744823  1
  In  In7  1  0.32475444  0.15023299  0.62171051  1
  In  In8  1  0.33432093  0.50282116  0.12712650  1
  In  In9  1  0.34277387  0.49915432  0.62482953  1
  In  In10  1  0.31005686  0.83759455  0.12388609  1
  In  In11  1  0.34710506  0.84667511  0.61359309  1
  In  In12  1  0.66215048  0.16111829  0.12298652  1
  In  In13  1  0.66263774  0.16200074  0.61339292  1
  In  In14  1  0.68059800  0.51401928  0.11703841  1
  In  In15  1  0.68057604  0.50342748  0.62601556  1
  In  In16  1  0.67982386  0.82224248  0.13524911  1
  In  In17  1  0.66636848  0.82802529  0.62115109  1
  In  In18  1  0.13760369  -0.00385915  0.37049465  1
  In  In19  1  0.16768617  -0.01550597  0.87782975  1
  In  In20  1  0.17619055  0.31947146  0.36656219  1
  In  In21  1  0.16574143  0.34511348  0.88006754  1
  In  In22  1  0.17407408  0.67737606  0.36713650  1
  In  In23  1  0.15136553  0.67271385  0.89540342  1
  In  In24  1  0.51218019  -0.01007694  0.37919675  1
  In  In25  1  0.50309472  0.00897463  0.87447432  1
  In  In26  1  0.48359460  0.32489454  0.37454052  1
  In  In27  1  0.49917238  0.33525872  0.88223450  1
  In  In28  1  0.50877486  0.67568000  0.36523848  1
  In  In29  1  0.49579122  0.66353955  0.87674464  1
  In  In30  1  0.83475650  -0.00214931  0.37612195  1
  In  In31  1  0.83357582  -0.00443361  0.88348688  1
  In  In32  1  0.83435157  0.33687552  0.38167292  1
  In  In33  1  0.83599234  0.32458310  0.87819039  1
  In  In34  1  0.83282621  0.66936950  0.37262501  1
  In  In35  1  0.82279258  0.67964103  0.89235357  1
  In  In36  1  0.00127027  0.14030502  0.37288598  1
  In  In37  1  -0.01831802  0.16375902  0.87592179  1
  In  In38  1  -0.01568004  0.50047560  0.37243957  1
  In  In39  1  0.00459744  0.49481943  0.88471437  1
  In  In40  1  -0.00137292  0.83400652  0.37648716  1
  In  In41  1  -0.00890940  0.83105508  0.88646333  1
  In  In42  1  0.33163944  0.17769710  0.37216280  1
  In  In43  1  0.34430804  0.16485084  0.87831738  1
  In  In44  1  0.32722008  0.49355571  0.36342036  1
  In  In45  1  0.33034548  0.50810512  0.88877800  1
  In  In46  1  0.34264328  0.82947091  0.37938612  1
  In  In47  1  0.32532019  0.83082515  0.87489524  1
  In  In48  1  0.68015799  0.15584130  0.38113086  1
  In  In49  1  0.66386160  0.16323736  0.88322654  1
  In  In50  1  0.67197361  0.51323737  0.37055389  1
  In  In51  1  0.65688875  0.50995173  0.88314838  1
  In  In52  1  0.66684692  0.83299611  0.37201428  1
  In  In53  1  0.68322415  0.83175936  0.86992217  1
  In  In54  1  0.17199592  -0.01922862  0.12412640  1
  In  In55  1  0.17739514  0.00110022  0.62206996  1
  In  In56  1  0.16410506  0.34736894  0.12833483  1
  In  In57  1  0.16032385  0.31967523  0.62617649  1
  In  In58  1  0.16637699  0.67322583  0.12766207  1
  In  In59  1  0.15536682  0.66640734  0.62252691  1
  In  In60  1  0.49841672  0.01403584  0.12461341  1
  In  In61  1  0.48818857  -0.01261426  0.61767098  1
  In  In62  1  0.49391793  0.32902166  0.12176903  1
  In  In63  1  0.50931652  0.33539854  0.62016708  1
  In  In64  1  0.50866924  0.66005626  0.13298875  1
  In  In65  1  0.50790213  0.68886191  0.62448254  1
  In  In66  1  0.83540799  -0.00283804  0.12910462  1
  In  In67  1  0.82881489  -0.00904601  0.60895871  1
  In  In68  1  0.83906895  0.33787754  0.12009318  1
  In  In69  1  0.83544540  0.34347431  0.61968173  1
  In  In70  1  0.83750368  0.66919809  0.12573265  1
  In  In71  1  0.82809864  0.66738146  0.62077296  1
  In  In72  1  0.16859335  0.16529299  0.00774480  1
  In  In73  1  0.33093605  -0.00134463  0.24907637  1
  In  In74  1  0.66451519  0.33428064  0.24231353  1
  In  In75  1  0.16617907  0.16188056  0.49414141  1
  In  In76  1  0.00155731  0.33665167  0.24969161  1
  In  In77  1  0.50282924  0.50001900  0.49512126  1
  In  In78  1  0.16566841  0.49891549  0.48839994  1
  In  In79  1  -0.00029751  -0.00288489  0.75188461  1
  In  In80  1  0.49836250  0.83652163  0.00355674  1
  In  In81  1  0.66635737  -0.00719171  0.74133610  1
  In  In82  1  -0.00885191  0.66993404  0.75742734  1
  In  In83  1  0.32757160  0.67244941  0.75919269  1
  In  In84  1  0.66848554  0.33393174  0.74843320  1
  In  In85  1  0.33166531  0.33297567  0.75237654  1
  Cu  Cu86  1  0.49807428  0.83210572  0.25177497  1
  Cu  Cu87  1  0.83442021  0.15643992  0.25391973  1
  Cu  Cu88  1  0.50142028  0.51355415  0.75775981  1
  Cu  Cu89  1  0.66698886  0.66928745  0.00671526  1
  Cu  Cu90  1  0.33622920  0.33707059  0.00320831  1
  Cu  Cu91  1  0.33390095  -0.00053794  0.49570236  1
  Cu  Cu92  1  0.50681436  0.16434015  0.25046948  1
  Cu  Cu93  1  -0.00598616  0.67268479  0.49812413  1
  Cu  Cu94  1  -0.00610980  0.33020701  0.00232754  1
  Cu  Cu95  1  0.33361131  0.66494290  0.00612725  1
  Cu  Cu96  1  0.83187026  0.16328172  0.75028921  1
  Cu  Cu97  1  0.49241472  0.16342904  0.74937314  1
  Cu  Cu98  1  0.66342656  0.33029616  0.00198262  1
  Cu  Cu99  1  0.16590310  0.50812910  0.24369060  1
  Cu  Cu100  1  0.66866237  -0.00069519  0.49657534  1
  Cu  Cu101  1  0.67070057  -0.00248478  0.00388330  1
  Cu  Cu102  1  0.49818856  0.50204605  0.24962894  1
  Cu  Cu103  1  0.83473755  0.49884885  0.75043173  1
  Cu  Cu104  1  -0.00730110  -0.00283190  0.00359199  1
  Cu  Cu105  1  0.67056229  0.67055560  0.49443395  1
  Cu  Cu106  1  0.16338733  0.16494528  0.74712651  1
  Cu  Cu107  1  0.83622119  0.50866611  0.24315721  1
  Cu  Cu108  1  0.33565429  0.66521300  0.49499991  1
  Cu  Cu109  1  0.83595158  0.83485866  0.25311317  1
  Cu  Cu110  1  0.15949711  0.83086314  0.25054039  1
  Cu  Cu111  1  -0.00129446  0.33477550  0.50072163  1
  Cu  Cu112  1  0.17213985  0.83481644  0.74836646  1
  Cu  Cu113  1  0.66639017  0.33178993  0.49768610  1
  Cu  Cu114  1  0.16208891  0.49362600  0.75987391  1
  Se  Se115  1  0.07376009  0.07622556  0.06384836  1
  Se  Se116  1  0.07676523  0.07779684  0.55866241  1
  Se  Se117  1  0.08306364  0.41234655  0.05074184  1
  Se  Se118  1  0.07962523  0.41559784  0.56014111  1
  Se  Se119  1  0.09381484  0.76146357  0.05769009  1
  Se  Se120  1  0.08900214  0.74810764  0.54657218  1
  Se  Se121  1  0.41635390  0.08037763  0.04906493  1
  Se  Se122  1  0.41521070  0.08273439  0.55116512  1
  Se  Se123  1  0.41859795  0.42194078  0.05613544  1
  Se  Se124  1  0.40925871  0.40772090  0.55232486  1
  Se  Se125  1  0.41222805  0.74645955  0.06691563  1
  Se  Se126  1  0.41850329  0.74848516  0.54906779  1
  Se  Se127  1  0.75292823  0.08156601  0.05852216  1
  Se  Se128  1  0.75230310  0.08659705  0.54704624  1
  Se  Se129  1  0.74788262  0.41313235  0.05386150  1
  Se  Se130  1  0.74641336  0.41887052  0.55066180  1
  Se  Se131  1  0.75392003  0.75308438  0.05511321  1
  Se  Se132  1  0.75287300  0.75359397  0.54973186  1
  Se  Se133  1  0.25910884  0.25733644  0.06588693  1
  Se  Se134  1  0.25531270  0.25456974  0.55558691  1
  Se  Se135  1  0.24804092  0.58445069  0.05974737  1
  Se  Se136  1  0.25639673  0.58525198  0.55620916  1
  Se  Se137  1  0.25596449  0.92344594  0.04524810  1
  Se  Se138  1  0.24862682  0.91637611  0.54871780  1
  Se  Se139  1  0.58071628  0.24663001  0.05580220  1
  Se  Se140  1  0.58002715  0.25007880  0.54852448  1
  Se  Se141  1  0.57967633  0.58446696  0.05376347  1
  Se  Se142  1  0.59014654  0.59032573  0.55755131  1
  Se  Se143  1  0.59245901  0.91839743  0.06666067  1
  Se  Se144  1  0.58786350  0.91800128  0.55479346  1
  Se  Se145  1  0.91102248  0.24435771  0.05199899  1
  Se  Se146  1  0.91608860  0.25247426  0.55548137  1
  Se  Se147  1  0.89319157  0.56501658  0.05812061  1
  Se  Se148  1  0.91450011  0.58555115  0.55234184  1
  Se  Se149  1  0.91218367  0.91180218  0.05766568  1
  Se  Se150  1  0.92313676  0.92452640  0.54181797  1
  Se  Se151  1  0.07443774  0.25640624  0.43653844  1
  Se  Se152  1  0.07663048  0.24949971  0.94216782  1
  Se  Se153  1  0.07390117  0.59325204  0.43596549  1
  Se  Se154  1  0.08617495  0.57204398  0.95622530  1
  Se  Se155  1  0.07992377  0.91406142  0.44859328  1
  Se  Se156  1  0.07784840  0.91735024  0.94879630  1
  Se  Se157  1  0.41741110  0.23978712  0.44792275  1
  Se  Se158  1  0.41658959  0.25153102  0.94907553  1
  Se  Se159  1  0.41165694  0.58516641  0.43267218  1
  Se  Se160  1  0.42180888  0.58629261  0.95292568  1
  Se  Se161  1  0.42228315  0.91448174  0.44768641  1
  Se  Se162  1  0.41195026  0.92242106  0.93963071  1
  Se  Se163  1  0.75352145  0.24997452  0.44711735  1
  Se  Se164  1  0.74775029  0.24810434  0.94715610  1
  Se  Se165  1  0.75392282  0.58320945  0.44504982  1
  Se  Se166  1  0.74704530  0.58161449  0.95281966  1
  Se  Se167  1  0.74882648  0.91369350  0.44266614  1
  Se  Se168  1  0.74945442  0.91145278  0.94933972  1
  Se  Se169  1  0.25246613  0.07145366  0.43138134  1
  Se  Se170  1  0.25244320  0.07875061  0.94174074  1
  Se  Se171  1  0.25938855  0.40263037  0.44052757  1
  Se  Se172  1  0.24891394  0.41829794  0.95229055  1
  Se  Se173  1  0.25061020  0.74993986  0.44480932  1
  Se  Se174  1  0.25425605  0.74983918  0.95009900  1
  Se  Se175  1  0.58330368  0.08441980  0.44649646  1
  Se  Se176  1  0.58347666  0.07896328  0.95130099  1
  Se  Se177  1  0.59080248  0.41026907  0.43221186  1
  Se  Se178  1  0.58171865  0.41711222  0.94924490  1
  Se  Se179  1  0.58215619  0.75069566  0.44280716  1
  Se  Se180  1  0.58991693  0.74921356  0.94238106  1
  Se  Se181  1  0.90477083  0.09324881  0.44461824  1
  Se  Se182  1  0.91075429  0.08380142  0.95147560  1
  Se  Se183  1  0.91536099  0.42175993  0.45019532  1
  Se  Se184  1  0.91180771  0.41272962  0.94701306  1
  Se  Se185  1  0.90983562  0.75361976  0.44414451  1
  Se  Se186  1  0.93933024  0.72459012  0.94960044  1
  Se  Se187  1  0.25921854  0.25020417  0.29391877  1
  Se  Se188  1  0.24148450  0.24292777  0.81258957  1
  Se  Se189  1  0.25107456  0.58705140  0.30026433  1
  Se  Se190  1  0.23563790  0.58126829  0.81709104  1
  Se  Se191  1  0.24279158  0.91019015  0.31218963  1
  Se  Se192  1  0.25322138  0.91805903  0.80206449  1
  Se  Se193  1  0.58590371  0.24546899  0.31138202  1
  Se  Se194  1  0.57508522  0.24348457  0.80758819  1
  Se  Se195  1  0.58591575  0.58424397  0.29925265  1
  Se  Se196  1  0.58897439  0.59388165  0.80699918  1
  Se  Se197  1  0.58454049  0.91607163  0.30069755  1
  Se  Se198  1  0.58087799  0.91118476  0.80995505  1
  Se  Se199  1  0.91153995  0.24608951  0.31031941  1
  Se  Se200  1  0.91383313  0.24928674  0.80115767  1
  Se  Se201  1  0.91757603  0.58913446  0.30062409  1
  Se  Se202  1  0.90938966  0.57506462  0.81684461  1
  Se  Se203  1  0.91981910  0.91896070  0.30555792  1
  Se  Se204  1  0.90856802  0.90696851  0.80932467  1
  Se  Se205  1  0.10103312  0.10124306  0.29924674  1
  Se  Se206  1  0.08774891  0.08799737  0.81373336  1
  Se  Se207  1  0.09285683  0.42749438  0.31107488  1
  Se  Se208  1  0.07524767  0.41058425  0.80771160  1
  Se  Se209  1  0.07561298  0.74786011  0.30395206  1
  Se  Se210  1  0.09102059  0.75879388  0.81113683  1
  Se  Se211  1  0.42544155  0.08295410  0.31040639  1
  Se  Se212  1  0.41270460  0.08009813  0.80322157  1
  Se  Se213  1  0.41879280  0.41287133  0.30016867  1
  Se  Se214  1  0.41865483  0.42949447  0.81167615  1
  Se  Se215  1  0.41130072  0.74910200  0.30140405  1
  Se  Se216  1  0.42738640  0.76231920  0.80743768  1
  Se  Se217  1  0.74693291  0.07526268  0.30365787  1
  Se  Se218  1  0.75161983  0.08393452  0.80915179  1
  Se  Se219  1  0.75990744  0.42172574  0.30238748  1
  Se  Se220  1  0.75142084  0.42305252  0.81277595  1
  Se  Se221  1  0.74904200  0.74964486  0.30273178  1
  Se  Se222  1  0.76366227  0.74551750  0.80547986  1
  Se  Se223  1  0.24478062  0.08704955  0.18609482  1
  Se  Se224  1  0.24884010  0.07947749  0.69986405  1
  Se  Se225  1  0.25158506  0.42009600  0.19837767  1
  Se  Se226  1  0.24169937  0.42467394  0.69145378  1
  Se  Se227  1  0.25003311  0.75118227  0.20104445  1
  Se  Se228  1  0.24628823  0.75286452  0.68560027  1
  Se  Se229  1  0.58807603  0.07970999  0.19819082  1
  Se  Se230  1  0.57469118  0.08878024  0.68783687  1
  Se  Se231  1  0.57919671  0.42839142  0.18433800  1
  Se  Se232  1  0.57496082  0.43091212  0.69410353  1
  Se  Se233  1  0.58499334  0.74900232  0.20064225  1
  Se  Se234  1  0.59051449  0.75480729  0.69840182  1
  Se  Se235  1  0.92116371  0.07792200  0.20001872  1
  Se  Se236  1  0.90845762  0.08206554  0.68815536  1
  Se  Se237  1  0.92062299  0.42907448  0.18612027  1
  Se  Se238  1  0.91560518  0.41354161  0.69760950  1
  Se  Se239  1  0.91720500  0.75117847  0.19704107  1
  Se  Se240  1  0.91926477  0.75769096  0.68472004  1
  Se  Se241  1  0.08974593  0.24479391  0.19061785  1
  Se  Se242  1  0.07754081  0.25072356  0.70087163  1
  Se  Se243  1  0.07783576  0.58815678  0.19342880  1
  Se  Se244  1  0.08600943  0.57608359  0.69759288  1
  Se  Se245  1  0.08107777  0.91816725  0.19753498  1
  Se  Se246  1  0.08719726  0.90930986  0.68747968  1
  Se  Se247  1  0.42277058  0.24842873  0.19904244  1
  Se  Se248  1  0.41939816  0.24751177  0.68708756  1
  Se  Se249  1  0.41368416  0.58681915  0.19852275  1
  Se  Se250  1  0.42073473  0.58743839  0.69356320  1
  Se  Se251  1  0.42066553  0.90938256  0.18687095  1
  Se  Se252  1  0.41354529  0.91615036  0.69535255  1
  Se  Se253  1  0.76223259  0.24240853  0.19165517  1
  Se  Se254  1  0.75269838  0.24081745  0.68712284  1
  Se  Se255  1  0.74675169  0.59177012  0.19641474  1
  Se  Se256  1  0.75476807  0.58601309  0.69789249  1
  Se  Se257  1  0.75124788  0.91823207  0.20039297  1
  Se  Se258  1  0.76569779  0.90724224  0.68918827  1
