# generated using pymatgen
data_In86Cu29Se144
_symmetry_space_group_name_H-M   'P 1'
_cell_length_a   17.57403812
_cell_length_b   17.57534724
_cell_length_c   23.42811983
_cell_angle_alpha   89.99251851
_cell_angle_beta   90.02692494
_cell_angle_gamma   90.00133360
_symmetry_Int_Tables_number   1
_chemical_formula_structural   In86Cu29Se144
_chemical_formula_sum   'In86 Cu29 Se144'
_cell_volume   7236.23834990
_cell_formula_units_Z   1
loop_
 _symmetry_equiv_pos_site_id
 _symmetry_equiv_pos_as_xyz
  1  'x, y, z'
loop_
 _atom_site_type_symbol
 _atom_site_label
 _atom_site_symmetry_multiplicity
 _atom_site_fract_x
 _atom_site_fract_y
 _atom_site_fract_z
 _atom_site_occupancy
  In  In0  1  -0.00371945  0.18391966  0.12224405  1
  In  In1  1  0.00218287  0.17296742  0.62922700  1
  In  In2  1  -0.02959193  0.46691481  0.09192715  1
  In  In3  1  -0.00313576  0.50143441  0.63441671  1
  In  In4  1  -0.00712490  0.82691610  0.11655440  1
  In  In5  1  0.00123278  0.81660188  0.62759493  1
  In  In6  1  0.34341729  0.15608987  0.12333158  1
  In  In7  1  0.32097935  0.17154698  0.64470857  1
  In  In8  1  0.33001403  0.49919009  0.11093827  1
  In  In9  1  0.32792252  0.49395918  0.63314995  1
  In  In10  1  0.33227024  0.83015714  0.11454816  1
  In  In11  1  0.34105660  0.84527551  0.62262718  1
  In  In12  1  0.67187301  0.16825946  0.11727391  1
  In  In13  1  0.67808521  0.15898279  0.64150024  1
  In  In14  1  0.67415915  0.48871557  0.10576515  1
  In  In15  1  0.67543571  0.46792386  0.63612903  1
  In  In16  1  0.67553563  0.84921227  0.11761170  1
  In  In17  1  0.65852895  0.85119998  0.62688619  1
  In  In18  1  0.16497358  0.00309001  0.39140125  1
  In  In19  1  0.16657108  -0.00884599  0.87124147  1
  In  In20  1  0.14899066  0.34237167  0.37915882  1
  In  In21  1  0.17002911  0.33270845  0.86956445  1
  In  In22  1  0.17589525  0.67301765  0.37578942  1
  In  In23  1  0.15827155  0.67157633  0.87460176  1
  In  In24  1  0.49753070  -0.00663197  0.37183971  1
  In  In25  1  0.50218535  0.00005613  0.87217489  1
  In  In26  1  0.50782205  0.31663852  0.37416358  1
  In  In27  1  0.50119723  0.33276035  0.87870411  1
  In  In28  1  0.51726765  0.67509255  0.37530151  1
  In  In29  1  0.50706546  0.66012903  0.88407041  1
  In  In30  1  0.83672882  0.01252817  0.37457222  1
  In  In31  1  0.81832667  0.01684766  0.87943181  1
  In  In32  1  0.83740496  0.33217252  0.37450041  1
  In  In33  1  0.83479135  0.32609263  0.87490927  1
  In  In34  1  0.82258427  0.65742674  0.37712983  1
  In  In35  1  0.84825542  0.66149081  0.88081891  1
  In  In36  1  -0.01263119  0.17682487  0.38606164  1
  In  In37  1  -0.01722641  0.18034702  0.87653981  1
  In  In38  1  -0.00637313  0.48337702  0.37042754  1
  In  In39  1  -0.00648780  0.49562837  0.87819812  1
  In  In40  1  0.00078827  0.84660870  0.38086380  1
  In  In41  1  0.00965831  0.83187383  0.87904368  1
  In  In42  1  0.33831444  0.15467708  0.38066112  1
  In  In43  1  0.34014689  0.18042272  0.85671780  1
  In  In44  1  0.32669527  0.50223028  0.37423175  1
  In  In45  1  0.34710022  0.48163781  0.88342706  1
  In  In46  1  0.33321458  0.84009619  0.38352968  1
  In  In47  1  0.33036256  0.83768800  0.87452618  1
  In  In48  1  0.67474862  0.17693735  0.36504154  1
  In  In49  1  0.67684217  0.16725286  0.87271860  1
  In  In50  1  0.68522350  0.50037610  0.37761751  1
  In  In51  1  0.66692569  0.48317808  0.88604349  1
  In  In52  1  0.65743184  0.83342575  0.37599102  1
  In  In53  1  0.66089415  0.84119275  0.88302663  1
  In  In54  1  0.17902454  -0.00085593  0.12027811  1
  In  In55  1  0.17466257  0.01121312  0.62826527  1
  In  In56  1  0.15161460  0.33156118  0.11792921  1
  In  In57  1  0.16496636  0.31440957  0.64879824  1
  In  In58  1  0.16578270  0.66407269  0.11623815  1
  In  In59  1  0.15872448  0.66002022  0.62702402  1
  In  In60  1  0.51793333  0.01756098  0.11026211  1
  In  In61  1  0.51006921  -0.00674115  0.63283068  1
  In  In62  1  0.53078766  0.35005028  0.09139695  1
  In  In63  1  0.51886440  0.32106198  0.64473791  1
  In  In64  1  0.49883686  0.66197652  0.11277230  1
  In  In65  1  0.49276083  0.67093070  0.62655881  1
  In  In66  1  0.81873863  -0.01122421  0.11832315  1
  In  In67  1  0.81346623  0.00660682  0.62670689  1
  In  In68  1  0.83063418  0.32504223  0.11197714  1
  In  In69  1  0.83376489  0.33244500  0.62464037  1
  In  In70  1  0.83158009  0.66978504  0.12011069  1
  In  In71  1  0.84822363  0.66448761  0.62923695  1
  In  In72  1  0.50140145  0.50458736  0.50619718  1
  In  In73  1  0.33011285  0.66173684  0.75348274  1
  In  In74  1  -0.00471468  0.00895433  0.25252984  1
  In  In75  1  -0.00493751  0.00789955  0.75129238  1
  In  In76  1  0.66791837  0.66596119  0.24869187  1
  In  In77  1  0.50266342  0.15595555  0.50623929  1
  In  In78  1  0.83456316  0.83567167  0.50298053  1
  In  In79  1  0.33465788  0.66772160  0.25008919  1
  In  In80  1  0.16202221  0.16439166  -0.01184952  1
  In  In81  1  0.33891749  -0.00134992  0.25019112  1
  In  In82  1  0.16027723  0.49912175  0.51021608  1
  In  In83  1  0.67134160  0.65958691  0.76646405  1
  In  In84  1  -0.00074818  0.66199688  0.23441877  1
  In  In85  1  0.33984972  0.32302286  0.24928028  1
  Cu  Cu86  1  0.50007595  0.16688559  0.75699882  1
  Cu  Cu87  1  0.66729446  0.00304316  -0.00479770  1
  Cu  Cu88  1  0.32967511  0.32466407  -0.00681037  1
  Cu  Cu89  1  0.33695775  -0.00470862  -0.00646768  1
  Cu  Cu90  1  0.32858239  0.00380469  0.50738526  1
  Cu  Cu91  1  0.83321184  0.49578342  0.75859842  1
  Cu  Cu92  1  0.16608107  0.83226740  0.75158970  1
  Cu  Cu93  1  0.83624615  0.48643594  0.24155486  1
  Cu  Cu94  1  0.15564188  0.83865092  0.25094312  1
  Cu  Cu95  1  0.15354314  0.48907302  0.23696860  1
  Cu  Cu96  1  0.66630051  0.67189922  -0.00115143  1
  Cu  Cu97  1  0.16178404  0.49879973  0.75508723  1
  Cu  Cu98  1  0.83706459  0.83819517  0.75244878  1
  Cu  Cu99  1  0.33012601  0.32951191  0.51684599  1
  Cu  Cu100  1  -0.00513539  0.33030200  0.50345380  1
  Cu  Cu101  1  -0.00030130  -0.00010392  -0.00595499  1
  Cu  Cu102  1  0.33639491  0.68249800  0.50012913  1
  Cu  Cu103  1  0.00491915  0.66086634  0.50241441  1
  Cu  Cu104  1  0.00600554  0.67200879  -0.00240979  1
  Cu  Cu105  1  0.32900197  0.66852232  -0.00890229  1
  Cu  Cu106  1  0.67673237  0.33254132  0.49912208  1
  Cu  Cu107  1  0.83148690  0.17429281  0.24616832  1
  Cu  Cu108  1  0.66696570  0.66722456  0.50576772  1
  Cu  Cu109  1  0.50883628  0.48588399  0.23731256  1
  Cu  Cu110  1  0.51856689  0.17552210  0.23701955  1
  Cu  Cu111  1  0.50649996  0.84201672  0.24276109  1
  Cu  Cu112  1  0.50670348  0.83217789  0.75335783  1
  Cu  Cu113  1  0.15964673  0.17565070  0.25494298  1
  Cu  Cu114  1  0.00383504  0.00095138  0.50940539  1
  Se  Se115  1  0.07834715  0.07819431  0.05952328  1
  Se  Se116  1  0.08429187  0.08803427  0.56144578  1
  Se  Se117  1  0.09779730  0.42727199  0.04645937  1
  Se  Se118  1  0.07809327  0.40343278  0.56831373  1
  Se  Se119  1  0.08894993  0.75632337  0.05155407  1
  Se  Se120  1  0.08713097  0.74625335  0.55371124  1
  Se  Se121  1  0.41627674  0.08307229  0.04557853  1
  Se  Se122  1  0.40673468  0.08104732  0.57155162  1
  Se  Se123  1  0.41131846  0.41243424  0.04561988  1
  Se  Se124  1  0.41904092  0.40847345  0.56850104  1
  Se  Se125  1  0.41521973  0.74761853  0.04772751  1
  Se  Se126  1  0.42348807  0.75865655  0.55487335  1
  Se  Se127  1  0.75437873  0.08365694  0.04834496  1
  Se  Se128  1  0.73772717  0.08886993  0.55614549  1
  Se  Se129  1  0.77898572  0.43026622  0.03999797  1
  Se  Se130  1  0.75610270  0.42062208  0.55184437  1
  Se  Se131  1  0.75029335  0.75411664  0.05299544  1
  Se  Se132  1  0.74751374  0.74695539  0.56762828  1
  Se  Se133  1  0.25280747  0.24600968  0.05892493  1
  Se  Se134  1  0.24417775  0.24848249  0.56809775  1
  Se  Se135  1  0.24702991  0.58424292  0.04600452  1
  Se  Se136  1  0.26364323  0.59275426  0.55860329  1
  Se  Se137  1  0.25038905  0.91608741  0.04742871  1
  Se  Se138  1  0.24456276  0.91785344  0.55828783  1
  Se  Se139  1  0.56668322  0.22164729  0.04885676  1
  Se  Se140  1  0.58851161  0.25725197  0.55773289  1
  Se  Se141  1  0.58590996  0.58051993  0.04794906  1
  Se  Se142  1  0.59433726  0.58538344  0.57034195  1
  Se  Se143  1  0.58246316  0.91549799  0.04659913  1
  Se  Se144  1  0.58141625  0.92347358  0.55189731  1
  Se  Se145  1  0.91892785  0.24691205  0.04367818  1
  Se  Se146  1  0.91361023  0.24490712  0.55663093  1
  Se  Se147  1  0.91779685  0.59353974  0.05055747  1
  Se  Se148  1  0.92193031  0.58002813  0.55675745  1
  Se  Se149  1  0.91664263  0.91889117  0.05217985  1
  Se  Se150  1  0.92170791  0.92178494  0.56867793  1
  Se  Se151  1  0.08435780  0.25122097  0.45051899  1
  Se  Se152  1  0.07129044  0.26541364  0.94384686  1
  Se  Se153  1  0.08061078  0.58369548  0.43558727  1
  Se  Se154  1  0.08091518  0.58365107  0.94248691  1
  Se  Se155  1  0.08342025  0.91407451  0.45625281  1
  Se  Se156  1  0.08930821  0.91803374  0.94817934  1
  Se  Se157  1  0.40979012  0.25636265  0.44927751  1
  Se  Se158  1  0.41274302  0.24152714  0.94093359  1
  Se  Se159  1  0.41216380  0.59588043  0.43952257  1
  Se  Se160  1  0.41691191  0.58025981  0.94823598  1
  Se  Se161  1  0.41429087  0.92669737  0.44910822  1
  Se  Se162  1  0.42172232  0.91259609  0.94146999  1
  Se  Se163  1  0.75392580  0.24778006  0.44268990  1
  Se  Se164  1  0.75681323  0.24392849  0.94637416  1
  Se  Se165  1  0.75117066  0.58259798  0.45522095  1
  Se  Se166  1  0.74235054  0.59213505  0.93806436  1
  Se  Se167  1  0.74766774  0.92235912  0.44018298  1
  Se  Se168  1  0.75524009  0.91699250  0.94743495  1
  Se  Se169  1  0.24935607  0.09165494  0.45428773  1
  Se  Se170  1  0.26000126  0.07909523  0.93331576  1
  Se  Se171  1  0.25755372  0.41145534  0.44943038  1
  Se  Se172  1  0.24519691  0.41172632  0.94560226  1
  Se  Se173  1  0.24477066  0.75903819  0.44885523  1
  Se  Se174  1  0.24591810  0.75336919  0.94050523  1
  Se  Se175  1  0.58737060  0.08397876  0.43193123  1
  Se  Se176  1  0.58621342  0.08423709  0.93906539  1
  Se  Se177  1  0.58813312  0.41187460  0.44155397  1
  Se  Se178  1  0.57877534  0.40869182  0.95549477  1
  Se  Se179  1  0.58655966  0.75220618  0.45307099  1
  Se  Se180  1  0.57884196  0.75464675  0.94948637  1
  Se  Se181  1  0.91965036  0.07823685  0.45172430  1
  Se  Se182  1  0.91658572  0.08582956  0.94571576  1
  Se  Se183  1  0.91518598  0.41644871  0.44826529  1
  Se  Se184  1  0.89513625  0.42775657  0.94582003  1
  Se  Se185  1  0.92262035  0.74062505  0.44126931  1
  Se  Se186  1  0.91903111  0.75682285  0.94737847  1
  Se  Se187  1  0.24588613  0.24637985  0.31761364  1
  Se  Se188  1  0.23395704  0.24154261  0.79703889  1
  Se  Se189  1  0.23252299  0.57149246  0.29909556  1
  Se  Se190  1  0.24696274  0.57184540  0.81700857  1
  Se  Se191  1  0.23935415  0.91584231  0.31063578  1
  Se  Se192  1  0.25223876  0.91588010  0.79997266  1
  Se  Se193  1  0.59320653  0.26163593  0.29507325  1
  Se  Se194  1  0.58437791  0.25010494  0.80911899  1
  Se  Se195  1  0.57742338  0.56978274  0.30630334  1
  Se  Se196  1  0.57508180  0.56621687  0.81361071  1
  Se  Se197  1  0.58669003  0.92001162  0.30209759  1
  Se  Se198  1  0.58995515  0.91710962  0.80424735  1
  Se  Se199  1  0.91918767  0.24860979  0.30406588  1
  Se  Se200  1  0.91768883  0.25673741  0.79663818  1
  Se  Se201  1  0.90857814  0.57581600  0.30205644  1
  Se  Se202  1  0.91959622  0.58331958  0.80384610  1
  Se  Se203  1  0.90897353  0.91019681  0.30742996  1
  Se  Se204  1  0.91259779  0.91780985  0.81650221  1
  Se  Se205  1  0.08863471  0.09006149  0.31679090  1
  Se  Se206  1  0.08209362  0.09206493  0.81631502  1
  Se  Se207  1  0.07592941  0.40895013  0.29701729  1
  Se  Se208  1  0.07794627  0.41628941  0.80764665  1
  Se  Se209  1  0.08088412  0.75139765  0.30736893  1
  Se  Se210  1  0.07906601  0.75069799  0.80117465  1
  Se  Se211  1  0.43277249  0.09883431  0.29980689  1
  Se  Se212  1  0.41465927  0.07573340  0.80120146  1
  Se  Se213  1  0.42616641  0.42224315  0.30998807  1
  Se  Se214  1  0.40973744  0.40080164  0.80603983  1
  Se  Se215  1  0.42586248  0.76403540  0.30727805  1
  Se  Se216  1  0.42675772  0.74946329  0.81018705  1
  Se  Se217  1  0.75483507  0.08548341  0.30040515  1
  Se  Se218  1  0.74946152  0.08367531  0.79774693  1
  Se  Se219  1  0.75258587  0.41481403  0.30424725  1
  Se  Se220  1  0.74771475  0.41409923  0.80930547  1
  Se  Se221  1  0.75693102  0.75663130  0.30931762  1
  Se  Se222  1  0.75962819  0.75931469  0.81666363  1
  Se  Se223  1  0.24161781  0.09444816  0.19747846  1
  Se  Se224  1  0.24483510  0.07843766  0.70936832  1
  Se  Se225  1  0.25093880  0.41523936  0.18707294  1
  Se  Se226  1  0.24677944  0.41551544  0.70329045  1
  Se  Se227  1  0.24081485  0.75938006  0.19281556  1
  Se  Se228  1  0.24692034  0.75438494  0.68913802  1
  Se  Se229  1  0.59514694  0.08019464  0.19106845  1
  Se  Se230  1  0.58272390  0.08239349  0.70300639  1
  Se  Se231  1  0.59432760  0.41158584  0.18077465  1
  Se  Se232  1  0.57061425  0.43104414  0.70604660  1
  Se  Se233  1  0.57776460  0.75147718  0.18479530  1
  Se  Se234  1  0.58692888  0.74924434  0.69616317  1
  Se  Se235  1  0.90899069  0.09125090  0.18549936  1
  Se  Se236  1  0.90084602  0.09259436  0.69231267  1
  Se  Se237  1  0.91693450  0.40673392  0.18436153  1
  Se  Se238  1  0.91208673  0.41557434  0.69750859  1
  Se  Se239  1  0.90300745  0.76229613  0.19433064  1
  Se  Se240  1  0.91756152  0.74933781  0.70347490  1
  Se  Se241  1  0.08026487  0.25513121  0.19691889  1
  Se  Se242  1  0.05605474  0.25801112  0.71068880  1
  Se  Se243  1  0.07927582  0.56747280  0.17391504  1
  Se  Se244  1  0.08204527  0.58523219  0.70163183  1
  Se  Se245  1  0.08372661  0.91868605  0.18730944  1
  Se  Se246  1  0.08379078  0.91188385  0.69122881  1
  Se  Se247  1  0.43092160  0.25119078  0.17992925  1
  Se  Se248  1  0.41597587  0.25213179  0.70476842  1
  Se  Se249  1  0.42184757  0.57174689  0.18900421  1
  Se  Se250  1  0.42576215  0.57433996  0.69667478  1
  Se  Se251  1  0.42296399  0.91678721  0.18094581  1
  Se  Se252  1  0.42087650  0.91340387  0.69990139  1
  Se  Se253  1  0.74891243  0.25386057  0.18854179  1
  Se  Se254  1  0.72103520  0.28353652  0.68845224  1
  Se  Se255  1  0.75388665  0.57205900  0.18711877  1
  Se  Se256  1  0.75598800  0.57767373  0.69433943  1
  Se  Se257  1  0.74619625  0.91825448  0.19798609  1
  Se  Se258  1  0.74938283  0.91518883  0.69953419  1
