# generated using pymatgen
data_In86Cu29Se144
_symmetry_space_group_name_H-M   'P 1'
_cell_length_a   17.58155427
_cell_length_b   17.57859625
_cell_length_c   23.43813593
_cell_angle_alpha   89.99759565
_cell_angle_beta   89.99857999
_cell_angle_gamma   89.98700538
_symmetry_Int_Tables_number   1
_chemical_formula_structural   In86Cu29Se144
_chemical_formula_sum   'In86 Cu29 Se144'
_cell_volume   7243.76768917
_cell_formula_units_Z   1
loop_
 _symmetry_equiv_pos_site_id
 _symmetry_equiv_pos_as_xyz
  1  'x, y, z'
loop_
 _atom_site_type_symbol
 _atom_site_label
 _atom_site_symmetry_multiplicity
 _atom_site_fract_x
 _atom_site_fract_y
 _atom_site_fract_z
 _atom_site_occupancy
  In  In0  1  0.01720570  0.15847016  0.13082189  1
  In  In1  1  -0.00379327  0.17251218  0.61768499  1
  In  In2  1  0.00167016  0.50715006  0.13223519  1
  In  In3  1  0.00815073  0.48814941  0.62333717  1
  In  In4  1  0.00115058  0.83197959  0.13395505  1
  In  In5  1  -0.00228237  0.83326813  0.61131168  1
  In  In6  1  0.32911383  0.15880904  0.11550129  1
  In  In7  1  0.32507414  0.15921332  0.64425107  1
  In  In8  1  0.33136285  0.50056096  0.11258672  1
  In  In9  1  0.32442721  0.49917706  0.63051975  1
  In  In10  1  0.33558740  0.83645995  0.12366404  1
  In  In11  1  0.33952168  0.84115976  0.61915299  1
  In  In12  1  0.65635773  0.15612944  0.11860597  1
  In  In13  1  0.65876751  0.15223313  0.62090850  1
  In  In14  1  0.67142451  0.51009842  0.11232048  1
  In  In15  1  0.65735295  0.51035204  0.62524894  1
  In  In16  1  0.66832225  0.82906635  0.12931578  1
  In  In17  1  0.67453916  0.84626706  0.61002258  1
  In  In18  1  0.13818578  -0.03511192  0.34111801  1
  In  In19  1  0.17466218  -0.00733877  0.88056325  1
  In  In20  1  0.16812033  0.34737091  0.37940878  1
  In  In21  1  0.17575290  0.32960339  0.88228979  1
  In  In22  1  0.15556561  0.67648873  0.38043861  1
  In  In23  1  0.16862693  0.66402611  0.88729986  1
  In  In24  1  0.48082489  -0.01354487  0.36195525  1
  In  In25  1  0.50164637  0.00062885  0.88285900  1
  In  In26  1  0.50037514  0.34262117  0.37353905  1
  In  In27  1  0.48027767  0.34339395  0.88249294  1
  In  In28  1  0.53891711  0.67878075  0.35622220  1
  In  In29  1  0.50723299  0.68258253  0.89827469  1
  In  In30  1  0.83354391  -0.00861091  0.36454593  1
  In  In31  1  0.82280703  0.00241352  0.87409104  1
  In  In32  1  0.83712043  0.32028949  0.37361962  1
  In  In33  1  0.84295157  0.34057471  0.87692078  1
  In  In34  1  0.84158692  0.68521131  0.35726040  1
  In  In35  1  0.82059097  0.67488960  0.89635037  1
  In  In36  1  -0.01225700  0.15276739  0.36246489  1
  In  In37  1  0.00437301  0.17712574  0.88103817  1
  In  In38  1  0.00971482  0.51496639  0.36271609  1
  In  In39  1  -0.00356551  0.50133020  0.88878342  1
  In  In40  1  -0.00341395  0.82650110  0.36476284  1
  In  In41  1  0.00204486  0.82930532  0.88627073  1
  In  In42  1  0.34040085  0.15390107  0.37819480  1
  In  In43  1  0.32925950  0.16469224  0.87672465  1
  In  In44  1  0.33455172  0.49526045  0.37792984  1
  In  In45  1  0.33335024  0.49882871  0.87939876  1
  In  In46  1  0.32694885  0.83770498  0.38026246  1
  In  In47  1  0.33194548  0.84028239  0.88369437  1
  In  In48  1  0.68309775  0.16328636  0.37760389  1
  In  In49  1  0.66840161  0.14424219  0.87377201  1
  In  In50  1  0.67386805  0.53281003  0.36149595  1
  In  In51  1  0.65808955  0.51420965  0.89822115  1
  In  In52  1  0.66168890  0.83637231  0.37017247  1
  In  In53  1  0.65630343  0.84118133  0.89183910  1
  In  In54  1  0.16547365  -0.00257623  0.12551461  1
  In  In55  1  0.17335837  -0.00154702  0.62517800  1
  In  In56  1  0.16494748  0.33288320  0.11920998  1
  In  In57  1  0.16716130  0.33492814  0.62869602  1
  In  In58  1  0.16523327  0.67056660  0.12635854  1
  In  In59  1  0.16592658  0.66044587  0.61710870  1
  In  In60  1  0.50386537  -0.00220594  0.12645065  1
  In  In61  1  0.49826849  0.00066341  0.63048307  1
  In  In62  1  0.50374987  0.33298532  0.11226513  1
  In  In63  1  0.49304782  0.31960611  0.63166404  1
  In  In64  1  0.50535887  0.66774494  0.11509373  1
  In  In65  1  0.49859622  0.67068849  0.61833730  1
  In  In66  1  0.85045039  -0.02880390  0.14873188  1
  In  In67  1  0.82337069  -0.00969724  0.61265889  1
  In  In68  1  0.83862541  0.34568109  0.12664331  1
  In  In69  1  0.84921709  0.33459221  0.61924522  1
  In  In70  1  0.82745009  0.67890517  0.12971360  1
  In  In71  1  0.82352220  0.67871087  0.61871888  1
  In  In72  1  0.84194055  0.51053310  0.48668368  1
  In  In73  1  0.16508973  0.16013251  0.49938524  1
  In  In74  1  0.66075719  0.67368055  0.75521195  1
  In  In75  1  0.32801732  0.67101848  0.24059905  1
  In  In76  1  0.00016672  0.66246216  0.74413172  1
  In  In77  1  0.66829176  0.32506479  0.75640504  1
  In  In78  1  0.33454339  0.33033887  0.25245712  1
  In  In79  1  0.33203720  0.66890553  0.76126814  1
  In  In80  1  0.50325115  0.16218393  0.50590205  1
  In  In81  1  0.01065938  0.32899249  0.75455468  1
  In  In82  1  0.00524717  0.00118424  0.75344935  1
  In  In83  1  0.50278600  0.51076763  0.49369023  1
  In  In84  1  0.66637749  0.33297624  0.24621950  1
  In  In85  1  0.83330485  0.16171050  0.00105350  1
  Cu  Cu86  1  -0.00581771  -0.00858780  0.48453547  1
  Cu  Cu87  1  0.66496037  0.32824017  -0.00078421  1
  Cu  Cu88  1  0.33291736  0.33575598  0.50390982  1
  Cu  Cu89  1  0.67746852  0.34710451  0.49554133  1
  Cu  Cu90  1  0.00022327  0.33871411  0.00682148  1
  Cu  Cu91  1  0.49548572  0.16140351  0.75783625  1
  Cu  Cu92  1  0.83315106  0.50677575  0.76242441  1
  Cu  Cu93  1  0.32596190  -0.00487262  0.49861925  1
  Cu  Cu94  1  0.83349703  0.16628473  0.24854192  1
  Cu  Cu95  1  0.17170860  0.82892734  0.75243494  1
  Cu  Cu96  1  0.32887751  0.32821391  -0.00266080  1
  Cu  Cu97  1  0.00406684  0.32876577  0.49786797  1
  Cu  Cu98  1  0.33913281  -0.00279686  0.00243530  1
  Cu  Cu99  1  0.83315572  0.50158896  0.24386724  1
  Cu  Cu100  1  0.17259359  0.17167067  0.24280133  1
  Cu  Cu101  1  0.32826418  0.67307032  0.00380571  1
  Cu  Cu102  1  0.50077377  0.16559977  0.24611561  1
  Cu  Cu103  1  0.33447861  0.66713318  0.49766876  1
  Cu  Cu104  1  0.66487887  0.00125792  0.49293195  1
  Cu  Cu105  1  0.00252974  0.66652994  0.49116767  1
  Cu  Cu106  1  0.82788818  0.15762095  0.74274434  1
  Cu  Cu107  1  0.49709136  0.49921252  0.75808343  1
  Cu  Cu108  1  0.00210344  -0.00650948  0.00954698  1
  Cu  Cu109  1  0.82286339  0.84265839  0.74767616  1
  Cu  Cu110  1  0.16741686  0.50268648  0.25074796  1
  Cu  Cu111  1  0.50631216  0.84166246  0.75302832  1
  Cu  Cu112  1  -0.00461569  0.67156187  0.01160407  1
  Cu  Cu113  1  0.49891992  0.83243354  0.24396317  1
  Cu  Cu114  1  0.67441355  -0.00874505  0.00736103  1
  Se  Se115  1  0.08773921  0.08285106  0.05219865  1
  Se  Se116  1  0.06931554  0.06728231  0.55484590  1
  Se  Se117  1  0.08154385  0.42500076  0.05853879  1
  Se  Se118  1  0.08830339  0.40885910  0.55232914  1
  Se  Se119  1  0.08342641  0.75634315  0.05883613  1
  Se  Se120  1  0.08487284  0.74607330  0.55043469  1
  Se  Se121  1  0.42438547  0.08159882  0.05381259  1
  Se  Se122  1  0.40012013  0.08112703  0.56064144  1
  Se  Se123  1  0.41373570  0.41339572  0.04792219  1
  Se  Se124  1  0.42053883  0.41495217  0.55979488  1
  Se  Se125  1  0.41686205  0.75440340  0.05339703  1
  Se  Se126  1  0.41668346  0.75170300  0.55109725  1
  Se  Se127  1  0.75885909  0.06866507  0.06729887  1
  Se  Se128  1  0.74646068  0.08554045  0.54783470  1
  Se  Se129  1  0.74833848  0.40859889  0.05384819  1
  Se  Se130  1  0.75206286  0.42578135  0.56038481  1
  Se  Se131  1  0.73479357  0.73980864  0.05416018  1
  Se  Se132  1  0.75132402  0.75618853  0.54500256  1
  Se  Se133  1  0.24549868  0.24711870  0.05218407  1
  Se  Se134  1  0.25905562  0.24716654  0.56093968  1
  Se  Se135  1  0.24297805  0.58794302  0.05362049  1
  Se  Se136  1  0.25704621  0.58011728  0.55294904  1
  Se  Se137  1  0.25113176  0.91806296  0.05523545  1
  Se  Se138  1  0.24235270  0.91181387  0.55252960  1
  Se  Se139  1  0.58192922  0.24077204  0.04743386  1
  Se  Se140  1  0.59481747  0.26610220  0.55650912  1
  Se  Se141  1  0.56534455  0.56621174  0.04885060  1
  Se  Se142  1  0.59928429  0.60194800  0.54915391  1
  Se  Se143  1  0.58563317  0.91255442  0.05843442  1
  Se  Se144  1  0.57771720  0.92922101  0.55301777  1
  Se  Se145  1  0.92290825  0.24960211  0.06294775  1
  Se  Se146  1  0.91381367  0.24632978  0.54470967  1
  Se  Se147  1  0.91398700  0.58866838  0.06618599  1
  Se  Se148  1  0.92702805  0.58988119  0.56204299  1
  Se  Se149  1  0.91646528  0.91252601  0.06042479  1
  Se  Se150  1  0.91171928  0.91286225  0.54475229  1
  Se  Se151  1  0.07823782  0.24665692  0.43418656  1
  Se  Se152  1  0.08257953  0.25600058  0.95184037  1
  Se  Se153  1  0.08611373  0.57616034  0.44596968  1
  Se  Se154  1  0.07754116  0.58868331  0.95400707  1
  Se  Se155  1  0.08245931  0.91064265  0.43488981  1
  Se  Se156  1  0.08580415  0.91611850  0.94916237  1
  Se  Se157  1  0.41422817  0.25833070  0.44404240  1
  Se  Se158  1  0.41528621  0.24373061  0.94790763  1
  Se  Se159  1  0.41678882  0.59881523  0.43125281  1
  Se  Se160  1  0.40943317  0.59278010  0.94520528  1
  Se  Se161  1  0.41740977  0.91784427  0.44774511  1
  Se  Se162  1  0.42472650  0.91149538  0.95191731  1
  Se  Se163  1  0.75357039  0.25175161  0.44928113  1
  Se  Se164  1  0.74584646  0.25145242  0.93602967  1
  Se  Se165  1  0.75041341  0.60616488  0.43891589  1
  Se  Se166  1  0.77170331  0.56239269  0.95546591  1
  Se  Se167  1  0.74760633  0.91880214  0.43864712  1
  Se  Se168  1  0.75967697  0.91585724  0.94929681  1
  Se  Se169  1  0.24586623  0.06890286  0.43594424  1
  Se  Se170  1  0.25269324  0.07904592  0.94927159  1
  Se  Se171  1  0.25200229  0.42126362  0.45189741  1
  Se  Se172  1  0.24795832  0.42203048  0.95050599  1
  Se  Se173  1  0.24733536  0.75048488  0.44778091  1
  Se  Se174  1  0.24590901  0.75728116  0.94990360  1
  Se  Se175  1  0.57994605  0.07879382  0.43338354  1
  Se  Se176  1  0.59249102  0.07690093  0.95310926  1
  Se  Se177  1  0.59952299  0.42351352  0.43329221  1
  Se  Se178  1  0.57808604  0.41156224  0.94929198  1
  Se  Se179  1  0.57281196  0.76114969  0.44095041  1
  Se  Se180  1  0.62153466  0.72756948  0.95882132  1
  Se  Se181  1  0.91001576  0.07911570  0.43786775  1
  Se  Se182  1  0.92747837  0.07194434  0.94124920  1
  Se  Se183  1  0.92954714  0.41162905  0.43467262  1
  Se  Se184  1  0.91124443  0.41757142  0.95525492  1
  Se  Se185  1  0.91741386  0.74820360  0.44001396  1
  Se  Se186  1  0.91404341  0.75626766  0.95598325  1
  Se  Se187  1  0.24436958  0.24300330  0.31539056  1
  Se  Se188  1  0.24914759  0.25090240  0.80898756  1
  Se  Se189  1  0.24767242  0.58050279  0.31121696  1
  Se  Se190  1  0.23619619  0.57623291  0.81055360  1
  Se  Se191  1  0.27001817  0.92747976  0.30408223  1
  Se  Se192  1  0.25256494  0.91199865  0.80653087  1
  Se  Se193  1  0.57733385  0.24314232  0.31058667  1
  Se  Se194  1  0.57535731  0.24265537  0.81846124  1
  Se  Se195  1  0.57016297  0.56682056  0.28965351  1
  Se  Se196  1  0.57253336  0.58282131  0.81753299  1
  Se  Se197  1  0.58010253  0.91900133  0.29795161  1
  Se  Se198  1  0.58804093  0.91823899  0.81259754  1
  Se  Se199  1  0.91880804  0.25275784  0.29706716  1
  Se  Se200  1  0.90534129  0.23786726  0.80509928  1
  Se  Se201  1  0.91670330  0.58624089  0.29636519  1
  Se  Se202  1  0.91111199  0.59044515  0.81817006  1
  Se  Se203  1  0.92850077  0.92352824  0.29752410  1
  Se  Se204  1  0.91300893  0.90849685  0.80998951  1
  Se  Se205  1  0.08769761  0.09014404  0.29627883  1
  Se  Se206  1  0.09028061  0.09102997  0.81499406  1
  Se  Se207  1  0.08665698  0.41510616  0.30284506  1
  Se  Se208  1  0.08581972  0.42494733  0.81657217  1
  Se  Se209  1  0.08396328  0.74157877  0.29989101  1
  Se  Se210  1  0.08776692  0.75104907  0.80991813  1
  Se  Se211  1  0.41126206  0.08569703  0.29665667  1
  Se  Se212  1  0.41569598  0.07678641  0.81216041  1
  Se  Se213  1  0.42742730  0.42954341  0.30112654  1
  Se  Se214  1  0.40723341  0.41669707  0.80349297  1
  Se  Se215  1  0.41945879  0.75324960  0.30731142  1
  Se  Se216  1  0.43148269  0.75693536  0.81483368  1
  Se  Se217  1  0.74842568  0.08327635  0.30025961  1
  Se  Se218  1  0.74640825  0.07379347  0.79556090  1
  Se  Se219  1  0.75736331  0.42184866  0.30940837  1
  Se  Se220  1  0.74633439  0.42749690  0.81655196  1
  Se  Se221  1  0.72787024  0.73955756  0.30176499  1
  Se  Se222  1  0.75362201  0.76019736  0.81432123  1
  Se  Se223  1  0.25257600  0.08464734  0.19171921  1
  Se  Se224  1  0.24178455  0.07072565  0.70433924  1
  Se  Se225  1  0.24899540  0.42386317  0.19184151  1
  Se  Se226  1  0.25444841  0.40748495  0.69718159  1
  Se  Se227  1  0.23603622  0.77029641  0.19492832  1
  Se  Se228  1  0.24791151  0.75018042  0.68861053  1
  Se  Se229  1  0.58684362  0.08105734  0.19783547  1
  Se  Se230  1  0.57963476  0.08589651  0.69901276  1
  Se  Se231  1  0.58136005  0.41958936  0.18336103  1
  Se  Se232  1  0.57750797  0.42083095  0.69553450  1
  Se  Se233  1  0.57822594  0.74312648  0.19350904  1
  Se  Se234  1  0.57891525  0.76115229  0.68796846  1
  Se  Se235  1  0.91950019  0.08735675  0.19477270  1
  Se  Se236  1  0.91332259  0.08105344  0.68511136  1
  Se  Se237  1  0.92205224  0.41592338  0.20007342  1
  Se  Se238  1  0.91066080  0.42506807  0.69981607  1
  Se  Se239  1  0.90841588  0.75822711  0.20046894  1
  Se  Se240  1  0.90699927  0.76188121  0.69132727  1
  Se  Se241  1  0.08707546  0.25805733  0.19553002  1
  Se  Se242  1  0.09060241  0.23252022  0.69231781  1
  Se  Se243  1  0.08695789  0.59043468  0.19981689  1
  Se  Se244  1  0.09517482  0.56896011  0.69331723  1
  Se  Se245  1  0.07501393  0.93087208  0.19743016  1
  Se  Se246  1  0.08438622  0.90127478  0.69160463  1
  Se  Se247  1  0.42246046  0.24660624  0.18668137  1
  Se  Se248  1  0.41307349  0.24711054  0.70503641  1
  Se  Se249  1  0.41650689  0.57800866  0.18458540  1
  Se  Se250  1  0.42525104  0.58337313  0.69473055  1
  Se  Se251  1  0.41529590  0.91876103  0.19469871  1
  Se  Se252  1  0.41590511  0.91449205  0.69733427  1
  Se  Se253  1  0.75369250  0.24185381  0.18395260  1
  Se  Se254  1  0.75575116  0.24717230  0.68400242  1
  Se  Se255  1  0.74570304  0.58115391  0.19178789  1
  Se  Se256  1  0.75667712  0.58193696  0.69534361  1
  Se  Se257  1  0.73642591  0.91782477  0.20277066  1
  Se  Se258  1  0.74204025  0.92252985  0.69092382  1
