# generated using pymatgen
data_In86Cu29Se144
_symmetry_space_group_name_H-M   'P 1'
_cell_length_a   17.57937307
_cell_length_b   17.57870185
_cell_length_c   23.42496971
_cell_angle_alpha   90.00539824
_cell_angle_beta   90.03959023
_cell_angle_gamma   90.00009453
_symmetry_Int_Tables_number   1
_chemical_formula_structural   In86Cu29Se144
_chemical_formula_sum   'In86 Cu29 Se144'
_cell_volume   7238.84230123
_cell_formula_units_Z   1
loop_
 _symmetry_equiv_pos_site_id
 _symmetry_equiv_pos_as_xyz
  1  'x, y, z'
loop_
 _atom_site_type_symbol
 _atom_site_label
 _atom_site_symmetry_multiplicity
 _atom_site_fract_x
 _atom_site_fract_y
 _atom_site_fract_z
 _atom_site_occupancy
  In  In0  1  0.01800426  0.19620176  0.09982633  1
  In  In1  1  -0.00063952  0.17840420  0.63112749  1
  In  In2  1  0.00070324  0.48502351  0.11953963  1
  In  In3  1  -0.00087912  0.48502190  0.62591202  1
  In  In4  1  0.00375553  0.82711214  0.13094234  1
  In  In5  1  0.00439347  0.84840140  0.62340049  1
  In  In6  1  0.33720968  0.16176404  0.13153385  1
  In  In7  1  0.32179719  0.16861486  0.62983432  1
  In  In8  1  0.31980013  0.50615297  0.13434055  1
  In  In9  1  0.33183931  0.49563498  0.60922589  1
  In  In10  1  0.33736511  0.83058679  0.13020928  1
  In  In11  1  0.34330649  0.83534881  0.62402984  1
  In  In12  1  0.66894232  0.16418965  0.11432735  1
  In  In13  1  0.67094773  0.15148758  0.62687204  1
  In  In14  1  0.67192425  0.48474636  0.13375238  1
  In  In15  1  0.67074920  0.51352729  0.62383571  1
  In  In16  1  0.66922195  0.85277764  0.12346455  1
  In  In17  1  0.65786140  0.82823866  0.61669952  1
  In  In18  1  0.17436070  -0.00930882  0.36247338  1
  In  In19  1  0.17159599  0.01013845  0.87679236  1
  In  In20  1  0.17788241  0.34030997  0.35803671  1
  In  In21  1  0.15912891  0.33132611  0.89075242  1
  In  In22  1  0.14998533  0.66045986  0.36095419  1
  In  In23  1  0.15826175  0.65142089  0.87992527  1
  In  In24  1  0.49521593  -0.00918499  0.36923828  1
  In  In25  1  0.48345144  0.01162999  0.89855146  1
  In  In26  1  0.50535813  0.33843168  0.36734698  1
  In  In27  1  0.48816400  0.32808330  0.88273290  1
  In  In28  1  0.49037575  0.67417379  0.37826016  1
  In  In29  1  0.51595722  0.66513672  0.87533005  1
  In  In30  1  0.82590619  0.00837373  0.37699625  1
  In  In31  1  0.83975144  -0.00746983  0.87563861  1
  In  In32  1  0.82492167  0.33066435  0.36081750  1
  In  In33  1  0.86539350  0.32160012  0.90195329  1
  In  In34  1  0.84950151  0.66433417  0.37263479  1
  In  In35  1  0.82771448  0.66850781  0.87605273  1
  In  In36  1  -0.01559487  0.16576494  0.37125405  1
  In  In37  1  0.00201426  0.16484849  0.88147215  1
  In  In38  1  0.00128656  0.50822054  0.36456366  1
  In  In39  1  0.01942937  0.48283028  0.90057699  1
  In  In40  1  0.00043245  0.82167030  0.37204260  1
  In  In41  1  -0.01730723  0.83655228  0.87454597  1
  In  In42  1  0.33124016  0.16508510  0.35500349  1
  In  In43  1  0.33312000  0.15239915  0.89744660  1
  In  In44  1  0.32829621  0.50232041  0.36993683  1
  In  In45  1  0.32733611  0.48778590  0.88258334  1
  In  In46  1  0.34074626  0.84368416  0.36471136  1
  In  In47  1  0.33123873  0.85099567  0.88211918  1
  In  In48  1  0.67823203  0.17457941  0.36463347  1
  In  In49  1  0.66946872  0.15286152  0.89228244  1
  In  In50  1  0.66989014  0.48167937  0.37056334  1
  In  In51  1  0.67180901  0.51118991  0.86967126  1
  In  In52  1  0.65736918  0.84138945  0.37932622  1
  In  In53  1  0.66474183  0.82127552  0.87628217  1
  In  In54  1  0.17606435  0.01693616  0.12623173  1
  In  In55  1  0.16438127  0.00564257  0.63564142  1
  In  In56  1  0.16049841  0.33233355  0.12929007  1
  In  In57  1  0.15695264  0.33006853  0.62169886  1
  In  In58  1  0.17162243  0.66189737  0.12771616  1
  In  In59  1  0.17838521  0.66131706  0.62089016  1
  In  In60  1  0.50311551  0.00295132  0.11799963  1
  In  In61  1  0.50459345  -0.01073927  0.62774072  1
  In  In62  1  0.50926099  0.32050111  0.13399831  1
  In  In63  1  0.48656479  0.33229592  0.61888294  1
  In  In64  1  0.48384092  0.66534679  0.13048432  1
  In  In65  1  0.50509723  0.67810639  0.61573560  1
  In  In66  1  0.81867415  0.01053281  0.12477010  1
  In  In67  1  0.84422113  0.01089627  0.61698356  1
  In  In68  1  0.83927901  0.33149466  0.11845150  1
  In  In69  1  0.85042110  0.33977850  0.62662043  1
  In  In70  1  0.85720316  0.65269290  0.12633834  1
  In  In71  1  0.81824966  0.66307079  0.62414225  1
  In  In72  1  0.32530601  0.33079926  0.75762462  1
  In  In73  1  0.49741879  0.49872133  0.00701668  1
  In  In74  1  0.66622726  0.66719675  0.25730704  1
  In  In75  1  0.33788733  0.67238763  0.74432162  1
  In  In76  1  0.00160365  0.00664517  0.24100732  1
  In  In77  1  -0.00510784  0.66718039  0.75398555  1
  In  In78  1  0.82928259  0.83023992  -0.00064242  1
  In  In79  1  0.66859212  -0.00813270  0.75585631  1
  In  In80  1  0.16461574  0.16798465  0.49073033  1
  In  In81  1  0.16998753  0.83123430  0.49209806  1
  In  In82  1  0.16979233  0.83661626  0.00908147  1
  In  In83  1  0.50361800  0.16428992  0.49672650  1
  In  In84  1  0.83259875  0.50071375  0.49769404  1
  In  In85  1  0.67049606  0.33721387  0.75627144  1
  Cu  Cu86  1  0.32945985  0.66138971  0.49264034  1
  Cu  Cu87  1  0.00231339  0.66412555  0.49246117  1
  Cu  Cu88  1  0.15915132  0.49825603  0.24503478  1
  Cu  Cu89  1  0.33601857  0.34059061  0.48710391  1
  Cu  Cu90  1  -0.00532664  -0.00019614  0.00146353  1
  Cu  Cu91  1  0.67072306  -0.00178129  0.49886632  1
  Cu  Cu92  1  0.16131220  0.84492844  0.75537701  1
  Cu  Cu93  1  0.49095320  0.49572806  0.24999934  1
  Cu  Cu94  1  0.83483964  0.17197745  0.23958761  1
  Cu  Cu95  1  0.32812839  0.32947453  0.01164537  1
  Cu  Cu96  1  0.82782518  0.83490885  0.74861356  1
  Cu  Cu97  1  0.84266272  0.17391882  0.75362232  1
  Cu  Cu98  1  0.16239854  0.16286132  0.75704797  1
  Cu  Cu99  1  0.50762791  0.16371751  0.24375122  1
  Cu  Cu100  1  -0.00600868  0.00263340  0.49881557  1
  Cu  Cu101  1  0.33266990  0.66989493  0.00580110  1
  Cu  Cu102  1  0.49383232  0.16163695  0.76752644  1
  Cu  Cu103  1  0.66549429  0.33610798  0.00338693  1
  Cu  Cu104  1  0.83554866  0.83596315  0.24531638  1
  Cu  Cu105  1  0.50554252  0.50610496  0.74525268  1
  Cu  Cu106  1  0.84083177  0.49539412  0.75613388  1
  Cu  Cu107  1  -0.00138723  0.33369776  0.49937370  1
  Cu  Cu108  1  0.33921159  -0.00392452  0.49675652  1
  Cu  Cu109  1  0.16179952  0.49453255  0.75552403  1
  Cu  Cu110  1  0.66315762  0.66803347  0.49795992  1
  Cu  Cu111  1  0.50122970  0.83566628  0.74833882  1
  Cu  Cu112  1  0.50595091  0.84031753  0.24787651  1
  Cu  Cu113  1  0.66573361  0.67020519  0.00654781  1
  Cu  Cu114  1  0.67046770  0.32764958  0.49108769  1
  Se  Se115  1  0.08374487  0.07872237  0.05255086  1
  Se  Se116  1  0.07959509  0.08051262  0.55780148  1
  Se  Se117  1  0.09151977  0.41305346  0.05086477  1
  Se  Se118  1  0.08418738  0.41738887  0.55052403  1
  Se  Se119  1  0.07575381  0.74030395  0.05705738  1
  Se  Se120  1  0.07952423  0.74372702  0.55774244  1
  Se  Se121  1  0.42291974  0.09602850  0.05561072  1
  Se  Se122  1  0.40985711  0.08060517  0.56121777  1
  Se  Se123  1  0.41076274  0.41152998  0.06991892  1
  Se  Se124  1  0.42236016  0.41754063  0.54343371  1
  Se  Se125  1  0.41831068  0.75134462  0.05558362  1
  Se  Se126  1  0.40771993  0.74778448  0.54984924  1
  Se  Se127  1  0.74720284  0.07798243  0.04460462  1
  Se  Se128  1  0.75159989  0.08640793  0.54978482  1
  Se  Se129  1  0.74876033  0.41967434  0.05424225  1
  Se  Se130  1  0.74420845  0.40793373  0.55948343  1
  Se  Se131  1  0.74981738  0.74177394  0.06970744  1
  Se  Se132  1  0.74922567  0.74908338  0.55114319  1
  Se  Se133  1  0.24814738  0.24509871  0.06497638  1
  Se  Se134  1  0.25954041  0.25948734  0.55151149  1
  Se  Se135  1  0.25112074  0.58178478  0.05389544  1
  Se  Se136  1  0.24411569  0.57894028  0.54480501  1
  Se  Se137  1  0.26414219  0.92851078  0.05953291  1
  Se  Se138  1  0.25072851  0.92580278  0.55851460  1
  Se  Se139  1  0.57906432  0.25260708  0.05173442  1
  Se  Se140  1  0.59352982  0.25399040  0.56034479  1
  Se  Se141  1  0.58808928  0.58717643  0.06806461  1
  Se  Se142  1  0.58277600  0.58278552  0.55239913  1
  Se  Se143  1  0.57920755  0.91062020  0.05041977  1
  Se  Se144  1  0.58009747  0.91908308  0.54973861  1
  Se  Se145  1  0.90439227  0.24571797  0.04136399  1
  Se  Se146  1  0.91799698  0.25032836  0.55456145  1
  Se  Se147  1  0.90914269  0.56352390  0.04853335  1
  Se  Se148  1  0.92465824  0.58900083  0.56055852  1
  Se  Se149  1  0.91975190  0.91771899  0.06323936  1
  Se  Se150  1  0.91495522  0.91363562  0.55073086  1
  Se  Se151  1  0.07637150  0.25929623  0.43315515  1
  Se  Se152  1  0.06902583  0.25375012  0.95519509  1
  Se  Se153  1  0.08362063  0.58030601  0.44048505  1
  Se  Se154  1  0.09311038  0.58102316  0.96077739  1
  Se  Se155  1  0.07700246  0.92698878  0.43785896  1
  Se  Se156  1  0.07402656  0.91638151  0.94202978  1
  Se  Se157  1  0.41010932  0.24780435  0.43425641  1
  Se  Se158  1  0.41353529  0.25026027  0.95613162  1
  Se  Se159  1  0.41582310  0.57829902  0.44198090  1
  Se  Se160  1  0.41125521  0.58976391  0.94094365  1
  Se  Se161  1  0.42025436  0.91108186  0.44483376  1
  Se  Se162  1  0.42898431  0.89781666  0.95478795  1
  Se  Se163  1  0.75799996  0.24930908  0.44031760  1
  Se  Se164  1  0.74690009  0.25537333  0.94620606  1
  Se  Se165  1  0.74245221  0.58925608  0.43566165  1
  Se  Se166  1  0.74320947  0.59026240  0.94669989  1
  Se  Se167  1  0.75345007  0.91497262  0.44477211  1
  Se  Se168  1  0.73874371  0.92179895  0.94143715  1
  Se  Se169  1  0.26005539  0.07592215  0.43664804  1
  Se  Se170  1  0.23351225  0.08357927  0.95895737  1
  Se  Se171  1  0.24356641  0.41778553  0.43871705  1
  Se  Se172  1  0.24886109  0.41422500  0.95576783  1
  Se  Se173  1  0.25485777  0.74311587  0.42930714  1
  Se  Se174  1  0.25241998  0.74356337  0.93986851  1
  Se  Se175  1  0.59282055  0.07843818  0.43498134  1
  Se  Se176  1  0.57580432  0.08885819  0.96015544  1
  Se  Se177  1  0.58392166  0.41269210  0.44471251  1
  Se  Se178  1  0.58779082  0.41666416  0.93921654  1
  Se  Se179  1  0.57902506  0.75240338  0.44594977  1
  Se  Se180  1  0.58192082  0.74914908  0.95160854  1
  Se  Se181  1  0.91151801  0.08787693  0.44749767  1
  Se  Se182  1  0.91148445  0.07977880  0.94576375  1
  Se  Se183  1  0.91893376  0.41208245  0.43590108  1
  Se  Se184  1  0.89640514  0.44732888  0.95580457  1
  Se  Se185  1  0.91668393  0.75136197  0.44735736  1
  Se  Se186  1  0.92614520  0.73729723  0.94695941  1
  Se  Se187  1  0.23742489  0.23832234  0.29255833  1
  Se  Se188  1  0.24289654  0.24030622  0.82051715  1
  Se  Se189  1  0.24406675  0.58131317  0.29924375  1
  Se  Se190  1  0.25069939  0.57645088  0.80635484  1
  Se  Se191  1  0.25994154  0.92030634  0.29254155  1
  Se  Se192  1  0.25022009  0.92284538  0.80724308  1
  Se  Se193  1  0.58536226  0.25076806  0.30069496  1
  Se  Se194  1  0.58103163  0.24421704  0.81709554  1
  Se  Se195  1  0.57272268  0.57448088  0.31228738  1
  Se  Se196  1  0.58884366  0.58873713  0.79749213  1
  Se  Se197  1  0.59126903  0.92195061  0.30071085  1
  Se  Se198  1  0.57197103  0.91412092  0.81661786  1
  Se  Se199  1  0.91753097  0.25148389  0.29672755  1
  Se  Se200  1  0.92133122  0.25398673  0.81247389  1
  Se  Se201  1  0.91351978  0.58412121  0.29641087  1
  Se  Se202  1  0.92067673  0.57312025  0.81924031  1
  Se  Se203  1  0.91465031  0.91813233  0.30775783  1
  Se  Se204  1  0.91425233  0.91812792  0.79770020  1
  Se  Se205  1  0.08738157  0.09113228  0.30897847  1
  Se  Se206  1  0.07702788  0.07963876  0.80834489  1
  Se  Se207  1  0.07666131  0.41480995  0.29922681  1
  Se  Se208  1  0.08484026  0.41435477  0.81514681  1
  Se  Se209  1  0.08746612  0.76285683  0.29734051  1
  Se  Se210  1  0.08982040  0.75678729  0.81356646  1
  Se  Se211  1  0.42455947  0.08018350  0.29849742  1
  Se  Se212  1  0.40854337  0.08034072  0.81753468  1
  Se  Se213  1  0.40843864  0.41117430  0.30355670  1
  Se  Se214  1  0.42621311  0.42683003  0.80688207  1
  Se  Se215  1  0.42342059  0.75378555  0.29982423  1
  Se  Se216  1  0.42245639  0.75558088  0.81189243  1
  Se  Se217  1  0.75745494  0.08635308  0.29735706  1
  Se  Se218  1  0.75718215  0.09237178  0.80877694  1
  Se  Se219  1  0.75228587  0.42177025  0.29360781  1
  Se  Se220  1  0.76594617  0.41350494  0.81946562  1
  Se  Se221  1  0.75827128  0.76109637  0.31244466  1
  Se  Se222  1  0.74930067  0.74885885  0.80250596  1
  Se  Se223  1  0.25221080  0.08592786  0.20425688  1
  Se  Se224  1  0.25170454  0.08520860  0.70303544  1
  Se  Se225  1  0.24764093  0.41168363  0.19976582  1
  Se  Se226  1  0.24508189  0.42311730  0.68997246  1
  Se  Se227  1  0.25448891  0.74457421  0.19455669  1
  Se  Se228  1  0.23790451  0.76468373  0.69214788  1
  Se  Se229  1  0.59009090  0.08273330  0.18841832  1
  Se  Se230  1  0.57358873  0.08873260  0.70066554  1
  Se  Se231  1  0.58078562  0.41455648  0.20226389  1
  Se  Se232  1  0.57772133  0.41671112  0.68724455  1
  Se  Se233  1  0.58305568  0.75410047  0.18948449  1
  Se  Se234  1  0.58220048  0.75132821  0.69357970  1
  Se  Se235  1  0.91891029  0.09753125  0.17773034  1
  Se  Se236  1  0.91736169  0.08783021  0.69467068  1
  Se  Se237  1  0.91536361  0.41191453  0.19208173  1
  Se  Se238  1  0.92569295  0.41225385  0.70458754  1
  Se  Se239  1  0.91861740  0.74773468  0.19902983  1
  Se  Se240  1  0.91054173  0.75564139  0.68744880  1
  Se  Se241  1  0.06672863  0.25333445  0.19285319  1
  Se  Se242  1  0.08921186  0.25269074  0.70038549  1
  Se  Se243  1  0.07792055  0.57896354  0.18759267  1
  Se  Se244  1  0.08965149  0.57911735  0.69230515  1
  Se  Se245  1  0.09731971  0.91355077  0.18917992  1
  Se  Se246  1  0.07617116  0.92419176  0.70091734  1
  Se  Se247  1  0.41623387  0.25031370  0.20178971  1
  Se  Se248  1  0.42349811  0.24229743  0.69911990  1
  Se  Se249  1  0.40861213  0.58455034  0.20284749  1
  Se  Se250  1  0.41969317  0.57618337  0.68320316  1
  Se  Se251  1  0.42305527  0.92067445  0.19156545  1
  Se  Se252  1  0.41432177  0.91945470  0.69838064  1
  Se  Se253  1  0.74775314  0.25016034  0.18477863  1
  Se  Se254  1  0.75635434  0.24558394  0.69147122  1
  Se  Se255  1  0.75487475  0.58275843  0.19345338  1
  Se  Se256  1  0.75668754  0.57587473  0.70112512  1
  Se  Se257  1  0.75084555  0.92316580  0.19927064  1
  Se  Se258  1  0.75307973  0.91455116  0.68347014  1
