# generated using pymatgen
data_In86Cu29Se144
_symmetry_space_group_name_H-M   'P 1'
_cell_length_a   17.57657673
_cell_length_b   17.57510720
_cell_length_c   23.43529667
_cell_angle_alpha   90.00260560
_cell_angle_beta   89.99940042
_cell_angle_gamma   90.00574291
_symmetry_Int_Tables_number   1
_chemical_formula_structural   In86Cu29Se144
_chemical_formula_sum   'In86 Cu29 Se144'
_cell_volume   7239.40261347
_cell_formula_units_Z   1
loop_
 _symmetry_equiv_pos_site_id
 _symmetry_equiv_pos_as_xyz
  1  'x, y, z'
loop_
 _atom_site_type_symbol
 _atom_site_label
 _atom_site_symmetry_multiplicity
 _atom_site_fract_x
 _atom_site_fract_y
 _atom_site_fract_z
 _atom_site_occupancy
  In  In0  1  -0.00323899  0.16935750  0.12286947  1
  In  In1  1  -0.00089790  0.17035952  0.62446964  1
  In  In2  1  -0.00425750  0.49630136  0.13210217  1
  In  In3  1  -0.00258643  0.51905603  0.62761628  1
  In  In4  1  -0.00778334  0.84001437  0.12362932  1
  In  In5  1  -0.01463418  0.82077955  0.62940456  1
  In  In6  1  0.33916463  0.16192353  0.12843720  1
  In  In7  1  0.32761677  0.16000652  0.63179607  1
  In  In8  1  0.33782175  0.50382346  0.12744316  1
  In  In9  1  0.34499647  0.49681806  0.62831242  1
  In  In10  1  0.33598593  0.82424727  0.12823759  1
  In  In11  1  0.34448364  0.82233254  0.63272124  1
  In  In12  1  0.65174796  0.15985561  0.11835923  1
  In  In13  1  0.66189094  0.16681623  0.63532419  1
  In  In14  1  0.67203291  0.50411872  0.11743616  1
  In  In15  1  0.66382648  0.49548900  0.62317608  1
  In  In16  1  0.67785073  0.84132903  0.11367027  1
  In  In17  1  0.66941133  0.84679503  0.63196767  1
  In  In18  1  0.16679945  -0.00002669  0.36043029  1
  In  In19  1  0.16594237  -0.01290065  0.87912120  1
  In  In20  1  0.16762277  0.34505908  0.35280407  1
  In  In21  1  0.18609736  0.34467027  0.88724276  1
  In  In22  1  0.16369783  0.64934819  0.35516869  1
  In  In23  1  0.15818266  0.66137003  0.87378422  1
  In  In24  1  0.49113173  -0.01027823  0.36723215  1
  In  In25  1  0.50127347  0.00130632  0.87623468  1
  In  In26  1  0.50819485  0.35055734  0.37295922  1
  In  In27  1  0.50238916  0.32589012  0.88858432  1
  In  In28  1  0.50151803  0.66968900  0.37780118  1
  In  In29  1  0.49293649  0.67880435  0.88111659  1
  In  In30  1  0.83164042  0.00127361  0.36021157  1
  In  In31  1  0.82795407  0.01099951  0.88796539  1
  In  In32  1  0.83600904  0.33624720  0.37028513  1
  In  In33  1  0.82176051  0.34371912  0.88012432  1
  In  In34  1  0.83479528  0.65388233  0.36751447  1
  In  In35  1  0.84428374  0.65592667  0.88057313  1
  In  In36  1  0.00326745  0.17308338  0.35704219  1
  In  In37  1  -0.01399419  0.15618832  0.88644671  1
  In  In38  1  -0.01736135  0.48650917  0.34872741  1
  In  In39  1  -0.01180268  0.51489154  0.88846236  1
  In  In40  1  -0.00265807  0.83288573  0.36212800  1
  In  In41  1  0.00026434  0.82004454  0.88078650  1
  In  In42  1  0.33044456  0.16323275  0.36319283  1
  In  In43  1  0.35919011  0.16916967  0.88508869  1
  In  In44  1  0.34620682  0.50831184  0.35871149  1
  In  In45  1  0.32504428  0.50189724  0.88995705  1
  In  In46  1  0.34073167  0.83445413  0.36700053  1
  In  In47  1  0.34138707  0.84103862  0.86994727  1
  In  In48  1  0.67970177  0.16574407  0.37161502  1
  In  In49  1  0.66581683  0.16867825  0.87843494  1
  In  In50  1  0.66209560  0.49911732  0.38601361  1
  In  In51  1  0.68094443  0.48741346  0.87748767  1
  In  In52  1  0.65263555  0.83059127  0.37463164  1
  In  In53  1  0.65903119  0.83999149  0.88075465  1
  In  In54  1  0.16618551  0.00346893  0.13001396  1
  In  In55  1  0.17032605  0.01195258  0.62911045  1
  In  In56  1  0.16177238  0.35246888  0.13806532  1
  In  In57  1  0.16943010  0.33436359  0.62402888  1
  In  In58  1  0.17067154  0.64568963  0.14371829  1
  In  In59  1  0.16369830  0.66954882  0.63289496  1
  In  In60  1  0.49793391  -0.00242952  0.12316752  1
  In  In61  1  0.50934368  -0.00939161  0.63366827  1
  In  In62  1  0.48837541  0.32769461  0.11226930  1
  In  In63  1  0.50618733  0.34647909  0.62229146  1
  In  In64  1  0.49538128  0.65890786  0.11282686  1
  In  In65  1  0.49208358  0.65950771  0.62519100  1
  In  In66  1  0.83169818  -0.00148058  0.11859531  1
  In  In67  1  0.81606044  -0.01167536  0.63172366  1
  In  In68  1  0.84574057  0.34112709  0.11876989  1
  In  In69  1  0.81841502  0.33958956  0.63095513  1
  In  In70  1  0.83657242  0.66858805  0.12080170  1
  In  In71  1  0.84511217  0.66488677  0.63448104  1
  In  In72  1  -0.00222237  -0.01149743  0.75267523  1
  In  In73  1  0.34397487  0.33179140  0.75151026  1
  In  In74  1  0.82252807  0.82995150  0.50580147  1
  In  In75  1  0.50368895  0.16779838  0.50384322  1
  In  In76  1  0.66847851  0.66649717  0.75836577  1
  In  In77  1  0.16749441  0.17485455  0.01071348  1
  In  In78  1  0.16300602  0.82713535  0.00383073  1
  In  In79  1  0.16903422  0.17129171  0.48061211  1
  In  In80  1  0.00425666  0.33511144  0.75610942  1
  In  In81  1  0.66698695  0.33206390  0.24971586  1
  In  In82  1  0.17686871  0.82686077  0.49396476  1
  In  In83  1  0.66974366  0.67006821  0.24184744  1
  In  In84  1  0.16917837  0.50556383  0.48942629  1
  In  In85  1  0.83233922  0.17773533  0.49282739  1
  Cu  Cu86  1  0.83022967  0.84122323  0.24150934  1
  Cu  Cu87  1  0.16818256  0.16652830  0.24195503  1
  Cu  Cu88  1  0.00305166  0.33561469  0.00408274  1
  Cu  Cu89  1  0.65933254  0.66269106  0.50302602  1
  Cu  Cu90  1  -0.00670157  0.66354059  0.49658657  1
  Cu  Cu91  1  0.82851963  0.16115273  0.23926119  1
  Cu  Cu92  1  0.66224660  0.00095962  0.50150442  1
  Cu  Cu93  1  -0.00180495  0.00003334  0.49372389  1
  Cu  Cu94  1  -0.00687960  0.35247150  0.49059025  1
  Cu  Cu95  1  0.66158010  0.00455912  -0.00031197  1
  Cu  Cu96  1  0.49578125  0.16341164  0.24328600  1
  Cu  Cu97  1  0.33796949  0.33389658  0.49219593  1
  Cu  Cu98  1  0.50704048  0.16179523  0.75824745  1
  Cu  Cu99  1  0.82434074  0.16224882  0.75603002  1
  Cu  Cu100  1  0.67011987  0.33020888  0.00188404  1
  Cu  Cu101  1  0.16514318  0.50879555  0.75837543  1
  Cu  Cu102  1  0.33798909  0.66288769  0.49746559  1
  Cu  Cu103  1  0.50257773  0.50191746  0.24285482  1
  Cu  Cu104  1  0.33499521  0.00429383  -0.00052480  1
  Cu  Cu105  1  0.50068345  0.83286994  0.24563507  1
  Cu  Cu106  1  0.16970214  0.83462281  0.24351631  1
  Cu  Cu107  1  0.50122874  0.50098015  0.75131819  1
  Cu  Cu108  1  0.66862519  0.66510144  -0.00637405  1
  Cu  Cu109  1  0.49551467  0.83433627  0.75529111  1
  Cu  Cu110  1  0.34431056  -0.01534528  0.49952356  1
  Cu  Cu111  1  0.17800097  0.15839896  0.75933993  1
  Cu  Cu112  1  0.17468331  0.83103630  0.75530405  1
  Cu  Cu113  1  0.32991057  0.66630090  0.00428290  1
  Cu  Cu114  1  0.00537424  0.65649840  0.00831357  1
  Se  Se115  1  0.07699207  0.07289402  0.05574322  1
  Se  Se116  1  0.08039431  0.08296201  0.55156972  1
  Se  Se117  1  0.08173799  0.41946105  0.05959518  1
  Se  Se118  1  0.08071232  0.41753962  0.55627708  1
  Se  Se119  1  0.08364274  0.73682091  0.06960795  1
  Se  Se120  1  0.07513593  0.74467631  0.55469720  1
  Se  Se121  1  0.41813820  0.08591748  0.05381256  1
  Se  Se122  1  0.41166916  0.07457907  0.56070030  1
  Se  Se123  1  0.43443967  0.44151635  0.05749544  1
  Se  Se124  1  0.41388928  0.41547291  0.55213009  1
  Se  Se125  1  0.41538147  0.75457602  0.05081212  1
  Se  Se126  1  0.41604318  0.74746762  0.55381364  1
  Se  Se127  1  0.74674275  0.08614241  0.05320524  1
  Se  Se128  1  0.74639619  0.08261261  0.55784467  1
  Se  Se129  1  0.75355636  0.41620568  0.05184857  1
  Se  Se130  1  0.75754449  0.42384848  0.55538696  1
  Se  Se131  1  0.75205113  0.74609459  0.05003828  1
  Se  Se132  1  0.73835619  0.73784908  0.56796299  1
  Se  Se133  1  0.25235128  0.26299909  0.07190410  1
  Se  Se134  1  0.26013221  0.25302637  0.55438052  1
  Se  Se135  1  0.24744575  0.58523704  0.06025851  1
  Se  Se136  1  0.25386078  0.58871046  0.56007537  1
  Se  Se137  1  0.25502703  0.92352992  0.05808963  1
  Se  Se138  1  0.25447234  0.91919236  0.56224797  1
  Se  Se139  1  0.57920750  0.24829162  0.04809357  1
  Se  Se140  1  0.59724806  0.25808289  0.55871071  1
  Se  Se141  1  0.58641856  0.58133397  0.04779386  1
  Se  Se142  1  0.57776115  0.57954618  0.55760469  1
  Se  Se143  1  0.58004589  0.91706684  0.05196943  1
  Se  Se144  1  0.58428619  0.91497703  0.55609761  1
  Se  Se145  1  0.91700731  0.24799168  0.04979429  1
  Se  Se146  1  0.92541951  0.26397328  0.55544298  1
  Se  Se147  1  0.91525919  0.57532995  0.05724265  1
  Se  Se148  1  0.91021417  0.58503649  0.55360185  1
  Se  Se149  1  0.90226262  0.90344003  0.05109420  1
  Se  Se150  1  0.92010056  0.92509102  0.55893409  1
  Se  Se151  1  0.07376612  0.26826787  0.43128257  1
  Se  Se152  1  0.07932588  0.25700416  0.93957557  1
  Se  Se153  1  0.07009916  0.58682741  0.43194050  1
  Se  Se154  1  0.09200458  0.58011373  0.95196944  1
  Se  Se155  1  0.08101061  0.91991007  0.43671870  1
  Se  Se156  1  0.07037741  0.92136022  0.94893386  1
  Se  Se157  1  0.41475086  0.24871604  0.43480573  1
  Se  Se158  1  0.39822634  0.27139303  0.95585205  1
  Se  Se159  1  0.41720758  0.57875655  0.44045022  1
  Se  Se160  1  0.41708593  0.58810122  0.94903895  1
  Se  Se161  1  0.42491656  0.90395364  0.44378035  1
  Se  Se162  1  0.41542948  0.91904075  0.94511523  1
  Se  Se163  1  0.73563543  0.26915466  0.44181922  1
  Se  Se164  1  0.75360976  0.24701752  0.94705119  1
  Se  Se165  1  0.74768819  0.59258512  0.44392472  1
  Se  Se166  1  0.75445368  0.57796404  0.94712732  1
  Se  Se167  1  0.74581213  0.92549618  0.43880290  1
  Se  Se168  1  0.74587858  0.91814115  0.94984741  1
  Se  Se169  1  0.26276000  0.06546827  0.43849173  1
  Se  Se170  1  0.25131831  0.08420615  0.94154051  1
  Se  Se171  1  0.25796531  0.41160050  0.43111643  1
  Se  Se172  1  0.25716876  0.41662685  0.96473668  1
  Se  Se173  1  0.25485226  0.73121128  0.43063188  1
  Se  Se174  1  0.25570121  0.74739806  0.93897251  1
  Se  Se175  1  0.58745873  0.07902886  0.43694602  1
  Se  Se176  1  0.57815818  0.08799044  0.94593469  1
  Se  Se177  1  0.57757828  0.41926074  0.45304492  1
  Se  Se178  1  0.58950107  0.41657292  0.94740263  1
  Se  Se179  1  0.58186779  0.75056540  0.45006263  1
  Se  Se180  1  0.58120623  0.75368463  0.95026654  1
  Se  Se181  1  0.92187654  0.08231767  0.43355993  1
  Se  Se182  1  0.91664170  0.07826743  0.96135292  1
  Se  Se183  1  0.90980373  0.43166524  0.43640271  1
  Se  Se184  1  0.91612852  0.41410526  0.94831532  1
  Se  Se185  1  0.91602882  0.75101123  0.43923920  1
  Se  Se186  1  0.92303620  0.73991019  0.95317583  1
  Se  Se187  1  0.25209876  0.25040731  0.29622108  1
  Se  Se188  1  0.25219117  0.24641883  0.81511905  1
  Se  Se189  1  0.23834441  0.55533658  0.29195458  1
  Se  Se190  1  0.25545488  0.58307069  0.81242906  1
  Se  Se191  1  0.25530204  0.91514782  0.29930233  1
  Se  Se192  1  0.25152883  0.92194461  0.80397345  1
  Se  Se193  1  0.57437102  0.24007596  0.30911322  1
  Se  Se194  1  0.58045859  0.25367629  0.81094420  1
  Se  Se195  1  0.58340673  0.57813018  0.30550491  1
  Se  Se196  1  0.57687585  0.57816642  0.81794797  1
  Se  Se197  1  0.58452672  0.91495642  0.30023908  1
  Se  Se198  1  0.58081852  0.91727288  0.80572714  1
  Se  Se199  1  0.90431259  0.24781671  0.29772397  1
  Se  Se200  1  0.91168659  0.24117379  0.81206735  1
  Se  Se201  1  0.93386088  0.60591296  0.29469601  1
  Se  Se202  1  0.92192956  0.58004071  0.80508284  1
  Se  Se203  1  0.91911239  0.92117483  0.29532039  1
  Se  Se204  1  0.91016723  0.91275986  0.82079414  1
  Se  Se205  1  0.08157218  0.08161349  0.29379933  1
  Se  Se206  1  0.08450389  0.08617983  0.81314991  1
  Se  Se207  1  0.06852711  0.40367719  0.28620725  1
  Se  Se208  1  0.09299514  0.42227845  0.81894650  1
  Se  Se209  1  0.08831068  0.75281164  0.29972303  1
  Se  Se210  1  0.08473029  0.75249415  0.80508846  1
  Se  Se211  1  0.41505128  0.07834273  0.29911172  1
  Se  Se212  1  0.41526998  0.08338030  0.80624964  1
  Se  Se213  1  0.42363990  0.41240397  0.29608669  1
  Se  Se214  1  0.42213759  0.42366329  0.81593558  1
  Se  Se215  1  0.42344706  0.74586389  0.30224287  1
  Se  Se216  1  0.41208265  0.74613424  0.80252190  1
  Se  Se217  1  0.74357723  0.08224405  0.29454546  1
  Se  Se218  1  0.74517114  0.07862175  0.81056746  1
  Se  Se219  1  0.74985851  0.43024506  0.30735653  1
  Se  Se220  1  0.75570655  0.41618669  0.79927228  1
  Se  Se221  1  0.75651659  0.76080796  0.30768886  1
  Se  Se222  1  0.75553137  0.75303504  0.82101927  1
  Se  Se223  1  0.25537798  0.07962621  0.19692782  1
  Se  Se224  1  0.25814875  0.07442338  0.70482885  1
  Se  Se225  1  0.25111159  0.43380781  0.20207276  1
  Se  Se226  1  0.24253619  0.42425418  0.69774568  1
  Se  Se227  1  0.25345644  0.74502623  0.19869438  1
  Se  Se228  1  0.25374734  0.74510674  0.69890212  1
  Se  Se229  1  0.58156688  0.07959695  0.19457314  1
  Se  Se230  1  0.58744210  0.07724647  0.70227348  1
  Se  Se231  1  0.58134401  0.41953132  0.18490750  1
  Se  Se232  1  0.58426989  0.41750766  0.69905243  1
  Se  Se233  1  0.57948639  0.75632169  0.18157950  1
  Se  Se234  1  0.57660875  0.75306671  0.69388871  1
  Se  Se235  1  0.91679317  0.08016600  0.18924898  1
  Se  Se236  1  0.90956264  0.08762520  0.69258579  1
  Se  Se237  1  0.91678571  0.40753893  0.20032512  1
  Se  Se238  1  0.91774415  0.42159507  0.69280250  1
  Se  Se239  1  0.91212132  0.75365052  0.19265711  1
  Se  Se240  1  0.90883108  0.75546608  0.70691580  1
  Se  Se241  1  0.08238825  0.24895191  0.19156799  1
  Se  Se242  1  0.09863106  0.23885291  0.69697437  1
  Se  Se243  1  0.05665338  0.59538556  0.20312065  1
  Se  Se244  1  0.08125762  0.58881261  0.70243161  1
  Se  Se245  1  0.08219309  0.91586852  0.19286535  1
  Se  Se246  1  0.09196693  0.90528799  0.68752214  1
  Se  Se247  1  0.41827962  0.25459928  0.19377328  1
  Se  Se248  1  0.43205372  0.24009089  0.68940269  1
  Se  Se249  1  0.42144658  0.59297854  0.19508055  1
  Se  Se250  1  0.41412159  0.58304263  0.70127697  1
  Se  Se251  1  0.41476851  0.91594331  0.19341187  1
  Se  Se252  1  0.41395389  0.91865420  0.69902835  1
  Se  Se253  1  0.75042228  0.24696614  0.18193983  1
  Se  Se254  1  0.74739549  0.24968919  0.70077283  1
  Se  Se255  1  0.76157225  0.57351544  0.19299431  1
  Se  Se256  1  0.75239511  0.57685745  0.69465002  1
  Se  Se257  1  0.74378991  0.92297297  0.19160241  1
  Se  Se258  1  0.75499623  0.90656412  0.70855963  1
