# generated using pymatgen
data_In86Cu29Se144
_symmetry_space_group_name_H-M   'P 1'
_cell_length_a   17.57608324
_cell_length_b   17.57418366
_cell_length_c   23.43684507
_cell_angle_alpha   90.01792341
_cell_angle_beta   89.98546642
_cell_angle_gamma   89.99206745
_symmetry_Int_Tables_number   1
_chemical_formula_structural   In86Cu29Se144
_chemical_formula_sum   'In86 Cu29 Se144'
_cell_volume   7239.29661170
_cell_formula_units_Z   1
loop_
 _symmetry_equiv_pos_site_id
 _symmetry_equiv_pos_as_xyz
  1  'x, y, z'
loop_
 _atom_site_type_symbol
 _atom_site_label
 _atom_site_symmetry_multiplicity
 _atom_site_fract_x
 _atom_site_fract_y
 _atom_site_fract_z
 _atom_site_occupancy
  In  In0  1  -0.00617307  0.18357572  0.11680037  1
  In  In1  1  -0.01327815  0.16594015  0.63026479  1
  In  In2  1  0.01332936  0.50806753  0.11452191  1
  In  In3  1  0.01107289  0.49317673  0.62761702  1
  In  In4  1  -0.00243763  0.82644465  0.12189005  1
  In  In5  1  0.00662962  0.83540068  0.62423450  1
  In  In6  1  0.34645691  0.16643169  0.12677435  1
  In  In7  1  0.35241722  0.16320802  0.62286070  1
  In  In8  1  0.32989725  0.49092811  0.12897910  1
  In  In9  1  0.33590857  0.49949840  0.62934978  1
  In  In10  1  0.33083999  0.84585027  0.12697128  1
  In  In11  1  0.32124124  0.83512052  0.62247656  1
  In  In12  1  0.66315969  0.16904256  0.12219965  1
  In  In13  1  0.65625082  0.17450596  0.63434217  1
  In  In14  1  0.64945073  0.48548970  0.10971521  1
  In  In15  1  0.65324985  0.49971590  0.62856689  1
  In  In16  1  0.68279574  0.83344312  0.12496825  1
  In  In17  1  0.68034729  0.83156358  0.62287151  1
  In  In18  1  0.16894679  -0.02082663  0.37036276  1
  In  In19  1  0.15037447  -0.00034826  0.87379879  1
  In  In20  1  0.19743830  0.34201568  0.36746512  1
  In  In21  1  0.18178978  0.33815246  0.87386246  1
  In  In22  1  0.16594330  0.67912939  0.38146657  1
  In  In23  1  0.17576758  0.65506563  0.88291324  1
  In  In24  1  0.50871052  0.00789702  0.36852811  1
  In  In25  1  0.52125732  -0.00940204  0.87174629  1
  In  In26  1  0.49722582  0.33544610  0.37683922  1
  In  In27  1  0.49665256  0.32998268  0.87837437  1
  In  In28  1  0.48280336  0.65387630  0.37799313  1
  In  In29  1  0.48303612  0.67014892  0.87488633  1
  In  In30  1  0.82062207  0.00084892  0.37168749  1
  In  In31  1  0.82958287  0.00024643  0.87808521  1
  In  In32  1  0.82465913  0.35034494  0.36847257  1
  In  In33  1  0.82283761  0.34121034  0.88923898  1
  In  In34  1  0.84884663  0.66782593  0.37138385  1
  In  In35  1  0.82676057  0.66492894  0.89284322  1
  In  In36  1  -0.00190963  0.16896620  0.37177966  1
  In  In37  1  -0.00038558  0.15205575  0.87516381  1
  In  In38  1  0.00477553  0.52424779  0.36390250  1
  In  In39  1  -0.00096604  0.49465213  0.89085572  1
  In  In40  1  0.01336954  0.81978107  0.38395830  1
  In  In41  1  -0.01044015  0.84080340  0.88184130  1
  In  In42  1  0.34945815  0.17877127  0.36783716  1
  In  In43  1  0.33115956  0.18101171  0.87448521  1
  In  In44  1  0.34174873  0.50184616  0.38712968  1
  In  In45  1  0.33747487  0.49966744  0.87849419  1
  In  In46  1  0.31034175  0.82832866  0.36855063  1
  In  In47  1  0.34174372  0.81124713  0.87380145  1
  In  In48  1  0.65681095  0.16323950  0.36798993  1
  In  In49  1  0.66144660  0.16392251  0.87714089  1
  In  In50  1  0.65858386  0.48640258  0.36734682  1
  In  In51  1  0.67220184  0.49099711  0.88705674  1
  In  In52  1  0.66560952  0.84942097  0.37558587  1
  In  In53  1  0.66205654  0.84639063  0.87484796  1
  In  In54  1  0.18005727  -0.00312404  0.12445963  1
  In  In55  1  0.16679422  -0.01513202  0.62584115  1
  In  In56  1  0.17293423  0.36722531  0.12605795  1
  In  In57  1  0.17315964  0.35539656  0.62131229  1
  In  In58  1  0.15849305  0.65655499  0.12766485  1
  In  In59  1  0.18219026  0.67494066  0.61600485  1
  In  In60  1  0.49289730  0.01326807  0.12871941  1
  In  In61  1  0.49678864  0.01321204  0.62301529  1
  In  In62  1  0.50529106  0.33918957  0.12615961  1
  In  In63  1  0.50117435  0.33108717  0.62845633  1
  In  In64  1  0.50261823  0.64792583  0.11948591  1
  In  In65  1  0.49803002  0.64677893  0.62039279  1
  In  In66  1  0.82676058  -0.00481209  0.12128191  1
  In  In67  1  0.83915403  -0.00680946  0.63483315  1
  In  In68  1  0.82831510  0.32051798  0.11155016  1
  In  In69  1  0.83040734  0.32255041  0.63001247  1
  In  In70  1  0.83641385  0.67906354  0.11527894  1
  In  In71  1  0.81766944  0.67057499  0.62487092  1
  In  In72  1  0.17046030  0.16347197  0.49568749  1
  In  In73  1  0.33024892  0.66362644  0.24873672  1
  In  In74  1  0.82955792  0.16507070  0.50003511  1
  In  In75  1  0.33318929  -0.00184791  0.74629102  1
  In  In76  1  0.00065508  0.33810775  0.23944191  1
  In  In77  1  -0.00176837  -0.00119038  0.24569356  1
  In  In78  1  0.50296358  0.83092649  -0.00166495  1
  In  In79  1  -0.00072161  0.66674060  0.76050817  1
  In  In80  1  0.83498023  0.50718268  0.49950311  1
  In  In81  1  0.16553631  0.17203067  0.00016241  1
  In  In82  1  0.49548138  0.82932849  0.49713100  1
  In  In83  1  0.00082140  0.32814840  0.75912575  1
  In  In84  1  0.66856918  0.66720998  0.24238109  1
  In  In85  1  0.65561830  0.66960937  0.75533191  1
  Cu  Cu86  1  0.82157343  0.17219331  0.24420108  1
  Cu  Cu87  1  0.16497789  0.17013711  0.75214691  1
  Cu  Cu88  1  0.00153750  0.67179476  0.49963205  1
  Cu  Cu89  1  0.66680852  0.66626383  0.49899080  1
  Cu  Cu90  1  0.83382535  0.83901021  0.75386806  1
  Cu  Cu91  1  0.66719796  0.00440933  0.00060719  1
  Cu  Cu92  1  0.17925281  0.50800921  0.75072934  1
  Cu  Cu93  1  0.50236035  0.83897900  0.24775260  1
  Cu  Cu94  1  0.16550019  0.83144141  0.74888281  1
  Cu  Cu95  1  0.50588987  0.17472556  0.24771182  1
  Cu  Cu96  1  0.33620921  0.33867528  0.00185125  1
  Cu  Cu97  1  0.82643615  0.49185729  0.76197296  1
  Cu  Cu98  1  0.33304165  -0.00133288  0.00146226  1
  Cu  Cu99  1  0.66815660  0.00355548  0.49809006  1
  Cu  Cu100  1  0.82130893  0.16083791  0.75521937  1
  Cu  Cu101  1  0.33684823  -0.00067631  0.49612681  1
  Cu  Cu102  1  0.65797960  0.32527389  -0.00113142  1
  Cu  Cu103  1  0.50079216  0.16609190  0.75311007  1
  Cu  Cu104  1  0.49809797  0.48879100  0.75281248  1
  Cu  Cu105  1  0.00625701  0.66969238  0.00077870  1
  Cu  Cu106  1  -0.00403386  -0.00362631  0.00122632  1
  Cu  Cu107  1  0.82836302  0.50147530  0.24180001  1
  Cu  Cu108  1  0.00021170  -0.00915477  0.50393811  1
  Cu  Cu109  1  0.34125831  0.33500917  0.50143715  1
  Cu  Cu110  1  0.66027785  0.33390414  0.50078246  1
  Cu  Cu111  1  0.83870707  0.83412555  0.24596433  1
  Cu  Cu112  1  0.32708353  0.66188614  0.00342831  1
  Cu  Cu113  1  0.00915460  0.33969389  0.49289337  1
  Cu  Cu114  1  0.17553361  0.16311559  0.24513033  1
  Se  Se115  1  0.07776294  0.07691385  0.06120964  1
  Se  Se116  1  0.07534709  0.08086195  0.56059647  1
  Se  Se117  1  0.06720988  0.39484257  0.05505556  1
  Se  Se118  1  0.08657358  0.42492049  0.54783912  1
  Se  Se119  1  0.09020673  0.74935476  0.05650414  1
  Se  Se120  1  0.08650300  0.75323209  0.55472163  1
  Se  Se121  1  0.41683593  0.08481286  0.04964030  1
  Se  Se122  1  0.42141998  0.08510803  0.54446743  1
  Se  Se123  1  0.41919108  0.42158124  0.05656994  1
  Se  Se124  1  0.42108628  0.41679684  0.56018754  1
  Se  Se125  1  0.40959118  0.74426835  0.06202146  1
  Se  Se126  1  0.40922083  0.74159799  0.55986159  1
  Se  Se127  1  0.75099718  0.08633520  0.05498342  1
  Se  Se128  1  0.74447951  0.07942213  0.56528603  1
  Se  Se129  1  0.74553273  0.40999069  0.04746400  1
  Se  Se130  1  0.74831237  0.41061966  0.55935689  1
  Se  Se131  1  0.74762309  0.75539863  0.04740881  1
  Se  Se132  1  0.75271698  0.75115046  0.54652789  1
  Se  Se133  1  0.25402162  0.25928542  0.06317660  1
  Se  Se134  1  0.25644796  0.25347417  0.55987146  1
  Se  Se135  1  0.24923328  0.57791761  0.06093342  1
  Se  Se136  1  0.23427171  0.56007472  0.56237587  1
  Se  Se137  1  0.24877505  0.91258760  0.04863899  1
  Se  Se138  1  0.24997323  0.92011276  0.54873352  1
  Se  Se139  1  0.57323814  0.24604683  0.05456903  1
  Se  Se140  1  0.58260382  0.24813334  0.55626824  1
  Se  Se141  1  0.59777900  0.59636786  0.04697144  1
  Se  Se142  1  0.58770553  0.57722659  0.54876283  1
  Se  Se143  1  0.58613142  0.92337369  0.06225029  1
  Se  Se144  1  0.58721166  0.92081435  0.55753753  1
  Se  Se145  1  0.91262423  0.24485336  0.03976041  1
  Se  Se146  1  0.92687429  0.26198766  0.55251521  1
  Se  Se147  1  0.91978172  0.58741737  0.05244788  1
  Se  Se148  1  0.92517111  0.59293156  0.56534313  1
  Se  Se149  1  0.91413106  0.91289710  0.05623246  1
  Se  Se150  1  0.91376128  0.91409595  0.55951322  1
  Se  Se151  1  0.08653551  0.25858967  0.43311704  1
  Se  Se152  1  0.08028188  0.25600065  0.93314075  1
  Se  Se153  1  0.08115964  0.58706109  0.44513029  1
  Se  Se154  1  0.08789110  0.58000508  0.95181736  1
  Se  Se155  1  0.08808023  0.91449785  0.44947806  1
  Se  Se156  1  0.08320508  0.91558689  0.94926994  1
  Se  Se157  1  0.42139309  0.24796405  0.44907100  1
  Se  Se158  1  0.41376900  0.24795183  0.95030262  1
  Se  Se159  1  0.41490131  0.58720357  0.45941339  1
  Se  Se160  1  0.41613385  0.58437871  0.95006449  1
  Se  Se161  1  0.41379311  0.91991518  0.43222403  1
  Se  Se162  1  0.41166170  0.92059831  0.93671988  1
  Se  Se163  1  0.74517875  0.25974634  0.43941531  1
  Se  Se164  1  0.74502938  0.24245823  0.94815944  1
  Se  Se165  1  0.74452902  0.58782773  0.43276389  1
  Se  Se166  1  0.74720977  0.57764408  0.95629146  1
  Se  Se167  1  0.75328008  0.91855145  0.44902688  1
  Se  Se168  1  0.74755764  0.91665762  0.94834340  1
  Se  Se169  1  0.25811304  0.07798024  0.43187603  1
  Se  Se170  1  0.25266330  0.07807534  0.93847267  1
  Se  Se171  1  0.25243737  0.41652418  0.45247219  1
  Se  Se172  1  0.24991925  0.42081474  0.94938271  1
  Se  Se173  1  0.25826159  0.74867243  0.45040702  1
  Se  Se174  1  0.25142326  0.75002500  0.94819927  1
  Se  Se175  1  0.58451529  0.08584429  0.44535741  1
  Se  Se176  1  0.57756551  0.08086105  0.94773095  1
  Se  Se177  1  0.58130557  0.42018507  0.44681078  1
  Se  Se178  1  0.57568806  0.41393646  0.94889618  1
  Se  Se179  1  0.58840099  0.74237589  0.43448598  1
  Se  Se180  1  0.58967039  0.74157510  0.93678846  1
  Se  Se181  1  0.92567859  0.07439099  0.44193498  1
  Se  Se182  1  0.91473402  0.08128317  0.94824370  1
  Se  Se183  1  0.92511599  0.41950452  0.43550651  1
  Se  Se184  1  0.91676902  0.41116579  0.95522022  1
  Se  Se185  1  0.91274716  0.75196173  0.44898350  1
  Se  Se186  1  0.91731379  0.75153906  0.95135834  1
  Se  Se187  1  0.25835527  0.24814656  0.29654470  1
  Se  Se188  1  0.25148285  0.25412647  0.79885205  1
  Se  Se189  1  0.24731574  0.58112860  0.31764859  1
  Se  Se190  1  0.26039806  0.58874925  0.80722804  1
  Se  Se191  1  0.25528921  0.92095743  0.29433572  1
  Se  Se192  1  0.24572469  0.91163201  0.81161112  1
  Se  Se193  1  0.58486529  0.25932084  0.30461692  1
  Se  Se194  1  0.58166553  0.24980280  0.80810180  1
  Se  Se195  1  0.57597577  0.58339143  0.30570094  1
  Se  Se196  1  0.57619904  0.57108456  0.81504184  1
  Se  Se197  1  0.58853073  0.92114337  0.29915890  1
  Se  Se198  1  0.57559048  0.90019863  0.79631895  1
  Se  Se199  1  0.90610420  0.24858689  0.30485083  1
  Se  Se200  1  0.90393714  0.24222183  0.81484169  1
  Se  Se201  1  0.91228581  0.58700845  0.29187228  1
  Se  Se202  1  0.90750310  0.57431760  0.81752253  1
  Se  Se203  1  0.91495079  0.91128531  0.31262883  1
  Se  Se204  1  0.91741964  0.92186321  0.80696053  1
  Se  Se205  1  0.09185561  0.08974548  0.30680950  1
  Se  Se206  1  0.08086017  0.08273844  0.79804965  1
  Se  Se207  1  0.08521156  0.41588524  0.31120443  1
  Se  Se208  1  0.08989434  0.43079284  0.80858555  1
  Se  Se209  1  0.08278962  0.74777542  0.30563080  1
  Se  Se210  1  0.09086994  0.75685151  0.81729620  1
  Se  Se211  1  0.42286959  0.08716686  0.29985801  1
  Se  Se212  1  0.41914099  0.08478280  0.81267657  1
  Se  Se213  1  0.40494978  0.41321326  0.31303280  1
  Se  Se214  1  0.41158278  0.41041063  0.80822060  1
  Se  Se215  1  0.42379561  0.75768818  0.30793906  1
  Se  Se216  1  0.42414043  0.75222989  0.79525464  1
  Se  Se217  1  0.74680686  0.08512615  0.30082882  1
  Se  Se218  1  0.74046262  0.07534112  0.80826976  1
  Se  Se219  1  0.74379724  0.41757527  0.29209585  1
  Se  Se220  1  0.74194851  0.40796868  0.81043313  1
  Se  Se221  1  0.75435681  0.75723966  0.30838978  1
  Se  Se222  1  0.75859544  0.75150925  0.81201887  1
  Se  Se223  1  0.25929695  0.08141125  0.19208833  1
  Se  Se224  1  0.24265256  0.09146039  0.68624818  1
  Se  Se225  1  0.25516780  0.41669371  0.20719222  1
  Se  Se226  1  0.25477578  0.41425288  0.70100452  1
  Se  Se227  1  0.24315016  0.75531651  0.19010612  1
  Se  Se228  1  0.25088163  0.74996353  0.69705413  1
  Se  Se229  1  0.58618308  0.08593012  0.19577013  1
  Se  Se230  1  0.58121406  0.07982935  0.69931375  1
  Se  Se231  1  0.58264305  0.42662766  0.19544824  1
  Se  Se232  1  0.58667682  0.41057675  0.70003265  1
  Se  Se233  1  0.57346037  0.75698660  0.18412739  1
  Se  Se234  1  0.57863302  0.74971757  0.68088373  1
  Se  Se235  1  0.91104420  0.09577385  0.18871169  1
  Se  Se236  1  0.91370297  0.08442984  0.70306751  1
  Se  Se237  1  0.90664198  0.42126757  0.17956856  1
  Se  Se238  1  0.91055732  0.42210535  0.69644091  1
  Se  Se239  1  0.91722592  0.74657460  0.19447594  1
  Se  Se240  1  0.90852557  0.75153625  0.69449278  1
  Se  Se241  1  0.09594228  0.24480031  0.18577910  1
  Se  Se242  1  0.08927748  0.25087502  0.68621905  1
  Se  Se243  1  0.08682887  0.56758017  0.19759494  1
  Se  Se244  1  0.09031396  0.58461468  0.69476903  1
  Se  Se245  1  0.09040930  0.91004425  0.18988516  1
  Se  Se246  1  0.08014257  0.91659943  0.69984529  1
  Se  Se247  1  0.41979317  0.25627039  0.19527342  1
  Se  Se248  1  0.41691754  0.24784009  0.69845851  1
  Se  Se249  1  0.42651959  0.57225396  0.19670415  1
  Se  Se250  1  0.42106087  0.57907725  0.69997629  1
  Se  Se251  1  0.41671729  0.92171025  0.19620258  1
  Se  Se252  1  0.42295773  0.91033472  0.68561688  1
  Se  Se253  1  0.74409789  0.25796618  0.19012013  1
  Se  Se254  1  0.74634960  0.25160446  0.70214489  1
  Se  Se255  1  0.75214733  0.57992196  0.17775198  1
  Se  Se256  1  0.75274917  0.57531509  0.69855342  1
  Se  Se257  1  0.75185578  0.91956396  0.19933088  1
  Se  Se258  1  0.74553236  0.91599555  0.69954053  1
