# generated using pymatgen
data_In86Cu29Se144
_symmetry_space_group_name_H-M   'P 1'
_cell_length_a   17.60611945
_cell_length_b   17.60121207
_cell_length_c   23.45166045
_cell_angle_alpha   90.01894340
_cell_angle_beta   89.99543502
_cell_angle_gamma   89.97274197
_symmetry_Int_Tables_number   1
_chemical_formula_structural   In86Cu29Se144
_chemical_formula_sum   'In86 Cu29 Se144'
_cell_volume   7267.41135481
_cell_formula_units_Z   1
loop_
 _symmetry_equiv_pos_site_id
 _symmetry_equiv_pos_as_xyz
  1  'x, y, z'
loop_
 _atom_site_type_symbol
 _atom_site_label
 _atom_site_symmetry_multiplicity
 _atom_site_fract_x
 _atom_site_fract_y
 _atom_site_fract_z
 _atom_site_occupancy
  In  In0  1  0.00353016  0.17097337  0.11011570  1
  In  In1  1  -0.01143142  0.16394985  0.63423974  1
  In  In2  1  0.00782382  0.51128849  0.11275414  1
  In  In3  1  0.00924673  0.51397776  0.61063729  1
  In  In4  1  -0.01153659  0.83267742  0.12631465  1
  In  In5  1  -0.00439992  0.83294026  0.63591785  1
  In  In6  1  0.37383013  0.22040660  0.06933232  1
  In  In7  1  0.34607477  0.17477056  0.62953547  1
  In  In8  1  0.32360763  0.51041852  0.11720368  1
  In  In9  1  0.33428125  0.49457459  0.63036639  1
  In  In10  1  0.32288286  0.82532936  0.12370339  1
  In  In11  1  0.31932387  0.81983567  0.63053500  1
  In  In12  1  0.67864537  0.18174611  0.11100187  1
  In  In13  1  0.65818910  0.16989898  0.64184059  1
  In  In14  1  0.66078153  0.49520283  0.11763977  1
  In  In15  1  0.66748962  0.49789755  0.62816328  1
  In  In16  1  0.67679959  0.82963976  0.11967048  1
  In  In17  1  0.68363746  0.80550034  0.65295187  1
  In  In18  1  0.15476005  0.00463456  0.36832852  1
  In  In19  1  0.16464920  0.01252415  0.87057719  1
  In  In20  1  0.18066991  0.34114659  0.36534487  1
  In  In21  1  0.17663398  0.33947736  0.88671014  1
  In  In22  1  0.15643738  0.64836223  0.36401653  1
  In  In23  1  0.16783483  0.65657370  0.87535204  1
  In  In24  1  0.50912032  0.00387853  0.37172177  1
  In  In25  1  0.53266048  0.00254814  0.88087930  1
  In  In26  1  0.50554239  0.33881054  0.36699870  1
  In  In27  1  0.49672837  0.33027536  0.88384212  1
  In  In28  1  0.48412507  0.66132426  0.37404853  1
  In  In29  1  0.49084736  0.65114351  0.86047663  1
  In  In30  1  0.82728965  -0.00714440  0.37992866  1
  In  In31  1  0.82653828  -0.00260471  0.88104712  1
  In  In32  1  0.83705818  0.34973699  0.36885518  1
  In  In33  1  0.82177888  0.34518532  0.87675434  1
  In  In34  1  0.83675187  0.66269254  0.38614316  1
  In  In35  1  0.83526080  0.67046009  0.87801256  1
  In  In36  1  -0.00112133  0.15425091  0.36934686  1
  In  In37  1  0.00495751  0.15696453  0.87749897  1
  In  In38  1  -0.00944866  0.51877849  0.38651231  1
  In  In39  1  0.00448360  0.51523974  0.88727745  1
  In  In40  1  0.00829209  0.81221147  0.38336839  1
  In  In41  1  -0.02025407  0.81395871  0.86950123  1
  In  In42  1  0.32166997  0.17805590  0.36435952  1
  In  In43  1  0.32470480  0.17948444  0.88896317  1
  In  In44  1  0.33283205  0.49810443  0.37581334  1
  In  In45  1  0.33717312  0.50459483  0.88586736  1
  In  In46  1  0.34769343  0.82254181  0.37530576  1
  In  In47  1  0.34439493  0.81084776  0.86775157  1
  In  In48  1  0.65539835  0.17033202  0.37051548  1
  In  In49  1  0.66536188  0.16899139  0.88482971  1
  In  In50  1  0.67180953  0.49280055  0.37663684  1
  In  In51  1  0.66719041  0.49848703  0.86920339  1
  In  In52  1  0.67356316  0.84211972  0.38398348  1
  In  In53  1  0.67067960  0.84151253  0.86349025  1
  In  In54  1  0.16959443  0.00870927  0.12061556  1
  In  In55  1  0.16263247  -0.01310848  0.63413227  1
  In  In56  1  0.20007155  0.35868839  0.08856385  1
  In  In57  1  0.15760796  0.36526902  0.63737878  1
  In  In58  1  0.17230711  0.65631730  0.12819621  1
  In  In59  1  0.16927119  0.64676763  0.64230713  1
  In  In60  1  0.48914471  0.00630146  0.12207619  1
  In  In61  1  0.50720000  0.00587046  0.63321559  1
  In  In62  1  0.49844977  0.35353528  0.12262954  1
  In  In63  1  0.48598926  0.33854939  0.63791219  1
  In  In64  1  0.49224619  0.64782211  0.11113393  1
  In  In65  1  0.51354867  0.64906793  0.64166595  1
  In  In66  1  0.82824888  0.00316352  0.10968152  1
  In  In67  1  0.84026700  -0.01483493  0.63800593  1
  In  In68  1  0.83097528  0.33251486  0.11520479  1
  In  In69  1  0.82177444  0.33827543  0.63361772  1
  In  In70  1  0.84441368  0.67561540  0.10950645  1
  In  In71  1  0.83458801  0.66171724  0.62705157  1
  In  In72  1  0.00397139  0.34012010  0.24015641  1
  In  In73  1  0.32561498  0.00364729  0.25306680  1
  In  In74  1  0.16826096  0.17519325  0.49752697  1
  In  In75  1  0.00077823  0.34468610  0.76709677  1
  In  In76  1  0.33229351  0.00743947  0.75816217  1
  In  In77  1  0.15960813  0.82773110  -0.01100331  1
  In  In78  1  0.50902744  0.83485773  -0.00675449  1
  In  In79  1  0.66490561  0.00309364  0.24617425  1
  In  In80  1  -0.00222142  -0.00302511  0.24297638  1
  In  In81  1  0.16613121  0.81925082  0.50905378  1
  In  In82  1  0.66443599  0.66328502  0.24487400  1
  In  In83  1  0.83008459  0.17384232  0.50473661  1
  In  In84  1  0.51097887  0.82407398  0.51623496  1
  In  In85  1  0.50325942  0.17462353  0.49367411  1
  Cu  Cu86  1  0.66974131  0.66462326  -0.00750714  1
  Cu  Cu87  1  0.33488778  -0.00181304  -0.01023706  1
  Cu  Cu88  1  0.16831797  0.81786750  0.25002592  1
  Cu  Cu89  1  -0.00731924  -0.00576002  -0.00427907  1
  Cu  Cu90  1  0.33272648  0.65517178  0.50347484  1
  Cu  Cu91  1  0.18024031  0.18297834  0.23046733  1
  Cu  Cu92  1  0.48929651  0.49831215  0.24386793  1
  Cu  Cu93  1  0.68251542  -0.00709015  0.51281007  1
  Cu  Cu94  1  -0.00723048  0.32670438  -0.01007055  1
  Cu  Cu95  1  0.66278351  0.33965590  0.50207072  1
  Cu  Cu96  1  0.83745167  0.50611064  0.75257476  1
  Cu  Cu97  1  0.00278611  0.33953713  0.49608597  1
  Cu  Cu98  1  0.16692071  0.17712794  0.75621919  1
  Cu  Cu99  1  0.84000682  0.82361976  0.25143078  1
  Cu  Cu100  1  0.82908684  0.50409485  0.24977194  1
  Cu  Cu101  1  0.82956512  0.17558597  0.24004506  1
  Cu  Cu102  1  0.33957552  -0.00177828  0.49522143  1
  Cu  Cu103  1  0.15896188  0.82679731  0.75433983  1
  Cu  Cu104  1  0.82807620  0.15809635  0.75633063  1
  Cu  Cu105  1  0.66741352  0.66453413  0.50833281  1
  Cu  Cu106  1  0.00128571  -0.00544869  0.51320461  1
  Cu  Cu107  1  0.50070032  0.16838739  0.76289430  1
  Cu  Cu108  1  0.49501022  0.81961159  0.24586153  1
  Cu  Cu109  1  0.49960633  0.48984568  0.75622042  1
  Cu  Cu110  1  0.49644301  0.18359126  0.23709103  1
  Cu  Cu111  1  0.16748262  0.49672212  0.24177257  1
  Cu  Cu112  1  0.33018074  0.34298638  0.50535233  1
  Cu  Cu113  1  0.66735642  0.34067014  -0.00361748  1
  Cu  Cu114  1  0.83170212  0.83530609  0.75453091  1
  Se  Se115  1  0.07978441  0.07429011  0.04846335  1
  Se  Se116  1  0.08267616  0.08235296  0.56408195  1
  Se  Se117  1  0.07157467  0.40704927  0.04966886  1
  Se  Se118  1  0.08939203  0.41883736  0.54860056  1
  Se  Se119  1  0.08201271  0.74877397  0.06378735  1
  Se  Se120  1  0.07883880  0.73705532  0.57268729  1
  Se  Se121  1  0.41819565  0.07898482  0.04405459  1
  Se  Se122  1  0.41609114  0.07908334  0.55560095  1
  Se  Se123  1  0.40633795  0.42159597  0.05241033  1
  Se  Se124  1  0.42124121  0.41738295  0.55801204  1
  Se  Se125  1  0.41150013  0.74941094  0.05274276  1
  Se  Se126  1  0.41071798  0.73582252  0.56567122  1
  Se  Se127  1  0.73953532  0.08064849  0.04648856  1
  Se  Se128  1  0.74936332  0.08460497  0.57142670  1
  Se  Se129  1  0.75290456  0.42304128  0.04953694  1
  Se  Se130  1  0.75048755  0.41592199  0.55630601  1
  Se  Se131  1  0.75008553  0.75210422  0.04466733  1
  Se  Se132  1  0.74569856  0.74974685  0.56282375  1
  Se  Se133  1  0.22797317  0.22191360  0.05694048  1
  Se  Se134  1  0.25341764  0.25832719  0.56453858  1
  Se  Se135  1  0.22576126  0.57473504  0.04536389  1
  Se  Se136  1  0.24921433  0.57967891  0.56279005  1
  Se  Se137  1  0.25453619  0.91932629  0.05106318  1
  Se  Se138  1  0.25859850  0.92384950  0.55799439  1
  Se  Se139  1  0.58255921  0.26496599  0.05500559  1
  Se  Se140  1  0.58698243  0.25656600  0.56319819  1
  Se  Se141  1  0.58592627  0.58006475  0.04470991  1
  Se  Se142  1  0.58256532  0.58134002  0.55873558  1
  Se  Se143  1  0.58879602  0.92453255  0.06224257  1
  Se  Se144  1  0.59907986  0.91781877  0.57230123  1
  Se  Se145  1  0.90989595  0.24583610  0.04638409  1
  Se  Se146  1  0.92602734  0.26281388  0.56125879  1
  Se  Se147  1  0.90894402  0.57534917  0.04692381  1
  Se  Se148  1  0.90067295  0.57314129  0.55305944  1
  Se  Se149  1  0.91352989  0.91067947  0.05141939  1
  Se  Se150  1  0.91622819  0.91094235  0.56126280  1
  Se  Se151  1  0.07415181  0.25668291  0.43169279  1
  Se  Se152  1  0.08481763  0.24775721  0.94202899  1
  Se  Se153  1  0.08488759  0.59386104  0.44914147  1
  Se  Se154  1  0.10550678  0.57573521  0.95652226  1
  Se  Se155  1  0.08383189  0.92281468  0.44784744  1
  Se  Se156  1  0.07338953  0.92129259  0.93114443  1
  Se  Se157  1  0.40252594  0.25978065  0.43959343  1
  Se  Se158  1  0.41444467  0.25197417  0.95807197  1
  Se  Se159  1  0.41817042  0.57623104  0.44834923  1
  Se  Se160  1  0.42670578  0.59204962  0.94737589  1
  Se  Se161  1  0.42672455  0.91741593  0.44346472  1
  Se  Se162  1  0.41428725  0.91933594  0.93035334  1
  Se  Se163  1  0.74146999  0.25880668  0.43862050  1
  Se  Se164  1  0.75353331  0.25508216  0.94836251  1
  Se  Se165  1  0.74290412  0.58234021  0.44677891  1
  Se  Se166  1  0.75082013  0.57858758  0.93992783  1
  Se  Se167  1  0.76106424  0.91085200  0.45682478  1
  Se  Se168  1  0.74304584  0.90943374  0.94433289  1
  Se  Se169  1  0.25685950  0.07579360  0.43683240  1
  Se  Se170  1  0.24293950  0.08243018  0.94704416  1
  Se  Se171  1  0.24555526  0.41840945  0.44566746  1
  Se  Se172  1  0.27074854  0.40629309  0.95585728  1
  Se  Se173  1  0.25948553  0.74127155  0.44292972  1
  Se  Se174  1  0.26359596  0.74023250  0.94482997  1
  Se  Se175  1  0.60187479  0.07083407  0.44902664  1
  Se  Se176  1  0.57609653  0.09641967  0.95633051  1
  Se  Se177  1  0.57937488  0.41628895  0.44362870  1
  Se  Se178  1  0.58369299  0.42192047  0.94246349  1
  Se  Se179  1  0.58892186  0.74008992  0.44055343  1
  Se  Se180  1  0.58934042  0.74209305  0.93064083  1
  Se  Se181  1  0.92398058  0.07509435  0.44910879  1
  Se  Se182  1  0.91335003  0.08475735  0.94587290  1
  Se  Se183  1  0.91278426  0.41957960  0.44636342  1
  Se  Se184  1  0.91658352  0.41954081  0.94164282  1
  Se  Se185  1  0.90534942  0.76219357  0.44912530  1
  Se  Se186  1  0.92509211  0.73585407  0.95205787  1
  Se  Se187  1  0.25741771  0.26383032  0.28974054  1
  Se  Se188  1  0.24998604  0.25448906  0.81141478  1
  Se  Se189  1  0.25154488  0.57586242  0.30050141  1
  Se  Se190  1  0.26943789  0.59376846  0.81186919  1
  Se  Se191  1  0.24076448  0.90332151  0.31291532  1
  Se  Se192  1  0.24462570  0.90610658  0.81274419  1
  Se  Se193  1  0.58446492  0.25315414  0.29714832  1
  Se  Se194  1  0.58414739  0.25298489  0.81439892  1
  Se  Se195  1  0.57325019  0.57575614  0.30604466  1
  Se  Se196  1  0.58900407  0.58063917  0.79633700  1
  Se  Se197  1  0.57743786  0.90096951  0.30323760  1
  Se  Se198  1  0.57028969  0.91282243  0.80067847  1
  Se  Se199  1  0.91439125  0.24544974  0.30427912  1
  Se  Se200  1  0.90871529  0.24361757  0.81387212  1
  Se  Se201  1  0.90830540  0.58464012  0.30818026  1
  Se  Se202  1  0.91976104  0.58339894  0.81094195  1
  Se  Se203  1  0.91600293  0.90940762  0.31165170  1
  Se  Se204  1  0.91284504  0.91869280  0.80949706  1
  Se  Se205  1  0.09649859  0.10084227  0.29051615  1
  Se  Se206  1  0.08178741  0.08631014  0.79754653  1
  Se  Se207  1  0.08225149  0.42851843  0.30960802  1
  Se  Se208  1  0.09842791  0.43257182  0.81815122  1
  Se  Se209  1  0.07667720  0.74233812  0.30124107  1
  Se  Se210  1  0.08136897  0.74107324  0.80989403  1
  Se  Se211  1  0.42786508  0.09844813  0.30479884  1
  Se  Se212  1  0.41925236  0.09069204  0.82398606  1
  Se  Se213  1  0.41208087  0.41504702  0.30289862  1
  Se  Se214  1  0.41592787  0.41534815  0.81552749  1
  Se  Se215  1  0.41014797  0.73932967  0.29780405  1
  Se  Se216  1  0.43561113  0.75659311  0.79256263  1
  Se  Se217  1  0.76040547  0.09201911  0.30734939  1
  Se  Se218  1  0.74236063  0.08214870  0.81304997  1
  Se  Se219  1  0.74595146  0.41650369  0.29829707  1
  Se  Se220  1  0.75070234  0.41721848  0.79710405  1
  Se  Se221  1  0.74883166  0.75506611  0.30978567  1
  Se  Se222  1  0.75077498  0.74488077  0.80374622  1
  Se  Se223  1  0.26153772  0.09364964  0.18053272  1
  Se  Se224  1  0.24211612  0.09429310  0.69082708  1
  Se  Se225  1  0.24741991  0.41617116  0.18420884  1
  Se  Se226  1  0.26756480  0.40101189  0.70140910  1
  Se  Se227  1  0.25539508  0.74005727  0.19716293  1
  Se  Se228  1  0.24627106  0.74239021  0.70567674  1
  Se  Se229  1  0.57899059  0.09497583  0.18554095  1
  Se  Se230  1  0.58079823  0.08202796  0.70966023  1
  Se  Se231  1  0.58547258  0.42314101  0.19664922  1
  Se  Se232  1  0.58524382  0.41229319  0.69791612  1
  Se  Se233  1  0.57494573  0.74988943  0.18010007  1
  Se  Se234  1  0.55551063  0.76815665  0.69866877  1
  Se  Se235  1  0.90878049  0.09001922  0.18507800  1
  Se  Se236  1  0.91577359  0.07828223  0.70426698  1
  Se  Se237  1  0.90844137  0.42795665  0.18571629  1
  Se  Se238  1  0.91748238  0.42287915  0.69405060  1
  Se  Se239  1  0.91705064  0.74052701  0.19487810  1
  Se  Se240  1  0.91033622  0.74804077  0.69957071  1
  Se  Se241  1  0.09045998  0.25625463  0.17556514  1
  Se  Se242  1  0.08268355  0.25323083  0.69412318  1
  Se  Se243  1  0.07894865  0.58093222  0.19495555  1
  Se  Se244  1  0.07114829  0.56940952  0.70047316  1
  Se  Se245  1  0.09702699  0.90678686  0.18980917  1
  Se  Se246  1  0.07809611  0.91635807  0.70599644  1
  Se  Se247  1  0.41239279  0.25209873  0.17579395  1
  Se  Se248  1  0.41416137  0.24876601  0.70900529  1
  Se  Se249  1  0.41153721  0.58459159  0.18977200  1
  Se  Se250  1  0.41633539  0.57518027  0.70245351  1
  Se  Se251  1  0.41669702  0.90946577  0.19296350  1
  Se  Se252  1  0.40678998  0.91979624  0.68673723  1
  Se  Se253  1  0.74672928  0.25955250  0.19069295  1
  Se  Se254  1  0.75157447  0.24840828  0.70366559  1
  Se  Se255  1  0.75679105  0.58225465  0.18283835  1
  Se  Se256  1  0.74844682  0.58322925  0.69739127  1
  Se  Se257  1  0.76297810  0.91100876  0.19355355  1
  Se  Se258  1  0.74316246  0.92089770  0.70600337  1
