# generated using pymatgen
data_In86Cu29Se144
_symmetry_space_group_name_H-M   'P 1'
_cell_length_a   17.57659791
_cell_length_b   17.58013755
_cell_length_c   23.44403322
_cell_angle_alpha   89.97707399
_cell_angle_beta   90.04523334
_cell_angle_gamma   89.98065251
_symmetry_Int_Tables_number   1
_chemical_formula_structural   In86Cu29Se144
_chemical_formula_sum   'In86 Cu29 Se144'
_cell_volume   7244.17977625
_cell_formula_units_Z   1
loop_
 _symmetry_equiv_pos_site_id
 _symmetry_equiv_pos_as_xyz
  1  'x, y, z'
loop_
 _atom_site_type_symbol
 _atom_site_label
 _atom_site_symmetry_multiplicity
 _atom_site_fract_x
 _atom_site_fract_y
 _atom_site_fract_z
 _atom_site_occupancy
  In  In0  1  0.03560217  0.16803322  0.12275641  1
  In  In1  1  -0.00528516  0.17305177  0.63046248  1
  In  In2  1  0.00180284  0.50078911  0.12174151  1
  In  In3  1  0.00510775  0.50033191  0.63002800  1
  In  In4  1  -0.00542397  0.82730733  0.11256979  1
  In  In5  1  0.00202680  0.83771989  0.63990603  1
  In  In6  1  0.29270144  0.19136247  0.15528756  1
  In  In7  1  0.34817840  0.16987198  0.62178627  1
  In  In8  1  0.33448264  0.50427449  0.12565060  1
  In  In9  1  0.31398516  0.50026185  0.62368088  1
  In  In10  1  0.31923961  0.84338607  0.13444759  1
  In  In11  1  0.33392813  0.82479211  0.62212230  1
  In  In12  1  0.66592269  0.17235099  0.12454351  1
  In  In13  1  0.66568165  0.16852999  0.62500240  1
  In  In14  1  0.67113143  0.50545522  0.11321573  1
  In  In15  1  0.67256498  0.49210515  0.63619203  1
  In  In16  1  0.67298554  0.82219243  0.11889970  1
  In  In17  1  0.66286322  0.84217870  0.63316625  1
  In  In18  1  0.16503730  -0.00960514  0.37108210  1
  In  In19  1  0.15749949  0.00133747  0.88271344  1
  In  In20  1  0.17792890  0.34102831  0.36489110  1
  In  In21  1  0.16590795  0.33404934  0.87722091  1
  In  In22  1  0.15784163  0.65130181  0.36737181  1
  In  In23  1  0.14899994  0.67912024  0.88564847  1
  In  In24  1  0.49356797  0.00795357  0.38451203  1
  In  In25  1  0.50829797  -0.00604199  0.87014785  1
  In  In26  1  0.48927381  0.33187174  0.37734757  1
  In  In27  1  0.50551598  0.33952647  0.86773265  1
  In  In28  1  0.50140884  0.67194861  0.37578268  1
  In  In29  1  0.49108202  0.65447922  0.87243855  1
  In  In30  1  0.84705262  0.01414792  0.38120559  1
  In  In31  1  0.83489539  -0.00681733  0.86895165  1
  In  In32  1  0.83400849  0.31967268  0.37917872  1
  In  In33  1  0.83980263  0.34327685  0.86758737  1
  In  In34  1  0.83803618  0.66090957  0.37290337  1
  In  In35  1  0.83608697  0.66390414  0.87191158  1
  In  In36  1  -0.00989258  0.16572433  0.37758004  1
  In  In37  1  0.00751929  0.17622114  0.86947202  1
  In  In38  1  0.01412232  0.51311287  0.36825691  1
  In  In39  1  0.00004267  0.49908245  0.87740209  1
  In  In40  1  0.00803695  0.83145835  0.37398560  1
  In  In41  1  0.00790693  0.82425699  0.87124147  1
  In  In42  1  0.33695765  0.17874007  0.36688970  1
  In  In43  1  0.31326434  0.16880062  0.88061305  1
  In  In44  1  0.32873005  0.48230738  0.35972256  1
  In  In45  1  0.33925457  0.49522871  0.88511746  1
  In  In46  1  0.33705579  0.83793939  0.36862225  1
  In  In47  1  0.32837226  0.82803374  0.87914579  1
  In  In48  1  0.67209001  0.17025720  0.39327475  1
  In  In49  1  0.67043717  0.16620802  0.86443039  1
  In  In50  1  0.66417148  0.49818967  0.37777428  1
  In  In51  1  0.66460291  0.50262040  0.87058372  1
  In  In52  1  0.66179333  0.82089748  0.38059615  1
  In  In53  1  0.67871813  0.84177870  0.86307921  1
  In  In54  1  0.16754099  0.00238026  0.11306734  1
  In  In55  1  0.15212617  -0.00232787  0.63151543  1
  In  In56  1  0.16180346  0.33975459  0.12430512  1
  In  In57  1  0.15447685  0.34494041  0.63532198  1
  In  In58  1  0.16658543  0.66392349  0.12355087  1
  In  In59  1  0.16769544  0.66381379  0.62765453  1
  In  In60  1  0.48500636  -0.01187597  0.12239254  1
  In  In61  1  0.51114256  0.01319292  0.61506610  1
  In  In62  1  0.48271681  0.33836181  0.13131128  1
  In  In63  1  0.50753742  0.32385949  0.63069082  1
  In  In64  1  0.49549044  0.65085246  0.12267896  1
  In  In65  1  0.49896846  0.67787626  0.62231682  1
  In  In66  1  0.86102279  0.00036921  0.11318523  1
  In  In67  1  0.83417316  0.00508696  0.63245005  1
  In  In68  1  0.83778153  0.34922682  0.11835604  1
  In  In69  1  0.83736027  0.32894210  0.62983721  1
  In  In70  1  0.84236653  0.67519738  0.11393405  1
  In  In71  1  0.83831300  0.65906894  0.63530646  1
  In  In72  1  0.66418001  0.33573466  0.25526212  1
  In  In73  1  0.50031803  0.82925922  -0.00410941  1
  In  In74  1  0.83177769  0.83813061  0.50548901  1
  In  In75  1  0.32725425  0.66522117  0.75041138  1
  In  In76  1  0.16884639  0.16989395  0.49948481  1
  In  In77  1  0.66320576  0.66186470  0.25322727  1
  In  In78  1  0.00990969  0.00192497  0.24795892  1
  In  In79  1  0.83956807  0.16862708  -0.00960126  1
  In  In80  1  0.49689327  0.49393124  0.49389965  1
  In  In81  1  0.49193692  0.16949026  0.00750625  1
  In  In82  1  0.16398919  0.83353443  0.49995958  1
  In  In83  1  0.66691473  -0.00204424  0.25074660  1
  In  In84  1  0.33559061  0.00525030  0.75219689  1
  In  In85  1  0.83863750  0.49152577  0.51107384  1
  Cu  Cu86  1  0.67140810  0.66658363  -0.00800127  1
  Cu  Cu87  1  0.16679994  0.17202572  0.75265874  1
  Cu  Cu88  1  0.50179876  0.16963125  0.74513697  1
  Cu  Cu89  1  0.83900956  0.83535322  0.23958724  1
  Cu  Cu90  1  0.16627175  0.82227502  0.24864502  1
  Cu  Cu91  1  0.32904859  0.33591803  0.49542714  1
  Cu  Cu92  1  0.00380054  0.33175198  -0.00236481  1
  Cu  Cu93  1  0.32795226  0.66475292  0.49943320  1
  Cu  Cu94  1  0.83399641  0.16231538  0.74952108  1
  Cu  Cu95  1  0.33023386  0.66467139  0.00423994  1
  Cu  Cu96  1  -0.00037268  0.65980278  -0.00250232  1
  Cu  Cu97  1  0.66291954  0.34689750  -0.00612871  1
  Cu  Cu98  1  0.32510446  0.00591329  0.00480297  1
  Cu  Cu99  1  0.83827808  0.82709213  0.75212403  1
  Cu  Cu100  1  0.49682164  0.49849559  0.75133777  1
  Cu  Cu101  1  0.00618628  0.34202902  0.50334394  1
  Cu  Cu102  1  0.84451711  0.50285316  0.24605468  1
  Cu  Cu103  1  0.66635457  -0.00282407  0.50887168  1
  Cu  Cu104  1  0.67394137  0.00151266  -0.00748864  1
  Cu  Cu105  1  0.50669493  0.83804074  0.74359746  1
  Cu  Cu106  1  0.83215957  0.49855699  0.75362871  1
  Cu  Cu107  1  0.16594403  0.49889755  0.75723639  1
  Cu  Cu108  1  0.49265206  0.82992257  0.25206816  1
  Cu  Cu109  1  0.66323058  0.66541581  0.50570046  1
  Cu  Cu110  1  0.84031562  0.17199097  0.25350909  1
  Cu  Cu111  1  0.32754786  0.33391975  0.00765680  1
  Cu  Cu112  1  0.33677080  -0.00364766  0.49593220  1
  Cu  Cu113  1  0.49489558  0.15713566  0.25543496  1
  Cu  Cu114  1  0.16705769  0.50009735  0.24245168  1
  Se  Se115  1  0.05371962  0.05636127  0.05557315  1
  Se  Se116  1  0.07709131  0.08263568  0.55864551  1
  Se  Se117  1  0.08387387  0.41935760  0.05056870  1
  Se  Se118  1  0.08865397  0.42488677  0.55598203  1
  Se  Se119  1  0.08431719  0.74304552  0.05111742  1
  Se  Se120  1  0.07469103  0.74943540  0.56294408  1
  Se  Se121  1  0.39942355  0.08609950  0.06802712  1
  Se  Se122  1  0.41689881  0.08457110  0.54786774  1
  Se  Se123  1  0.41600285  0.41841937  0.05417843  1
  Se  Se124  1  0.40833072  0.41224130  0.56116381  1
  Se  Se125  1  0.41038014  0.75036443  0.06258985  1
  Se  Se126  1  0.41370690  0.74893645  0.54857511  1
  Se  Se127  1  0.74746263  0.08182821  0.05749902  1
  Se  Se128  1  0.75123208  0.08031220  0.55966435  1
  Se  Se129  1  0.75427247  0.42237623  0.04581993  1
  Se  Se130  1  0.73816026  0.40350781  0.55975108  1
  Se  Se131  1  0.75338690  0.75180671  0.04440229  1
  Se  Se132  1  0.74625811  0.74239275  0.56487567  1
  Se  Se133  1  0.24565493  0.24751636  0.05953102  1
  Se  Se134  1  0.25233922  0.26137169  0.56315162  1
  Se  Se135  1  0.24721614  0.57840415  0.05427076  1
  Se  Se136  1  0.24174234  0.58495577  0.55123455  1
  Se  Se137  1  0.24867433  0.90881870  0.05078310  1
  Se  Se138  1  0.25386284  0.92748049  0.56057222  1
  Se  Se139  1  0.58855305  0.26623078  0.05829909  1
  Se  Se140  1  0.57159338  0.23840560  0.55650039  1
  Se  Se141  1  0.58542361  0.58946381  0.04799312  1
  Se  Se142  1  0.58590136  0.57847400  0.56205735  1
  Se  Se143  1  0.59148318  0.92472351  0.05524691  1
  Se  Se144  1  0.58160788  0.90876444  0.55484289  1
  Se  Se145  1  0.92493094  0.25115270  0.05998796  1
  Se  Se146  1  0.92331626  0.25760840  0.55592274  1
  Se  Se147  1  0.91389178  0.57769012  0.05084193  1
  Se  Se148  1  0.92639994  0.59339030  0.55815640  1
  Se  Se149  1  0.90583918  0.90109385  0.04258707  1
  Se  Se150  1  0.92582492  0.92287598  0.56345455  1
  Se  Se151  1  0.08239168  0.26236745  0.43859341  1
  Se  Se152  1  0.08724198  0.24601936  0.94729639  1
  Se  Se153  1  0.07773348  0.59169427  0.44753692  1
  Se  Se154  1  0.08674574  0.57492725  0.94885710  1
  Se  Se155  1  0.06989039  0.92976772  0.44609990  1
  Se  Se156  1  0.09698596  0.89505179  0.94293212  1
  Se  Se157  1  0.41243739  0.24711018  0.44785287  1
  Se  Se158  1  0.40840384  0.25804623  0.94190058  1
  Se  Se159  1  0.40555012  0.58435535  0.43662650  1
  Se  Se160  1  0.41839323  0.58521545  0.95238732  1
  Se  Se161  1  0.41811468  0.90850058  0.44541615  1
  Se  Se162  1  0.40920989  0.93075338  0.94316848  1
  Se  Se163  1  0.76074605  0.24883893  0.45656639  1
  Se  Se164  1  0.74085805  0.25871815  0.93848273  1
  Se  Se165  1  0.74580652  0.58755603  0.44684089  1
  Se  Se166  1  0.75219513  0.57930430  0.94030090  1
  Se  Se167  1  0.74302355  0.92542854  0.43835139  1
  Se  Se168  1  0.75286863  0.91445415  0.94196691  1
  Se  Se169  1  0.25467368  0.07689610  0.43760365  1
  Se  Se170  1  0.23873803  0.08690125  0.95256626  1
  Se  Se171  1  0.24965024  0.42128002  0.44171720  1
  Se  Se172  1  0.24767029  0.41530208  0.94868893  1
  Se  Se173  1  0.25060527  0.74580184  0.43633932  1
  Se  Se174  1  0.24974712  0.74887986  0.94989162  1
  Se  Se175  1  0.58517934  0.08034795  0.45190087  1
  Se  Se176  1  0.58683756  0.08453071  0.94235681  1
  Se  Se177  1  0.59432177  0.39991962  0.44393417  1
  Se  Se178  1  0.57554471  0.42518217  0.94135528  1
  Se  Se179  1  0.57877388  0.74687032  0.45264608  1
  Se  Se180  1  0.58971480  0.74644212  0.93130249  1
  Se  Se181  1  0.91806260  0.09241716  0.45539487  1
  Se  Se182  1  0.92750720  0.07646186  0.93473106  1
  Se  Se183  1  0.92474088  0.41630556  0.43805139  1
  Se  Se184  1  0.91632345  0.41317944  0.94605398  1
  Se  Se185  1  0.91936849  0.74731297  0.44315667  1
  Se  Se186  1  0.92001398  0.74458496  0.94113167  1
  Se  Se187  1  0.24811263  0.24806675  0.29714136  1
  Se  Se188  1  0.25128435  0.25481003  0.80462152  1
  Se  Se189  1  0.25090533  0.58032446  0.29966919  1
  Se  Se190  1  0.24533008  0.58023529  0.81803173  1
  Se  Se191  1  0.24562527  0.91178254  0.30029743  1
  Se  Se192  1  0.24782837  0.91486274  0.81078837  1
  Se  Se193  1  0.58207344  0.23453854  0.31259359  1
  Se  Se194  1  0.58493510  0.25165851  0.80108483  1
  Se  Se195  1  0.57129994  0.56843895  0.30763209  1
  Se  Se196  1  0.57940920  0.58582140  0.80094737  1
  Se  Se197  1  0.57746717  0.90806214  0.31158595  1
  Se  Se198  1  0.58923435  0.92274082  0.79638453  1
  Se  Se199  1  0.92300343  0.25631111  0.30470592  1
  Se  Se200  1  0.91478871  0.24963842  0.80265979  1
  Se  Se201  1  0.92190908  0.59038781  0.30023483  1
  Se  Se202  1  0.92007531  0.57950597  0.80446411  1
  Se  Se203  1  0.90994191  0.91546461  0.30718707  1
  Se  Se204  1  0.92224169  0.91093287  0.80417928  1
  Se  Se205  1  0.09211899  0.09534061  0.31046088  1
  Se  Se206  1  0.08855977  0.08409031  0.80570462  1
  Se  Se207  1  0.08475874  0.41989281  0.30091684  1
  Se  Se208  1  0.08047517  0.41350492  0.80746598  1
  Se  Se209  1  0.07874718  0.74570668  0.30279580  1
  Se  Se210  1  0.08321378  0.73751321  0.79939488  1
  Se  Se211  1  0.41128446  0.07524746  0.30791911  1
  Se  Se212  1  0.42410770  0.09667457  0.81448534  1
  Se  Se213  1  0.42682798  0.40900964  0.29841648  1
  Se  Se214  1  0.41084264  0.41929377  0.80566834  1
  Se  Se215  1  0.41367661  0.74269179  0.30424502  1
  Se  Se216  1  0.42378705  0.76130366  0.80476052  1
  Se  Se217  1  0.75553551  0.09270146  0.30955158  1
  Se  Se218  1  0.75071775  0.07686088  0.80115084  1
  Se  Se219  1  0.76314843  0.42746422  0.30936979  1
  Se  Se220  1  0.74401923  0.41454150  0.80202262  1
  Se  Se221  1  0.75866669  0.76020531  0.30458635  1
  Se  Se222  1  0.75030812  0.74366607  0.80091919  1
  Se  Se223  1  0.24351935  0.06499408  0.19462031  1
  Se  Se224  1  0.24583933  0.09427637  0.68849438  1
  Se  Se225  1  0.25271936  0.41647803  0.19245948  1
  Se  Se226  1  0.25000686  0.41811365  0.70176735  1
  Se  Se227  1  0.25269660  0.74090973  0.19617251  1
  Se  Se228  1  0.23998064  0.76398630  0.69602597  1
  Se  Se229  1  0.57443524  0.08662139  0.18873054  1
  Se  Se230  1  0.58438189  0.08202835  0.69561003  1
  Se  Se231  1  0.58582908  0.42414935  0.18685051  1
  Se  Se232  1  0.58118281  0.41339205  0.69996298  1
  Se  Se233  1  0.57712654  0.75628509  0.19061306  1
  Se  Se234  1  0.58540772  0.74534037  0.69580373  1
  Se  Se235  1  0.91716582  0.09448194  0.18943930  1
  Se  Se236  1  0.92400180  0.08139862  0.70042017  1
  Se  Se237  1  0.92215952  0.41459928  0.19366311  1
  Se  Se238  1  0.91590120  0.41965540  0.69524752  1
  Se  Se239  1  0.92043663  0.74863006  0.19045445  1
  Se  Se240  1  0.92247885  0.74281342  0.70102027  1
  Se  Se241  1  0.08297258  0.25869352  0.19800363  1
  Se  Se242  1  0.07914185  0.25305288  0.70035087  1
  Se  Se243  1  0.08049380  0.58452211  0.19305953  1
  Se  Se244  1  0.08801705  0.58338911  0.69939350  1
  Se  Se245  1  0.08661193  0.90337395  0.18670084  1
  Se  Se246  1  0.08686163  0.91834310  0.70741745  1
  Se  Se247  1  0.41779533  0.24410337  0.20048569  1
  Se  Se248  1  0.41215748  0.25309307  0.69917147  1
  Se  Se249  1  0.41856736  0.58110721  0.19779600  1
  Se  Se250  1  0.41905082  0.57777008  0.68717241  1
  Se  Se251  1  0.41226405  0.91836561  0.20160369  1
  Se  Se252  1  0.42171092  0.91683342  0.68578018  1
  Se  Se253  1  0.75842582  0.24934902  0.19196964  1
  Se  Se254  1  0.75084906  0.24701384  0.69609780  1
  Se  Se255  1  0.75791651  0.58201714  0.18895466  1
  Se  Se256  1  0.74744495  0.58368515  0.70180719  1
  Se  Se257  1  0.75805684  0.91752407  0.18323569  1
  Se  Se258  1  0.75655298  0.91397758  0.69868776  1
