# generated using pymatgen
data_In86Cu29Se144
_symmetry_space_group_name_H-M   'P 1'
_cell_length_a   17.56554994
_cell_length_b   17.56693280
_cell_length_c   23.42837152
_cell_angle_alpha   89.98590985
_cell_angle_beta   90.00455179
_cell_angle_gamma   89.98089473
_symmetry_Int_Tables_number   1
_chemical_formula_structural   In86Cu29Se144
_chemical_formula_sum   'In86 Cu29 Se144'
_cell_volume   7229.35838292
_cell_formula_units_Z   1
loop_
 _symmetry_equiv_pos_site_id
 _symmetry_equiv_pos_as_xyz
  1  'x, y, z'
loop_
 _atom_site_type_symbol
 _atom_site_label
 _atom_site_symmetry_multiplicity
 _atom_site_fract_x
 _atom_site_fract_y
 _atom_site_fract_z
 _atom_site_occupancy
  In  In0  1  0.00798792  0.16510866  0.14213398  1
  In  In1  1  -0.00328914  0.16420095  0.61894594  1
  In  In2  1  -0.00337455  0.48419045  0.12675236  1
  In  In3  1  0.00970081  0.49279395  0.64348871  1
  In  In4  1  0.00820199  0.83976756  0.12581839  1
  In  In5  1  -0.00682022  0.84324885  0.62924881  1
  In  In6  1  0.32991169  0.16518307  0.14097239  1
  In  In7  1  0.33035824  0.16806017  0.62455942  1
  In  In8  1  0.33386178  0.49980923  0.11269758  1
  In  In9  1  0.33426822  0.49165424  0.64449176  1
  In  In10  1  0.33661215  0.83017361  0.12978819  1
  In  In11  1  0.33350976  0.83545107  0.63442945  1
  In  In12  1  0.65381172  0.15941787  0.13004823  1
  In  In13  1  0.66093850  0.16821949  0.61928750  1
  In  In14  1  0.66254078  0.52698916  0.12733434  1
  In  In15  1  0.66605162  0.49985665  0.63445838  1
  In  In16  1  0.65768110  0.83379569  0.12908311  1
  In  In17  1  0.67665172  0.82485339  0.62853286  1
  In  In18  1  0.18687609  0.02884090  0.35202639  1
  In  In19  1  0.17047769  0.00331614  0.86656846  1
  In  In20  1  0.14520718  0.29786866  0.34398702  1
  In  In21  1  0.18249388  0.35762345  0.84782393  1
  In  In22  1  0.16362292  0.67445761  0.37667335  1
  In  In23  1  0.15460080  0.64843707  0.86491646  1
  In  In24  1  0.51363733  0.00792169  0.36547657  1
  In  In25  1  0.49294041  -0.00880921  0.87095722  1
  In  In26  1  0.48892692  0.33357989  0.37356142  1
  In  In27  1  0.50945947  0.34421363  0.86606516  1
  In  In28  1  0.50364788  0.65282869  0.37051354  1
  In  In29  1  0.50450982  0.67131680  0.87777883  1
  In  In30  1  0.83180730  -0.00055125  0.37904194  1
  In  In31  1  0.83514979  -0.00001690  0.86521076  1
  In  In32  1  0.82455413  0.31664572  0.38158843  1
  In  In33  1  0.83766375  0.34053180  0.86087276  1
  In  In34  1  0.83623579  0.68024689  0.38065874  1
  In  In35  1  0.82761999  0.66384877  0.87028990  1
  In  In36  1  -0.00400551  0.16035473  0.37818406  1
  In  In37  1  0.00808764  0.17414205  0.86122664  1
  In  In38  1  0.01716308  0.49903711  0.37569991  1
  In  In39  1  0.00415190  0.50394706  0.86296904  1
  In  In40  1  -0.00966619  0.83800500  0.37738801  1
  In  In41  1  -0.00031970  0.83588388  0.86751296  1
  In  In42  1  0.33506041  0.17314357  0.37973233  1
  In  In43  1  0.32767407  0.16565009  0.86490763  1
  In  In44  1  0.34431557  0.48668082  0.37402079  1
  In  In45  1  0.33436400  0.50302691  0.87213175  1
  In  In46  1  0.33016295  0.84906993  0.36848063  1
  In  In47  1  0.34595944  0.84253942  0.87426577  1
  In  In48  1  0.68104454  0.15795045  0.39320987  1
  In  In49  1  0.66772657  0.16776980  0.86089165  1
  In  In50  1  0.65703726  0.49776326  0.36933172  1
  In  In51  1  0.66430430  0.50125890  0.87274154  1
  In  In52  1  0.67897670  0.84708178  0.36255580  1
  In  In53  1  0.64942583  0.82404650  0.86754266  1
  In  In54  1  0.17314286  -0.00660512  0.15715884  1
  In  In55  1  0.15805938  0.00863286  0.62669050  1
  In  In56  1  0.16179867  0.33730693  0.13067543  1
  In  In57  1  0.17350954  0.32588932  0.63310570  1
  In  In58  1  0.18132059  0.66012946  0.11750298  1
  In  In59  1  0.17003896  0.66023638  0.64607081  1
  In  In60  1  0.50632632  -0.01855996  0.14623974  1
  In  In61  1  0.49001924  0.01014848  0.62899522  1
  In  In62  1  0.48844875  0.33357680  0.12079398  1
  In  In63  1  0.50294698  0.32115847  0.63010845  1
  In  In64  1  0.51484909  0.68186463  0.09924280  1
  In  In65  1  0.50268999  0.66379675  0.63648987  1
  In  In66  1  0.83078146  -0.00509098  0.13317719  1
  In  In67  1  0.83384898  -0.00195561  0.61997188  1
  In  In68  1  0.84892455  0.34823298  0.13115650  1
  In  In69  1  0.83416600  0.32540736  0.62255625  1
  In  In70  1  0.81445052  0.65935121  0.12785320  1
  In  In71  1  0.82737872  0.67413262  0.63270297  1
  In  In72  1  0.83757841  0.16994206  0.00431046  1
  In  In73  1  0.17309516  0.49066616  0.50631372  1
  In  In74  1  0.82686720  0.83300864  0.00151576  1
  In  In75  1  0.50188254  0.48951887  0.50323756  1
  In  In76  1  0.82968498  0.50259438  -0.00440117  1
  In  In77  1  0.18013735  0.82730056  0.00085740  1
  In  In78  1  0.15637512  0.84521574  0.49896027  1
  In  In79  1  0.51085436  0.83679297  0.49075787  1
  In  In80  1  -0.00661130  0.66773895  0.24864937  1
  In  In81  1  0.67152525  0.32888332  0.25344735  1
  In  In82  1  0.49250904  0.16593042  0.00088331  1
  In  In83  1  0.83650077  0.49556110  0.51026256  1
  In  In84  1  0.33784897  0.66790536  0.24454934  1
  In  In85  1  0.16609404  0.16998216  0.00319103  1
  Cu  Cu86  1  0.32975130  0.33870841  -0.00725944  1
  Cu  Cu87  1  0.65599457  -0.00575691  0.00033098  1
  Cu  Cu88  1  0.66721191  -0.00233735  0.50042263  1
  Cu  Cu89  1  0.33446657  0.66232170  -0.00810280  1
  Cu  Cu90  1  0.17676690  0.49927803  0.24508728  1
  Cu  Cu91  1  0.32672246  0.32541518  0.49943610  1
  Cu  Cu92  1  0.82956838  0.15884618  0.73857392  1
  Cu  Cu93  1  0.00157056  0.65579496  -0.00651492  1
  Cu  Cu94  1  0.34095865  -0.00196348  0.00623056  1
  Cu  Cu95  1  0.82172454  0.83228162  0.25416090  1
  Cu  Cu96  1  0.00093903  0.32415001  0.49590520  1
  Cu  Cu97  1  0.33160728  0.01258009  0.49999674  1
  Cu  Cu98  1  -0.00025390  0.00292408  0.49789395  1
  Cu  Cu99  1  0.49649401  0.16914364  0.74691538  1
  Cu  Cu100  1  0.83031479  0.16356099  0.25842281  1
  Cu  Cu101  1  0.50607564  0.83654096  0.74902025  1
  Cu  Cu102  1  0.50187088  0.50395949  0.24207249  1
  Cu  Cu103  1  0.17393780  0.83251900  0.75431354  1
  Cu  Cu104  1  0.16176406  0.15754745  0.74183194  1
  Cu  Cu105  1  0.50235195  0.16142568  0.25535011  1
  Cu  Cu106  1  0.67148979  0.33886305  -0.00600442  1
  Cu  Cu107  1  0.82591567  0.50322868  0.74890665  1
  Cu  Cu108  1  0.01004693  0.00839611  -0.00181213  1
  Cu  Cu109  1  -0.00107086  0.67317133  0.51178011  1
  Cu  Cu110  1  0.33282363  0.67358174  0.51002719  1
  Cu  Cu111  1  0.83877990  0.83935710  0.74875410  1
  Cu  Cu112  1  0.67610529  0.66902924  0.50153030  1
  Cu  Cu113  1  0.49539879  0.50267159  0.75584974  1
  Cu  Cu114  1  0.01599670  0.33709890  -0.00105272  1
  Se  Se115  1  0.08580365  0.07660924  0.06778294  1
  Se  Se116  1  0.08565251  0.08541091  0.54963034  1
  Se  Se117  1  0.09230440  0.42290443  0.05524166  1
  Se  Se118  1  0.07291344  0.40633354  0.56140556  1
  Se  Se119  1  0.07654571  0.74031698  0.05535506  1
  Se  Se120  1  0.08934271  0.74574445  0.56832854  1
  Se  Se121  1  0.41430320  0.07872671  0.07027425  1
  Se  Se122  1  0.41835274  0.09127737  0.55355060  1
  Se  Se123  1  0.41974216  0.41626903  0.04531789  1
  Se  Se124  1  0.40166628  0.41030817  0.56168163  1
  Se  Se125  1  0.40392774  0.75368443  0.04938271  1
  Se  Se126  1  0.42261423  0.75194554  0.56123071  1
  Se  Se127  1  0.74009578  0.07540142  0.05831948  1
  Se  Se128  1  0.74854437  0.08262597  0.55406253  1
  Se  Se129  1  0.74711250  0.41214998  0.06249652  1
  Se  Se130  1  0.73445321  0.41036188  0.56011005  1
  Se  Se131  1  0.73492455  0.74094637  0.05493120  1
  Se  Se132  1  0.75927750  0.75286876  0.55278394  1
  Se  Se133  1  0.26205000  0.25627362  0.06061052  1
  Se  Se134  1  0.24158334  0.24625216  0.55488601  1
  Se  Se135  1  0.24833223  0.57837697  0.04160820  1
  Se  Se136  1  0.25793643  0.58734227  0.56736094  1
  Se  Se137  1  0.24871207  0.92946419  0.06561495  1
  Se  Se138  1  0.25836419  0.92369660  0.55894470  1
  Se  Se139  1  0.59289144  0.25660395  0.05486902  1
  Se  Se140  1  0.57233419  0.24753958  0.55183121  1
  Se  Se141  1  0.57022671  0.56467678  0.04835627  1
  Se  Se142  1  0.58960615  0.59135079  0.55800212  1
  Se  Se143  1  0.57463579  0.91775525  0.05985168  1
  Se  Se144  1  0.58767940  0.91974591  0.56401039  1
  Se  Se145  1  0.93342431  0.25865396  0.06099712  1
  Se  Se146  1  0.91249390  0.24618949  0.54905350  1
  Se  Se147  1  0.92114400  0.58871536  0.06161627  1
  Se  Se148  1  0.92762931  0.58440585  0.56984965  1
  Se  Se149  1  0.92427606  0.92677166  0.05442010  1
  Se  Se150  1  0.91935090  0.91524991  0.55036550  1
  Se  Se151  1  0.08785007  0.24884719  0.43906504  1
  Se  Se152  1  0.08884969  0.25746735  0.93377903  1
  Se  Se153  1  0.08171184  0.59377194  0.45233357  1
  Se  Se154  1  0.08235507  0.57057184  0.94299514  1
  Se  Se155  1  0.08225580  0.93579534  0.43023781  1
  Se  Se156  1  0.08648480  0.91997494  0.94181567  1
  Se  Se157  1  0.42255684  0.25047344  0.45080615  1
  Se  Se158  1  0.40982840  0.25514105  0.93447718  1
  Se  Se159  1  0.40867732  0.58797742  0.44737573  1
  Se  Se160  1  0.42080239  0.58052347  0.94144890  1
  Se  Se161  1  0.41145633  0.92914107  0.44171033  1
  Se  Se162  1  0.42343117  0.91648506  0.95181417  1
  Se  Se163  1  0.74819145  0.25273355  0.46050500  1
  Se  Se164  1  0.74981096  0.25509824  0.93625784  1
  Se  Se165  1  0.74803129  0.58051252  0.44190561  1
  Se  Se166  1  0.73624304  0.59763613  0.94523178  1
  Se  Se167  1  0.74802060  0.91203712  0.44659653  1
  Se  Se168  1  0.74356297  0.92390261  0.93751466  1
  Se  Se169  1  0.24547279  0.08832591  0.44313060  1
  Se  Se170  1  0.25903778  0.07599415  0.94474571  1
  Se  Se171  1  0.25019695  0.40488961  0.43597311  1
  Se  Se172  1  0.24482129  0.41699118  0.93760047  1
  Se  Se173  1  0.25763861  0.75109627  0.44531272  1
  Se  Se174  1  0.25312148  0.73985737  0.92921645  1
  Se  Se175  1  0.57914944  0.07852343  0.44890332  1
  Se  Se176  1  0.58801628  0.08335824  0.93818787  1
  Se  Se177  1  0.59226261  0.40387520  0.44155844  1
  Se  Se178  1  0.58338361  0.41906918  0.94388203  1
  Se  Se179  1  0.59482593  0.73802671  0.43485692  1
  Se  Se180  1  0.57770994  0.75928642  0.94901475  1
  Se  Se181  1  0.90925357  0.08541760  0.44920191  1
  Se  Se182  1  0.92602133  0.08357400  0.93813512  1
  Se  Se183  1  0.92565255  0.41409443  0.44046621  1
  Se  Se184  1  0.92161862  0.40815489  0.94150659  1
  Se  Se185  1  0.92005841  0.75406569  0.45331492  1
  Se  Se186  1  0.92260881  0.74496371  0.94114370  1
  Se  Se187  1  0.28227385  0.27861384  0.31147632  1
  Se  Se188  1  0.24541504  0.24395353  0.79456396  1
  Se  Se189  1  0.24812537  0.57884061  0.31204515  1
  Se  Se190  1  0.24818391  0.57711243  0.80036836  1
  Se  Se191  1  0.23293749  0.90694940  0.30102473  1
  Se  Se192  1  0.25829678  0.91921806  0.80445554  1
  Se  Se193  1  0.58392938  0.24082633  0.31624110  1
  Se  Se194  1  0.58360989  0.25387912  0.79728594  1
  Se  Se195  1  0.58757942  0.58305010  0.29540929  1
  Se  Se196  1  0.58224164  0.58647616  0.80537964  1
  Se  Se197  1  0.57151655  0.90330415  0.30228506  1
  Se  Se198  1  0.58765994  0.92539712  0.80046996  1
  Se  Se199  1  0.91276615  0.24838590  0.31013004  1
  Se  Se200  1  0.90894553  0.24295155  0.79714286  1
  Se  Se201  1  0.91468727  0.58033797  0.31726769  1
  Se  Se202  1  0.91207839  0.58565597  0.80155864  1
  Se  Se203  1  0.90691130  0.91405463  0.30595692  1
  Se  Se204  1  0.92554590  0.92403242  0.79827518  1
  Se  Se205  1  0.07038178  0.08397212  0.30103721  1
  Se  Se206  1  0.07942090  0.07536130  0.79829713  1
  Se  Se207  1  0.08850644  0.42166465  0.29923845  1
  Se  Se208  1  0.05024118  0.38690461  0.80645593  1
  Se  Se209  1  0.08486210  0.75903655  0.30667133  1
  Se  Se210  1  0.08421169  0.75072171  0.80366803  1
  Se  Se211  1  0.41215297  0.08474099  0.30873718  1
  Se  Se212  1  0.41807793  0.08300016  0.80329928  1
  Se  Se213  1  0.42331636  0.41831443  0.29597742  1
  Se  Se214  1  0.41098034  0.41286756  0.80203672  1
  Se  Se215  1  0.42314288  0.75447944  0.31117523  1
  Se  Se216  1  0.42338226  0.75466392  0.80628801  1
  Se  Se217  1  0.74473432  0.08227380  0.31100105  1
  Se  Se218  1  0.74806019  0.07792073  0.79692510  1
  Se  Se219  1  0.76116954  0.42048399  0.31209386  1
  Se  Se220  1  0.74174334  0.41800588  0.80053539  1
  Se  Se221  1  0.74673470  0.73922920  0.30446212  1
  Se  Se222  1  0.75495428  0.75927711  0.80610587  1
  Se  Se223  1  0.23243069  0.10623762  0.20952352  1
  Se  Se224  1  0.25430075  0.07745039  0.69354707  1
  Se  Se225  1  0.25969971  0.41983205  0.18824721  1
  Se  Se226  1  0.22799254  0.42744814  0.70185961  1
  Se  Se227  1  0.23400625  0.75553759  0.19374731  1
  Se  Se228  1  0.26023295  0.74789296  0.70472492  1
  Se  Se229  1  0.58882128  0.07666274  0.20607571  1
  Se  Se230  1  0.58231280  0.08685187  0.69381459  1
  Se  Se231  1  0.58389704  0.41627733  0.18676441  1
  Se  Se232  1  0.57274273  0.42032885  0.69540582  1
  Se  Se233  1  0.58058669  0.73551403  0.18794362  1
  Se  Se234  1  0.58959341  0.74922180  0.69899676  1
  Se  Se235  1  0.91094865  0.08257360  0.19905095  1
  Se  Se236  1  0.91921149  0.07778959  0.68936878  1
  Se  Se237  1  0.92887308  0.41357992  0.20818875  1
  Se  Se238  1  0.90418455  0.41582471  0.69466020  1
  Se  Se239  1  0.90197669  0.75874903  0.18663659  1
  Se  Se240  1  0.92017921  0.75108510  0.69749677  1
  Se  Se241  1  0.09107650  0.25320592  0.20386549  1
  Se  Se242  1  0.07789297  0.24391569  0.69166143  1
  Se  Se243  1  0.09194319  0.58108098  0.18877678  1
  Se  Se244  1  0.07954868  0.58406033  0.71031793  1
  Se  Se245  1  0.06256059  0.92277543  0.20440664  1
  Se  Se246  1  0.09146757  0.91182986  0.69459881  1
  Se  Se247  1  0.42723623  0.24764249  0.19771290  1
  Se  Se248  1  0.40739191  0.25222118  0.69763768  1
  Se  Se249  1  0.42495007  0.58453755  0.17946355  1
  Se  Se250  1  0.41240193  0.58935392  0.70369509  1
  Se  Se251  1  0.39251623  0.92613069  0.20099398  1
  Se  Se252  1  0.41861300  0.91970789  0.69918976  1
  Se  Se253  1  0.75983609  0.24099226  0.18732222  1
  Se  Se254  1  0.74596078  0.24761854  0.69075466  1
  Se  Se255  1  0.76934331  0.55748628  0.19787220  1
  Se  Se256  1  0.74267215  0.59110149  0.69967456  1
  Se  Se257  1  0.74113261  0.91618669  0.19746345  1
  Se  Se258  1  0.75294101  0.91794459  0.69307522  1
