# generated using pymatgen
data_In86Cu29Se144
_symmetry_space_group_name_H-M   'P 1'
_cell_length_a   17.57242541
_cell_length_b   17.57150333
_cell_length_c   23.42341711
_cell_angle_alpha   90.00588026
_cell_angle_beta   89.99623561
_cell_angle_gamma   89.99749228
_symmetry_Int_Tables_number   1
_chemical_formula_structural   In86Cu29Se144
_chemical_formula_sum   'In86 Cu29 Se144'
_cell_volume   7232.54053110
_cell_formula_units_Z   1
loop_
 _symmetry_equiv_pos_site_id
 _symmetry_equiv_pos_as_xyz
  1  'x, y, z'
loop_
 _atom_site_type_symbol
 _atom_site_label
 _atom_site_symmetry_multiplicity
 _atom_site_fract_x
 _atom_site_fract_y
 _atom_site_fract_z
 _atom_site_occupancy
  In  In0  1  -0.00563195  0.16557239  0.13202069  1
  In  In1  1  0.00694671  0.16742091  0.62012287  1
  In  In2  1  0.00295047  0.50537769  0.11826636  1
  In  In3  1  0.00577060  0.49396268  0.63028062  1
  In  In4  1  0.00921341  0.83162626  0.13889658  1
  In  In5  1  -0.00326345  0.82461674  0.61814932  1
  In  In6  1  0.33985645  0.15094716  0.14152706  1
  In  In7  1  0.33399908  0.16933339  0.61558638  1
  In  In8  1  0.31423454  0.50238130  0.12820642  1
  In  In9  1  0.33713153  0.49921745  0.61385078  1
  In  In10  1  0.32575212  0.85279199  0.14524360  1
  In  In11  1  0.33474596  0.83640191  0.60560459  1
  In  In12  1  0.67137948  0.17507048  0.13329524  1
  In  In13  1  0.66996069  0.17397065  0.61767034  1
  In  In14  1  0.67630757  0.48956926  0.13137699  1
  In  In15  1  0.66096926  0.49205337  0.61802954  1
  In  In16  1  0.64967335  0.84054334  0.15006775  1
  In  In17  1  0.67202259  0.83799318  0.59862996  1
  In  In18  1  0.16412606  -0.00001859  0.35738163  1
  In  In19  1  0.14804805  -0.00899570  0.88764068  1
  In  In20  1  0.17890832  0.31904242  0.38277112  1
  In  In21  1  0.16795817  0.34933065  0.88055532  1
  In  In22  1  0.15669157  0.67671542  0.37804995  1
  In  In23  1  0.15233643  0.68253858  0.88260506  1
  In  In24  1  0.50827969  0.00002207  0.37587433  1
  In  In25  1  0.51429198  0.00477328  0.87919323  1
  In  In26  1  0.49838474  0.33432588  0.37763012  1
  In  In27  1  0.49603295  0.31986999  0.87927889  1
  In  In28  1  0.50532676  0.65840602  0.37645558  1
  In  In29  1  0.50099429  0.67533683  0.87498277  1
  In  In30  1  0.80759437  -0.01271192  0.36157752  1
  In  In31  1  0.84906716  0.01285856  0.88593230  1
  In  In32  1  0.82041741  0.33094752  0.36933603  1
  In  In33  1  0.83297351  0.33387474  0.87715285  1
  In  In34  1  0.84908324  0.67739035  0.36692220  1
  In  In35  1  0.83206897  0.65024777  0.87748491  1
  In  In36  1  0.01698833  0.15874575  0.36733276  1
  In  In37  1  -0.02082156  0.16471418  0.88312975  1
  In  In38  1  0.00055652  0.51362761  0.37509436  1
  In  In39  1  0.00029588  0.50118829  0.87577986  1
  In  In40  1  0.00595636  0.83065675  0.36663736  1
  In  In41  1  0.01045703  0.84108791  0.87796306  1
  In  In42  1  0.33055622  0.16704620  0.36316963  1
  In  In43  1  0.34004868  0.17748068  0.88516671  1
  In  In44  1  0.34117709  0.48793852  0.38281370  1
  In  In45  1  0.32816067  0.49029123  0.88052910  1
  In  In46  1  0.32206893  0.84801933  0.36944260  1
  In  In47  1  0.32567773  0.82203715  0.87665098  1
  In  In48  1  0.65458545  0.15813819  0.37070106  1
  In  In49  1  0.65893476  0.17703268  0.88430950  1
  In  In50  1  0.65254747  0.48812342  0.36878747  1
  In  In51  1  0.68450040  0.49823006  0.87883573  1
  In  In52  1  0.67104195  0.83793111  0.37581298  1
  In  In53  1  0.66206559  0.83263156  0.87890381  1
  In  In54  1  0.17406193  -0.00215082  0.13906650  1
  In  In55  1  0.16761797  0.00313371  0.60926606  1
  In  In56  1  0.16179470  0.34461183  0.12994383  1
  In  In57  1  0.16092767  0.33078547  0.61831024  1
  In  In58  1  0.15245517  0.66014979  0.12560860  1
  In  In59  1  0.16063685  0.66141921  0.61842223  1
  In  In60  1  0.49401953  0.00957781  0.13801648  1
  In  In61  1  0.51518764  0.01094246  0.59334215  1
  In  In62  1  0.51050145  0.31996068  0.13471837  1
  In  In63  1  0.51645179  0.33534494  0.60541695  1
  In  In64  1  0.50119892  0.68318265  0.13553833  1
  In  In65  1  0.50498194  0.66821840  0.60518036  1
  In  In66  1  0.82870247  0.01777050  0.14383416  1
  In  In67  1  0.84751945  -0.00317204  0.61651096  1
  In  In68  1  0.82307711  0.32299249  0.12175225  1
  In  In69  1  0.83200105  0.33052872  0.62929603  1
  In  In70  1  0.84005097  0.66378698  0.12848904  1
  In  In71  1  0.83829235  0.67483176  0.62113302  1
  In  In72  1  0.33161170  0.66531171  0.25761232  1
  In  In73  1  0.48619108  0.84603322  0.02058123  1
  In  In74  1  0.33456462  -0.00051377  0.74175721  1
  In  In75  1  0.82897249  0.15452598  0.48491641  1
  In  In76  1  0.67242678  0.65707475  0.73903090  1
  In  In77  1  0.67429642  0.00405837  0.73771601  1
  In  In78  1  0.49754111  0.50173218  0.00109343  1
  In  In79  1  0.83585379  0.83861363  0.01320422  1
  In  In80  1  0.32662251  0.65952899  0.73784777  1
  In  In81  1  0.33270754  0.33550556  0.74958417  1
  In  In82  1  -0.00247496  0.00264167  0.75143550  1
  In  In83  1  -0.00049797  0.33271709  0.24543914  1
  In  In84  1  0.83335957  0.49956195  0.49910697  1
  In  In85  1  0.16900364  0.16568813  0.00980165  1
  Cu  Cu86  1  0.50020329  0.49623290  0.25333700  1
  Cu  Cu87  1  0.00703403  -0.00880748  0.48855894  1
  Cu  Cu88  1  -0.00021803  0.33006356  0.49634149  1
  Cu  Cu89  1  0.50009754  0.83493296  0.73529988  1
  Cu  Cu90  1  0.16520103  0.49435690  0.25563769  1
  Cu  Cu91  1  0.51148295  0.49358808  0.74281910  1
  Cu  Cu92  1  0.00818712  0.67500574  0.49408924  1
  Cu  Cu93  1  0.32864698  0.32724546  0.49623938  1
  Cu  Cu94  1  0.33383656  0.66946670  0.48884960  1
  Cu  Cu95  1  -0.00225753  0.33611044  0.00222512  1
  Cu  Cu96  1  0.82436404  0.17380042  0.75542965  1
  Cu  Cu97  1  0.15816113  0.17409405  0.74818311  1
  Cu  Cu98  1  0.50068653  0.17290872  0.75114426  1
  Cu  Cu99  1  0.32375611  0.00470279  0.48412112  1
  Cu  Cu100  1  0.31500816  0.66978876  0.00383802  1
  Cu  Cu101  1  0.67361171  0.33078542  0.00719023  1
  Cu  Cu102  1  0.33423573  0.00224348  0.01349920  1
  Cu  Cu103  1  0.67773657  0.66472842  0.48813118  1
  Cu  Cu104  1  -0.00394306  0.66782211  0.00380695  1
  Cu  Cu105  1  0.16215880  0.50703522  0.75273991  1
  Cu  Cu106  1  0.33776992  0.33129409  0.00855494  1
  Cu  Cu107  1  0.50310520  0.16999424  0.25612572  1
  Cu  Cu108  1  0.16089871  0.83431668  0.75053672  1
  Cu  Cu109  1  0.82931984  0.50374359  0.24999849  1
  Cu  Cu110  1  0.66468004  0.67084458  0.01121502  1
  Cu  Cu111  1  0.84147129  0.48973130  0.75446122  1
  Cu  Cu112  1  0.83011188  0.83296571  0.24853035  1
  Cu  Cu113  1  0.67325336  0.01414565  0.00680381  1
  Cu  Cu114  1  0.83764506  0.82334309  0.74572115  1
  Se  Se115  1  0.08213143  0.07502877  0.06811768  1
  Se  Se116  1  0.07685609  0.08334682  0.54591448  1
  Se  Se117  1  0.08542680  0.41706938  0.05250335  1
  Se  Se118  1  0.07739811  0.41635958  0.55215961  1
  Se  Se119  1  0.07650282  0.75146290  0.05829542  1
  Se  Se120  1  0.09228816  0.75643172  0.55014113  1
  Se  Se121  1  0.41977488  0.08633199  0.06062220  1
  Se  Se122  1  0.40587657  0.08378395  0.54322455  1
  Se  Se123  1  0.41586968  0.41547322  0.06880796  1
  Se  Se124  1  0.41543412  0.41099425  0.54800081  1
  Se  Se125  1  0.39581470  0.74399928  0.06786638  1
  Se  Se126  1  0.42068290  0.75277773  0.54075119  1
  Se  Se127  1  0.75673214  0.09180990  0.06323839  1
  Se  Se128  1  0.74524636  0.06968658  0.55619134  1
  Se  Se129  1  0.75575099  0.42093044  0.05329904  1
  Se  Se130  1  0.74561325  0.40108754  0.55187925  1
  Se  Se131  1  0.73634691  0.75682990  0.07196300  1
  Se  Se132  1  0.76109577  0.74548643  0.54377229  1
  Se  Se133  1  0.25991730  0.25163312  0.07135302  1
  Se  Se134  1  0.24239977  0.24662615  0.55074050  1
  Se  Se135  1  0.23673306  0.57983339  0.05428212  1
  Se  Se136  1  0.25560535  0.58964721  0.55183253  1
  Se  Se137  1  0.25130455  0.91789631  0.06321360  1
  Se  Se138  1  0.24605879  0.91817844  0.54160964  1
  Se  Se139  1  0.58741571  0.24871340  0.05711644  1
  Se  Se140  1  0.56873545  0.22236096  0.54691672  1
  Se  Se141  1  0.58164253  0.58969905  0.06741356  1
  Se  Se142  1  0.59618606  0.58282353  0.54603214  1
  Se  Se143  1  0.59453569  0.92905433  0.06545862  1
  Se  Se144  1  0.57345085  0.90276749  0.53526648  1
  Se  Se145  1  0.92292982  0.25109509  0.05928472  1
  Se  Se146  1  0.91402983  0.24944813  0.55221887  1
  Se  Se147  1  0.91055615  0.58263423  0.05208906  1
  Se  Se148  1  0.92981698  0.58991379  0.55453011  1
  Se  Se149  1  0.91746098  0.92524841  0.07821764  1
  Se  Se150  1  0.92320531  0.91313296  0.54717765  1
  Se  Se151  1  0.08165420  0.24313345  0.44561608  1
  Se  Se152  1  0.08220691  0.25352463  0.94327288  1
  Se  Se153  1  0.08809233  0.58154797  0.44840090  1
  Se  Se154  1  0.07927412  0.58660902  0.94622346  1
  Se  Se155  1  0.09268440  0.91433660  0.43308279  1
  Se  Se156  1  0.07452670  0.91227361  0.96017459  1
  Se  Se157  1  0.40874221  0.24664387  0.43842849  1
  Se  Se158  1  0.42352369  0.24756793  0.95927841  1
  Se  Se159  1  0.42060470  0.57998693  0.44680565  1
  Se  Se160  1  0.40440846  0.59780944  0.94346274  1
  Se  Se161  1  0.41248138  0.91958104  0.43924287  1
  Se  Se162  1  0.40895973  0.92428999  0.94015304  1
  Se  Se163  1  0.73597051  0.25524209  0.44206517  1
  Se  Se164  1  0.75504616  0.24903116  0.94862115  1
  Se  Se165  1  0.75332086  0.58166440  0.42796506  1
  Se  Se166  1  0.74471995  0.58850938  0.95424347  1
  Se  Se167  1  0.74885583  0.92136749  0.44843570  1
  Se  Se168  1  0.74408299  0.92583280  0.94521128  1
  Se  Se169  1  0.24031465  0.08523350  0.42934568  1
  Se  Se170  1  0.25619677  0.07497758  0.94348153  1
  Se  Se171  1  0.24452046  0.41772993  0.44951100  1
  Se  Se172  1  0.25383319  0.41450976  0.95679875  1
  Se  Se173  1  0.25102188  0.75547486  0.43944012  1
  Se  Se174  1  0.23893390  0.76096670  0.95237356  1
  Se  Se175  1  0.58049570  0.08726166  0.44924110  1
  Se  Se176  1  0.58118536  0.08896867  0.95345473  1
  Se  Se177  1  0.57791123  0.42018192  0.44730756  1
  Se  Se178  1  0.59054235  0.41026705  0.94362923  1
  Se  Se179  1  0.58847767  0.74667880  0.44136106  1
  Se  Se180  1  0.57972443  0.75223815  0.95419818  1
  Se  Se181  1  0.92450659  0.06879054  0.42890624  1
  Se  Se182  1  0.93231263  0.07528413  0.96210849  1
  Se  Se183  1  0.92069231  0.40827252  0.43556238  1
  Se  Se184  1  0.91729372  0.41778381  0.94407946  1
  Se  Se185  1  0.92152137  0.75617997  0.44299572  1
  Se  Se186  1  0.91352207  0.74826311  0.94164335  1
  Se  Se187  1  0.24373106  0.25249665  0.29861382  1
  Se  Se188  1  0.24342142  0.24416825  0.81193136  1
  Se  Se189  1  0.24433063  0.57326010  0.31729795  1
  Se  Se190  1  0.24518498  0.58293113  0.81424926  1
  Se  Se191  1  0.25998738  0.92750442  0.28884384  1
  Se  Se192  1  0.24217576  0.91584508  0.80952852  1
  Se  Se193  1  0.58495551  0.25801496  0.30590163  1
  Se  Se194  1  0.58455979  0.25314923  0.80605351  1
  Se  Se195  1  0.58445565  0.58378172  0.30017494  1
  Se  Se196  1  0.58064571  0.57852644  0.80932063  1
  Se  Se197  1  0.60224375  0.93204699  0.30687562  1
  Se  Se198  1  0.57975123  0.91078075  0.80101917  1
  Se  Se199  1  0.91476715  0.24450785  0.31049345  1
  Se  Se200  1  0.91589710  0.24958922  0.80684224  1
  Se  Se201  1  0.91982818  0.58312728  0.29856329  1
  Se  Se202  1  0.91760754  0.58254867  0.80361969  1
  Se  Se203  1  0.91251638  0.91395621  0.30470781  1
  Se  Se204  1  0.90397415  0.91059316  0.80995542  1
  Se  Se205  1  0.06290906  0.06334599  0.28787750  1
  Se  Se206  1  0.08836744  0.09125338  0.81401790  1
  Se  Se207  1  0.08450600  0.41454570  0.31575636  1
  Se  Se208  1  0.08479914  0.41737960  0.80573607  1
  Se  Se209  1  0.07446863  0.73424203  0.29873600  1
  Se  Se210  1  0.07599906  0.75300490  0.80310502  1
  Se  Se211  1  0.42244828  0.07952356  0.30436577  1
  Se  Se212  1  0.42125847  0.09024617  0.80993592  1
  Se  Se213  1  0.41455076  0.41410844  0.30437077  1
  Se  Se214  1  0.42854836  0.42537310  0.80932423  1
  Se  Se215  1  0.42086529  0.75537640  0.31471082  1
  Se  Se216  1  0.41999646  0.75652427  0.79835327  1
  Se  Se217  1  0.75657806  0.10059256  0.30310876  1
  Se  Se218  1  0.75250553  0.08477400  0.81446997  1
  Se  Se219  1  0.74649664  0.41725235  0.29940458  1
  Se  Se220  1  0.74931227  0.41298218  0.80380675  1
  Se  Se221  1  0.74959994  0.74972541  0.30563661  1
  Se  Se222  1  0.75059857  0.75163372  0.80782923  1
  Se  Se223  1  0.27017344  0.05984612  0.21083661  1
  Se  Se224  1  0.23767510  0.09378281  0.68875504  1
  Se  Se225  1  0.25102559  0.41358150  0.20286224  1
  Se  Se226  1  0.24494187  0.42841570  0.69038389  1
  Se  Se227  1  0.23949620  0.74819187  0.19438084  1
  Se  Se228  1  0.24513941  0.76403070  0.68556686  1
  Se  Se229  1  0.58610755  0.08944787  0.19949517  1
  Se  Se230  1  0.57088194  0.08737840  0.68643743  1
  Se  Se231  1  0.58543692  0.41509299  0.19816913  1
  Se  Se232  1  0.58681801  0.40574597  0.68915338  1
  Se  Se233  1  0.58454742  0.74035981  0.21395782  1
  Se  Se234  1  0.58574641  0.75440308  0.68023435  1
  Se  Se235  1  0.93028581  0.08273090  0.21016940  1
  Se  Se236  1  0.90595388  0.09500010  0.69252012  1
  Se  Se237  1  0.90873022  0.42385605  0.18658776  1
  Se  Se238  1  0.92072112  0.40854320  0.69513350  1
  Se  Se239  1  0.91606453  0.74824478  0.19923175  1
  Se  Se240  1  0.92506612  0.74346698  0.69510838  1
  Se  Se241  1  0.09813719  0.23983625  0.19520956  1
  Se  Se242  1  0.07724614  0.25531866  0.69267133  1
  Se  Se243  1  0.08146701  0.57250297  0.19831936  1
  Se  Se244  1  0.08211538  0.58852558  0.69521617  1
  Se  Se245  1  0.07768802  0.92807818  0.20610118  1
  Se  Se246  1  0.08813214  0.91872763  0.68715179  1
  Se  Se247  1  0.41548841  0.24982108  0.20165795  1
  Se  Se248  1  0.42187782  0.24980824  0.68718673  1
  Se  Se249  1  0.41923663  0.57541232  0.19165789  1
  Se  Se250  1  0.43299709  0.57672476  0.68505370  1
  Se  Se251  1  0.45248926  0.88730318  0.19165240  1
  Se  Se252  1  0.42558078  0.91906579  0.67556680  1
  Se  Se253  1  0.75399767  0.25574312  0.20330507  1
  Se  Se254  1  0.74267423  0.24976954  0.69543677  1
  Se  Se255  1  0.74817873  0.58765669  0.19512487  1
  Se  Se256  1  0.76711077  0.56526100  0.68372189  1
  Se  Se257  1  0.74617716  0.92444548  0.20509036  1
  Se  Se258  1  0.75979700  0.90228916  0.68362049  1
