# generated using pymatgen
data_In86Cu29Se144
_symmetry_space_group_name_H-M   'P 1'
_cell_length_a   17.57452928
_cell_length_b   17.57528720
_cell_length_c   23.43877493
_cell_angle_alpha   89.99517682
_cell_angle_beta   90.00337147
_cell_angle_gamma   89.99627343
_symmetry_Int_Tables_number   1
_chemical_formula_structural   In86Cu29Se144
_chemical_formula_sum   'In86 Cu29 Se144'
_cell_volume   7239.70779334
_cell_formula_units_Z   1
loop_
 _symmetry_equiv_pos_site_id
 _symmetry_equiv_pos_as_xyz
  1  'x, y, z'
loop_
 _atom_site_type_symbol
 _atom_site_label
 _atom_site_symmetry_multiplicity
 _atom_site_fract_x
 _atom_site_fract_y
 _atom_site_fract_z
 _atom_site_occupancy
  In  In0  1  -0.01141087  0.17655346  0.13519636  1
  In  In1  1  0.00006737  0.17688025  0.61626323  1
  In  In2  1  -0.02342916  0.51766376  0.15479320  1
  In  In3  1  -0.00118549  0.51439990  0.62204179  1
  In  In4  1  -0.00128395  0.83672405  0.13050894  1
  In  In5  1  -0.01250880  0.81729100  0.62222080  1
  In  In6  1  0.34476326  0.17464521  0.11892971  1
  In  In7  1  0.34702941  0.15803649  0.62820454  1
  In  In8  1  0.33196851  0.50614588  0.15003845  1
  In  In9  1  0.32251874  0.49696089  0.62432266  1
  In  In10  1  0.33114241  0.82551517  0.12442745  1
  In  In11  1  0.34859407  0.84085576  0.61250109  1
  In  In12  1  0.67394363  0.17967747  0.11438817  1
  In  In13  1  0.66684025  0.16516642  0.62599094  1
  In  In14  1  0.66972571  0.48333786  0.13219297  1
  In  In15  1  0.67730788  0.48999732  0.62842847  1
  In  In16  1  0.66960716  0.83213809  0.11083638  1
  In  In17  1  0.66574914  0.84707332  0.63909326  1
  In  In18  1  0.14577883  -0.00975705  0.38030592  1
  In  In19  1  0.16948853  -0.01430872  0.86958671  1
  In  In20  1  0.17299702  0.34556272  0.36081886  1
  In  In21  1  0.17208105  0.32586411  0.87556704  1
  In  In22  1  0.16608698  0.66689457  0.36776119  1
  In  In23  1  0.16077584  0.67793608  0.87163242  1
  In  In24  1  0.49702104  -0.00336944  0.38637711  1
  In  In25  1  0.50434989  -0.00051108  0.87225445  1
  In  In26  1  0.49361513  0.32978618  0.37160330  1
  In  In27  1  0.49918031  0.32674356  0.87121789  1
  In  In28  1  0.49434054  0.67915451  0.37912525  1
  In  In29  1  0.51860761  0.66299885  0.87503495  1
  In  In30  1  0.85383075  0.00374511  0.37897565  1
  In  In31  1  0.82237792  0.00879026  0.87948177  1
  In  In32  1  0.82449859  0.33426863  0.36950279  1
  In  In33  1  0.82167249  0.34189759  0.88250435  1
  In  In34  1  0.83260595  0.65027638  0.37167882  1
  In  In35  1  0.83384691  0.66750514  0.87678157  1
  In  In36  1  -0.01037335  0.16174603  0.36943289  1
  In  In37  1  -0.00773789  0.15619069  0.87758992  1
  In  In38  1  -0.01887390  0.48383231  0.35232839  1
  In  In39  1  -0.01664836  0.50860396  0.88484419  1
  In  In40  1  0.00978773  0.83995468  0.37047293  1
  In  In41  1  -0.00705929  0.81452626  0.86976850  1
  In  In42  1  0.33955059  0.17540426  0.37901629  1
  In  In43  1  0.34995898  0.17557181  0.86987556  1
  In  In44  1  0.33701561  0.50475970  0.35917169  1
  In  In45  1  0.34911882  0.49635731  0.87433544  1
  In  In46  1  0.33254252  0.82064358  0.38809196  1
  In  In47  1  0.33233782  0.84711632  0.87061335  1
  In  In48  1  0.65687996  0.17188357  0.38276187  1
  In  In49  1  0.66426900  0.16623210  0.87331500  1
  In  In50  1  0.68400830  0.49879941  0.37152243  1
  In  In51  1  0.67864167  0.51113276  0.86509647  1
  In  In52  1  0.65691187  0.82612737  0.38195246  1
  In  In53  1  0.67015871  0.82967934  0.87452794  1
  In  In54  1  0.15993861  -0.00968311  0.12773859  1
  In  In55  1  0.18172854  0.00568109  0.62274847  1
  In  In56  1  0.15688082  0.35120440  0.14927073  1
  In  In57  1  0.16959918  0.34577590  0.62368447  1
  In  In58  1  0.15870939  0.66566940  0.13921080  1
  In  In59  1  0.15226406  0.66231279  0.62211747  1
  In  In60  1  0.50594131  0.00768767  0.11245478  1
  In  In61  1  0.50250221  -0.00090970  0.62547378  1
  In  In62  1  0.50509485  0.33459509  0.13363032  1
  In  In63  1  0.51252152  0.32201061  0.62856670  1
  In  In64  1  0.49315556  0.66669196  0.12505628  1
  In  In65  1  0.50203803  0.68609279  0.62124601  1
  In  In66  1  0.83604073  0.00693731  0.12029393  1
  In  In67  1  0.82111192  -0.00552832  0.62794118  1
  In  In68  1  0.83186552  0.33508220  0.12695962  1
  In  In69  1  0.82485653  0.32299813  0.61575052  1
  In  In70  1  0.84395817  0.67164387  0.11437120  1
  In  In71  1  0.84168361  0.66574880  0.63146563  1
  In  In72  1  0.16642752  0.16743176  0.00192213  1
  In  In73  1  0.50759713  0.49688829  0.00872289  1
  In  In74  1  0.82872338  0.83525348  0.50425727  1
  In  In75  1  0.16205627  0.50344760  0.48698390  1
  In  In76  1  0.16276535  0.83344427  0.00423912  1
  In  In77  1  0.66167743  0.66271025  0.24988653  1
  In  In78  1  0.67327794  0.00473771  0.24613694  1
  In  In79  1  0.16060191  0.50216982  0.01508569  1
  In  In80  1  0.32717241  0.00189170  0.24894462  1
  In  In81  1  0.33709984  0.66529256  0.74384962  1
  In  In82  1  0.49894801  0.50170457  0.49113580  1
  In  In83  1  0.16635435  0.16617316  0.49127229  1
  In  In84  1  0.00266771  0.33778345  0.75163460  1
  In  In85  1  -0.00035507  -0.00348079  0.74901647  1
  Cu  Cu86  1  0.49357213  0.83608281  0.25270684  1
  Cu  Cu87  1  0.16956277  0.83338301  0.74476033  1
  Cu  Cu88  1  -0.00683076  0.66560866  0.49610057  1
  Cu  Cu89  1  -0.01011287  -0.00135524  0.00222576  1
  Cu  Cu90  1  0.16777977  0.49814322  0.74890808  1
  Cu  Cu91  1  0.66634945  0.00106438  0.50791117  1
  Cu  Cu92  1  0.50376022  0.83601147  0.75003923  1
  Cu  Cu93  1  0.67401013  0.33013403  0.50250245  1
  Cu  Cu94  1  0.83587906  0.50042192  0.75142843  1
  Cu  Cu95  1  0.50465837  0.17417150  0.25218285  1
  Cu  Cu96  1  0.83989332  0.82746176  0.24937130  1
  Cu  Cu97  1  0.50359671  0.49026081  0.74765106  1
  Cu  Cu98  1  0.33783178  0.67228125  0.00761410  1
  Cu  Cu99  1  0.34019714  0.32801431  0.50032360  1
  Cu  Cu100  1  0.33574647  -0.00648295  0.50350120  1
  Cu  Cu101  1  0.66175152  -0.00276203  -0.00745888  1
  Cu  Cu102  1  -0.01358714  0.33001413  0.00926381  1
  Cu  Cu103  1  0.82815041  0.16786786  0.74922438  1
  Cu  Cu104  1  0.33276529  0.33645709  0.00253497  1
  Cu  Cu105  1  0.82927537  0.16999549  0.24614242  1
  Cu  Cu106  1  0.50250806  0.16384572  0.74896658  1
  Cu  Cu107  1  0.66395230  0.66572261  0.50064403  1
  Cu  Cu108  1  0.16648575  0.16211897  0.25759099  1
  Cu  Cu109  1  0.66473131  0.33165588  -0.00081148  1
  Cu  Cu110  1  0.34185369  0.00679126  -0.00835427  1
  Cu  Cu111  1  0.67559834  0.66568263  -0.00613305  1
  Cu  Cu112  1  0.16182099  0.83365452  0.25254198  1
  Cu  Cu113  1  -0.00810193  0.33523795  0.48761410  1
  Cu  Cu114  1  0.18214324  0.16824846  0.74975266  1
  Se  Se115  1  0.07395697  0.07804171  0.06087418  1
  Se  Se116  1  0.08097567  0.07839233  0.55622571  1
  Se  Se117  1  0.07092927  0.40678822  0.06716803  1
  Se  Se118  1  0.07260287  0.41192560  0.55205472  1
  Se  Se119  1  0.07714001  0.73953289  0.06156087  1
  Se  Se120  1  0.07632247  0.74649191  0.55060439  1
  Se  Se121  1  0.42005116  0.09184211  0.04703069  1
  Se  Se122  1  0.42018729  0.08020736  0.55264534  1
  Se  Se123  1  0.40499319  0.41994837  0.06602500  1
  Se  Se124  1  0.41618927  0.41232913  0.56020672  1
  Se  Se125  1  0.42399623  0.75861379  0.05398661  1
  Se  Se126  1  0.40646827  0.73627681  0.54862733  1
  Se  Se127  1  0.74155969  0.07718599  0.05325784  1
  Se  Se128  1  0.75332581  0.08436457  0.55655285  1
  Se  Se129  1  0.74776295  0.41367768  0.05443844  1
  Se  Se130  1  0.75575322  0.42080398  0.54953622  1
  Se  Se131  1  0.75819735  0.75193860  0.04641188  1
  Se  Se132  1  0.74055167  0.74570174  0.56491413  1
  Se  Se133  1  0.24544794  0.26438045  0.06349896  1
  Se  Se134  1  0.25325813  0.25280281  0.55892575  1
  Se  Se135  1  0.26008712  0.59228640  0.06774642  1
  Se  Se136  1  0.25027872  0.58772187  0.55372915  1
  Se  Se137  1  0.26065977  0.92976511  0.05489534  1
  Se  Se138  1  0.24613108  0.91279530  0.55192561  1
  Se  Se139  1  0.57500944  0.25700866  0.05447876  1
  Se  Se140  1  0.58708128  0.24668800  0.55206294  1
  Se  Se141  1  0.59840724  0.59225904  0.06292629  1
  Se  Se142  1  0.58606908  0.58200802  0.56127390  1
  Se  Se143  1  0.57952843  0.91398960  0.04750813  1
  Se  Se144  1  0.58673649  0.91198160  0.55877172  1
  Se  Se145  1  0.90572698  0.24071935  0.05739325  1
  Se  Se146  1  0.91558677  0.25071402  0.54568386  1
  Se  Se147  1  0.92738876  0.57260475  0.06111043  1
  Se  Se148  1  0.90988309  0.58522102  0.55188635  1
  Se  Se149  1  0.91455698  0.91165084  0.05791545  1
  Se  Se150  1  0.92235597  0.92584180  0.55997248  1
  Se  Se151  1  0.08311009  0.26300566  0.43172662  1
  Se  Se152  1  0.06972703  0.25859966  0.94422601  1
  Se  Se153  1  0.06316825  0.58353729  0.42991194  1
  Se  Se154  1  0.08440626  0.59166457  0.94442632  1
  Se  Se155  1  0.07712963  0.90779038  0.45393378  1
  Se  Se156  1  0.07214066  0.92112065  0.94068805  1
  Se  Se157  1  0.42746876  0.24636951  0.45012776  1
  Se  Se158  1  0.41672071  0.25638523  0.94818898  1
  Se  Se159  1  0.39971455  0.59039543  0.44072533  1
  Se  Se160  1  0.41617631  0.59042920  0.94693728  1
  Se  Se161  1  0.41899248  0.90744654  0.45153363  1
  Se  Se162  1  0.41974429  0.91523760  0.94241123  1
  Se  Se163  1  0.75424675  0.24763415  0.44436608  1
  Se  Se164  1  0.74709296  0.24635539  0.94584654  1
  Se  Se165  1  0.74872024  0.58391856  0.44849286  1
  Se  Se166  1  0.75593086  0.57483006  0.94599803  1
  Se  Se167  1  0.74224629  0.92665791  0.43885224  1
  Se  Se168  1  0.75052886  0.91375716  0.94542623  1
  Se  Se169  1  0.25898806  0.07008398  0.43650712  1
  Se  Se170  1  0.25206598  0.08040893  0.93485303  1
  Se  Se171  1  0.26403988  0.41039417  0.43925217  1
  Se  Se172  1  0.25315293  0.41909033  0.94460861  1
  Se  Se173  1  0.22643988  0.75370409  0.44451276  1
  Se  Se174  1  0.25889429  0.74659361  0.94261002  1
  Se  Se175  1  0.58224512  0.08103039  0.45051674  1
  Se  Se176  1  0.57951821  0.08640242  0.94348792  1
  Se  Se177  1  0.59427684  0.40890476  0.43913447  1
  Se  Se178  1  0.59002009  0.41627750  0.93707943  1
  Se  Se179  1  0.57656375  0.75147138  0.45510577  1
  Se  Se180  1  0.58555625  0.74935531  0.94794584  1
  Se  Se181  1  0.92599301  0.08599618  0.45079004  1
  Se  Se182  1  0.90939202  0.08626197  0.95086980  1
  Se  Se183  1  0.91004163  0.42139806  0.43716927  1
  Se  Se184  1  0.91201605  0.41570134  0.95103765  1
  Se  Se185  1  0.91257275  0.74842990  0.43674060  1
  Se  Se186  1  0.92109041  0.74356098  0.94714231  1
  Se  Se187  1  0.25447249  0.24436631  0.30608812  1
  Se  Se188  1  0.25846488  0.25564038  0.80442747  1
  Se  Se189  1  0.24075355  0.57908769  0.29877147  1
  Se  Se190  1  0.24809760  0.57870460  0.81119549  1
  Se  Se191  1  0.24453391  0.91211554  0.31309655  1
  Se  Se192  1  0.25361226  0.91877535  0.79393448  1
  Se  Se193  1  0.58942937  0.25405712  0.30591492  1
  Se  Se194  1  0.58511820  0.24990405  0.80167673  1
  Se  Se195  1  0.57590951  0.58089362  0.31769641  1
  Se  Se196  1  0.58266353  0.58057945  0.79778872  1
  Se  Se197  1  0.57881387  0.91595700  0.30820460  1
  Se  Se198  1  0.58823983  0.91582799  0.80533800  1
  Se  Se199  1  0.91340574  0.25082048  0.30280617  1
  Se  Se200  1  0.91139541  0.24625708  0.80981030  1
  Se  Se201  1  0.91243254  0.58814386  0.29304153  1
  Se  Se202  1  0.91843625  0.58442468  0.80467031  1
  Se  Se203  1  0.91639721  0.91598537  0.30355854  1
  Se  Se204  1  0.91013137  0.91569830  0.81330005  1
  Se  Se205  1  0.08089499  0.07836509  0.30630180  1
  Se  Se206  1  0.09406001  0.09177955  0.80717956  1
  Se  Se207  1  0.08921480  0.42281919  0.29277324  1
  Se  Se208  1  0.08862303  0.42647091  0.81666079  1
  Se  Se209  1  0.07623559  0.74657919  0.30018506  1
  Se  Se210  1  0.08396484  0.75091200  0.79557800  1
  Se  Se211  1  0.42634197  0.08587711  0.30801557  1
  Se  Se212  1  0.41835680  0.08055424  0.80269804  1
  Se  Se213  1  0.42217658  0.41575999  0.30070980  1
  Se  Se214  1  0.41705737  0.41163594  0.80126538  1
  Se  Se215  1  0.41089924  0.75505935  0.30653900  1
  Se  Se216  1  0.42337539  0.75216583  0.80987164  1
  Se  Se217  1  0.75701766  0.08935647  0.31325309  1
  Se  Se218  1  0.74689838  0.08322606  0.80247126  1
  Se  Se219  1  0.75329672  0.42044895  0.29599238  1
  Se  Se220  1  0.75193047  0.41304226  0.80082997  1
  Se  Se221  1  0.75215020  0.75756020  0.31047683  1
  Se  Se222  1  0.73236873  0.72715507  0.81015735  1
  Se  Se223  1  0.24251985  0.09397585  0.18549597  1
  Se  Se224  1  0.25977730  0.08008631  0.69752633  1
  Se  Se225  1  0.27508126  0.39396180  0.20499394  1
  Se  Se226  1  0.25248126  0.41386136  0.69977564  1
  Se  Se227  1  0.24822041  0.75483338  0.19787230  1
  Se  Se228  1  0.24761326  0.75251420  0.68265094  1
  Se  Se229  1  0.57972067  0.09353665  0.18880190  1
  Se  Se230  1  0.58584697  0.08043503  0.69491928  1
  Se  Se231  1  0.56414009  0.43704201  0.19887097  1
  Se  Se232  1  0.59079497  0.40967446  0.69582002  1
  Se  Se233  1  0.58070903  0.76462207  0.19097713  1
  Se  Se234  1  0.58506149  0.74900946  0.69868293  1
  Se  Se235  1  0.91236208  0.07975338  0.19830939  1
  Se  Se236  1  0.91615391  0.09539988  0.68984401  1
  Se  Se237  1  0.92435200  0.39623500  0.20026134  1
  Se  Se238  1  0.91306495  0.42019120  0.68678161  1
  Se  Se239  1  0.91959503  0.74391529  0.19445700  1
  Se  Se240  1  0.91370604  0.75373251  0.70228241  1
  Se  Se241  1  0.08306519  0.24496016  0.20302724  1
  Se  Se242  1  0.09507266  0.24449673  0.69167168  1
  Se  Se243  1  0.10685960  0.55444984  0.19865387  1
  Se  Se244  1  0.08199190  0.58143529  0.69874710  1
  Se  Se245  1  0.07863316  0.92018477  0.20210528  1
  Se  Se246  1  0.08832948  0.91263396  0.68372181  1
  Se  Se247  1  0.41594277  0.24938411  0.19755497  1
  Se  Se248  1  0.41879407  0.25014328  0.69619999  1
  Se  Se249  1  0.41883774  0.59992612  0.20345451  1
  Se  Se250  1  0.42761589  0.57359059  0.68495574  1
  Se  Se251  1  0.42366049  0.91960641  0.18765215  1
  Se  Se252  1  0.41811192  0.91326711  0.69334920  1
  Se  Se253  1  0.74287730  0.25256620  0.19501427  1
  Se  Se254  1  0.74857897  0.25312853  0.69431310  1
  Se  Se255  1  0.75513177  0.58524903  0.18598295  1
  Se  Se256  1  0.75252619  0.58163135  0.69519373  1
  Se  Se257  1  0.75622009  0.90512651  0.18950956  1
  Se  Se258  1  0.76086201  0.91444093  0.70616367  1
