# generated using pymatgen
data_In86Cu29Se144
_symmetry_space_group_name_H-M   'P 1'
_cell_length_a   17.58473114
_cell_length_b   17.58561102
_cell_length_c   23.44577187
_cell_angle_alpha   89.99523041
_cell_angle_beta   89.99708351
_cell_angle_gamma   89.99769661
_symmetry_Int_Tables_number   1
_chemical_formula_structural   In86Cu29Se144
_chemical_formula_sum   'In86 Cu29 Se144'
_cell_volume   7250.32922955
_cell_formula_units_Z   1
loop_
 _symmetry_equiv_pos_site_id
 _symmetry_equiv_pos_as_xyz
  1  'x, y, z'
loop_
 _atom_site_type_symbol
 _atom_site_label
 _atom_site_symmetry_multiplicity
 _atom_site_fract_x
 _atom_site_fract_y
 _atom_site_fract_z
 _atom_site_occupancy
  In  In0  1  0.00203597  0.16968433  0.11534513  1
  In  In1  1  -0.00192045  0.16528224  0.62767779  1
  In  In2  1  0.01142183  0.50330983  0.12509357  1
  In  In3  1  -0.00284541  0.49197467  0.61904896  1
  In  In4  1  -0.00034527  0.83192474  0.12048919  1
  In  In5  1  0.01801141  0.83644517  0.63438232  1
  In  In6  1  0.33295856  0.17116975  0.10766513  1
  In  In7  1  0.31880883  0.17287488  0.62832389  1
  In  In8  1  0.32474242  0.48089989  0.10635779  1
  In  In9  1  0.33870619  0.51411077  0.62217073  1
  In  In10  1  0.33030617  0.84668117  0.11780405  1
  In  In11  1  0.32872568  0.83340154  0.63340835  1
  In  In12  1  0.66907991  0.16315462  0.13093617  1
  In  In13  1  0.67020049  0.14555003  0.62000481  1
  In  In14  1  0.65142249  0.49796246  0.12276475  1
  In  In15  1  0.66049717  0.49456712  0.61797816  1
  In  In16  1  0.68160479  0.83588707  0.12462251  1
  In  In17  1  0.66121627  0.85845635  0.62354718  1
  In  In18  1  0.16556900  0.00166775  0.38748871  1
  In  In19  1  0.16325328  -0.00327183  0.86920128  1
  In  In20  1  0.17176441  0.33167847  0.37995551  1
  In  In21  1  0.16392196  0.34248385  0.88017432  1
  In  In22  1  0.16065178  0.67495447  0.38102461  1
  In  In23  1  0.17229288  0.65668033  0.87861954  1
  In  In24  1  0.49862869  -0.00414677  0.37655974  1
  In  In25  1  0.50436494  0.00145296  0.87029244  1
  In  In26  1  0.51782061  0.32892477  0.37471624  1
  In  In27  1  0.48385864  0.33359299  0.89255412  1
  In  In28  1  0.49988320  0.66938224  0.38526020  1
  In  In29  1  0.48705684  0.66474413  0.87075136  1
  In  In30  1  0.82948777  0.01558193  0.38365472  1
  In  In31  1  0.83764642  0.00229609  0.87269647  1
  In  In32  1  0.82676831  0.33691711  0.37820867  1
  In  In33  1  0.82521561  0.31348128  0.87333252  1
  In  In34  1  0.83134223  0.65342514  0.37592283  1
  In  In35  1  0.84875578  0.67562156  0.87402742  1
  In  In36  1  0.00595827  0.16133157  0.38061999  1
  In  In37  1  -0.00065416  0.16599924  0.87241034  1
  In  In38  1  -0.00851214  0.50602394  0.37870312  1
  In  In39  1  0.01728201  0.50482889  0.87019823  1
  In  In40  1  0.01394713  0.83698237  0.38075226  1
  In  In41  1  -0.01103462  0.84740802  0.87608793  1
  In  In42  1  0.33263464  0.15858316  0.37700798  1
  In  In43  1  0.34197797  0.16083903  0.88305925  1
  In  In44  1  0.33050208  0.50321838  0.38404423  1
  In  In45  1  0.32647148  0.50026727  0.87814215  1
  In  In46  1  0.33328357  0.83721580  0.38654048  1
  In  In47  1  0.31187278  0.81821733  0.85140392  1
  In  In48  1  0.66776987  0.17888441  0.36601613  1
  In  In49  1  0.66846347  0.15482156  0.88430379  1
  In  In50  1  0.67287512  0.49519100  0.38280717  1
  In  In51  1  0.66209441  0.48807118  0.87553737  1
  In  In52  1  0.65695049  0.83163972  0.38040334  1
  In  In53  1  0.67228155  0.85013951  0.87138250  1
  In  In54  1  0.17186636  0.00194990  0.11214634  1
  In  In55  1  0.16455655  -0.00077556  0.63451283  1
  In  In56  1  0.16122368  0.32825656  0.11172038  1
  In  In57  1  0.15455027  0.32125329  0.61939237  1
  In  In58  1  0.16290564  0.65786998  0.12101971  1
  In  In59  1  0.17948041  0.68041618  0.62244801  1
  In  In60  1  0.50616075  0.01940399  0.12284367  1
  In  In61  1  0.51158542  -0.00827269  0.63369420  1
  In  In62  1  0.50435792  0.33417121  0.12400785  1
  In  In63  1  0.48993433  0.34084989  0.62379271  1
  In  In64  1  0.50476057  0.65140355  0.12339469  1
  In  In65  1  0.48271996  0.65806936  0.62417251  1
  In  In66  1  0.82914598  -0.00579602  0.12123058  1
  In  In67  1  0.81872303  0.01013006  0.63689586  1
  In  In68  1  0.83297580  0.31693212  0.12298745  1
  In  In69  1  0.84113856  0.33784687  0.61784721  1
  In  In70  1  0.83310893  0.68508656  0.12463867  1
  In  In71  1  0.84494484  0.66387147  0.62214349  1
  In  In72  1  0.66322482  0.67168183  0.75351945  1
  In  In73  1  0.00065769  0.00223976  0.25720335  1
  In  In74  1  0.33548037  0.33010116  0.24231883  1
  In  In75  1  0.00821595  0.67044871  0.74440163  1
  In  In76  1  0.49721301  0.16815648  0.49965237  1
  In  In77  1  0.32808505  0.33286566  0.75607770  1
  In  In78  1  0.66151410  0.32362999  0.74677010  1
  In  In79  1  0.49601749  0.83411218  -0.00760185  1
  In  In80  1  0.66825898  0.66599555  0.25030919  1
  In  In81  1  -0.00001306  0.33169652  0.24049997  1
  In  In82  1  0.83869359  0.83516009  0.50783818  1
  In  In83  1  0.33522601  0.00601921  0.24907055  1
  In  In84  1  0.83532185  0.50240416  -0.00464420  1
  In  In85  1  0.33477151  0.66689314  0.24555999  1
  Cu  Cu86  1  0.65984923  0.66863481  0.50316543  1
  Cu  Cu87  1  0.32971206  0.67107100  0.50417648  1
  Cu  Cu88  1  0.50427524  0.16272813  0.75644289  1
  Cu  Cu89  1  0.32753648  0.34169935  0.50431833  1
  Cu  Cu90  1  0.00013968  0.00461063  -0.00474176  1
  Cu  Cu91  1  0.66872150  0.00478153  -0.00058611  1
  Cu  Cu92  1  0.17251729  0.49642045  0.74931021  1
  Cu  Cu93  1  0.00004636  0.33015790  0.49790744  1
  Cu  Cu94  1  0.33327526  0.66506023  -0.00518118  1
  Cu  Cu95  1  0.33201410  -0.00065164  0.50835756  1
  Cu  Cu96  1  0.16004882  0.16220528  0.75020871  1
  Cu  Cu97  1  0.83811283  0.83785988  0.24700205  1
  Cu  Cu98  1  0.00364490  0.66045803  0.50341441  1
  Cu  Cu99  1  0.50533652  0.83813537  0.25418248  1
  Cu  Cu100  1  -0.00391994  0.33315781  -0.00487320  1
  Cu  Cu101  1  0.83236708  0.16626003  0.25114240  1
  Cu  Cu102  1  0.00656308  0.00173472  0.50810467  1
  Cu  Cu103  1  0.49887823  0.83427159  0.74876863  1
  Cu  Cu104  1  0.83671118  0.16393569  0.75187828  1
  Cu  Cu105  1  0.82888892  0.49846070  0.25519535  1
  Cu  Cu106  1  0.15878027  0.50413147  0.24969956  1
  Cu  Cu107  1  0.16195520  0.83270884  0.25329586  1
  Cu  Cu108  1  0.66795063  0.67088233  0.00149254  1
  Cu  Cu109  1  0.00612445  0.67362721  -0.00321705  1
  Cu  Cu110  1  0.67039686  0.33151197  0.49861640  1
  Cu  Cu111  1  0.83620309  0.49522071  0.73991277  1
  Cu  Cu112  1  0.32442113  -0.00785863  -0.01114296  1
  Cu  Cu113  1  0.66418907  0.32498461  0.00188973  1
  Cu  Cu114  1  0.50125411  0.49291228  0.25006312  1
  Se  Se115  1  0.08545744  0.08669208  0.04846403  1
  Se  Se116  1  0.08956728  0.08554438  0.56180564  1
  Se  Se117  1  0.07685436  0.41833948  0.04991202  1
  Se  Se118  1  0.08398234  0.41424613  0.55026256  1
  Se  Se119  1  0.08921035  0.75194173  0.05488969  1
  Se  Se120  1  0.07973267  0.74935399  0.55717674  1
  Se  Se121  1  0.40715331  0.06752014  0.05022785  1
  Se  Se122  1  0.41187802  0.08316733  0.56648748  1
  Se  Se123  1  0.43660510  0.42451361  0.05292066  1
  Se  Se124  1  0.41563494  0.42373145  0.55260939  1
  Se  Se125  1  0.41273642  0.74124231  0.05984114  1
  Se  Se126  1  0.41150222  0.75446425  0.55943713  1
  Se  Se127  1  0.75120982  0.08516237  0.05660435  1
  Se  Se128  1  0.75934265  0.07807854  0.55008935  1
  Se  Se129  1  0.74644836  0.41240150  0.05740459  1
  Se  Se130  1  0.75111711  0.41771302  0.55245818  1
  Se  Se131  1  0.75325843  0.75622665  0.04833233  1
  Se  Se132  1  0.74124636  0.74585424  0.56466459  1
  Se  Se133  1  0.25376358  0.25993898  0.04455461  1
  Se  Se134  1  0.24797355  0.24918810  0.55064087  1
  Se  Se135  1  0.24923604  0.58328313  0.05044836  1
  Se  Se136  1  0.24551377  0.58410878  0.55344496  1
  Se  Se137  1  0.24251871  0.90856471  0.04328591  1
  Se  Se138  1  0.24818618  0.91819673  0.56287758  1
  Se  Se139  1  0.58520101  0.24326854  0.05999089  1
  Se  Se140  1  0.58967488  0.25596101  0.56328179  1
  Se  Se141  1  0.58412193  0.58207495  0.04643695  1
  Se  Se142  1  0.57662790  0.58383680  0.55609443  1
  Se  Se143  1  0.58753662  0.91840888  0.05722738  1
  Se  Se144  1  0.58067226  0.92908740  0.54902568  1
  Se  Se145  1  0.91420958  0.24798769  0.04748325  1
  Se  Se146  1  0.91868600  0.24622444  0.55333700  1
  Se  Se147  1  0.92184834  0.59379670  0.05762319  1
  Se  Se148  1  0.91471717  0.57733369  0.55042478  1
  Se  Se149  1  0.92080455  0.92052837  0.05418772  1
  Se  Se150  1  0.92619049  0.92344241  0.56922813  1
  Se  Se151  1  0.08717125  0.24808565  0.44615743  1
  Se  Se152  1  0.08065098  0.25112763  0.94207851  1
  Se  Se153  1  0.08453963  0.58045715  0.44497766  1
  Se  Se154  1  0.08516184  0.58057968  0.94954860  1
  Se  Se155  1  0.08814409  0.91456342  0.45598672  1
  Se  Se156  1  0.08231517  0.91830987  0.94381132  1
  Se  Se157  1  0.40799497  0.26295809  0.44031505  1
  Se  Se158  1  0.41571539  0.23997079  0.95829096  1
  Se  Se159  1  0.41374304  0.58718805  0.45007941  1
  Se  Se160  1  0.41801750  0.58104021  0.94484200  1
  Se  Se161  1  0.41730629  0.92226905  0.45103251  1
  Se  Se162  1  0.40477524  0.91266312  0.92796382  1
  Se  Se163  1  0.74962810  0.24597995  0.44441222  1
  Se  Se164  1  0.75019119  0.24273622  0.95111720  1
  Se  Se165  1  0.74663506  0.58672865  0.45077762  1
  Se  Se166  1  0.74477926  0.59292720  0.93474883  1
  Se  Se167  1  0.74662374  0.91889994  0.44567017  1
  Se  Se168  1  0.75277835  0.92209809  0.94597077  1
  Se  Se169  1  0.25340830  0.08511400  0.45164786  1
  Se  Se170  1  0.24259819  0.08153527  0.94085949  1
  Se  Se171  1  0.24299125  0.42239105  0.44919091  1
  Se  Se172  1  0.25903203  0.40878686  0.94782797  1
  Se  Se173  1  0.24630275  0.75402252  0.44967738  1
  Se  Se174  1  0.25420852  0.75064454  0.94058254  1
  Se  Se175  1  0.58922814  0.08556524  0.43828871  1
  Se  Se176  1  0.57416967  0.07955142  0.94958315  1
  Se  Se177  1  0.58282185  0.41603033  0.44915834  1
  Se  Se178  1  0.58511780  0.41262487  0.94944688  1
  Se  Se179  1  0.57712663  0.75596722  0.45382451  1
  Se  Se180  1  0.59048668  0.74579245  0.93373784  1
  Se  Se181  1  0.92411582  0.08253391  0.45151229  1
  Se  Se182  1  0.91430154  0.08774495  0.94383065  1
  Se  Se183  1  0.91564198  0.41471298  0.44485683  1
  Se  Se184  1  0.91994845  0.41357809  0.93177805  1
  Se  Se185  1  0.92221917  0.74253974  0.44243674  1
  Se  Se186  1  0.91773220  0.75625481  0.94919243  1
  Se  Se187  1  0.24657308  0.24283366  0.30624478  1
  Se  Se188  1  0.24107752  0.23939505  0.81363594  1
  Se  Se189  1  0.24413448  0.58055943  0.30799476  1
  Se  Se190  1  0.25224288  0.58128635  0.80319002  1
  Se  Se191  1  0.24490574  0.91322236  0.31093700  1
  Se  Se192  1  0.25295332  0.92872676  0.79639056  1
  Se  Se193  1  0.58062756  0.25242264  0.29588842  1
  Se  Se194  1  0.57569585  0.24702131  0.81902896  1
  Se  Se195  1  0.57516353  0.57910535  0.31062322  1
  Se  Se196  1  0.57729968  0.57285494  0.80731113  1
  Se  Se197  1  0.58762437  0.91889939  0.30754230  1
  Se  Se198  1  0.58408644  0.91808234  0.79931356  1
  Se  Se199  1  0.91703321  0.24505554  0.30917789  1
  Se  Se200  1  0.91793119  0.25212619  0.80175458  1
  Se  Se201  1  0.91584705  0.58343176  0.30168943  1
  Se  Se202  1  0.91326652  0.57568672  0.80286613  1
  Se  Se203  1  0.90961464  0.91268405  0.31721690  1
  Se  Se204  1  0.91085526  0.91703660  0.80022189  1
  Se  Se205  1  0.10034951  0.09014040  0.30819201  1
  Se  Se206  1  0.07500250  0.07913173  0.80216389  1
  Se  Se207  1  0.08445394  0.41774478  0.30847410  1
  Se  Se208  1  0.08667792  0.41388900  0.80048620  1
  Se  Se209  1  0.07939430  0.74964053  0.30567720  1
  Se  Se210  1  0.08408780  0.75106974  0.81762592  1
  Se  Se211  1  0.42982193  0.09493466  0.30581022  1
  Se  Se212  1  0.41412354  0.08301890  0.80548273  1
  Se  Se213  1  0.41644419  0.42006936  0.31168925  1
  Se  Se214  1  0.42422217  0.41930954  0.81106762  1
  Se  Se215  1  0.42129334  0.75770538  0.31001460  1
  Se  Se216  1  0.41658528  0.74443580  0.79522793  1
  Se  Se217  1  0.75096599  0.08308449  0.30560766  1
  Se  Se218  1  0.74855494  0.08698448  0.80653034  1
  Se  Se219  1  0.74499086  0.41593480  0.30593618  1
  Se  Se220  1  0.75690056  0.41830667  0.80344452  1
  Se  Se221  1  0.75786511  0.75776579  0.31031015  1
  Se  Se222  1  0.76101078  0.75885073  0.80675309  1
  Se  Se223  1  0.24760573  0.09077779  0.18458849  1
  Se  Se224  1  0.25218017  0.08531569  0.70079442  1
  Se  Se225  1  0.23635889  0.42195038  0.18901531  1
  Se  Se226  1  0.24623243  0.41502703  0.68456756  1
  Se  Se227  1  0.24549808  0.76169172  0.18955973  1
  Se  Se228  1  0.24973279  0.74796646  0.70293893  1
  Se  Se229  1  0.59629475  0.06998949  0.19851250  1
  Se  Se230  1  0.58849026  0.08433824  0.69995836  1
  Se  Se231  1  0.58686217  0.41225410  0.19815316  1
  Se  Se232  1  0.57362173  0.42368263  0.69558000  1
  Se  Se233  1  0.57676977  0.75539790  0.18880971  1
  Se  Se234  1  0.57792616  0.75508179  0.68536159  1
  Se  Se235  1  0.91586534  0.09005447  0.19093042  1
  Se  Se236  1  0.91967089  0.08022503  0.69848543  1
  Se  Se237  1  0.90574586  0.42568877  0.18607088  1
  Se  Se238  1  0.92245572  0.41036743  0.69367116  1
  Se  Se239  1  0.92146277  0.75367403  0.19660104  1
  Se  Se240  1  0.90898495  0.75957989  0.69271192  1
  Se  Se241  1  0.09492006  0.23891889  0.18980162  1
  Se  Se242  1  0.07988345  0.25023071  0.69816879  1
  Se  Se243  1  0.07889529  0.59143233  0.19847860  1
  Se  Se244  1  0.09296810  0.57503048  0.68569254  1
  Se  Se245  1  0.09056744  0.91864105  0.19082653  1
  Se  Se246  1  0.09470427  0.91206831  0.70802058  1
  Se  Se247  1  0.42283948  0.23510971  0.18686377  1
  Se  Se248  1  0.42478002  0.24347407  0.69593141  1
  Se  Se249  1  0.41579954  0.56530199  0.18858104  1
  Se  Se250  1  0.41431051  0.57985261  0.70209134  1
  Se  Se251  1  0.42564101  0.91236736  0.18999948  1
  Se  Se252  1  0.41548437  0.92095103  0.69837075  1
  Se  Se253  1  0.75036827  0.25251835  0.19936851  1
  Se  Se254  1  0.75683840  0.24121364  0.68688477  1
  Se  Se255  1  0.75573352  0.57773334  0.18633097  1
  Se  Se256  1  0.75159766  0.57876267  0.68875870  1
  Se  Se257  1  0.75083117  0.92037467  0.19877435  1
  Se  Se258  1  0.74782015  0.91346228  0.70068179  1
