# generated using pymatgen
data_In86Cu29Se144
_symmetry_space_group_name_H-M   'P 1'
_cell_length_a   17.63814191
_cell_length_b   17.64410577
_cell_length_c   23.51568870
_cell_angle_alpha   90.01166708
_cell_angle_beta   90.01345081
_cell_angle_gamma   90.01110277
_symmetry_Int_Tables_number   1
_chemical_formula_structural   In86Cu29Se144
_chemical_formula_sum   'In86 Cu29 Se144'
_cell_volume   7318.29914945
_cell_formula_units_Z   1
loop_
 _symmetry_equiv_pos_site_id
 _symmetry_equiv_pos_as_xyz
  1  'x, y, z'
loop_
 _atom_site_type_symbol
 _atom_site_label
 _atom_site_symmetry_multiplicity
 _atom_site_fract_x
 _atom_site_fract_y
 _atom_site_fract_z
 _atom_site_occupancy
  In  In0  1  -0.00964388  0.17368945  0.13143703  1
  In  In1  1  -0.00801685  0.18270251  0.62677660  1
  In  In2  1  -0.00163463  0.50249514  0.12322319  1
  In  In3  1  -0.03154110  0.51659158  0.69829929  1
  In  In4  1  0.00930650  0.82175097  0.13441495  1
  In  In5  1  -0.04187936  0.79554672  0.55142528  1
  In  In6  1  0.34278489  0.15614784  0.13218760  1
  In  In7  1  0.32995528  0.16992778  0.62139636  1
  In  In8  1  0.32195195  0.51474679  0.13093375  1
  In  In9  1  0.33487249  0.51007534  0.62110728  1
  In  In10  1  0.33365573  0.83083229  0.12668961  1
  In  In11  1  0.32297136  0.81864647  0.61064297  1
  In  In12  1  0.66133796  0.15976832  0.12017773  1
  In  In13  1  0.66756459  0.16396173  0.61983165  1
  In  In14  1  0.68507299  0.49965477  0.12563262  1
  In  In15  1  0.68432499  0.50879892  0.62511496  1
  In  In16  1  0.66113128  0.84089835  0.13465681  1
  In  In17  1  0.66996286  0.82396801  0.61533077  1
  In  In18  1  0.15964050  -0.01033982  0.36176714  1
  In  In19  1  0.15841203  -0.01116158  0.88297296  1
  In  In20  1  0.16524832  0.33816096  0.36233839  1
  In  In21  1  0.16108751  0.35311995  0.88213887  1
  In  In22  1  0.16422085  0.66733683  0.37325689  1
  In  In23  1  0.16163202  0.66814717  0.87876199  1
  In  In24  1  0.48953522  -0.01219260  0.36391127  1
  In  In25  1  0.50263115  -0.00260325  0.88632190  1
  In  In26  1  0.49586610  0.34418296  0.36754205  1
  In  In27  1  0.49592705  0.33038983  0.88077664  1
  In  In28  1  0.51168101  0.67772826  0.36550231  1
  In  In29  1  0.51537117  0.67242379  0.87710370  1
  In  In30  1  0.83389119  0.00149551  0.37202851  1
  In  In31  1  0.84668433  -0.00060185  0.87895439  1
  In  In32  1  0.83843981  0.32480417  0.38190221  1
  In  In33  1  0.83997490  0.32953979  0.87885439  1
  In  In34  1  0.83152050  0.66441794  0.37843704  1
  In  In35  1  0.82604520  0.65767906  0.86454917  1
  In  In36  1  -0.00508659  0.16348978  0.36174187  1
  In  In37  1  -0.01174677  0.16220092  0.88249587  1
  In  In38  1  -0.00271603  0.50179518  0.37285671  1
  In  In39  1  0.00010427  0.50105659  0.87358085  1
  In  In40  1  0.00082640  0.83517826  0.37698326  1
  In  In41  1  0.00825325  0.83053986  0.87582083  1
  In  In42  1  0.33124016  0.16558783  0.36043129  1
  In  In43  1  0.33861554  0.17562646  0.88561608  1
  In  In44  1  0.32830986  0.50066675  0.36235809  1
  In  In45  1  0.33516852  0.49278968  0.88109925  1
  In  In46  1  0.33406773  0.82880921  0.37031918  1
  In  In47  1  0.33135780  0.83208654  0.88442796  1
  In  In48  1  0.68394433  0.16525803  0.37626916  1
  In  In49  1  0.66872064  0.16648847  0.88344525  1
  In  In50  1  0.67319438  0.51228917  0.38272117  1
  In  In51  1  0.66967619  0.52123662  0.87066020  1
  In  In52  1  0.66692342  0.82918758  0.37800208  1
  In  In53  1  0.66815783  0.81760546  0.87597354  1
  In  In54  1  0.17670223  -0.01460767  0.13461549  1
  In  In55  1  0.16685377  -0.01063409  0.62127465  1
  In  In56  1  0.15450503  0.34505178  0.12979492  1
  In  In57  1  0.15420096  0.33924701  0.63274635  1
  In  In58  1  0.16273478  0.66691200  0.12229018  1
  In  In59  1  0.04431468  0.66358631  0.62904938  1
  In  In60  1  0.50218587  -0.00439846  0.12736410  1
  In  In61  1  0.51287373  -0.00850509  0.62011907  1
  In  In62  1  0.50469498  0.32064283  0.12435480  1
  In  In63  1  0.50135185  0.33950999  0.62567004  1
  In  In64  1  0.49416033  0.67621771  0.13063447  1
  In  In65  1  0.49729823  0.67752615  0.62233133  1
  In  In66  1  0.82453617  0.00447086  0.13569019  1
  In  In67  1  0.82232316  -0.00176506  0.61521776  1
  In  In68  1  0.84278410  0.34208513  0.11861340  1
  In  In69  1  0.85893595  0.36588483  0.59882514  1
  In  In70  1  0.84381521  0.66129441  0.13498535  1
  In  In71  1  0.82948361  0.66358497  0.62842312  1
  In  In72  1  0.67992083  0.34245985  0.74165228  1
  In  In73  1  0.33028961  0.33823438  0.76479786  1
  In  In74  1  0.50665777  0.50607006  0.49863832  1
  In  In75  1  0.83262862  0.83452312  0.00238401  1
  In  In76  1  0.16643732  0.16094796  0.49078983  1
  In  In77  1  0.50097451  0.16080352  0.50047018  1
  In  In78  1  0.33307484  -0.00151240  0.74543155  1
  In  In79  1  0.16197029  0.51000365  0.50911752  1
  In  In80  1  0.67117225  -0.00533440  0.74016897  1
  In  In81  1  0.33230267  0.66649451  0.74974879  1
  In  In82  1  -0.00090718  -0.01227761  0.74814091  1
  In  In83  1  0.50375145  0.50281403  -0.00181544  1
  In  In84  1  0.17037584  0.16336295  0.01362222  1
  In  In85  1  0.66746562  0.33412096  0.25058832  1
  Cu  Cu86  1  0.67047249  0.67019751  0.00065256  1
  Cu  Cu87  1  0.33642544  -0.01364785  0.49142257  1
  Cu  Cu88  1  0.16900806  0.82757090  0.25047759  1
  Cu  Cu89  1  -0.00164974  0.33428110  0.49684429  1
  Cu  Cu90  1  0.49815770  0.17395295  0.75760820  1
  Cu  Cu91  1  0.00196654  0.33577653  0.00251213  1
  Cu  Cu92  1  -0.00408908  0.66173887  0.00238007  1
  Cu  Cu93  1  0.67777985  0.33464310  0.00103825  1
  Cu  Cu94  1  0.66628458  0.00132127  0.00821601  1
  Cu  Cu95  1  0.00133752  0.01557718  0.48737816  1
  Cu  Cu96  1  0.83496626  0.16944390  0.25126560  1
  Cu  Cu97  1  0.83511065  0.83216647  0.25795864  1
  Cu  Cu98  1  0.00015041  -0.00472201  0.00586970  1
  Cu  Cu99  1  0.50037600  0.83035212  0.24961321  1
  Cu  Cu100  1  0.32772515  0.33230446  0.49109772  1
  Cu  Cu101  1  0.50442294  0.16037237  0.24510461  1
  Cu  Cu102  1  0.83736478  0.50382044  0.25098200  1
  Cu  Cu103  1  0.66764614  -0.00482278  0.49347071  1
  Cu  Cu104  1  0.50415372  0.83473775  0.74538593  1
  Cu  Cu105  1  0.83464038  0.16688364  0.75300969  1
  Cu  Cu106  1  0.16333500  0.82538435  0.74855334  1
  Cu  Cu107  1  0.33933642  0.33368094  0.00527363  1
  Cu  Cu108  1  0.15632613  0.17012111  0.75252045  1
  Cu  Cu109  1  0.16774604  0.17163738  0.24289696  1
  Cu  Cu110  1  0.32689965  0.67087039  0.00632168  1
  Cu  Cu111  1  0.33694649  0.66827801  0.49199437  1
  Cu  Cu112  1  0.33683377  -0.00389585  0.01044582  1
  Cu  Cu113  1  0.15872183  0.50720317  0.24700245  1
  Cu  Cu114  1  0.49719295  0.50375841  0.25026427  1
  Se  Se115  1  0.07794656  0.07333141  0.06910781  1
  Se  Se116  1  0.07682566  0.08467784  0.56059634  1
  Se  Se117  1  0.08376441  0.42221805  0.05264191  1
  Se  Se118  1  0.07202399  0.41367920  0.56049085  1
  Se  Se119  1  0.07769249  0.74919926  0.05326460  1
  Se  Se120  1  0.09953478  0.75185179  0.55214827  1
  Se  Se121  1  0.42185121  0.08236516  0.05736268  1
  Se  Se122  1  0.40553875  0.06890189  0.55811411  1
  Se  Se123  1  0.41703792  0.41855422  0.06470231  1
  Se  Se124  1  0.40744474  0.41036325  0.55237376  1
  Se  Se125  1  0.41697412  0.75049932  0.05493402  1
  Se  Se126  1  0.42149150  0.75157742  0.54550329  1
  Se  Se127  1  0.75552771  0.08211097  0.05648131  1
  Se  Se128  1  0.74383897  0.08448961  0.54724056  1
  Se  Se129  1  0.75822087  0.42292166  0.04979886  1
  Se  Se130  1  0.73690467  0.41367222  0.55257431  1
  Se  Se131  1  0.74714514  0.74670509  0.06622676  1
  Se  Se132  1  0.76679637  0.75246277  0.55302614  1
  Se  Se133  1  0.25916556  0.25795980  0.06871367  1
  Se  Se134  1  0.24736778  0.25904554  0.55526913  1
  Se  Se135  1  0.24416385  0.58186712  0.05209220  1
  Se  Se136  1  0.25603223  0.60269364  0.56019232  1
  Se  Se137  1  0.24870600  0.91192302  0.05601115  1
  Se  Se138  1  0.24741091  0.91513750  0.54834449  1
  Se  Se139  1  0.59069013  0.25286193  0.05137131  1
  Se  Se140  1  0.58558477  0.25975261  0.55562718  1
  Se  Se141  1  0.59147469  0.58872788  0.06215035  1
  Se  Se142  1  0.59316894  0.59488248  0.55879643  1
  Se  Se143  1  0.58483589  0.91334652  0.05696814  1
  Se  Se144  1  0.58680134  0.91138183  0.54863405  1
  Se  Se145  1  0.91902330  0.24942765  0.05277498  1
  Se  Se146  1  0.91438795  0.24695366  0.54699247  1
  Se  Se147  1  0.90969753  0.58265349  0.05542302  1
  Se  Se148  1  0.93357436  0.56671581  0.59059646  1
  Se  Se149  1  0.91984057  0.91799376  0.06841640  1
  Se  Se150  1  0.92093980  0.93882782  0.54671119  1
  Se  Se151  1  0.07956371  0.25758648  0.43597999  1
  Se  Se152  1  0.08370661  0.24917991  0.94609754  1
  Se  Se153  1  0.07245471  0.59267948  0.44486253  1
  Se  Se154  1  0.08057691  0.58246557  0.94577127  1
  Se  Se155  1  0.08440229  0.92463538  0.44269875  1
  Se  Se156  1  0.07982857  0.90932307  0.95335431  1
  Se  Se157  1  0.41093138  0.25154543  0.43695725  1
  Se  Se158  1  0.42426719  0.24913647  0.95604563  1
  Se  Se159  1  0.41248223  0.58426324  0.43368580  1
  Se  Se160  1  0.41075593  0.59689755  0.94233852  1
  Se  Se161  1  0.42236554  0.90650667  0.44079944  1
  Se  Se162  1  0.41591500  0.91519356  0.95005738  1
  Se  Se163  1  0.74337241  0.25553805  0.44799967  1
  Se  Se164  1  0.75673143  0.24723366  0.94740323  1
  Se  Se165  1  0.76704408  0.57412689  0.45174235  1
  Se  Se166  1  0.75285298  0.58833421  0.94631411  1
  Se  Se167  1  0.75500753  0.91596804  0.44133076  1
  Se  Se168  1  0.74163546  0.92451572  0.94063333  1
  Se  Se169  1  0.25983659  0.07277109  0.43401111  1
  Se  Se170  1  0.25640761  0.07365660  0.94561818  1
  Se  Se171  1  0.24739396  0.41855701  0.43877661  1
  Se  Se172  1  0.25500754  0.41594485  0.95342651  1
  Se  Se173  1  0.24989713  0.74919581  0.44019877  1
  Se  Se174  1  0.24416778  0.75080174  0.94806509  1
  Se  Se175  1  0.58429054  0.07432888  0.43447295  1
  Se  Se176  1  0.58478348  0.08423620  0.95013650  1
  Se  Se177  1  0.58873454  0.40807843  0.43960004  1
  Se  Se178  1  0.59670877  0.41354788  0.93893146  1
  Se  Se179  1  0.58611600  0.74242574  0.44484864  1
  Se  Se180  1  0.58365545  0.75487412  0.95307477  1
  Se  Se181  1  0.91349589  0.09499721  0.43763712  1
  Se  Se182  1  0.91585240  0.07921057  0.95563600  1
  Se  Se183  1  0.91737624  0.41972205  0.44370508  1
  Se  Se184  1  0.92110622  0.41677085  0.94464089  1
  Se  Se185  1  0.92170081  0.74782093  0.44545378  1
  Se  Se186  1  0.91703192  0.74269740  0.94035071  1
  Se  Se187  1  0.25090254  0.25521144  0.29709647  1
  Se  Se188  1  0.23753022  0.24124546  0.81779436  1
  Se  Se189  1  0.24442552  0.58801987  0.30036447  1
  Se  Se190  1  0.24882204  0.57528151  0.81364373  1
  Se  Se191  1  0.25460392  0.91372155  0.29966063  1
  Se  Se192  1  0.24209901  0.90923599  0.80709664  1
  Se  Se193  1  0.57846228  0.24046890  0.31021788  1
  Se  Se194  1  0.58680051  0.25150929  0.80928968  1
  Se  Se195  1  0.58580113  0.57579589  0.30695725  1
  Se  Se196  1  0.57872020  0.58886491  0.80258567  1
  Se  Se197  1  0.58605271  0.91006891  0.30436092  1
  Se  Se198  1  0.57873534  0.91588708  0.80806824  1
  Se  Se199  1  0.91528597  0.25892925  0.30095375  1
  Se  Se200  1  0.91936955  0.24495705  0.80822395  1
  Se  Se201  1  0.91684512  0.58830033  0.30587600  1
  Se  Se202  1  0.92663721  0.58947490  0.80116645  1
  Se  Se203  1  0.92051384  0.91828742  0.30662505  1
  Se  Se204  1  0.90617563  0.90072735  0.80821850  1
  Se  Se205  1  0.08754030  0.08710430  0.29839029  1
  Se  Se206  1  0.08544795  0.08263644  0.81224881  1
  Se  Se207  1  0.07762746  0.42178851  0.30045759  1
  Se  Se208  1  0.08295598  0.41718258  0.80524972  1
  Se  Se209  1  0.08165206  0.75195008  0.30617899  1
  Se  Se210  1  0.08111381  0.74520332  0.80429218  1
  Se  Se211  1  0.41612685  0.08005530  0.29716952  1
  Se  Se212  1  0.41863956  0.08859757  0.81193535  1
  Se  Se213  1  0.41172332  0.41546621  0.29593201  1
  Se  Se214  1  0.43400057  0.42886739  0.80939176  1
  Se  Se215  1  0.41489181  0.74566074  0.29978831  1
  Se  Se216  1  0.42182633  0.76166366  0.80902431  1
  Se  Se217  1  0.75091211  0.08370534  0.30053857  1
  Se  Se218  1  0.75501219  0.08353703  0.80937888  1
  Se  Se219  1  0.75661063  0.42196947  0.31085729  1
  Se  Se220  1  0.75921135  0.42487245  0.81307937  1
  Se  Se221  1  0.75123609  0.74752358  0.30879287  1
  Se  Se222  1  0.75111029  0.75259170  0.80243139  1
  Se  Se223  1  0.25121749  0.08150261  0.19768075  1
  Se  Se224  1  0.23703091  0.09389190  0.69197181  1
  Se  Se225  1  0.24469772  0.42292226  0.19583471  1
  Se  Se226  1  0.25358508  0.42163768  0.69205081  1
  Se  Se227  1  0.24839440  0.74618036  0.19200693  1
  Se  Se228  1  0.24287326  0.74881377  0.68742756  1
  Se  Se229  1  0.58994482  0.07806370  0.19471223  1
  Se  Se230  1  0.57168593  0.09319131  0.69350852  1
  Se  Se231  1  0.57844219  0.42521653  0.18856446  1
  Se  Se232  1  0.57911073  0.42955692  0.69075420  1
  Se  Se233  1  0.58673103  0.74596121  0.19923036  1
  Se  Se234  1  0.58556330  0.75340447  0.69082716  1
  Se  Se235  1  0.91763018  0.08278674  0.19968511  1
  Se  Se236  1  0.90998195  0.08404244  0.69060953  1
  Se  Se237  1  0.91619797  0.41972132  0.19431851  1
  Se  Se238  1  0.90410385  0.38467473  0.70068718  1
  Se  Se239  1  0.91805685  0.75016052  0.20300037  1
  Se  Se240  1  0.93516674  0.76190581  0.66329113  1
  Se  Se241  1  0.07903836  0.25462208  0.19618954  1
  Se  Se242  1  0.07550863  0.25383678  0.70063937  1
  Se  Se243  1  0.07646918  0.58923563  0.19221266  1
  Se  Se244  1  0.10651716  0.56569328  0.69654030  1
  Se  Se245  1  0.08295775  0.91428481  0.20138038  1
  Se  Se246  1  0.08496712  0.90247860  0.68586596  1
  Se  Se247  1  0.42149179  0.24879462  0.19713809  1
  Se  Se248  1  0.41671361  0.24796854  0.69498315  1
  Se  Se249  1  0.41511728  0.58742976  0.19674776  1
  Se  Se250  1  0.42760967  0.57849619  0.69181315  1
  Se  Se251  1  0.41772902  0.91366194  0.19479648  1
  Se  Se252  1  0.41950924  0.90755856  0.68426387  1
  Se  Se253  1  0.75550572  0.24773969  0.18722534  1
  Se  Se254  1  0.75803888  0.24022152  0.68713586  1
  Se  Se255  1  0.74951486  0.58510561  0.20068298  1
  Se  Se256  1  0.75872815  0.57948237  0.70208786  1
  Se  Se257  1  0.75091413  0.91431893  0.20321397  1
  Se  Se258  1  0.76316409  0.90215161  0.68875954  1
