# generated using pymatgen
data_In86Cu29Se144
_symmetry_space_group_name_H-M   'P 1'
_cell_length_a   17.57622454
_cell_length_b   17.57938527
_cell_length_c   23.44224629
_cell_angle_alpha   90.01769096
_cell_angle_beta   89.99833133
_cell_angle_gamma   89.98637038
_symmetry_Int_Tables_number   1
_chemical_formula_structural   In86Cu29Se144
_chemical_formula_sum   'In86 Cu29 Se144'
_cell_volume   7243.16648655
_cell_formula_units_Z   1
loop_
 _symmetry_equiv_pos_site_id
 _symmetry_equiv_pos_as_xyz
  1  'x, y, z'
loop_
 _atom_site_type_symbol
 _atom_site_label
 _atom_site_symmetry_multiplicity
 _atom_site_fract_x
 _atom_site_fract_y
 _atom_site_fract_z
 _atom_site_occupancy
  In  In0  1  0.01971553  0.16369303  0.12078815  1
  In  In1  1  0.00034676  0.16382976  0.62857836  1
  In  In2  1  0.00921211  0.50596482  0.11842011  1
  In  In3  1  -0.02759669  0.49885217  0.63431419  1
  In  In4  1  -0.00207620  0.82422896  0.12060899  1
  In  In5  1  0.00781246  0.84028151  0.61940765  1
  In  In6  1  0.32850197  0.15836934  0.11579121  1
  In  In7  1  0.31709492  0.16131930  0.62692091  1
  In  In8  1  0.33380358  0.51511186  0.12566288  1
  In  In9  1  0.34166932  0.50461598  0.63146793  1
  In  In10  1  0.33348103  0.83416727  0.12159406  1
  In  In11  1  0.32755220  0.84070985  0.63468196  1
  In  In12  1  0.65725044  0.16791495  0.13442236  1
  In  In13  1  0.66132595  0.15275459  0.62516307  1
  In  In14  1  0.66440751  0.49129983  0.12301696  1
  In  In15  1  0.68909225  0.51085870  0.62397589  1
  In  In16  1  0.66931726  0.84809979  0.12531580  1
  In  In17  1  0.67921398  0.82383786  0.63097774  1
  In  In18  1  0.16896879  -0.00832435  0.37745341  1
  In  In19  1  0.16387957  -0.00518207  0.87822881  1
  In  In20  1  0.15277010  0.33156141  0.37430694  1
  In  In21  1  0.16174706  0.34015782  0.88504107  1
  In  In22  1  0.17344126  0.68301545  0.36839185  1
  In  In23  1  0.17507223  0.65971233  0.87947541  1
  In  In24  1  0.49931110  0.00682077  0.35961327  1
  In  In25  1  0.49825071  -0.00204968  0.87900573  1
  In  In26  1  0.52062442  0.32327274  0.36824272  1
  In  In27  1  0.48169667  0.32804271  0.88578383  1
  In  In28  1  0.49917274  0.67648715  0.37091774  1
  In  In29  1  0.51148053  0.68603122  0.87470646  1
  In  In30  1  0.83129049  0.00653999  0.38576193  1
  In  In31  1  0.83423869  0.00261828  0.86161328  1
  In  In32  1  0.82854825  0.33755600  0.38062041  1
  In  In33  1  0.84713032  0.34027130  0.86878407  1
  In  In34  1  0.84289473  0.65453734  0.38993310  1
  In  In35  1  0.81752252  0.66297219  0.87332530  1
  In  In36  1  0.00610607  0.15841747  0.38694659  1
  In  In37  1  0.00417080  0.16653210  0.87088216  1
  In  In38  1  -0.02254410  0.50745346  0.37558300  1
  In  In39  1  0.00444660  0.49626075  0.87872948  1
  In  In40  1  0.00667022  0.82604349  0.38042028  1
  In  In41  1  0.00147391  0.84908102  0.87443067  1
  In  In42  1  0.33575984  0.14703949  0.37061633  1
  In  In43  1  0.34343176  0.16179651  0.88985875  1
  In  In44  1  0.32616000  0.50870115  0.36901194  1
  In  In45  1  0.32009763  0.50008124  0.87768254  1
  In  In46  1  0.33046095  0.83704030  0.36848014  1
  In  In47  1  0.33243449  0.83563037  0.87734828  1
  In  In48  1  0.67363036  0.17366700  0.36350246  1
  In  In49  1  0.66378276  0.15500310  0.87374313  1
  In  In50  1  0.70325078  0.50464778  0.36414948  1
  In  In51  1  0.66950921  0.52260064  0.87900270  1
  In  In52  1  0.66518405  0.84007180  0.37909389  1
  In  In53  1  0.65725560  0.82656339  0.87186648  1
  In  In54  1  0.17424932  0.01376741  0.10739061  1
  In  In55  1  0.16505186  -0.00201390  0.62973778  1
  In  In56  1  0.17624730  0.33558115  0.10910800  1
  In  In57  1  0.16314812  0.31223825  0.62464051  1
  In  In58  1  0.16698335  0.67258397  0.12031136  1
  In  In59  1  0.16323369  0.68001802  0.62662971  1
  In  In60  1  0.50265266  -0.00428011  0.12123647  1
  In  In61  1  0.50226655  -0.00681443  0.63708995  1
  In  In62  1  0.50980187  0.33177335  0.12230964  1
  In  In63  1  0.50484156  0.33344199  0.63090498  1
  In  In64  1  0.48600112  0.66137051  0.12418610  1
  In  In65  1  0.49804324  0.67253280  0.63602969  1
  In  In66  1  0.82728670  -0.00773019  0.12821332  1
  In  In67  1  0.83339123  0.00038484  0.62462401  1
  In  In68  1  0.81988051  0.33635721  0.12739742  1
  In  In69  1  0.84632686  0.34222513  0.62170238  1
  In  In70  1  0.84884017  0.66667732  0.12848948  1
  In  In71  1  0.81970774  0.66066297  0.61025449  1
  In  In72  1  -0.00403093  0.66980812  0.74713522  1
  In  In73  1  0.00162117  -0.00317561  0.24550710  1
  In  In74  1  -0.00778943  0.33922337  0.25251977  1
  In  In75  1  0.50469441  0.49680440  0.50597072  1
  In  In76  1  0.66676306  0.66840161  0.25087480  1
  In  In77  1  0.83588412  0.16999995  -0.00587289  1
  In  In78  1  0.49749530  0.50029355  0.00316491  1
  In  In79  1  0.66805422  0.33574830  0.75088576  1
  In  In80  1  0.50243680  0.83436849  0.49476242  1
  In  In81  1  0.15959664  0.50057151  0.50226824  1
  In  In82  1  0.33648291  0.33290053  0.23907774  1
  In  In83  1  0.83433067  0.83023951  -0.00207972  1
  In  In84  1  0.49854414  0.16136286  0.49310822  1
  In  In85  1  0.32364687  0.33131843  0.75928046  1
  Cu  Cu86  1  0.49671908  0.83952000  0.75536273  1
  Cu  Cu87  1  0.67302897  0.33273280  0.49682116  1
  Cu  Cu88  1  0.33159336  0.66994499  -0.00034753  1
  Cu  Cu89  1  0.00008567  0.00086680  0.50544751  1
  Cu  Cu90  1  0.00173232  0.66872333  0.50345742  1
  Cu  Cu91  1  0.83358615  0.16516911  0.74730048  1
  Cu  Cu92  1  0.33600813  -0.00717641  -0.00178394  1
  Cu  Cu93  1  0.16133064  0.51842194  0.24679537  1
  Cu  Cu94  1  0.33020879  0.67487789  0.49591923  1
  Cu  Cu95  1  0.32719990  0.32371038  0.49835503  1
  Cu  Cu96  1  0.50156987  0.51474180  0.75498241  1
  Cu  Cu97  1  0.83441725  0.83199139  0.25168934  1
  Cu  Cu98  1  0.83112921  0.16417353  0.25357883  1
  Cu  Cu99  1  0.83227182  0.83608809  0.74626738  1
  Cu  Cu100  1  0.17245313  0.16742091  0.24324568  1
  Cu  Cu101  1  0.67407853  -0.00188793  0.50107495  1
  Cu  Cu102  1  0.66346448  0.00032278  -0.00131037  1
  Cu  Cu103  1  0.17133949  0.83645249  0.24566928  1
  Cu  Cu104  1  0.49140776  0.83487324  0.24695615  1
  Cu  Cu105  1  0.50168953  0.49571432  0.24494647  1
  Cu  Cu106  1  -0.00417319  0.33630676  -0.00135810  1
  Cu  Cu107  1  0.66659289  0.33348929  0.00094166  1
  Cu  Cu108  1  0.16314031  0.15726248  0.75329177  1
  Cu  Cu109  1  0.00042024  0.32809344  0.50306548  1
  Cu  Cu110  1  0.00381979  0.66404496  -0.00203994  1
  Cu  Cu111  1  0.17120907  0.83316266  0.75157560  1
  Cu  Cu112  1  0.32595228  -0.00048099  0.50356152  1
  Cu  Cu113  1  0.49293924  0.16111278  0.75618635  1
  Cu  Cu114  1  0.16065131  0.49542858  0.75601739  1
  Se  Se115  1  0.07381097  0.07909505  0.04290728  1
  Se  Se116  1  0.08559260  0.08246428  0.55940231  1
  Se  Se117  1  0.08455348  0.41854795  0.04893449  1
  Se  Se118  1  0.07484355  0.41162153  0.56603366  1
  Se  Se119  1  0.08396068  0.75262667  0.04834133  1
  Se  Se120  1  0.08881140  0.75362592  0.55004754  1
  Se  Se121  1  0.41907597  0.07716983  0.05160720  1
  Se  Se122  1  0.41352306  0.07533653  0.56167164  1
  Se  Se123  1  0.40715009  0.41112189  0.06304355  1
  Se  Se124  1  0.40585171  0.40230528  0.55956366  1
  Se  Se125  1  0.41812904  0.74994901  0.05247827  1
  Se  Se126  1  0.41167729  0.74967624  0.55955364  1
  Se  Se127  1  0.74728843  0.08028831  0.05679066  1
  Se  Se128  1  0.75152004  0.08644107  0.55411833  1
  Se  Se129  1  0.75077522  0.41785677  0.05061164  1
  Se  Se130  1  0.75196295  0.41486000  0.55463498  1
  Se  Se131  1  0.74929508  0.74648348  0.06501705  1
  Se  Se132  1  0.74794251  0.75786586  0.54836759  1
  Se  Se133  1  0.23807536  0.23269586  0.04846288  1
  Se  Se134  1  0.24564624  0.23985291  0.55017697  1
  Se  Se135  1  0.24897195  0.58436633  0.05203681  1
  Se  Se136  1  0.25801964  0.58921217  0.55842415  1
  Se  Se137  1  0.24897101  0.91140923  0.05004012  1
  Se  Se138  1  0.24840030  0.91432207  0.55899988  1
  Se  Se139  1  0.58939953  0.24606653  0.05380029  1
  Se  Se140  1  0.58634091  0.25674244  0.55499739  1
  Se  Se141  1  0.58964743  0.59188991  0.05933472  1
  Se  Se142  1  0.58651280  0.59340383  0.56409218  1
  Se  Se143  1  0.58360446  0.91120139  0.04900643  1
  Se  Se144  1  0.58769542  0.92254423  0.56027806  1
  Se  Se145  1  0.92160578  0.25609280  0.06314563  1
  Se  Se146  1  0.91708398  0.24549958  0.55719989  1
  Se  Se147  1  0.91767234  0.58460738  0.05176901  1
  Se  Se148  1  0.91866681  0.58038989  0.55163416  1
  Se  Se149  1  0.92124479  0.92573275  0.05675533  1
  Se  Se150  1  0.91424113  0.91620656  0.55460944  1
  Se  Se151  1  0.08820023  0.24862098  0.45080062  1
  Se  Se152  1  0.07584840  0.24960891  0.94575749  1
  Se  Se153  1  0.08002402  0.59164917  0.43675338  1
  Se  Se154  1  0.08858650  0.57846948  0.94629595  1
  Se  Se155  1  0.08144901  0.91876278  0.44746647  1
  Se  Se156  1  0.08620462  0.91068694  0.94975537  1
  Se  Se157  1  0.41086743  0.25620622  0.43357182  1
  Se  Se158  1  0.41626655  0.24796353  0.96140272  1
  Se  Se159  1  0.41236916  0.58859669  0.44319221  1
  Se  Se160  1  0.41364422  0.59086517  0.93824930  1
  Se  Se161  1  0.41284325  0.93011918  0.43931390  1
  Se  Se162  1  0.42227962  0.90900925  0.94778890  1
  Se  Se163  1  0.74955565  0.24311942  0.44348387  1
  Se  Se164  1  0.74430766  0.25949580  0.93356656  1
  Se  Se165  1  0.74543692  0.57953776  0.45122278  1
  Se  Se166  1  0.75459567  0.58565835  0.95408924  1
  Se  Se167  1  0.75448231  0.91116886  0.44946827  1
  Se  Se168  1  0.74808418  0.92496614  0.93744350  1
  Se  Se169  1  0.24812105  0.08230043  0.44473705  1
  Se  Se170  1  0.24987945  0.07654055  0.94724985  1
  Se  Se171  1  0.25403879  0.41192821  0.44016643  1
  Se  Se172  1  0.26409461  0.40464677  0.94778306  1
  Se  Se173  1  0.25015884  0.76054447  0.44365279  1
  Se  Se174  1  0.24754151  0.75263126  0.94621248  1
  Se  Se175  1  0.59230006  0.07303534  0.43701610  1
  Se  Se176  1  0.57980514  0.08641838  0.94775993  1
  Se  Se177  1  0.59320731  0.41559005  0.43836032  1
  Se  Se178  1  0.58824233  0.41355127  0.93802856  1
  Se  Se179  1  0.59396232  0.73561253  0.44483595  1
  Se  Se180  1  0.59416221  0.74892387  0.95216688  1
  Se  Se181  1  0.91559117  0.08610386  0.45470537  1
  Se  Se182  1  0.92014245  0.07319901  0.93842163  1
  Se  Se183  1  0.91907535  0.41294363  0.44843633  1
  Se  Se184  1  0.91256262  0.42054069  0.94726565  1
  Se  Se185  1  0.91771250  0.75289236  0.45062100  1
  Se  Se186  1  0.92423945  0.74198034  0.93459729  1
  Se  Se187  1  0.24568855  0.25037981  0.30711704  1
  Se  Se188  1  0.24068439  0.23662097  0.81762698  1
  Se  Se189  1  0.25146776  0.59409045  0.30001701  1
  Se  Se190  1  0.24785248  0.58049140  0.80195187  1
  Se  Se191  1  0.24998503  0.92341776  0.30021068  1
  Se  Se192  1  0.25058336  0.91774242  0.80691818  1
  Se  Se193  1  0.57241628  0.22959378  0.29559770  1
  Se  Se194  1  0.57072617  0.25016063  0.81123692  1
  Se  Se195  1  0.58013161  0.57201534  0.31205904  1
  Se  Se196  1  0.58813964  0.59600158  0.80524815  1
  Se  Se197  1  0.58024763  0.90744495  0.30417454  1
  Se  Se198  1  0.58389799  0.92174727  0.80691479  1
  Se  Se199  1  0.91691717  0.23766163  0.31381522  1
  Se  Se200  1  0.91647146  0.24592464  0.80244258  1
  Se  Se201  1  0.90573790  0.58890176  0.30327324  1
  Se  Se202  1  0.91331685  0.57924634  0.81024118  1
  Se  Se203  1  0.91436877  0.91393803  0.31243590  1
  Se  Se204  1  0.91979548  0.91685402  0.79728382  1
  Se  Se205  1  0.08967106  0.09108043  0.30533288  1
  Se  Se206  1  0.07918930  0.07304494  0.80539974  1
  Se  Se207  1  0.08665935  0.43472941  0.30856667  1
  Se  Se208  1  0.08099119  0.40989688  0.80746684  1
  Se  Se209  1  0.08337302  0.75775447  0.30008828  1
  Se  Se210  1  0.08857011  0.75228712  0.81060364  1
  Se  Se211  1  0.41327404  0.08356460  0.29248564  1
  Se  Se212  1  0.41073883  0.08138738  0.81154513  1
  Se  Se213  1  0.42205890  0.41829125  0.31014316  1
  Se  Se214  1  0.42400834  0.42487677  0.80886500  1
  Se  Se215  1  0.41218567  0.74935845  0.30173266  1
  Se  Se216  1  0.41509874  0.75221720  0.80685130  1
  Se  Se217  1  0.75422268  0.07434838  0.30601602  1
  Se  Se218  1  0.74476871  0.08498583  0.79791840  1
  Se  Se219  1  0.74954591  0.39785932  0.29936195  1
  Se  Se220  1  0.75196045  0.42908583  0.81002991  1
  Se  Se221  1  0.75619289  0.75291696  0.31447395  1
  Se  Se222  1  0.75065196  0.75497074  0.80281569  1
  Se  Se223  1  0.24851272  0.07956095  0.18985757  1
  Se  Se224  1  0.25104749  0.07726552  0.70151413  1
  Se  Se225  1  0.23709390  0.42763510  0.19042626  1
  Se  Se226  1  0.24042546  0.41868260  0.68948573  1
  Se  Se227  1  0.25192243  0.74983807  0.19187771  1
  Se  Se228  1  0.25158541  0.74546341  0.69962442  1
  Se  Se229  1  0.60190691  0.05616352  0.19053500  1
  Se  Se230  1  0.58117916  0.08436833  0.70204793  1
  Se  Se231  1  0.58634907  0.41174660  0.19630852  1
  Se  Se232  1  0.57929444  0.43405066  0.69222424  1
  Se  Se233  1  0.57578565  0.75503245  0.18835899  1
  Se  Se234  1  0.58174517  0.75860761  0.69956636  1
  Se  Se235  1  0.91338136  0.09425387  0.18739463  1
  Se  Se236  1  0.91732366  0.07929012  0.69594686  1
  Se  Se237  1  0.91106596  0.42765339  0.18779139  1
  Se  Se238  1  0.91284618  0.40769294  0.70660376  1
  Se  Se239  1  0.92183503  0.75361889  0.19966624  1
  Se  Se240  1  0.91022377  0.75656546  0.68330295  1
  Se  Se241  1  0.09201904  0.25674561  0.19204509  1
  Se  Se242  1  0.08247800  0.24561603  0.70135544  1
  Se  Se243  1  0.07740577  0.59550428  0.19067676  1
  Se  Se244  1  0.08701766  0.57434846  0.68837752  1
  Se  Se245  1  0.09210145  0.91411409  0.18254722  1
  Se  Se246  1  0.08334600  0.91222746  0.69821629  1
  Se  Se247  1  0.42358717  0.23790617  0.18468819  1
  Se  Se248  1  0.41705776  0.24441324  0.69424952  1
  Se  Se249  1  0.41509945  0.58421151  0.20244771  1
  Se  Se250  1  0.41090506  0.59136425  0.70286027  1
  Se  Se251  1  0.41315162  0.91905142  0.19135990  1
  Se  Se252  1  0.40999717  0.92189835  0.70412998  1
  Se  Se253  1  0.75024736  0.24740892  0.19793378  1
  Se  Se254  1  0.75140524  0.24477454  0.68689227  1
  Se  Se255  1  0.75342178  0.57854391  0.18967249  1
  Se  Se256  1  0.76103967  0.59121572  0.69685816  1
  Se  Se257  1  0.74927790  0.91721768  0.20333509  1
  Se  Se258  1  0.74688670  0.92261038  0.69584294  1
