# generated using pymatgen
data_In86Cu29Se144
_symmetry_space_group_name_H-M   'P 1'
_cell_length_a   17.59023251
_cell_length_b   17.58918485
_cell_length_c   23.43335618
_cell_angle_alpha   89.98698565
_cell_angle_beta   90.01324922
_cell_angle_gamma   89.97156993
_symmetry_Int_Tables_number   1
_chemical_formula_structural   In86Cu29Se144
_chemical_formula_sum   'In86 Cu29 Se144'
_cell_volume   7250.22877406
_cell_formula_units_Z   1
loop_
 _symmetry_equiv_pos_site_id
 _symmetry_equiv_pos_as_xyz
  1  'x, y, z'
loop_
 _atom_site_type_symbol
 _atom_site_label
 _atom_site_symmetry_multiplicity
 _atom_site_fract_x
 _atom_site_fract_y
 _atom_site_fract_z
 _atom_site_occupancy
  In  In0  1  -0.01820319  0.15298834  0.10870017  1
  In  In1  1  0.00396301  0.17393489  0.62586391  1
  In  In2  1  0.01662079  0.50613858  0.13605417  1
  In  In3  1  -0.01076217  0.49482388  0.61632803  1
  In  In4  1  0.00005974  0.83318702  0.13486136  1
  In  In5  1  0.00133548  0.81869670  0.61973667  1
  In  In6  1  0.33461437  0.16483053  0.12068146  1
  In  In7  1  0.31808753  0.16608762  0.62523772  1
  In  In8  1  0.34455547  0.47773933  0.14788250  1
  In  In9  1  0.35065745  0.51234283  0.61832070  1
  In  In10  1  0.32033348  0.83973946  0.13151452  1
  In  In11  1  0.33085855  0.83074946  0.62040014  1
  In  In12  1  0.66583290  0.16667997  0.13668937  1
  In  In13  1  0.67024492  0.15292926  0.61614846  1
  In  In14  1  0.64898929  0.49738415  0.13910771  1
  In  In15  1  0.66194504  0.49866193  0.61108482  1
  In  In16  1  0.68598038  0.83177140  0.14621179  1
  In  In17  1  0.66076535  0.84809474  0.61747048  1
  In  In18  1  0.15672170  -0.01089919  0.36899326  1
  In  In19  1  0.16951457  -0.00985646  0.88314089  1
  In  In20  1  0.17712868  0.33202346  0.36899113  1
  In  In21  1  0.15680808  0.33762791  0.87923000  1
  In  In22  1  0.19240559  0.67351250  0.36085885  1
  In  In23  1  0.17828464  0.66162578  0.88014376  1
  In  In24  1  0.48907533  -0.00285553  0.36739138  1
  In  In25  1  0.50162883  0.01069976  0.87956241  1
  In  In26  1  0.52497508  0.37193671  0.34151495  1
  In  In27  1  0.49934692  0.33752610  0.88631226  1
  In  In28  1  0.50968517  0.67392966  0.37222972  1
  In  In29  1  0.48861135  0.66988529  0.88030018  1
  In  In30  1  0.85654166  0.00738378  0.34740218  1
  In  In31  1  0.83294632  0.00152673  0.89012338  1
  In  In32  1  0.82682862  0.34335750  0.37911009  1
  In  In33  1  0.83576898  0.32393408  0.88109982  1
  In  In34  1  0.81970705  0.66433107  0.35853995  1
  In  In35  1  0.84430942  0.66613998  0.88396524  1
  In  In36  1  -0.00509933  0.15034639  0.36957648  1
  In  In37  1  -0.00716978  0.17894322  0.89284709  1
  In  In38  1  -0.01659228  0.49887857  0.37530626  1
  In  In39  1  0.01379624  0.50321751  0.87344150  1
  In  In40  1  0.00753827  0.84578653  0.36756208  1
  In  In41  1  -0.00178683  0.83094231  0.89026064  1
  In  In42  1  0.33581864  0.17497760  0.36436669  1
  In  In43  1  0.34094192  0.16135845  0.88675816  1
  In  In44  1  0.36615847  0.53914058  0.32494110  1
  In  In45  1  0.33741422  0.51356602  0.87564915  1
  In  In46  1  0.33642912  0.83687607  0.37603808  1
  In  In47  1  0.32427531  0.82404691  0.87392533  1
  In  In48  1  0.68752642  0.17283976  0.35421856  1
  In  In49  1  0.66483514  0.16769264  0.89242229  1
  In  In50  1  0.66767545  0.50873648  0.37048786  1
  In  In51  1  0.66757452  0.49089577  0.88220945  1
  In  In52  1  0.66572452  0.82509581  0.36077562  1
  In  In53  1  0.66520311  0.84512534  0.88659148  1
  In  In54  1  0.16430409  -0.00276430  0.12188735  1
  In  In55  1  0.17712526  0.00643031  0.62372159  1
  In  In56  1  0.17362014  0.33385110  0.11962409  1
  In  In57  1  0.16575479  0.31587477  0.62562670  1
  In  In58  1  0.16040151  0.66885015  0.13689229  1
  In  In59  1  0.16877489  0.67905264  0.61879160  1
  In  In60  1  0.49001024  0.00474066  0.13109049  1
  In  In61  1  0.49778620  -0.01176239  0.61919327  1
  In  In62  1  0.50458366  0.33301824  0.13253654  1
  In  In63  1  0.49519157  0.34706263  0.61981310  1
  In  In64  1  0.50652953  0.65250429  0.13880953  1
  In  In65  1  0.48796439  0.65923435  0.61477460  1
  In  In66  1  0.84042654  0.00851655  0.13828597  1
  In  In67  1  0.81984454  0.00207940  0.61648759  1
  In  In68  1  0.82978182  0.29933709  0.12961240  1
  In  In69  1  0.83423191  0.33609433  0.61599667  1
  In  In70  1  0.82910970  0.67842235  0.14221074  1
  In  In71  1  0.84480847  0.66054705  0.61950970  1
  In  In72  1  0.16829923  0.49806963  0.48811425  1
  In  In73  1  0.82999657  0.49974477  0.01144323  1
  In  In74  1  0.66080202  0.66648459  0.75027712  1
  In  In75  1  0.66346120  0.33169712  0.74236797  1
  In  In76  1  0.65970863  0.00292600  0.75202739  1
  In  In77  1  -0.00132360  0.32367442  0.24167226  1
  In  In78  1  0.50123729  0.83360720  0.01428306  1
  In  In79  1  0.16056999  0.15789520  0.49784555  1
  In  In80  1  0.83026932  0.83398314  0.48842666  1
  In  In81  1  0.00603930  0.00120805  0.75138914  1
  In  In82  1  0.17409782  0.50272716  0.00626501  1
  In  In83  1  0.50537867  0.16875384  0.49369546  1
  In  In84  1  0.01259763  0.66120107  0.74938463  1
  In  In85  1  0.33155736  0.33750504  0.75381015  1
  Cu  Cu86  1  0.66659832  0.66956882  0.02113591  1
  Cu  Cu87  1  0.34354931  0.33403832  0.00767523  1
  Cu  Cu88  1  0.16911661  0.15983017  0.24267016  1
  Cu  Cu89  1  0.49267707  0.17171635  0.75597950  1
  Cu  Cu90  1  0.49203501  0.16604888  0.24795659  1
  Cu  Cu91  1  0.67743823  0.00096231  0.01414185  1
  Cu  Cu92  1  0.34338738  0.33984500  0.49017425  1
  Cu  Cu93  1  0.83582660  0.49207830  0.74215773  1
  Cu  Cu94  1  0.66937581  0.00157634  0.48616485  1
  Cu  Cu95  1  0.17150860  0.83924835  0.24927424  1
  Cu  Cu96  1  0.66493933  0.33710930  0.48672957  1
  Cu  Cu97  1  0.66107266  0.33245648  0.00897814  1
  Cu  Cu98  1  0.33382651  -0.00326675  0.00430368  1
  Cu  Cu99  1  -0.00406377  0.32495116  0.49787348  1
  Cu  Cu100  1  0.83251931  0.83175380  0.75969660  1
  Cu  Cu101  1  0.48817809  0.82936374  0.74538374  1
  Cu  Cu102  1  -0.00282289  0.67874951  0.01355866  1
  Cu  Cu103  1  0.82842099  0.49426575  0.24762252  1
  Cu  Cu104  1  0.33995853  0.66943348  0.48631117  1
  Cu  Cu105  1  0.83790098  0.16636811  0.75666659  1
  Cu  Cu106  1  0.33259521  0.66166205  0.00823231  1
  Cu  Cu107  1  -0.00184656  -0.00232186  0.00784594  1
  Cu  Cu108  1  0.66889116  0.66812708  0.49052824  1
  Cu  Cu109  1  0.17115508  0.49275289  0.74759088  1
  Cu  Cu110  1  0.49365881  0.83194603  0.24774546  1
  Cu  Cu111  1  0.17356389  0.83413154  0.75127767  1
  Cu  Cu112  1  -0.00077369  0.66529442  0.49253384  1
  Cu  Cu113  1  0.16508722  0.16310945  0.75352423  1
  Cu  Cu114  1  0.32980298  -0.00360578  0.49683148  1
  Se  Se115  1  0.08767257  0.08432658  0.05103473  1
  Se  Se116  1  0.07025131  0.07092222  0.55971212  1
  Se  Se117  1  0.07356526  0.41567778  0.05648529  1
  Se  Se118  1  0.08355980  0.40364532  0.55454947  1
  Se  Se119  1  0.08887374  0.75456511  0.06374510  1
  Se  Se120  1  0.08314772  0.74792038  0.54482734  1
  Se  Se121  1  0.42029254  0.08161721  0.05161044  1
  Se  Se122  1  0.40691293  0.08348480  0.55628692  1
  Se  Se123  1  0.42013066  0.41975379  0.06305746  1
  Se  Se124  1  0.42162098  0.42573948  0.54529204  1
  Se  Se125  1  0.41184273  0.74052310  0.07093459  1
  Se  Se126  1  0.41490527  0.75203178  0.54834810  1
  Se  Se127  1  0.75470705  0.08865770  0.06694302  1
  Se  Se128  1  0.75160987  0.08479459  0.54032190  1
  Se  Se129  1  0.74163743  0.41021693  0.07171919  1
  Se  Se130  1  0.74873630  0.41546975  0.54766736  1
  Se  Se131  1  0.75340782  0.75451850  0.06519188  1
  Se  Se132  1  0.74459055  0.74483793  0.55987479  1
  Se  Se133  1  0.25319855  0.25023072  0.05047483  1
  Se  Se134  1  0.25950628  0.25909051  0.54641826  1
  Se  Se135  1  0.25979650  0.58289022  0.07426649  1
  Se  Se136  1  0.25674202  0.59192523  0.54973096  1
  Se  Se137  1  0.24774978  0.91196746  0.05194601  1
  Se  Se138  1  0.24607042  0.91727876  0.55301485  1
  Se  Se139  1  0.58273077  0.24620388  0.06318558  1
  Se  Se140  1  0.59364593  0.26184594  0.55892056  1
  Se  Se141  1  0.58112631  0.57894347  0.05978355  1
  Se  Se142  1  0.58275609  0.58854239  0.54726904  1
  Se  Se143  1  0.59490109  0.91948844  0.07294414  1
  Se  Se144  1  0.58385434  0.92444166  0.54261499  1
  Se  Se145  1  0.92085188  0.26175864  0.04934376  1
  Se  Se146  1  0.91479723  0.24199332  0.55379238  1
  Se  Se147  1  0.92262233  0.58944828  0.06949293  1
  Se  Se148  1  0.91703017  0.58053031  0.54434744  1
  Se  Se149  1  0.91646018  0.91929897  0.06713602  1
  Se  Se150  1  0.91661038  0.91533550  0.56019391  1
  Se  Se151  1  0.07852095  0.25235905  0.43551474  1
  Se  Se152  1  0.09015010  0.25442129  0.95293893  1
  Se  Se153  1  0.08197593  0.59112208  0.42947372  1
  Se  Se154  1  0.07501711  0.59742435  0.95026887  1
  Se  Se155  1  0.07525392  0.92316252  0.44598397  1
  Se  Se156  1  0.08265903  0.91484246  0.95383642  1
  Se  Se157  1  0.42199133  0.25851818  0.43206970  1
  Se  Se158  1  0.42414844  0.24721511  0.95252733  1
  Se  Se159  1  0.41279728  0.58409027  0.42670075  1
  Se  Se160  1  0.41812487  0.58281515  0.95299353  1
  Se  Se161  1  0.42042889  0.91824996  0.44697703  1
  Se  Se162  1  0.41559240  0.91505485  0.94323691  1
  Se  Se163  1  0.74697611  0.24697061  0.44064951  1
  Se  Se164  1  0.74941427  0.25489156  0.95425073  1
  Se  Se165  1  0.75557781  0.58646613  0.44063858  1
  Se  Se166  1  0.74142655  0.59381472  0.94921020  1
  Se  Se167  1  0.74835200  0.92339680  0.42475050  1
  Se  Se168  1  0.75307535  0.91466660  0.95715789  1
  Se  Se169  1  0.25628868  0.08066159  0.43522453  1
  Se  Se170  1  0.25012037  0.07949255  0.94914722  1
  Se  Se171  1  0.26602396  0.41953090  0.42979233  1
  Se  Se172  1  0.26366444  0.41205682  0.94235241  1
  Se  Se173  1  0.24896832  0.75352039  0.44358643  1
  Se  Se174  1  0.25260261  0.74529709  0.95212655  1
  Se  Se175  1  0.59006134  0.08445396  0.42716309  1
  Se  Se176  1  0.58836390  0.07428164  0.95553343  1
  Se  Se177  1  0.58073703  0.42216120  0.43731664  1
  Se  Se178  1  0.58305479  0.41962748  0.95449574  1
  Se  Se179  1  0.58887761  0.75864666  0.44299630  1
  Se  Se180  1  0.59030012  0.74253796  0.94967122  1
  Se  Se181  1  0.91232448  0.07034751  0.43734876  1
  Se  Se182  1  0.91493347  0.08491808  0.95594801  1
  Se  Se183  1  0.91439068  0.41616596  0.45102619  1
  Se  Se184  1  0.92016382  0.42444395  0.93986783  1
  Se  Se185  1  0.91827645  0.74221177  0.42953843  1
  Se  Se186  1  0.90910910  0.75377484  0.95737174  1
  Se  Se187  1  0.24709063  0.24891773  0.29431468  1
  Se  Se188  1  0.24623295  0.24451905  0.81368669  1
  Se  Se189  1  0.22547561  0.56216913  0.29258118  1
  Se  Se190  1  0.24625202  0.58040432  0.80341660  1
  Se  Se191  1  0.25571855  0.92066568  0.30517595  1
  Se  Se192  1  0.25175685  0.91857296  0.80704659  1
  Se  Se193  1  0.57858942  0.24473165  0.30179804  1
  Se  Se194  1  0.58017611  0.24492583  0.81328638  1
  Se  Se195  1  0.58429411  0.58796175  0.30133076  1
  Se  Se196  1  0.57937161  0.57766529  0.81590820  1
  Se  Se197  1  0.57618556  0.91510264  0.30139827  1
  Se  Se198  1  0.57027650  0.90602786  0.80859388  1
  Se  Se199  1  0.90976646  0.24851095  0.31184464  1
  Se  Se200  1  0.92026251  0.24908894  0.80944645  1
  Se  Se201  1  0.91289369  0.57828033  0.29881433  1
  Se  Se202  1  0.90988060  0.57510606  0.80528740  1
  Se  Se203  1  0.91528971  0.89771125  0.29039313  1
  Se  Se204  1  0.91345719  0.91369405  0.81538668  1
  Se  Se205  1  0.08557922  0.08192596  0.29967543  1
  Se  Se206  1  0.08565094  0.08985626  0.81855356  1
  Se  Se207  1  0.07542529  0.41241873  0.31176686  1
  Se  Se208  1  0.08406705  0.41574777  0.80159558  1
  Se  Se209  1  0.09307070  0.75525682  0.30611426  1
  Se  Se210  1  0.09042467  0.75729271  0.81317964  1
  Se  Se211  1  0.40742091  0.08037660  0.29832605  1
  Se  Se212  1  0.41482991  0.08363512  0.80810798  1
  Se  Se213  1  0.39197036  0.39706508  0.30222114  1
  Se  Se214  1  0.42661360  0.42408329  0.80994000  1
  Se  Se215  1  0.41469024  0.75107945  0.30621753  1
  Se  Se216  1  0.41287996  0.74633709  0.80491296  1
  Se  Se217  1  0.74040870  0.06242216  0.29236926  1
  Se  Se218  1  0.75284951  0.08921353  0.81482870  1
  Se  Se219  1  0.74555995  0.41453304  0.30361594  1
  Se  Se220  1  0.75588992  0.41786190  0.80607832  1
  Se  Se221  1  0.75019006  0.75283951  0.28828062  1
  Se  Se222  1  0.75077906  0.75315620  0.81731067  1
  Se  Se223  1  0.25294722  0.07870116  0.18854488  1
  Se  Se224  1  0.25067132  0.08245671  0.70085783  1
  Se  Se225  1  0.22191424  0.42771817  0.19551506  1
  Se  Se226  1  0.24864806  0.42005290  0.68091856  1
  Se  Se227  1  0.25311051  0.74755317  0.20228182  1
  Se  Se228  1  0.25016463  0.74859451  0.69382537  1
  Se  Se229  1  0.57756166  0.08052637  0.19997295  1
  Se  Se230  1  0.57008547  0.09295072  0.69032401  1
  Se  Se231  1  0.56576478  0.42039321  0.21085444  1
  Se  Se232  1  0.57533491  0.43236632  0.69218355  1
  Se  Se233  1  0.58308048  0.75096592  0.19873330  1
  Se  Se234  1  0.57826770  0.75909525  0.68570890  1
  Se  Se235  1  0.92371321  0.10014808  0.19997836  1
  Se  Se236  1  0.90696506  0.08323766  0.69115224  1
  Se  Se237  1  0.90811562  0.41824461  0.18404571  1
  Se  Se238  1  0.91923957  0.40947303  0.68996137  1
  Se  Se239  1  0.93402220  0.73723887  0.20422385  1
  Se  Se240  1  0.90974188  0.75274696  0.69836845  1
  Se  Se241  1  0.08929339  0.23756108  0.18084763  1
  Se  Se242  1  0.08246818  0.24782766  0.70131616  1
  Se  Se243  1  0.09173093  0.58102780  0.21143279  1
  Se  Se244  1  0.09299703  0.57061957  0.68202750  1
  Se  Se245  1  0.08538928  0.92238672  0.19805212  1
  Se  Se246  1  0.08850267  0.90563782  0.68921794  1
  Se  Se247  1  0.41019477  0.24953551  0.19310632  1
  Se  Se248  1  0.42097111  0.24696558  0.68783140  1
  Se  Se249  1  0.41062130  0.58391474  0.20799482  1
  Se  Se250  1  0.41802483  0.58899531  0.69564481  1
  Se  Se251  1  0.40994350  0.91753670  0.19796717  1
  Se  Se252  1  0.41203554  0.91738556  0.69088042  1
  Se  Se253  1  0.73763683  0.25805788  0.20692327  1
  Se  Se254  1  0.75522617  0.23577110  0.68941312  1
  Se  Se255  1  0.74469314  0.58063436  0.19735103  1
  Se  Se256  1  0.75476811  0.57771479  0.68799136  1
  Se  Se257  1  0.74516975  0.93830719  0.20815472  1
  Se  Se258  1  0.75577617  0.91013675  0.69641693  1
