# generated using pymatgen
data_In86Cu29Se144
_symmetry_space_group_name_H-M   'P 1'
_cell_length_a   17.57265482
_cell_length_b   17.57038543
_cell_length_c   23.43528376
_cell_angle_alpha   90.01500017
_cell_angle_beta   89.99473760
_cell_angle_gamma   89.98830488
_symmetry_Int_Tables_number   1
_chemical_formula_structural   In86Cu29Se144
_chemical_formula_sum   'In86 Cu29 Se144'
_cell_volume   7235.83837179
_cell_formula_units_Z   1
loop_
 _symmetry_equiv_pos_site_id
 _symmetry_equiv_pos_as_xyz
  1  'x, y, z'
loop_
 _atom_site_type_symbol
 _atom_site_label
 _atom_site_symmetry_multiplicity
 _atom_site_fract_x
 _atom_site_fract_y
 _atom_site_fract_z
 _atom_site_occupancy
  In  In0  1  0.00858540  0.17011960  0.12476757  1
  In  In1  1  -0.00031061  0.17014409  0.62314188  1
  In  In2  1  0.00207411  0.48907032  0.12558168  1
  In  In3  1  0.00579424  0.50109248  0.62788423  1
  In  In4  1  0.00502217  0.84088247  0.11092351  1
  In  In5  1  0.01165556  0.81957669  0.63883636  1
  In  In6  1  0.33410661  0.18115371  0.12792456  1
  In  In7  1  0.32821471  0.19149340  0.62748452  1
  In  In8  1  0.32785430  0.49265161  0.12012967  1
  In  In9  1  0.31764201  0.48520595  0.61431614  1
  In  In10  1  0.33379595  0.83249535  0.11514023  1
  In  In11  1  0.32915517  0.84241675  0.62958965  1
  In  In12  1  0.65698951  0.17080104  0.14166252  1
  In  In13  1  0.68241473  0.16414816  0.61944139  1
  In  In14  1  0.66338100  0.50635871  0.12885219  1
  In  In15  1  0.67538100  0.50223142  0.61826015  1
  In  In16  1  0.66066985  0.82946616  0.12144346  1
  In  In17  1  0.66213809  0.81987938  0.62977938  1
  In  In18  1  0.16499516  0.00739294  0.38347676  1
  In  In19  1  0.15915147  0.01293270  0.87881541  1
  In  In20  1  0.16726616  0.33436813  0.37547945  1
  In  In21  1  0.16728705  0.33577904  0.87412732  1
  In  In22  1  0.16119702  0.66624829  0.38455070  1
  In  In23  1  0.16409768  0.66312771  0.87624570  1
  In  In24  1  0.50602076  -0.00830834  0.36614024  1
  In  In25  1  0.50360812  -0.00677093  0.88563983  1
  In  In26  1  0.50997634  0.34436568  0.35788862  1
  In  In27  1  0.49761641  0.35217254  0.88200685  1
  In  In28  1  0.50216962  0.65708393  0.37421434  1
  In  In29  1  0.50307316  0.66283015  0.87781951  1
  In  In30  1  0.83077687  0.00883595  0.37395418  1
  In  In31  1  0.83338685  -0.00893515  0.87833406  1
  In  In32  1  0.83039508  0.33463835  0.37908685  1
  In  In33  1  0.84310819  0.32857984  0.87534377  1
  In  In34  1  0.82189751  0.65691111  0.37291701  1
  In  In35  1  0.84371068  0.67490227  0.86686943  1
  In  In36  1  -0.01707002  0.19133298  0.39677178  1
  In  In37  1  0.01440678  0.18631604  0.86117471  1
  In  In38  1  0.01612458  0.47113465  0.39961765  1
  In  In39  1  0.01263966  0.51058757  0.85902207  1
  In  In40  1  0.00352888  0.84239768  0.37701465  1
  In  In41  1  0.00005239  0.83441832  0.87301476  1
  In  In42  1  0.31539016  0.17210214  0.37755693  1
  In  In43  1  0.31855967  0.16402841  0.87532769  1
  In  In44  1  0.34431470  0.49878904  0.38195977  1
  In  In45  1  0.33317652  0.49741781  0.87629816  1
  In  In46  1  0.33245392  0.82757564  0.37548876  1
  In  In47  1  0.33535822  0.82577917  0.88440724  1
  In  In48  1  0.66975986  0.17807790  0.35791887  1
  In  In49  1  0.67134771  0.16978864  0.87986307  1
  In  In50  1  0.66597334  0.49826941  0.37633081  1
  In  In51  1  0.65060810  0.50159355  0.87926567  1
  In  In52  1  0.65956465  0.82323424  0.35217630  1
  In  In53  1  0.67745371  0.83159828  0.88710487  1
  In  In54  1  0.16822457  0.00258763  0.11380871  1
  In  In55  1  0.15589353  -0.01134937  0.62199780  1
  In  In56  1  0.16811937  0.33501850  0.12473108  1
  In  In57  1  0.16172210  0.33927911  0.62234553  1
  In  In58  1  0.16672159  0.66652274  0.11459247  1
  In  In59  1  0.15235975  0.65169672  0.62089854  1
  In  In60  1  0.51409684  -0.01261838  0.12783584  1
  In  In61  1  0.50029383  -0.00380861  0.62887697  1
  In  In62  1  0.49088852  0.33574226  0.13335195  1
  In  In63  1  0.48395988  0.33733811  0.62567159  1
  In  In64  1  0.51382158  0.67559836  0.11503566  1
  In  In65  1  0.51662103  0.66165879  0.63250532  1
  In  In66  1  0.82569471  -0.01212754  0.11686519  1
  In  In67  1  0.84097726  0.01580613  0.61940402  1
  In  In68  1  0.83420405  0.33468720  0.13627583  1
  In  In69  1  0.87704601  0.36233128  0.58064729  1
  In  In70  1  0.81813439  0.66641536  0.12731484  1
  In  In71  1  0.84437784  0.65482982  0.63764510  1
  In  In72  1  0.67404679  0.33249166  0.75052094  1
  In  In73  1  0.49651217  0.82868734  0.50091690  1
  In  In74  1  0.49781619  0.17119543  0.49397263  1
  In  In75  1  -0.01009725  0.65757029  0.25329299  1
  In  In76  1  0.33209445  0.00078195  0.74946877  1
  In  In77  1  0.32824451  0.65733726  0.75505735  1
  In  In78  1  0.33858377  0.00581805  0.24040448  1
  In  In79  1  0.49605738  0.16446900  0.01420797  1
  In  In80  1  0.83757782  0.83264637  0.49725558  1
  In  In81  1  0.34138600  0.66513377  0.25404796  1
  In  In82  1  0.83620329  0.50344014  0.00536964  1
  In  In83  1  -0.00136482  0.00955009  0.25296540  1
  In  In84  1  0.83322671  0.16536770  0.00200412  1
  In  In85  1  0.67123963  -0.00223734  0.75743831  1
  Cu  Cu86  1  0.16923324  0.49270602  0.25239018  1
  Cu  Cu87  1  0.66719748  0.66636654  0.00037351  1
  Cu  Cu88  1  0.50373055  0.50497059  0.24832249  1
  Cu  Cu89  1  0.32884934  0.00632633  0.50602408  1
  Cu  Cu90  1  0.67065907  0.66018735  0.50100744  1
  Cu  Cu91  1  0.17005157  0.83645718  0.24864579  1
  Cu  Cu92  1  0.01166514  0.33761353  -0.00345284  1
  Cu  Cu93  1  0.83589116  0.49102901  0.25720772  1
  Cu  Cu94  1  0.82778175  0.82999857  0.24072362  1
  Cu  Cu95  1  0.83076320  0.49864811  0.74134967  1
  Cu  Cu96  1  0.00954663  -0.00423218  0.50381762  1
  Cu  Cu97  1  0.83476035  0.16891483  0.25463883  1
  Cu  Cu98  1  -0.00113743  0.66540065  0.50941216  1
  Cu  Cu99  1  0.16506864  0.17126189  0.74840996  1
  Cu  Cu100  1  0.33081573  0.33117114  0.00168177  1
  Cu  Cu101  1  0.49678033  0.50110759  0.75252232  1
  Cu  Cu102  1  0.32866442  -0.00556298  -0.00097286  1
  Cu  Cu103  1  0.32986133  0.34164744  0.49857189  1
  Cu  Cu104  1  0.84506186  0.17281681  0.74261513  1
  Cu  Cu105  1  0.00034523  0.67039544  -0.00824377  1
  Cu  Cu106  1  0.67094069  -0.00187687  0.49269599  1
  Cu  Cu107  1  0.33456492  0.65678566  -0.00194123  1
  Cu  Cu108  1  -0.00118878  0.00464926  -0.00627723  1
  Cu  Cu109  1  0.16650976  0.83049292  0.75485405  1
  Cu  Cu110  1  0.66034142  0.32976324  0.48954145  1
  Cu  Cu111  1  0.49830954  0.16934214  0.75032139  1
  Cu  Cu112  1  0.32786817  0.67002722  0.50081201  1
  Cu  Cu113  1  0.15842946  0.18056358  0.25274720  1
  Cu  Cu114  1  0.82925756  0.83819204  0.75365226  1
  Se  Se115  1  0.07965056  0.08669546  0.05095791  1
  Se  Se116  1  0.08720251  0.08533109  0.55625396  1
  Se  Se117  1  0.09029755  0.42187147  0.05305536  1
  Se  Se118  1  0.07166663  0.41224673  0.55354984  1
  Se  Se119  1  0.08615951  0.75193966  0.04723254  1
  Se  Se120  1  0.08414673  0.75320510  0.55605196  1
  Se  Se121  1  0.40379456  0.06951994  0.06762792  1
  Se  Se122  1  0.41285984  0.08402296  0.56402812  1
  Se  Se123  1  0.41765795  0.41187148  0.05472454  1
  Se  Se124  1  0.42075268  0.42141834  0.54853479  1
  Se  Se125  1  0.41536863  0.74493035  0.05023817  1
  Se  Se126  1  0.40982170  0.74229005  0.56581235  1
  Se  Se127  1  0.73701029  0.08711754  0.06396448  1
  Se  Se128  1  0.75382294  0.08202610  0.54441143  1
  Se  Se129  1  0.74866385  0.41110792  0.06301708  1
  Se  Se130  1  0.74189709  0.40969487  0.54801086  1
  Se  Se131  1  0.75192469  0.75025898  0.05224251  1
  Se  Se132  1  0.75143379  0.74140053  0.56013014  1
  Se  Se133  1  0.24688218  0.24755603  0.05425213  1
  Se  Se134  1  0.24733822  0.25642392  0.55068201  1
  Se  Se135  1  0.24766114  0.57730446  0.05111756  1
  Se  Se136  1  0.24487506  0.58284080  0.55120136  1
  Se  Se137  1  0.24239298  0.90869556  0.04906521  1
  Se  Se138  1  0.24980713  0.91449633  0.55458943  1
  Se  Se139  1  0.58930053  0.25889915  0.06426736  1
  Se  Se140  1  0.58664144  0.25574990  0.56080009  1
  Se  Se141  1  0.58569332  0.57749270  0.05040187  1
  Se  Se142  1  0.58196370  0.58186934  0.55355101  1
  Se  Se143  1  0.58268275  0.91271956  0.04983411  1
  Se  Se144  1  0.59366827  0.92192104  0.55696942  1
  Se  Se145  1  0.92435972  0.26307432  0.05684185  1
  Se  Se146  1  0.89818611  0.22302109  0.55254561  1
  Se  Se147  1  0.92769734  0.59641004  0.06332478  1
  Se  Se148  1  0.91368451  0.58123297  0.55831714  1
  Se  Se149  1  0.91548654  0.92009186  0.04561541  1
  Se  Se150  1  0.92756390  0.91437784  0.56286073  1
  Se  Se151  1  0.09807563  0.24572212  0.44821737  1
  Se  Se152  1  0.08885979  0.24680868  0.94498298  1
  Se  Se153  1  0.08238633  0.58253092  0.45378821  1
  Se  Se154  1  0.07949551  0.57830590  0.94404143  1
  Se  Se155  1  0.09020777  0.91172987  0.44849330  1
  Se  Se156  1  0.08284700  0.91845491  0.94253966  1
  Se  Se157  1  0.41120011  0.26403372  0.43573170  1
  Se  Se158  1  0.41221016  0.24902802  0.94221023  1
  Se  Se159  1  0.41804823  0.59131676  0.44977606  1
  Se  Se160  1  0.42017840  0.57675383  0.94396923  1
  Se  Se161  1  0.40967625  0.92810700  0.44374066  1
  Se  Se162  1  0.41713595  0.91227383  0.95104895  1
  Se  Se163  1  0.74350553  0.24261129  0.44042536  1
  Se  Se164  1  0.74435236  0.26521339  0.94708818  1
  Se  Se165  1  0.75272218  0.57524923  0.44847877  1
  Se  Se166  1  0.75065768  0.58976105  0.93863595  1
  Se  Se167  1  0.74110249  0.90975962  0.43255456  1
  Se  Se168  1  0.74170505  0.93361457  0.95081657  1
  Se  Se169  1  0.24603402  0.08984356  0.45346784  1
  Se  Se170  1  0.24757201  0.08441781  0.95109721  1
  Se  Se171  1  0.24686451  0.42493258  0.44386821  1
  Se  Se172  1  0.25011050  0.41519971  0.94565645  1
  Se  Se173  1  0.24765365  0.75489505  0.44669055  1
  Se  Se174  1  0.24868602  0.74115248  0.94682227  1
  Se  Se175  1  0.58863450  0.07926415  0.43598968  1
  Se  Se176  1  0.59115789  0.08243973  0.94833870  1
  Se  Se177  1  0.57538921  0.41595652  0.44150696  1
  Se  Se178  1  0.58891485  0.41380623  0.95308304  1
  Se  Se179  1  0.59538031  0.74639656  0.44107936  1
  Se  Se180  1  0.58255792  0.74901397  0.94684833  1
  Se  Se181  1  0.92455921  0.07042504  0.44477115  1
  Se  Se182  1  0.92525277  0.09057421  0.93294269  1
  Se  Se183  1  0.90986791  0.40489314  0.45830393  1
  Se  Se184  1  0.92627969  0.41872810  0.94099890  1
  Se  Se185  1  0.92520774  0.73786837  0.43767468  1
  Se  Se186  1  0.91379383  0.75484825  0.94394373  1
  Se  Se187  1  0.25120164  0.25789503  0.30147355  1
  Se  Se188  1  0.25056886  0.25083432  0.80311926  1
  Se  Se189  1  0.24275586  0.58071432  0.31163319  1
  Se  Se190  1  0.23370811  0.56456492  0.80543367  1
  Se  Se191  1  0.24697324  0.91893545  0.30816002  1
  Se  Se192  1  0.24684709  0.91139672  0.81406607  1
  Se  Se193  1  0.56718323  0.23926938  0.29511911  1
  Se  Se194  1  0.57797011  0.24741099  0.81259451  1
  Se  Se195  1  0.58852710  0.58443255  0.30371228  1
  Se  Se196  1  0.58240115  0.58370745  0.80309356  1
  Se  Se197  1  0.58875867  0.92246389  0.29323010  1
  Se  Se198  1  0.57944706  0.90845209  0.81286742  1
  Se  Se199  1  0.91673932  0.25190936  0.30949496  1
  Se  Se200  1  0.92087666  0.26244137  0.79614178  1
  Se  Se201  1  0.91996007  0.56236023  0.32132127  1
  Se  Se202  1  0.91262391  0.58203504  0.79749981  1
  Se  Se203  1  0.90684550  0.90781199  0.30422798  1
  Se  Se204  1  0.91617919  0.92007451  0.80435265  1
  Se  Se205  1  0.08385374  0.09821985  0.31538089  1
  Se  Se206  1  0.08363212  0.08295266  0.79948766  1
  Se  Se207  1  0.07991911  0.41765531  0.30787488  1
  Se  Se208  1  0.06652444  0.39529593  0.80570397  1
  Se  Se209  1  0.08687592  0.75509807  0.30562803  1
  Se  Se210  1  0.08254289  0.74633366  0.80700047  1
  Se  Se211  1  0.41296915  0.08864240  0.31482575  1
  Se  Se212  1  0.42546919  0.08596427  0.81300796  1
  Se  Se213  1  0.41269564  0.42690682  0.30015041  1
  Se  Se214  1  0.41482415  0.41590270  0.80444683  1
  Se  Se215  1  0.43222575  0.76159156  0.30802845  1
  Se  Se216  1  0.41879310  0.75256463  0.80833621  1
  Se  Se217  1  0.74923309  0.07877587  0.29913144  1
  Se  Se218  1  0.76373725  0.09809190  0.80716330  1
  Se  Se219  1  0.74563936  0.41125400  0.30752418  1
  Se  Se220  1  0.75716906  0.42715933  0.81355110  1
  Se  Se221  1  0.75513795  0.73918998  0.29591919  1
  Se  Se222  1  0.74653291  0.75491823  0.80709346  1
  Se  Se223  1  0.23267916  0.09321573  0.19235351  1
  Se  Se224  1  0.24498775  0.08950213  0.68717085  1
  Se  Se225  1  0.25300843  0.41419298  0.19610453  1
  Se  Se226  1  0.25468691  0.40804280  0.69268920  1
  Se  Se227  1  0.24626200  0.75140150  0.19127353  1
  Se  Se228  1  0.24304057  0.75108785  0.69175454  1
  Se  Se229  1  0.56290639  0.08786787  0.19838847  1
  Se  Se230  1  0.58278068  0.09237109  0.69270849  1
  Se  Se231  1  0.58433329  0.41766422  0.19607281  1
  Se  Se232  1  0.57885119  0.42022600  0.69132312  1
  Se  Se233  1  0.59444115  0.73751032  0.19331905  1
  Se  Se234  1  0.58019605  0.75243201  0.70363467  1
  Se  Se235  1  0.90644433  0.08912917  0.18644137  1
  Se  Se236  1  0.92423647  0.08012311  0.69586227  1
  Se  Se237  1  0.92330021  0.41554471  0.20113930  1
  Se  Se238  1  0.90666008  0.41438770  0.68307429  1
  Se  Se239  1  0.91968396  0.75734759  0.18541991  1
  Se  Se240  1  0.91390973  0.75092346  0.70340340  1
  Se  Se241  1  0.07669540  0.26011572  0.19538788  1
  Se  Se242  1  0.08213939  0.25211736  0.69244090  1
  Se  Se243  1  0.09277392  0.57929824  0.19329504  1
  Se  Se244  1  0.07702184  0.58814201  0.70033218  1
  Se  Se245  1  0.08789347  0.91685801  0.19116383  1
  Se  Se246  1  0.08436627  0.91762338  0.70286812  1
  Se  Se247  1  0.41869611  0.24461043  0.20245288  1
  Se  Se248  1  0.41470277  0.25621443  0.70272565  1
  Se  Se249  1  0.42265385  0.58089028  0.18484764  1
  Se  Se250  1  0.41552705  0.57375861  0.68713445  1
  Se  Se251  1  0.42115886  0.89906160  0.19242807  1
  Se  Se252  1  0.43004071  0.90477067  0.70058422  1
  Se  Se253  1  0.74948296  0.25308723  0.20330796  1
  Se  Se254  1  0.76302449  0.25251566  0.68496491  1
  Se  Se255  1  0.75698238  0.57490055  0.20022086  1
  Se  Se256  1  0.74005298  0.58434028  0.69721283  1
  Se  Se257  1  0.74514713  0.91590520  0.19100634  1
  Se  Se258  1  0.75701117  0.91573189  0.68543338  1
