# generated using pymatgen
data_In86Cu29Se144
_symmetry_space_group_name_H-M   'P 1'
_cell_length_a   17.58138258
_cell_length_b   17.58156739
_cell_length_c   23.43403969
_cell_angle_alpha   89.99846605
_cell_angle_beta   90.01047310
_cell_angle_gamma   89.98711431
_symmetry_Int_Tables_number   1
_chemical_formula_structural   In86Cu29Se144
_chemical_formula_sum   'In86 Cu29 Se144'
_cell_volume   7243.65498919
_cell_formula_units_Z   1
loop_
 _symmetry_equiv_pos_site_id
 _symmetry_equiv_pos_as_xyz
  1  'x, y, z'
loop_
 _atom_site_type_symbol
 _atom_site_label
 _atom_site_symmetry_multiplicity
 _atom_site_fract_x
 _atom_site_fract_y
 _atom_site_fract_z
 _atom_site_occupancy
  In  In0  1  0.00506099  0.16236794  0.12576596  1
  In  In1  1  0.00462268  0.16284182  0.63144328  1
  In  In2  1  0.00125630  0.50040083  0.12661942  1
  In  In3  1  -0.01412602  0.50010532  0.62809609  1
  In  In4  1  -0.00073547  0.83578555  0.12230036  1
  In  In5  1  0.00472528  0.83125869  0.62768155  1
  In  In6  1  0.31706930  0.16836510  0.12092893  1
  In  In7  1  0.33074976  0.16611154  0.63749462  1
  In  In8  1  0.33637553  0.50698169  0.11728535  1
  In  In9  1  0.32723707  0.50069797  0.63567074  1
  In  In10  1  0.33303005  0.83180791  0.12225986  1
  In  In11  1  0.34235469  0.82691366  0.63781737  1
  In  In12  1  0.66034162  0.15594925  0.12801710  1
  In  In13  1  0.65871535  0.16277055  0.62589245  1
  In  In14  1  0.68377743  0.52415913  0.11799080  1
  In  In15  1  0.68079188  0.49628144  0.62399818  1
  In  In16  1  0.66685569  0.82986387  0.12407327  1
  In  In17  1  0.66146136  0.84790849  0.62701134  1
  In  In18  1  0.16262940  -0.00888457  0.36555148  1
  In  In19  1  0.16479753  -0.00135387  0.88114219  1
  In  In20  1  0.16166768  0.34362352  0.37440831  1
  In  In21  1  0.16376899  0.32981312  0.87950188  1
  In  In22  1  0.16438048  0.66181503  0.35755855  1
  In  In23  1  0.17530987  0.65824890  0.88485199  1
  In  In24  1  0.49073262  -0.01694839  0.36971036  1
  In  In25  1  0.48153283  -0.03015417  0.85740053  1
  In  In26  1  0.50178023  0.32950521  0.37672753  1
  In  In27  1  0.49857293  0.34873918  0.87472002  1
  In  In28  1  0.50845406  0.67986531  0.36911350  1
  In  In29  1  0.48504823  0.68456267  0.88292345  1
  In  In30  1  0.83478416  0.00250806  0.36488063  1
  In  In31  1  0.83226223  -0.01438067  0.86321342  1
  In  In32  1  0.85368668  0.33774527  0.36642128  1
  In  In33  1  0.84955737  0.33454640  0.88103299  1
  In  In34  1  0.83566110  0.66284896  0.36474557  1
  In  In35  1  0.83729318  0.66436882  0.88598110  1
  In  In36  1  -0.00225445  0.16287349  0.36706074  1
  In  In37  1  0.01097859  0.17307109  0.87395160  1
  In  In38  1  -0.00249050  0.50024684  0.36019108  1
  In  In39  1  0.01581396  0.48044907  0.89882954  1
  In  In40  1  -0.00016083  0.83231046  0.36482417  1
  In  In41  1  -0.00742364  0.84247572  0.88376930  1
  In  In42  1  0.34339089  0.15929266  0.37738319  1
  In  In43  1  0.32008344  0.15345183  0.87191374  1
  In  In44  1  0.32142479  0.50198640  0.37144219  1
  In  In45  1  0.33212771  0.50351639  0.87464399  1
  In  In46  1  0.33566694  0.83831242  0.36906259  1
  In  In47  1  0.33261761  0.82828605  0.87784643  1
  In  In48  1  0.67958984  0.16359701  0.37117169  1
  In  In49  1  0.67582667  0.15200322  0.87659575  1
  In  In50  1  0.67572100  0.52129436  0.36406704  1
  In  In51  1  0.66634566  0.50420657  0.88681131  1
  In  In52  1  0.66137018  0.82422454  0.37013840  1
  In  In53  1  0.66566080  0.83579206  0.87858447  1
  In  In54  1  0.16714065  -0.00102211  0.12123912  1
  In  In55  1  0.16386037  0.00032140  0.63519885  1
  In  In56  1  0.15060301  0.32746788  0.10749751  1
  In  In57  1  0.16844501  0.32818710  0.63683489  1
  In  In58  1  0.16610424  0.66728163  0.12201292  1
  In  In59  1  0.16690979  0.67738468  0.62878783  1
  In  In60  1  0.50802191  -0.01785846  0.12800099  1
  In  In61  1  0.50449535  -0.00940828  0.63648971  1
  In  In62  1  0.48368313  0.33800893  0.12168182  1
  In  In63  1  0.49491804  0.32823013  0.62995231  1
  In  In64  1  0.49839771  0.67017283  0.12360535  1
  In  In65  1  0.48873207  0.67002630  0.62640416  1
  In  In66  1  0.83971443  -0.00936748  0.12698327  1
  In  In67  1  0.83589287  -0.01059306  0.63835760  1
  In  In68  1  0.84829284  0.35515543  0.12075476  1
  In  In69  1  0.83419575  0.34916775  0.62532837  1
  In  In70  1  0.83078726  0.66667615  0.13175089  1
  In  In71  1  0.84586358  0.65794251  0.62182452  1
  In  In72  1  0.32738152  0.33077489  0.25181127  1
  In  In73  1  0.50122720  0.16488192  0.50398170  1
  In  In74  1  0.66713328  0.33063126  0.74686658  1
  In  In75  1  0.83436752  0.16742430  0.49484313  1
  In  In76  1  0.49435425  0.16140600  -0.00490796  1
  In  In77  1  0.49865600  0.50678109  0.50512355  1
  In  In78  1  0.16867053  0.16427351  0.51226455  1
  In  In79  1  0.66255447  0.67327157  0.75807738  1
  In  In80  1  0.16364144  0.50069483  0.49331050  1
  In  In81  1  0.16318199  0.83149107  0.50019101  1
  In  In82  1  0.83216046  0.83128895  0.49896953  1
  In  In83  1  0.00091407  0.66872561  0.75309408  1
  In  In84  1  0.83954894  0.16744544  0.00158567  1
  In  In85  1  0.66814974  0.33118688  0.24319366  1
  Cu  Cu86  1  0.49967969  0.16607678  0.75196640  1
  Cu  Cu87  1  0.16957795  0.83605842  0.75689783  1
  Cu  Cu88  1  -0.00272292  0.67074835  0.00898279  1
  Cu  Cu89  1  0.66346342  0.00027757  0.50106157  1
  Cu  Cu90  1  0.49802531  0.83047361  0.24639008  1
  Cu  Cu91  1  0.67243406  0.35153526  0.49716992  1
  Cu  Cu92  1  0.32836513  0.34025646  -0.00357645  1
  Cu  Cu93  1  0.00163692  0.00125966  0.00149103  1
  Cu  Cu94  1  0.33416523  0.66855489  0.00128997  1
  Cu  Cu95  1  0.84124608  0.49804576  0.75719545  1
  Cu  Cu96  1  0.49687243  0.14817293  0.24889359  1
  Cu  Cu97  1  0.66475931  -0.01100432  -0.00388146  1
  Cu  Cu98  1  0.83171645  0.83524733  0.24611981  1
  Cu  Cu99  1  0.33312183  -0.00471545  -0.00248249  1
  Cu  Cu100  1  0.16564304  0.49734935  0.76154586  1
  Cu  Cu101  1  0.66207230  0.33714481  0.00265929  1
  Cu  Cu102  1  0.84055676  0.16343862  0.75563618  1
  Cu  Cu103  1  0.49153085  0.50775714  0.75272834  1
  Cu  Cu104  1  0.33392178  0.67260702  0.49986745  1
  Cu  Cu105  1  0.83624936  0.16374429  0.24457686  1
  Cu  Cu106  1  0.33349330  -0.00607541  0.50075427  1
  Cu  Cu107  1  0.16749240  0.49906878  0.24118588  1
  Cu  Cu108  1  0.16330287  0.16221106  0.24435910  1
  Cu  Cu109  1  0.66947854  0.67178042  0.49215552  1
  Cu  Cu110  1  0.50068385  0.50538081  0.24309004  1
  Cu  Cu111  1  0.16320116  0.16622492  0.75678669  1
  Cu  Cu112  1  0.66784564  0.66743909  0.00437494  1
  Cu  Cu113  1  0.00177035  0.33715083  0.49744349  1
  Cu  Cu114  1  0.16793575  0.83390578  0.23978957  1
  Se  Se115  1  0.08548513  0.08578413  0.05232186  1
  Se  Se116  1  0.07261479  0.06846972  0.55811992  1
  Se  Se117  1  0.08854135  0.43483254  0.05054564  1
  Se  Se118  1  0.08259756  0.41039256  0.56199834  1
  Se  Se119  1  0.08627102  0.75552254  0.05434381  1
  Se  Se120  1  0.07026587  0.73527380  0.55438265  1
  Se  Se121  1  0.41153755  0.07465920  0.06218608  1
  Se  Se122  1  0.40840057  0.07779625  0.56261198  1
  Se  Se123  1  0.41592254  0.42084220  0.04698104  1
  Se  Se124  1  0.40909655  0.41442370  0.56205605  1
  Se  Se125  1  0.41927255  0.75322610  0.05209063  1
  Se  Se126  1  0.41368254  0.75548394  0.55518997  1
  Se  Se127  1  0.74171827  0.07519088  0.05459507  1
  Se  Se128  1  0.74746573  0.07724868  0.55948916  1
  Se  Se129  1  0.74639643  0.41759544  0.05639457  1
  Se  Se130  1  0.76274385  0.42798588  0.54789838  1
  Se  Se131  1  0.75364490  0.74943731  0.05688632  1
  Se  Se132  1  0.74306701  0.74467634  0.56395732  1
  Se  Se133  1  0.24825366  0.25054025  0.04614415  1
  Se  Se134  1  0.26180870  0.25929444  0.56232173  1
  Se  Se135  1  0.24735414  0.58448690  0.05054622  1
  Se  Se136  1  0.25340100  0.59066731  0.55785080  1
  Se  Se137  1  0.24913863  0.91418416  0.05298792  1
  Se  Se138  1  0.25207363  0.91832224  0.56346462  1
  Se  Se139  1  0.58403172  0.25228497  0.05921963  1
  Se  Se140  1  0.59558941  0.26645933  0.55560289  1
  Se  Se141  1  0.57936161  0.58381382  0.05397865  1
  Se  Se142  1  0.59548242  0.59492630  0.56189832  1
  Se  Se143  1  0.58174511  0.90774594  0.05085046  1
  Se  Se144  1  0.57691985  0.92096222  0.55402626  1
  Se  Se145  1  0.92951318  0.26046305  0.05614406  1
  Se  Se146  1  0.92316768  0.25594667  0.55907311  1
  Se  Se147  1  0.91396886  0.58590426  0.06070871  1
  Se  Se148  1  0.92017324  0.57802547  0.55022611  1
  Se  Se149  1  0.91506459  0.91649172  0.05040239  1
  Se  Se150  1  0.92166773  0.92140486  0.55908914  1
  Se  Se151  1  0.08008982  0.24996287  0.44244326  1
  Se  Se152  1  0.07646486  0.25520679  0.94981187  1
  Se  Se153  1  0.07792011  0.59135727  0.43397458  1
  Se  Se154  1  0.08179381  0.58923940  0.95403594  1
  Se  Se155  1  0.07374419  0.92159058  0.44100328  1
  Se  Se156  1  0.08579131  0.91397827  0.95171708  1
  Se  Se157  1  0.40884063  0.25928592  0.44777683  1
  Se  Se158  1  0.40803159  0.25602864  0.93642798  1
  Se  Se159  1  0.41028508  0.59011538  0.43810664  1
  Se  Se160  1  0.41602262  0.58412069  0.94564087  1
  Se  Se161  1  0.41463059  0.90999949  0.44732524  1
  Se  Se162  1  0.41928478  0.91193950  0.94715931  1
  Se  Se163  1  0.74691289  0.26583774  0.43731129  1
  Se  Se164  1  0.74122980  0.25633576  0.94265702  1
  Se  Se165  1  0.75430391  0.58899392  0.44208288  1
  Se  Se166  1  0.75324596  0.58226548  0.95371961  1
  Se  Se167  1  0.74451122  0.92445357  0.43822372  1
  Se  Se168  1  0.75774712  0.91553219  0.94383760  1
  Se  Se169  1  0.25146401  0.07402813  0.44300898  1
  Se  Se170  1  0.24740361  0.08296505  0.95176827  1
  Se  Se171  1  0.26202932  0.40468226  0.44552215  1
  Se  Se172  1  0.24557799  0.42331344  0.94274391  1
  Se  Se173  1  0.24903491  0.74207206  0.43600240  1
  Se  Se174  1  0.24832066  0.75311144  0.95068417  1
  Se  Se175  1  0.58707172  0.07956877  0.43681232  1
  Se  Se176  1  0.58200242  0.06813667  0.93724742  1
  Se  Se177  1  0.58853251  0.42447129  0.43618609  1
  Se  Se178  1  0.57812272  0.42006410  0.95047423  1
  Se  Se179  1  0.58010187  0.75560887  0.44790945  1
  Se  Se180  1  0.58761893  0.74906713  0.94684475  1
  Se  Se181  1  0.92455997  0.07307286  0.44140194  1
  Se  Se182  1  0.91971011  0.07587933  0.93685786  1
  Se  Se183  1  0.92544648  0.42061857  0.43976508  1
  Se  Se184  1  0.89911992  0.42992720  0.95413199  1
  Se  Se185  1  0.92210136  0.74540780  0.43781531  1
  Se  Se186  1  0.91662074  0.75266645  0.95188092  1
  Se  Se187  1  0.23986183  0.23713206  0.31345706  1
  Se  Se188  1  0.24812736  0.25075341  0.80782085  1
  Se  Se189  1  0.25468844  0.58048751  0.29345840  1
  Se  Se190  1  0.24985043  0.58795077  0.80478875  1
  Se  Se191  1  0.25015657  0.91466084  0.29846170  1
  Se  Se192  1  0.25074700  0.91893433  0.81191648  1
  Se  Se193  1  0.57492158  0.23724392  0.30502420  1
  Se  Se194  1  0.58133586  0.24397520  0.81365840  1
  Se  Se195  1  0.58046454  0.58963600  0.29852794  1
  Se  Se196  1  0.57429426  0.57931832  0.81533504  1
  Se  Se197  1  0.58337949  0.91261630  0.30186982  1
  Se  Se198  1  0.59797719  0.92006242  0.80297937  1
  Se  Se199  1  0.92148742  0.24745684  0.29612336  1
  Se  Se200  1  0.91925110  0.25157075  0.80654558  1
  Se  Se201  1  0.92248209  0.58971280  0.29451531  1
  Se  Se202  1  0.92157502  0.57518768  0.81774998  1
  Se  Se203  1  0.91741044  0.91831600  0.29873054  1
  Se  Se204  1  0.93063328  0.91508994  0.80028915  1
  Se  Se205  1  0.08141394  0.07947778  0.30050113  1
  Se  Se206  1  0.08239288  0.07809835  0.80804423  1
  Se  Se207  1  0.08687530  0.41393679  0.29715988  1
  Se  Se208  1  0.07834424  0.41565650  0.81119682  1
  Se  Se209  1  0.08330761  0.75250532  0.29540430  1
  Se  Se210  1  0.09030483  0.75325353  0.81684213  1
  Se  Se211  1  0.40948532  0.07290374  0.30418077  1
  Se  Se212  1  0.41638486  0.08342076  0.80557248  1
  Se  Se213  1  0.42603330  0.42305328  0.30687020  1
  Se  Se214  1  0.41179178  0.41777716  0.80243731  1
  Se  Se215  1  0.41324664  0.74874857  0.30182796  1
  Se  Se216  1  0.41986294  0.75900007  0.80358570  1
  Se  Se217  1  0.74883439  0.08247337  0.29609189  1
  Se  Se218  1  0.75106427  0.07939314  0.80022012  1
  Se  Se219  1  0.75612137  0.41978096  0.30402729  1
  Se  Se220  1  0.75099557  0.42039475  0.81190163  1
  Se  Se221  1  0.75056050  0.75111118  0.30171975  1
  Se  Se222  1  0.76386067  0.75358592  0.81229502  1
  Se  Se223  1  0.25030644  0.08103221  0.19381795  1
  Se  Se224  1  0.24688435  0.08248883  0.70283386  1
  Se  Se225  1  0.24652868  0.41464753  0.18284323  1
  Se  Se226  1  0.24818692  0.41532429  0.70357457  1
  Se  Se227  1  0.25258818  0.74713981  0.19195891  1
  Se  Se228  1  0.24841598  0.74906269  0.70187603  1
  Se  Se229  1  0.58569271  0.07074375  0.19756577  1
  Se  Se230  1  0.58485575  0.08437026  0.69924744  1
  Se  Se231  1  0.57641542  0.42046030  0.18479572  1
  Se  Se232  1  0.57608570  0.43057326  0.69194262  1
  Se  Se233  1  0.58370265  0.74802432  0.19439718  1
  Se  Se234  1  0.57443721  0.75747142  0.69320711  1
  Se  Se235  1  0.92028901  0.07951084  0.19248997  1
  Se  Se236  1  0.92046670  0.08049088  0.69830573  1
  Se  Se237  1  0.92173774  0.42041812  0.20031477  1
  Se  Se238  1  0.91989788  0.41186576  0.70239639  1
  Se  Se239  1  0.91858825  0.75454156  0.19407099  1
  Se  Se240  1  0.90588688  0.75566062  0.69382285  1
  Se  Se241  1  0.08773393  0.25195944  0.19108853  1
  Se  Se242  1  0.07954862  0.24895580  0.70163338  1
  Se  Se243  1  0.08406763  0.58797194  0.19428317  1
  Se  Se244  1  0.09073208  0.57394383  0.69257315  1
  Se  Se245  1  0.08224315  0.92002408  0.19154642  1
  Se  Se246  1  0.08244556  0.91105634  0.69964517  1
  Se  Se247  1  0.42027524  0.23748396  0.19310988  1
  Se  Se248  1  0.41567597  0.25276204  0.70265165  1
  Se  Se249  1  0.41301182  0.58548421  0.19182094  1
  Se  Se250  1  0.40989149  0.59042143  0.69810237  1
  Se  Se251  1  0.41242856  0.91481560  0.19553012  1
  Se  Se252  1  0.40067960  0.93242558  0.69967175  1
  Se  Se253  1  0.76070579  0.24456554  0.18139857  1
  Se  Se254  1  0.76236267  0.24066723  0.68855324  1
  Se  Se255  1  0.74705720  0.58715546  0.20293968  1
  Se  Se256  1  0.75876406  0.57895371  0.69879847  1
  Se  Se257  1  0.74632599  0.91776859  0.19345735  1
  Se  Se258  1  0.74447432  0.91415076  0.70160862  1
