# generated using pymatgen
data_In86Cu29Se144
_symmetry_space_group_name_H-M   'P 1'
_cell_length_a   17.58215765
_cell_length_b   17.58170003
_cell_length_c   23.44567867
_cell_angle_alpha   89.98680783
_cell_angle_beta   89.99662869
_cell_angle_gamma   90.00271134
_symmetry_Int_Tables_number   1
_chemical_formula_structural   In86Cu29Se144
_chemical_formula_sum   'In86 Cu29 Se144'
_cell_volume   7247.62695584
_cell_formula_units_Z   1
loop_
 _symmetry_equiv_pos_site_id
 _symmetry_equiv_pos_as_xyz
  1  'x, y, z'
loop_
 _atom_site_type_symbol
 _atom_site_label
 _atom_site_symmetry_multiplicity
 _atom_site_fract_x
 _atom_site_fract_y
 _atom_site_fract_z
 _atom_site_occupancy
  In  In0  1  0.00169017  0.18432010  0.12013736  1
  In  In1  1  0.01221317  0.15685916  0.62976485  1
  In  In2  1  -0.01349253  0.49030442  0.11817957  1
  In  In3  1  -0.00047484  0.49952735  0.62608539  1
  In  In4  1  0.00776590  0.82641935  0.12368690  1
  In  In5  1  -0.00270615  0.83726628  0.62184117  1
  In  In6  1  0.35281413  0.17606023  0.12280947  1
  In  In7  1  0.32416179  0.17879204  0.63159610  1
  In  In8  1  0.34038648  0.48939135  0.13309249  1
  In  In9  1  0.33062037  0.49969441  0.62598083  1
  In  In10  1  0.32412337  0.83199954  0.13140510  1
  In  In11  1  0.32525754  0.84486888  0.63742970  1
  In  In12  1  0.66407221  0.15733638  0.11615547  1
  In  In13  1  0.66873034  0.16766257  0.63521005  1
  In  In14  1  0.66054804  0.49112191  0.11233930  1
  In  In15  1  0.65865741  0.49633575  0.62159151  1
  In  In16  1  0.67272611  0.84480234  0.12551929  1
  In  In17  1  0.67938824  0.83427423  0.62712813  1
  In  In18  1  0.15827374  0.00749354  0.39819479  1
  In  In19  1  0.16252580  -0.00455939  0.86270338  1
  In  In20  1  0.16679919  0.33490428  0.37779786  1
  In  In21  1  0.16024361  0.33035421  0.86358646  1
  In  In22  1  0.17231761  0.65772784  0.38785536  1
  In  In23  1  0.17026049  0.66887317  0.85986896  1
  In  In24  1  0.50570878  0.00065204  0.37134637  1
  In  In25  1  0.51572458  0.02004899  0.85665719  1
  In  In26  1  0.50443998  0.34723972  0.37567688  1
  In  In27  1  0.50331483  0.33214803  0.87880030  1
  In  In28  1  0.48171374  0.66795142  0.37542945  1
  In  In29  1  0.48565754  0.66494556  0.87317136  1
  In  In30  1  0.82640606  0.00313004  0.37978729  1
  In  In31  1  0.83735135  0.00767205  0.87164394  1
  In  In32  1  0.84546439  0.32810128  0.37525730  1
  In  In33  1  0.83724565  0.33891416  0.87378660  1
  In  In34  1  0.84069192  0.65886812  0.38300904  1
  In  In35  1  0.83802549  0.65496008  0.87544710  1
  In  In36  1  -0.00422067  0.17852381  0.37669938  1
  In  In37  1  -0.00297793  0.16576830  0.87085612  1
  In  In38  1  0.00772456  0.49203253  0.38414410  1
  In  In39  1  -0.00601347  0.49677167  0.86442526  1
  In  In40  1  0.00474031  0.83232979  0.39440437  1
  In  In41  1  -0.00322291  0.83313418  0.86321254  1
  In  In42  1  0.32250587  0.16350230  0.37653179  1
  In  In43  1  0.34441356  0.18049486  0.86820858  1
  In  In44  1  0.33054607  0.49970789  0.37994591  1
  In  In45  1  0.34012195  0.50558446  0.86882028  1
  In  In46  1  0.33170380  0.82546603  0.37910976  1
  In  In47  1  0.34232679  0.83155052  0.85371187  1
  In  In48  1  0.68556850  0.16200604  0.36616226  1
  In  In49  1  0.66564160  0.16625107  0.87833924  1
  In  In50  1  0.66676068  0.49524221  0.38488224  1
  In  In51  1  0.68008695  0.48651172  0.88230890  1
  In  In52  1  0.66523625  0.84748777  0.37469550  1
  In  In53  1  0.66309003  0.85365562  0.86821580  1
  In  In54  1  0.16433972  -0.00660105  0.12838522  1
  In  In55  1  0.16254583  0.00327105  0.61892172  1
  In  In56  1  0.16552608  0.34056963  0.13482882  1
  In  In57  1  0.16390952  0.33344834  0.62519419  1
  In  In58  1  0.17233268  0.67196083  0.13097267  1
  In  In59  1  0.16465628  0.66424496  0.62477912  1
  In  In60  1  0.51442189  0.02328669  0.11457491  1
  In  In61  1  0.50145254  -0.00295648  0.64018196  1
  In  In62  1  0.49520999  0.32452931  0.12053605  1
  In  In63  1  0.49057517  0.34550559  0.63341132  1
  In  In64  1  0.49649406  0.65230118  0.12296118  1
  In  In65  1  0.50109600  0.65208930  0.62761962  1
  In  In66  1  0.81785374  0.00461555  0.12524864  1
  In  In67  1  0.84574119  -0.01058552  0.63573195  1
  In  In68  1  0.83753103  0.33106971  0.11629803  1
  In  In69  1  0.82705601  0.33832108  0.63244896  1
  In  In70  1  0.84232124  0.64643944  0.11696466  1
  In  In71  1  0.84254388  0.67550623  0.62060240  1
  In  In72  1  0.66611097  0.66743358  0.75408132  1
  In  In73  1  0.16531725  0.49957570  -0.00662063  1
  In  In74  1  0.16437348  0.17104276  -0.00889472  1
  In  In75  1  0.00098491  0.66150628  0.24699081  1
  In  In76  1  -0.00776062  0.00594750  0.26131753  1
  In  In77  1  0.84235982  0.16317584  0.49906611  1
  In  In78  1  0.49587928  0.83372500  -0.00925226  1
  In  In79  1  0.16714085  0.82638787  0.00211047  1
  In  In80  1  0.33321532  0.00201008  0.25227595  1
  In  In81  1  0.66181064  0.66802693  0.24493409  1
  In  In82  1  0.66068754  0.32445816  0.24154423  1
  In  In83  1  0.83232451  0.83220222  -0.00690869  1
  In  In84  1  0.49973742  0.82655030  0.50089080  1
  In  In85  1  0.49672762  0.16840649  0.49781964  1
  Cu  Cu86  1  0.67515824  -0.00254334  0.50265024  1
  Cu  Cu87  1  0.33079075  0.66374200  0.50386073  1
  Cu  Cu88  1  0.33208730  0.66150234  -0.00492495  1
  Cu  Cu89  1  0.66486057  0.66550932  -0.00281175  1
  Cu  Cu90  1  0.83273070  0.48732033  0.24630985  1
  Cu  Cu91  1  0.16244783  0.83391719  0.73967296  1
  Cu  Cu92  1  0.33224031  0.00157814  0.50924724  1
  Cu  Cu93  1  0.16534822  0.16483319  0.74705024  1
  Cu  Cu94  1  0.66459144  0.33607211  0.50637038  1
  Cu  Cu95  1  0.32719890  0.33962960  0.50610655  1
  Cu  Cu96  1  0.16742842  0.49841356  0.26066626  1
  Cu  Cu97  1  -0.00486304  0.00203306  -0.00417847  1
  Cu  Cu98  1  0.83128731  0.17200097  0.75427604  1
  Cu  Cu99  1  0.83513119  0.50161220  0.74972012  1
  Cu  Cu100  1  0.67128414  0.66384583  0.50347704  1
  Cu  Cu101  1  0.33653777  0.33513933  0.00023260  1
  Cu  Cu102  1  0.16668839  0.49814911  0.74328091  1
  Cu  Cu103  1  0.17137828  0.17552722  0.25113830  1
  Cu  Cu104  1  0.50017089  0.17044869  0.75274588  1
  Cu  Cu105  1  0.83433553  0.84196189  0.74684805  1
  Cu  Cu106  1  0.82855453  0.83301495  0.25152930  1
  Cu  Cu107  1  0.67185985  0.33160858  -0.00280430  1
  Cu  Cu108  1  0.50342487  0.49062678  0.75155557  1
  Cu  Cu109  1  0.49740969  0.84294309  0.25095069  1
  Cu  Cu110  1  0.17000539  0.82777396  0.26037031  1
  Cu  Cu111  1  0.48876403  0.50567022  0.25320694  1
  Cu  Cu112  1  0.33905201  0.00633407  -0.00790317  1
  Cu  Cu113  1  0.00156074  0.33562004  0.50246302  1
  Cu  Cu114  1  -0.00301826  0.66366222  0.50763081  1
  Se  Se115  1  0.08231972  0.07464217  0.05653324  1
  Se  Se116  1  0.08256953  0.08731903  0.54980454  1
  Se  Se117  1  0.08124382  0.40583883  0.05460702  1
  Se  Se118  1  0.08437585  0.41947760  0.55579249  1
  Se  Se119  1  0.07492786  0.72894939  0.05442689  1
  Se  Se120  1  0.08160630  0.74873096  0.55727085  1
  Se  Se121  1  0.41793112  0.08981353  0.04697225  1
  Se  Se122  1  0.41694684  0.07934581  0.56601391  1
  Se  Se123  1  0.41782669  0.41879538  0.05527856  1
  Se  Se124  1  0.41712537  0.41962836  0.55532138  1
  Se  Se125  1  0.40642919  0.74698342  0.05739555  1
  Se  Se126  1  0.40995630  0.74443105  0.56519358  1
  Se  Se127  1  0.75388787  0.08291692  0.04774926  1
  Se  Se128  1  0.74903558  0.08118204  0.56312366  1
  Se  Se129  1  0.75504732  0.41776166  0.04946881  1
  Se  Se130  1  0.75189180  0.41767402  0.55687445  1
  Se  Se131  1  0.74435245  0.74138783  0.06027980  1
  Se  Se132  1  0.75104714  0.75264872  0.55303714  1
  Se  Se133  1  0.25140080  0.25711452  0.05897479  1
  Se  Se134  1  0.24629043  0.24981786  0.55414210  1
  Se  Se135  1  0.25461710  0.58507649  0.05998151  1
  Se  Se136  1  0.24678045  0.57951356  0.55577476  1
  Se  Se137  1  0.26079130  0.92694213  0.05397441  1
  Se  Se138  1  0.25081095  0.91239658  0.55718991  1
  Se  Se139  1  0.58661925  0.25241781  0.05308003  1
  Se  Se140  1  0.58443115  0.25342341  0.56337048  1
  Se  Se141  1  0.57950937  0.58277197  0.04913342  1
  Se  Se142  1  0.58160367  0.58265162  0.55114862  1
  Se  Se143  1  0.58919777  0.92014719  0.05109623  1
  Se  Se144  1  0.58572488  0.92278804  0.55928184  1
  Se  Se145  1  0.91668435  0.24748844  0.04604875  1
  Se  Se146  1  0.92205020  0.25558005  0.56381279  1
  Se  Se147  1  0.92545221  0.57927431  0.04405674  1
  Se  Se148  1  0.91171129  0.57733494  0.55574135  1
  Se  Se149  1  0.92364709  0.91804696  0.06003996  1
  Se  Se150  1  0.90748481  0.91530118  0.55479484  1
  Se  Se151  1  0.08242293  0.25148208  0.44702228  1
  Se  Se152  1  0.07112066  0.26469368  0.94051254  1
  Se  Se153  1  0.08111234  0.58111017  0.45273214  1
  Se  Se154  1  0.08280942  0.59062803  0.93089426  1
  Se  Se155  1  0.09581145  0.90529330  0.45931981  1
  Se  Se156  1  0.07790284  0.91853584  0.94109236  1
  Se  Se157  1  0.40693862  0.26214942  0.44146873  1
  Se  Se158  1  0.41885010  0.24836041  0.94865642  1
  Se  Se159  1  0.41587231  0.58264079  0.44968277  1
  Se  Se160  1  0.41861135  0.57704493  0.94738319  1
  Se  Se161  1  0.41281541  0.92731103  0.44379504  1
  Se  Se162  1  0.40960491  0.92271705  0.92935046  1
  Se  Se163  1  0.74306475  0.25543226  0.44492757  1
  Se  Se164  1  0.75433894  0.25176666  0.94127025  1
  Se  Se165  1  0.75298155  0.57867474  0.44908147  1
  Se  Se166  1  0.75264014  0.58352732  0.94745969  1
  Se  Se167  1  0.75387933  0.91157012  0.44884335  1
  Se  Se168  1  0.74224351  0.93007580  0.94377197  1
  Se  Se169  1  0.25336941  0.09004443  0.45643962  1
  Se  Se170  1  0.25257752  0.07833251  0.93231374  1
  Se  Se171  1  0.24412783  0.42058451  0.44859242  1
  Se  Se172  1  0.25571537  0.40695243  0.93586634  1
  Se  Se173  1  0.25015581  0.75167521  0.45203590  1
  Se  Se174  1  0.25916147  0.74774468  0.93557169  1
  Se  Se175  1  0.59738150  0.07996244  0.44239548  1
  Se  Se176  1  0.57781786  0.08146014  0.94259078  1
  Se  Se177  1  0.57920785  0.41871123  0.45401995  1
  Se  Se178  1  0.58414643  0.41662745  0.94878080  1
  Se  Se179  1  0.59172551  0.74029297  0.43734301  1
  Se  Se180  1  0.59206373  0.74472091  0.93324944  1
  Se  Se181  1  0.93279869  0.07022454  0.44247128  1
  Se  Se182  1  0.91590880  0.08791634  0.94445932  1
  Se  Se183  1  0.91359245  0.41449739  0.44833092  1
  Se  Se184  1  0.90921890  0.43363888  0.94077488  1
  Se  Se185  1  0.91347400  0.74644318  0.45285140  1
  Se  Se186  1  0.92908878  0.74409773  0.94020656  1
  Se  Se187  1  0.25338341  0.25502414  0.30735042  1
  Se  Se188  1  0.24927188  0.24954342  0.80007761  1
  Se  Se189  1  0.24945647  0.58624265  0.31001206  1
  Se  Se190  1  0.25256961  0.57896918  0.79817662  1
  Se  Se191  1  0.24091325  0.91972836  0.31757929  1
  Se  Se192  1  0.24703651  0.91430381  0.79584331  1
  Se  Se193  1  0.57824273  0.24274206  0.31350238  1
  Se  Se194  1  0.58463230  0.25115797  0.80779313  1
  Se  Se195  1  0.57819232  0.57914768  0.31132932  1
  Se  Se196  1  0.58191866  0.57203952  0.81407714  1
  Se  Se197  1  0.58698003  0.92249680  0.29962204  1
  Se  Se198  1  0.56210493  0.90235356  0.79943228  1
  Se  Se199  1  0.90322119  0.23466670  0.30365920  1
  Se  Se200  1  0.91892430  0.25482359  0.80370852  1
  Se  Se201  1  0.91095293  0.57019389  0.30630539  1
  Se  Se202  1  0.91847953  0.59062348  0.79679332  1
  Se  Se203  1  0.91334889  0.90049476  0.31565516  1
  Se  Se204  1  0.91836058  0.92527792  0.80085510  1
  Se  Se205  1  0.09678200  0.09015170  0.31231380  1
  Se  Se206  1  0.07897892  0.08372167  0.80074567  1
  Se  Se207  1  0.07903084  0.41373267  0.30714420  1
  Se  Se208  1  0.08088593  0.41722688  0.79706595  1
  Se  Se209  1  0.08337486  0.74863037  0.31556185  1
  Se  Se210  1  0.08122409  0.75134659  0.79641870  1
  Se  Se211  1  0.42442222  0.09498578  0.30843254  1
  Se  Se212  1  0.40849835  0.08523848  0.79793928  1
  Se  Se213  1  0.41273411  0.41838306  0.30795540  1
  Se  Se214  1  0.41810605  0.41059486  0.80688349  1
  Se  Se215  1  0.41568801  0.75813146  0.30279271  1
  Se  Se216  1  0.41253564  0.73129679  0.79343257  1
  Se  Se217  1  0.76305937  0.07776641  0.29911861  1
  Se  Se218  1  0.74775876  0.08556383  0.80526580  1
  Se  Se219  1  0.74764299  0.41523379  0.30798027  1
  Se  Se220  1  0.75101698  0.41697835  0.80115706  1
  Se  Se221  1  0.75385204  0.74774611  0.31135556  1
  Se  Se222  1  0.75965810  0.76043475  0.81217598  1
  Se  Se223  1  0.24479292  0.09231141  0.18798534  1
  Se  Se224  1  0.24722030  0.08135872  0.69189989  1
  Se  Se225  1  0.25127787  0.41751591  0.20350204  1
  Se  Se226  1  0.25167176  0.41219784  0.69429558  1
  Se  Se227  1  0.25289040  0.74743160  0.20488724  1
  Se  Se228  1  0.24889771  0.74446731  0.69563923  1
  Se  Se229  1  0.58181535  0.09272716  0.19506456  1
  Se  Se230  1  0.58553216  0.08498063  0.70265067  1
  Se  Se231  1  0.57266462  0.42861550  0.19209018  1
  Se  Se232  1  0.59136027  0.41270608  0.69825410  1
  Se  Se233  1  0.57135833  0.76081123  0.18572855  1
  Se  Se234  1  0.58036130  0.75315351  0.68858895  1
  Se  Se235  1  0.92106326  0.08464151  0.18408821  1
  Se  Se236  1  0.91414429  0.09048679  0.69767158  1
  Se  Se237  1  0.91744575  0.40740318  0.19321966  1
  Se  Se238  1  0.91848667  0.41654009  0.69736157  1
  Se  Se239  1  0.90457562  0.75264311  0.18886864  1
  Se  Se240  1  0.91607239  0.75538609  0.69528100  1
  Se  Se241  1  0.08186108  0.25173970  0.19817310  1
  Se  Se242  1  0.08190249  0.25220067  0.69694584  1
  Se  Se243  1  0.09075499  0.56883132  0.18909996  1
  Se  Se244  1  0.08042799  0.58419731  0.69546914  1
  Se  Se245  1  0.08578031  0.90669685  0.20218095  1
  Se  Se246  1  0.08006164  0.92186702  0.69044213  1
  Se  Se247  1  0.41418193  0.25981045  0.19871693  1
  Se  Se248  1  0.41582628  0.25275504  0.69865928  1
  Se  Se249  1  0.40890556  0.59051123  0.19849028  1
  Se  Se250  1  0.41946109  0.57418254  0.69866059  1
  Se  Se251  1  0.42361714  0.92134399  0.18394756  1
  Se  Se252  1  0.42248461  0.90915174  0.70395979  1
  Se  Se253  1  0.75650959  0.24101791  0.18535725  1
  Se  Se254  1  0.74638452  0.25537262  0.70213803  1
  Se  Se255  1  0.75205137  0.57088078  0.18974073  1
  Se  Se256  1  0.75370421  0.58230359  0.68885746  1
  Se  Se257  1  0.74857350  0.92022063  0.20088183  1
  Se  Se258  1  0.74312136  0.92409808  0.70094701  1
