# generated using pymatgen
data_In86Cu29Se144
_symmetry_space_group_name_H-M   'P 1'
_cell_length_a   17.67135583
_cell_length_b   17.67310495
_cell_length_c   23.52770788
_cell_angle_alpha   89.99241986
_cell_angle_beta   89.99993454
_cell_angle_gamma   89.99646074
_symmetry_Int_Tables_number   1
_chemical_formula_structural   In86Cu29Se144
_chemical_formula_sum   'In86 Cu29 Se144'
_cell_volume   7347.88487505
_cell_formula_units_Z   1
loop_
 _symmetry_equiv_pos_site_id
 _symmetry_equiv_pos_as_xyz
  1  'x, y, z'
loop_
 _atom_site_type_symbol
 _atom_site_label
 _atom_site_symmetry_multiplicity
 _atom_site_fract_x
 _atom_site_fract_y
 _atom_site_fract_z
 _atom_site_occupancy
  In  In0  1  0.01065447  0.15455222  0.13096224  1
  In  In1  1  0.00074610  0.15607528  0.61118617  1
  In  In2  1  -0.00407407  0.49771563  0.11624354  1
  In  In3  1  0.01026816  0.50480339  0.62247322  1
  In  In4  1  0.01092671  0.83417525  0.12675586  1
  In  In5  1  -0.00599944  0.82655598  0.62527105  1
  In  In6  1  0.32797873  0.16819608  0.13651110  1
  In  In7  1  0.32678521  0.15343362  0.61439942  1
  In  In8  1  0.33065327  0.50798514  0.13267535  1
  In  In9  1  0.33537159  0.50132622  0.61717216  1
  In  In10  1  0.33251138  0.82118719  0.13517627  1
  In  In11  1  0.33958965  0.83479834  0.61557317  1
  In  In12  1  0.65810655  0.16424135  0.13157453  1
  In  In13  1  0.66249290  0.15948997  0.61323947  1
  In  In14  1  0.67394201  0.49984717  0.12805480  1
  In  In15  1  0.69013646  0.53571200  0.59410226  1
  In  In16  1  0.65941635  0.84673237  0.13881963  1
  In  In17  1  0.68072805  0.83986597  0.60895036  1
  In  In18  1  0.16869757  -0.00094210  0.37859901  1
  In  In19  1  0.16391317  0.00683800  0.87421637  1
  In  In20  1  0.17995826  0.32295042  0.37246765  1
  In  In21  1  0.16851701  0.32888761  0.88452876  1
  In  In22  1  0.17246926  0.66763646  0.37948123  1
  In  In23  1  0.14961895  0.67308232  0.87480032  1
  In  In24  1  0.49328387  0.00273674  0.36227091  1
  In  In25  1  0.49014528  0.00703825  0.89472264  1
  In  In26  1  0.49420731  0.33726722  0.36969889  1
  In  In27  1  0.48717098  0.33249972  0.87739180  1
  In  In28  1  0.49892907  0.66935829  0.37514555  1
  In  In29  1  0.51181010  0.67791544  0.87836430  1
  In  In30  1  0.83208952  0.00342940  0.38126073  1
  In  In31  1  0.83578116  -0.01000575  0.87216934  1
  In  In32  1  0.83021698  0.33585246  0.38268684  1
  In  In33  1  0.84856932  0.33705614  0.87544028  1
  In  In34  1  0.81436903  0.68163225  0.39194374  1
  In  In35  1  0.83302218  0.66685356  0.87271392  1
  In  In36  1  0.01437608  0.14046234  0.39472372  1
  In  In37  1  0.01080147  0.16913557  0.87232624  1
  In  In38  1  -0.00362281  0.50417199  0.38443414  1
  In  In39  1  -0.01188977  0.51455991  0.88854884  1
  In  In40  1  -0.00785461  0.85244442  0.39428506  1
  In  In41  1  -0.00407689  0.83459949  0.86402635  1
  In  In42  1  0.33379413  0.16485249  0.36504044  1
  In  In43  1  0.32791281  0.16798074  0.88570941  1
  In  In44  1  0.33031471  0.50407489  0.37258343  1
  In  In45  1  0.33289123  0.48652408  0.87628696  1
  In  In46  1  0.33467615  0.83032758  0.37560887  1
  In  In47  1  0.33724781  0.84668060  0.88140546  1
  In  In48  1  0.66706850  0.16587201  0.37275725  1
  In  In49  1  0.66397792  0.15503129  0.87896369  1
  In  In50  1  0.65131658  0.51858501  0.38785823  1
  In  In51  1  0.67836912  0.51273757  0.87507570  1
  In  In52  1  0.65809906  0.82919812  0.37460340  1
  In  In53  1  0.65876689  0.82484701  0.88046074  1
  In  In54  1  0.17185306  0.00397921  0.13752057  1
  In  In55  1  0.12519011  -0.03174201  0.57273509  1
  In  In56  1  0.17415056  0.33550887  0.12509509  1
  In  In57  1  0.17202115  0.33223830  0.61564670  1
  In  In58  1  0.17263504  0.66353701  0.12255872  1
  In  In59  1  0.16001488  0.65461742  0.62218050  1
  In  In60  1  0.49822761  0.00864431  0.13918603  1
  In  In61  1  0.50006035  -0.00286151  0.61200412  1
  In  In62  1  0.49060428  0.30004060  0.13317943  1
  In  In63  1  0.50175164  0.33572345  0.61809640  1
  In  In64  1  0.49929447  0.67526284  0.13146372  1
  In  In65  1  0.52013765  0.67994059  0.60151100  1
  In  In66  1  0.83516374  -0.00312076  0.13983024  1
  In  In67  1  0.85601658  0.01101794  0.59597940  1
  In  In68  1  0.82622978  0.34616613  0.12200091  1
  In  In69  1  0.83738145  0.33162658  0.61465600  1
  In  In70  1  0.83010523  0.65522881  0.12617666  1
  In  In71  1  0.85050441  0.68482417  0.61402457  1
  In  In72  1  0.66309503  0.33280287  0.25326444  1
  In  In73  1  0.82918913  0.82986691  -0.00025612  1
  In  In74  1  0.00311686  0.32544035  0.25216812  1
  In  In75  1  0.67032831  0.67173681  0.74525096  1
  In  In76  1  0.17160554  0.83276368  0.00742968  1
  In  In77  1  -0.00257725  0.67593808  0.25544884  1
  In  In78  1  0.83414374  0.17317503  0.00015075  1
  In  In79  1  0.66188836  0.33449986  0.74065735  1
  In  In80  1  0.00494878  0.33460928  0.75152833  1
  In  In81  1  0.32758780  0.00367972  0.75297308  1
  In  In82  1  0.32989477  0.32917126  0.75112103  1
  In  In83  1  0.66402467  -0.00864225  0.74808104  1
  In  In84  1  0.49608850  0.49822187  0.00469979  1
  In  In85  1  0.33080027  0.66368807  0.74432981  1
  Cu  Cu86  1  0.33246961  0.66214030  0.00503119  1
  Cu  Cu87  1  0.50328494  0.50413603  0.25051045  1
  Cu  Cu88  1  0.66589415  0.34251108  0.00373767  1
  Cu  Cu89  1  0.49783328  0.16974301  0.74940063  1
  Cu  Cu90  1  0.65671174  0.00184429  0.01102878  1
  Cu  Cu91  1  0.00376237  0.33286674  0.49801163  1
  Cu  Cu92  1  0.83790821  0.15668462  0.73504461  1
  Cu  Cu93  1  0.00546062  0.33264640  -0.00128335  1
  Cu  Cu94  1  0.16066065  0.50042839  0.75167362  1
  Cu  Cu95  1  0.33296616  0.32581542  0.00776336  1
  Cu  Cu96  1  0.84008053  0.84146620  0.74082658  1
  Cu  Cu97  1  0.16010576  0.83740980  0.25530493  1
  Cu  Cu98  1  0.65896785  -0.00142477  0.48702169  1
  Cu  Cu99  1  0.00828585  0.66466011  0.50053571  1
  Cu  Cu100  1  0.15540314  0.83771833  0.73826684  1
  Cu  Cu101  1  0.33699029  0.33061056  0.48931832  1
  Cu  Cu102  1  0.66127839  0.32740055  0.49755760  1
  Cu  Cu103  1  0.50040381  0.82712399  0.25533732  1
  Cu  Cu104  1  0.50461918  0.50597843  0.73587354  1
  Cu  Cu105  1  0.16319583  0.50534415  0.25259972  1
  Cu  Cu106  1  0.34363039  0.00484531  0.48714325  1
  Cu  Cu107  1  0.00575566  0.00120768  0.00422347  1
  Cu  Cu108  1  0.33073226  0.66777383  0.49665192  1
  Cu  Cu109  1  0.50119354  0.83437669  0.75100524  1
  Cu  Cu110  1  0.82815820  0.50767579  0.25480241  1
  Cu  Cu111  1  0.83820191  0.50193427  0.75197659  1
  Cu  Cu112  1  0.83846340  0.16360714  0.25650163  1
  Cu  Cu113  1  0.15694433  0.15554811  0.74614302  1
  Cu  Cu114  1  0.83567441  0.83398033  0.26403920  1
  Se  Se115  1  0.09137313  0.07729951  0.05924736  1
  Se  Se116  1  0.11564276  0.11138498  0.55335537  1
  Se  Se117  1  0.08579322  0.41311746  0.05624047  1
  Se  Se118  1  0.08490697  0.41654296  0.55359918  1
  Se  Se119  1  0.07428691  0.73813507  0.05567810  1
  Se  Se120  1  0.08542404  0.74829661  0.55799020  1
  Se  Se121  1  0.43530466  0.11074448  0.07450553  1
  Se  Se122  1  0.42311024  0.08690999  0.54731643  1
  Se  Se123  1  0.41362450  0.40661137  0.06724717  1
  Se  Se124  1  0.41145111  0.41136237  0.55208619  1
  Se  Se125  1  0.41109906  0.74568844  0.05937957  1
  Se  Se126  1  0.41775845  0.75314369  0.54553853  1
  Se  Se127  1  0.75282304  0.07805867  0.06230596  1
  Se  Se128  1  0.74272003  0.07732561  0.54513066  1
  Se  Se129  1  0.75159158  0.42772865  0.04967944  1
  Se  Se130  1  0.74372719  0.40916737  0.55369776  1
  Se  Se131  1  0.74341817  0.75416508  0.06919877  1
  Se  Se132  1  0.72264892  0.71254632  0.56418145  1
  Se  Se133  1  0.24813624  0.24259961  0.05848369  1
  Se  Se134  1  0.25768195  0.25213044  0.55049487  1
  Se  Se135  1  0.25002241  0.57717816  0.05419421  1
  Se  Se136  1  0.24993991  0.58351464  0.55259463  1
  Se  Se137  1  0.25921175  0.92033773  0.06682838  1
  Se  Se138  1  0.26701582  0.93181221  0.55387086  1
  Se  Se139  1  0.59196994  0.25586732  0.05990354  1
  Se  Se140  1  0.57730371  0.24584083  0.55156288  1
  Se  Se141  1  0.58498021  0.58715074  0.06257397  1
  Se  Se142  1  0.55902329  0.55746024  0.55085830  1
  Se  Se143  1  0.57663569  0.92213982  0.06699619  1
  Se  Se144  1  0.58407085  0.91377205  0.54690526  1
  Se  Se145  1  0.92566540  0.25616145  0.06490438  1
  Se  Se146  1  0.91964075  0.24791899  0.54925014  1
  Se  Se147  1  0.91524864  0.58699125  0.05458829  1
  Se  Se148  1  0.92263134  0.58316625  0.55498482  1
  Se  Se149  1  0.92062076  0.92258768  0.05992594  1
  Se  Se150  1  0.89023233  0.88036777  0.55620576  1
  Se  Se151  1  0.08605144  0.25357047  0.44158195  1
  Se  Se152  1  0.08467193  0.24280188  0.94916234  1
  Se  Se153  1  0.08967635  0.58214476  0.44672613  1
  Se  Se154  1  0.09830612  0.57425287  0.94401019  1
  Se  Se155  1  0.08799886  0.92567812  0.45790165  1
  Se  Se156  1  0.07730735  0.91623505  0.94189272  1
  Se  Se157  1  0.41700914  0.24664767  0.43539231  1
  Se  Se158  1  0.41766446  0.24901546  0.94959885  1
  Se  Se159  1  0.41283767  0.58534491  0.44257878  1
  Se  Se160  1  0.41137310  0.58866116  0.93736719  1
  Se  Se161  1  0.42332410  0.91683909  0.43761059  1
  Se  Se162  1  0.42324443  0.90762159  0.95547412  1
  Se  Se163  1  0.74642315  0.24677466  0.44462719  1
  Se  Se164  1  0.74157946  0.26221120  0.93765771  1
  Se  Se165  1  0.76622432  0.56454868  0.44581685  1
  Se  Se166  1  0.73579815  0.61006628  0.94213354  1
  Se  Se167  1  0.74577847  0.91217784  0.44194941  1
  Se  Se168  1  0.73699758  0.92879870  0.94468115  1
  Se  Se169  1  0.25539469  0.08756119  0.44010623  1
  Se  Se170  1  0.26317664  0.06169609  0.94151982  1
  Se  Se171  1  0.25062307  0.41577788  0.44074140  1
  Se  Se172  1  0.25598117  0.41032401  0.94961341  1
  Se  Se173  1  0.24816808  0.75560051  0.44837107  1
  Se  Se174  1  0.25708881  0.74283065  0.94010307  1
  Se  Se175  1  0.57700525  0.08200164  0.43443758  1
  Se  Se176  1  0.58182973  0.09062315  0.95489728  1
  Se  Se177  1  0.58187794  0.40991733  0.44126865  1
  Se  Se178  1  0.58860872  0.41587795  0.93642535  1
  Se  Se179  1  0.59134046  0.73683426  0.44478165  1
  Se  Se180  1  0.57927651  0.75540767  0.95431898  1
  Se  Se181  1  0.91476538  0.07465235  0.45688955  1
  Se  Se182  1  0.92230326  0.07644815  0.94170617  1
  Se  Se183  1  0.91647606  0.41611950  0.44966272  1
  Se  Se184  1  0.91607715  0.41576594  0.95170080  1
  Se  Se185  1  0.92179020  0.74614136  0.45001929  1
  Se  Se186  1  0.92536272  0.74805692  0.94024013  1
  Se  Se187  1  0.26833990  0.26369559  0.29627212  1
  Se  Se188  1  0.23749177  0.23644280  0.80671011  1
  Se  Se189  1  0.24633642  0.58891249  0.30424344  1
  Se  Se190  1  0.24699420  0.57605719  0.81058920  1
  Se  Se191  1  0.24721648  0.91210333  0.30990449  1
  Se  Se192  1  0.23802013  0.90384345  0.80582211  1
  Se  Se193  1  0.56987265  0.23881457  0.30261298  1
  Se  Se194  1  0.57829188  0.24625908  0.81001958  1
  Se  Se195  1  0.58470036  0.58670431  0.30486785  1
  Se  Se196  1  0.57689861  0.57997803  0.80403751  1
  Se  Se197  1  0.58375408  0.91473902  0.30292251  1
  Se  Se198  1  0.57147331  0.91622199  0.81565507  1
  Se  Se199  1  0.91399967  0.24457153  0.31725747  1
  Se  Se200  1  0.90801016  0.23741364  0.80223599  1
  Se  Se201  1  0.90870587  0.58556173  0.31444261  1
  Se  Se202  1  0.91794923  0.58480625  0.80652222  1
  Se  Se203  1  0.91783701  0.91912537  0.31360834  1
  Se  Se204  1  0.91992896  0.92509813  0.79720903  1
  Se  Se205  1  0.08256797  0.07908630  0.31066045  1
  Se  Se206  1  0.07530527  0.07578569  0.80177440  1
  Se  Se207  1  0.08433871  0.42344645  0.31205152  1
  Se  Se208  1  0.08826808  0.42089903  0.81699899  1
  Se  Se209  1  0.08088125  0.76387041  0.32033725  1
  Se  Se210  1  0.08163971  0.75310643  0.79763709  1
  Se  Se211  1  0.39159652  0.06461866  0.29398838  1
  Se  Se212  1  0.42266760  0.09194018  0.81252730  1
  Se  Se213  1  0.41673220  0.42538993  0.30283841  1
  Se  Se214  1  0.42866329  0.42660513  0.79874619  1
  Se  Se215  1  0.41247780  0.74466826  0.30438780  1
  Se  Se216  1  0.41833035  0.75581786  0.80805304  1
  Se  Se217  1  0.75222176  0.08242055  0.30714008  1
  Se  Se218  1  0.75693883  0.08885691  0.80368671  1
  Se  Se219  1  0.74884900  0.42532897  0.31303259  1
  Se  Se220  1  0.75663983  0.41833380  0.80581053  1
  Se  Se221  1  0.74882577  0.74717469  0.30740912  1
  Se  Se222  1  0.75674968  0.76862334  0.80413694  1
  Se  Se223  1  0.27166572  0.06508452  0.20609040  1
  Se  Se224  1  0.23987264  0.08153567  0.68692955  1
  Se  Se225  1  0.24396327  0.42386790  0.19675718  1
  Se  Se226  1  0.24383165  0.42420197  0.69297179  1
  Se  Se227  1  0.23526359  0.74792773  0.19925029  1
  Se  Se228  1  0.24539695  0.75825318  0.68590092  1
  Se  Se229  1  0.59671168  0.07775692  0.20473641  1
  Se  Se230  1  0.57419763  0.08630828  0.69125301  1
  Se  Se231  1  0.57320996  0.41703903  0.18718450  1
  Se  Se232  1  0.58758848  0.43051567  0.67871062  1
  Se  Se233  1  0.58744921  0.74773693  0.20151282  1
  Se  Se234  1  0.58191296  0.76416794  0.68671719  1
  Se  Se235  1  0.92203848  0.08357000  0.20083384  1
  Se  Se236  1  0.92095583  0.07619645  0.68287604  1
  Se  Se237  1  0.90976223  0.42461956  0.19663979  1
  Se  Se238  1  0.91180013  0.41933755  0.69047555  1
  Se  Se239  1  0.90761680  0.76128855  0.19152819  1
  Se  Se240  1  0.91852154  0.74360440  0.70015432  1
  Se  Se241  1  0.09916590  0.23980261  0.19638086  1
  Se  Se242  1  0.08862449  0.24686509  0.68778935  1
  Se  Se243  1  0.07869758  0.57936920  0.19211461  1
  Se  Se244  1  0.07961913  0.58503021  0.69966034  1
  Se  Se245  1  0.08057740  0.91873810  0.19849786  1
  Se  Se246  1  0.08825372  0.92049306  0.67533316  1
  Se  Se247  1  0.38764202  0.27004442  0.20712374  1
  Se  Se248  1  0.41772787  0.24350315  0.68780799  1
  Se  Se249  1  0.41861409  0.58740043  0.19791859  1
  Se  Se250  1  0.42716954  0.59012081  0.68005448  1
  Se  Se251  1  0.42057789  0.90622339  0.19676712  1
  Se  Se252  1  0.42347184  0.91643217  0.69250701  1
  Se  Se253  1  0.76332356  0.24770851  0.19381102  1
  Se  Se254  1  0.75410220  0.23990210  0.68496072  1
  Se  Se255  1  0.74441107  0.58683105  0.20032776  1
  Se  Se256  1  0.75888298  0.57809823  0.68987408  1
  Se  Se257  1  0.75284466  0.91673028  0.20742253  1
  Se  Se258  1  0.75985630  0.92128683  0.68202626  1
