# generated using pymatgen
data_In86Cu29Se144
_symmetry_space_group_name_H-M   'P 1'
_cell_length_a   17.57400201
_cell_length_b   17.57449828
_cell_length_c   23.42704122
_cell_angle_alpha   89.99250312
_cell_angle_beta   90.02345304
_cell_angle_gamma   89.95839435
_symmetry_Int_Tables_number   1
_chemical_formula_structural   In86Cu29Se144
_chemical_formula_sum   'In86 Cu29 Se144'
_cell_volume   7235.53909159
_cell_formula_units_Z   1
loop_
 _symmetry_equiv_pos_site_id
 _symmetry_equiv_pos_as_xyz
  1  'x, y, z'
loop_
 _atom_site_type_symbol
 _atom_site_label
 _atom_site_symmetry_multiplicity
 _atom_site_fract_x
 _atom_site_fract_y
 _atom_site_fract_z
 _atom_site_occupancy
  In  In0  1  0.01448420  0.16855069  0.13372452  1
  In  In1  1  -0.01305099  0.16748714  0.61679912  1
  In  In2  1  0.00288882  0.50131829  0.12651136  1
  In  In3  1  0.01194063  0.50263143  0.62140627  1
  In  In4  1  -0.01192090  0.83422657  0.12413893  1
  In  In5  1  -0.00252805  0.83544422  0.63202947  1
  In  In6  1  0.33214020  0.16987491  0.12304121  1
  In  In7  1  0.34404624  0.16650577  0.62269493  1
  In  In8  1  0.33607543  0.49579412  0.12327831  1
  In  In9  1  0.33943560  0.50672300  0.61534060  1
  In  In10  1  0.32802280  0.83719531  0.13316048  1
  In  In11  1  0.32461844  0.81777328  0.62179211  1
  In  In12  1  0.65588703  0.18495627  0.14357989  1
  In  In13  1  0.66413563  0.14880413  0.62649066  1
  In  In14  1  0.65571511  0.49086521  0.11939333  1
  In  In15  1  0.67015654  0.51262759  0.62632394  1
  In  In16  1  0.67834119  0.83381112  0.12240464  1
  In  In17  1  0.66130066  0.83723390  0.62757273  1
  In  In18  1  0.17370115  -0.00898780  0.37280112  1
  In  In19  1  0.16069343  0.01273280  0.87605864  1
  In  In20  1  0.18005281  0.34371475  0.35676283  1
  In  In21  1  0.16793603  0.33754672  0.89352972  1
  In  In22  1  0.15688368  0.65422938  0.36861079  1
  In  In23  1  0.16008315  0.66021364  0.87096347  1
  In  In24  1  0.49548278  -0.00874188  0.36866236  1
  In  In25  1  0.50422463  0.00204369  0.87823819  1
  In  In26  1  0.49909535  0.33555749  0.36918800  1
  In  In27  1  0.48320371  0.34103649  0.89924116  1
  In  In28  1  0.49111773  0.67642637  0.38141572  1
  In  In29  1  0.49553953  0.66409360  0.86724707  1
  In  In30  1  0.84163863  0.03147687  0.37086634  1
  In  In31  1  0.82366270  -0.01006444  0.87016474  1
  In  In32  1  0.82910809  0.32022177  0.35726033  1
  In  In33  1  0.84753748  0.33786353  0.88319538  1
  In  In34  1  0.84187041  0.65997155  0.37653196  1
  In  In35  1  0.83478871  0.66858926  0.87594265  1
  In  In36  1  -0.01085088  0.16567772  0.36726026  1
  In  In37  1  0.00938167  0.16947468  0.87594147  1
  In  In38  1  0.01093276  0.51064353  0.36679172  1
  In  In39  1  -0.00279737  0.50409050  0.88402809  1
  In  In40  1  0.01040558  0.83019575  0.37602228  1
  In  In41  1  -0.01224439  0.82312425  0.86840627  1
  In  In42  1  0.32373039  0.16286041  0.35677537  1
  In  In43  1  0.32421592  0.17244329  0.90763274  1
  In  In44  1  0.33212055  0.50068584  0.37080080  1
  In  In45  1  0.32595672  0.50695453  0.88769556  1
  In  In46  1  0.34355202  0.83876813  0.36665462  1
  In  In47  1  0.34502765  0.82771574  0.87397517  1
  In  In48  1  0.67781557  0.17228543  0.36153372  1
  In  In49  1  0.66463827  0.15340175  0.87559079  1
  In  In50  1  0.66224246  0.48277217  0.37358630  1
  In  In51  1  0.65724928  0.51197028  0.88053815  1
  In  In52  1  0.65196673  0.83376804  0.37820331  1
  In  In53  1  0.67026346  0.84401257  0.87030631  1
  In  In54  1  0.17476720  0.01838247  0.12146862  1
  In  In55  1  0.16699842  -0.01204488  0.62482338  1
  In  In56  1  0.16723203  0.32689961  0.12898231  1
  In  In57  1  0.15510921  0.34039288  0.61783059  1
  In  In58  1  0.18120233  0.65295917  0.13012381  1
  In  In59  1  0.17231382  0.66250750  0.62938926  1
  In  In60  1  0.48112137  0.02114976  0.13336778  1
  In  In61  1  0.51397372  0.00217253  0.62287004  1
  In  In62  1  0.49883756  0.33622869  0.12382004  1
  In  In63  1  0.48583795  0.33706085  0.62045504  1
  In  In64  1  0.49606945  0.64884315  0.12126519  1
  In  In65  1  0.49724307  0.66495627  0.62384636  1
  In  In66  1  0.83100714  -0.01119446  0.12442499  1
  In  In67  1  0.82916185  -0.00051151  0.62617307  1
  In  In68  1  0.82327401  0.33979977  0.13769568  1
  In  In69  1  0.84591440  0.33061831  0.61979156  1
  In  In70  1  0.84327559  0.67251012  0.12077158  1
  In  In71  1  0.83324141  0.66341862  0.63517967  1
  In  In72  1  0.83247785  0.16704413  0.00642295  1
  In  In73  1  0.66257683  0.66395116  0.24882494  1
  In  In74  1  0.16198257  0.83504202  0.00637414  1
  In  In75  1  0.32497948  0.33837481  0.76725014  1
  In  In76  1  0.00212008  0.33445214  0.75193257  1
  In  In77  1  0.00522820  -0.00394465  0.24950808  1
  In  In78  1  0.17001901  0.83108610  0.49814520  1
  In  In79  1  0.83241446  0.49708246  0.49940285  1
  In  In80  1  0.16584588  0.16881811  0.48417058  1
  In  In81  1  0.83205706  0.83788880  0.50348900  1
  In  In82  1  0.66432523  0.33077839  0.75730529  1
  In  In83  1  0.33730241  -0.00500484  0.75477262  1
  In  In84  1  0.50390415  0.83762708  -0.00518533  1
  In  In85  1  0.50130757  0.16651451  0.49281827  1
  Cu  Cu86  1  0.67330056  0.00268348  0.49843543  1
  Cu  Cu87  1  -0.00406196  -0.00100685  0.00293745  1
  Cu  Cu88  1  0.50009168  0.83304663  0.24959091  1
  Cu  Cu89  1  0.33032340  0.66069380  0.49719257  1
  Cu  Cu90  1  0.83420013  0.50807717  0.75720296  1
  Cu  Cu91  1  0.67803596  0.66572756  -0.00015353  1
  Cu  Cu92  1  0.83596774  0.50311339  0.24997590  1
  Cu  Cu93  1  0.00363160  0.65865960  -0.00309296  1
  Cu  Cu94  1  0.66473030  0.32619496  0.49056103  1
  Cu  Cu95  1  0.17304061  0.50276079  0.75061492  1
  Cu  Cu96  1  0.83304578  0.83155769  0.24967118  1
  Cu  Cu97  1  0.50150581  0.50721520  0.74845361  1
  Cu  Cu98  1  0.50236355  0.16929804  0.24828952  1
  Cu  Cu99  1  0.83163070  0.83460874  0.74918172  1
  Cu  Cu100  1  0.82810452  0.15684704  0.74613164  1
  Cu  Cu101  1  0.50141682  0.82855637  0.74754423  1
  Cu  Cu102  1  0.33534784  0.66594529  0.00168132  1
  Cu  Cu103  1  0.65556542  0.66282299  0.50280606  1
  Cu  Cu104  1  0.00344120  0.33778650  0.00976188  1
  Cu  Cu105  1  0.49480997  0.49514033  0.24680734  1
  Cu  Cu106  1  0.49693547  0.16563944  0.75839817  1
  Cu  Cu107  1  0.32468051  0.33788120  0.49214788  1
  Cu  Cu108  1  0.16518546  0.16090535  0.75387395  1
  Cu  Cu109  1  0.16171832  0.83003182  0.74917882  1
  Cu  Cu110  1  0.16866404  0.82803757  0.25077073  1
  Cu  Cu111  1  -0.00242299  0.34043108  0.49141092  1
  Cu  Cu112  1  0.16871225  0.50247033  0.24374307  1
  Cu  Cu113  1  0.66311925  0.00281438  0.00255278  1
  Cu  Cu114  1  0.66991969  0.33550721  0.00784780  1
  Se  Se115  1  0.07672636  0.08462787  0.05458031  1
  Se  Se116  1  0.08815658  0.08440410  0.55813645  1
  Se  Se117  1  0.09026818  0.41971604  0.05995727  1
  Se  Se118  1  0.08207873  0.42199006  0.54427136  1
  Se  Se119  1  0.07783982  0.73798893  0.06368317  1
  Se  Se120  1  0.07985867  0.74737519  0.56234083  1
  Se  Se121  1  0.41813971  0.09118984  0.05085194  1
  Se  Se122  1  0.41389370  0.07335202  0.55346569  1
  Se  Se123  1  0.43932381  0.43793108  0.05700134  1
  Se  Se124  1  0.41347740  0.41632105  0.54587431  1
  Se  Se125  1  0.41306607  0.75053164  0.05936180  1
  Se  Se126  1  0.41251821  0.74467684  0.55234982  1
  Se  Se127  1  0.73868009  0.08313846  0.06641665  1
  Se  Se128  1  0.75408047  0.08597694  0.55306744  1
  Se  Se129  1  0.75644131  0.41795830  0.05744762  1
  Se  Se130  1  0.73945361  0.40544773  0.55871311  1
  Se  Se131  1  0.75719199  0.75313583  0.05165983  1
  Se  Se132  1  0.74404678  0.73948594  0.55965381  1
  Se  Se133  1  0.24609129  0.25010634  0.05491402  1
  Se  Se134  1  0.25451451  0.25463800  0.55718474  1
  Se  Se135  1  0.25253087  0.57893339  0.05140971  1
  Se  Se136  1  0.24340597  0.58214110  0.55219070  1
  Se  Se137  1  0.26003539  0.92489758  0.05636927  1
  Se  Se138  1  0.26376336  0.92433206  0.55400990  1
  Se  Se139  1  0.58795096  0.24982886  0.05884309  1
  Se  Se140  1  0.58863789  0.25303240  0.56111013  1
  Se  Se141  1  0.58834546  0.58542974  0.04956445  1
  Se  Se142  1  0.57685254  0.57492558  0.55525654  1
  Se  Se143  1  0.58278277  0.92407880  0.06468628  1
  Se  Se144  1  0.58952297  0.91874073  0.55100002  1
  Se  Se145  1  0.92095052  0.25606502  0.06729063  1
  Se  Se146  1  0.91645200  0.25315838  0.54283922  1
  Se  Se147  1  0.91846946  0.58069378  0.05450149  1
  Se  Se148  1  0.91900821  0.59046906  0.55838755  1
  Se  Se149  1  0.91092522  0.91287630  0.04979783  1
  Se  Se150  1  0.92804645  0.92665746  0.55751502  1
  Se  Se151  1  0.07901800  0.26439669  0.42847903  1
  Se  Se152  1  0.07794853  0.25021997  0.95231900  1
  Se  Se153  1  0.07450894  0.58996189  0.44623656  1
  Se  Se154  1  0.09394499  0.57765785  0.94871093  1
  Se  Se155  1  0.07638275  0.92877328  0.44577686  1
  Se  Se156  1  0.07247724  0.91752127  0.93963107  1
  Se  Se157  1  0.40265555  0.25125332  0.43553021  1
  Se  Se158  1  0.43004725  0.23692161  0.96460223  1
  Se  Se159  1  0.41589450  0.57924609  0.44340702  1
  Se  Se160  1  0.42312424  0.58917206  0.94573169  1
  Se  Se161  1  0.42769948  0.90513420  0.44211404  1
  Se  Se162  1  0.40377049  0.92818957  0.94433043  1
  Se  Se163  1  0.75299687  0.24998694  0.43791734  1
  Se  Se164  1  0.74399476  0.25592350  0.94092837  1
  Se  Se165  1  0.73706965  0.58749724  0.44012728  1
  Se  Se166  1  0.75717564  0.57955914  0.94507073  1
  Se  Se167  1  0.75059679  0.92348332  0.43458465  1
  Se  Se168  1  0.74556567  0.91949823  0.94839484  1
  Se  Se169  1  0.26547621  0.07436578  0.43953330  1
  Se  Se170  1  0.23301616  0.07942273  0.95565729  1
  Se  Se171  1  0.24223678  0.42108969  0.43928585  1
  Se  Se172  1  0.27751598  0.39617714  0.94982786  1
  Se  Se173  1  0.25519653  0.74269487  0.43381964  1
  Se  Se174  1  0.25361131  0.74699627  0.94260574  1
  Se  Se175  1  0.59388529  0.07992967  0.43421738  1
  Se  Se176  1  0.57983211  0.08611198  0.95062335  1
  Se  Se177  1  0.57666477  0.41171374  0.44657146  1
  Se  Se178  1  0.58945998  0.41785994  0.94973206  1
  Se  Se179  1  0.57804693  0.75256689  0.45167365  1
  Se  Se180  1  0.59333953  0.74331238  0.93844384  1
  Se  Se181  1  0.92766103  0.08659623  0.44820158  1
  Se  Se182  1  0.91675531  0.07925005  0.93949702  1
  Se  Se183  1  0.91394320  0.41484404  0.42882784  1
  Se  Se184  1  0.91953521  0.42013727  0.95565074  1
  Se  Se185  1  0.92399444  0.74534352  0.44637084  1
  Se  Se186  1  0.91980507  0.74702797  0.94812020  1
  Se  Se187  1  0.24637712  0.24769822  0.28994430  1
  Se  Se188  1  0.23950441  0.23722761  0.81952659  1
  Se  Se189  1  0.25082560  0.58468683  0.30085309  1
  Se  Se190  1  0.25583951  0.58248940  0.80760764  1
  Se  Se191  1  0.25274540  0.91543611  0.29899486  1
  Se  Se192  1  0.24041949  0.90804641  0.81329411  1
  Se  Se193  1  0.58414283  0.25470087  0.30140777  1
  Se  Se194  1  0.56939079  0.25066800  0.82047822  1
  Se  Se195  1  0.57356180  0.57568214  0.31046553  1
  Se  Se196  1  0.58821660  0.58770313  0.80062203  1
  Se  Se197  1  0.58654706  0.91481223  0.30026959  1
  Se  Se198  1  0.57501479  0.91758326  0.80418145  1
  Se  Se199  1  0.92470524  0.25019455  0.29159473  1
  Se  Se200  1  0.90560944  0.24041836  0.80650342  1
  Se  Se201  1  0.91885017  0.58945144  0.29975966  1
  Se  Se202  1  0.92380390  0.58500759  0.80929739  1
  Se  Se203  1  0.91115235  0.91123816  0.31323126  1
  Se  Se204  1  0.91634458  0.91874735  0.80198561  1
  Se  Se205  1  0.09466570  0.08672190  0.30843979  1
  Se  Se206  1  0.07435789  0.08056399  0.80118558  1
  Se  Se207  1  0.08200343  0.42155235  0.29676248  1
  Se  Se208  1  0.09481481  0.42020121  0.81234912  1
  Se  Se209  1  0.08052373  0.74832749  0.30157929  1
  Se  Se210  1  0.07995663  0.74539356  0.80337169  1
  Se  Se211  1  0.42149397  0.08198658  0.30029329  1
  Se  Se212  1  0.40875248  0.09487045  0.81919794  1
  Se  Se213  1  0.41056648  0.41283429  0.30130092  1
  Se  Se214  1  0.42697593  0.42767430  0.81386003  1
  Se  Se215  1  0.41851970  0.74494332  0.29984994  1
  Se  Se216  1  0.41347205  0.74734893  0.79769709  1
  Se  Se217  1  0.74433751  0.07291791  0.29654136  1
  Se  Se218  1  0.74375543  0.07806437  0.80171420  1
  Se  Se219  1  0.74854428  0.41886780  0.29890848  1
  Se  Se220  1  0.75855948  0.42060336  0.81422439  1
  Se  Se221  1  0.75303971  0.75186846  0.31239880  1
  Se  Se222  1  0.75114592  0.75271684  0.80715831  1
  Se  Se223  1  0.25714410  0.08388512  0.19615456  1
  Se  Se224  1  0.24950480  0.08873606  0.69128951  1
  Se  Se225  1  0.25247647  0.41671433  0.19351698  1
  Se  Se226  1  0.24653965  0.41757987  0.68962615  1
  Se  Se227  1  0.25407815  0.74474297  0.19877343  1
  Se  Se228  1  0.25013034  0.74769029  0.70041984  1
  Se  Se229  1  0.58532350  0.07835324  0.19956260  1
  Se  Se230  1  0.57791412  0.08408542  0.70234770  1
  Se  Se231  1  0.58512603  0.41415579  0.19745863  1
  Se  Se232  1  0.57600652  0.41811091  0.69095007  1
  Se  Se233  1  0.57573201  0.75311153  0.18504175  1
  Se  Se234  1  0.58374726  0.74573044  0.69266558  1
  Se  Se235  1  0.91274879  0.08222275  0.18950169  1
  Se  Se236  1  0.91824326  0.08336815  0.69141060  1
  Se  Se237  1  0.91976883  0.41991874  0.19721488  1
  Se  Se238  1  0.90996103  0.42740301  0.69324905  1
  Se  Se239  1  0.91814657  0.74939340  0.19862084  1
  Se  Se240  1  0.91710592  0.74964789  0.69936417  1
  Se  Se241  1  0.08201107  0.25634574  0.20452147  1
  Se  Se242  1  0.08981079  0.24193765  0.68981286  1
  Se  Se243  1  0.08123459  0.58905694  0.19639931  1
  Se  Se244  1  0.08413971  0.58095449  0.69747413  1
  Se  Se245  1  0.09447694  0.90912765  0.18467690  1
  Se  Se246  1  0.08287620  0.91962316  0.69880232  1
  Se  Se247  1  0.41918083  0.25078748  0.19268037  1
  Se  Se248  1  0.41792121  0.24942467  0.70077853  1
  Se  Se249  1  0.41294689  0.58326351  0.19700804  1
  Se  Se250  1  0.41220555  0.58206149  0.69337728  1
  Se  Se251  1  0.41614498  0.91840668  0.19766509  1
  Se  Se252  1  0.42131133  0.91021162  0.68617169  1
  Se  Se253  1  0.76147844  0.24239216  0.20591005  1
  Se  Se254  1  0.75461730  0.24758503  0.68914111  1
  Se  Se255  1  0.75340689  0.57960963  0.18645578  1
  Se  Se256  1  0.74585994  0.58530767  0.70343789  1
  Se  Se257  1  0.74862625  0.91466725  0.19903507  1
  Se  Se258  1  0.74710313  0.91781888  0.69524552  1
