# generated using pymatgen
data_In86Cu29Se144
_symmetry_space_group_name_H-M   'P 1'
_cell_length_a   17.63392863
_cell_length_b   17.62944250
_cell_length_c   23.49783128
_cell_angle_alpha   90.00652533
_cell_angle_beta   89.99976707
_cell_angle_gamma   90.04521588
_symmetry_Int_Tables_number   1
_chemical_formula_structural   In86Cu29Se144
_chemical_formula_sum   'In86 Cu29 Se144'
_cell_volume   7304.91724886
_cell_formula_units_Z   1
loop_
 _symmetry_equiv_pos_site_id
 _symmetry_equiv_pos_as_xyz
  1  'x, y, z'
loop_
 _atom_site_type_symbol
 _atom_site_label
 _atom_site_symmetry_multiplicity
 _atom_site_fract_x
 _atom_site_fract_y
 _atom_site_fract_z
 _atom_site_occupancy
  In  In0  1  0.00029416  0.16806827  0.13386150  1
  In  In1  1  0.00555769  0.15793607  0.62019301  1
  In  In2  1  0.00250897  0.49434233  0.12711151  1
  In  In3  1  0.01370596  0.51370277  0.62008815  1
  In  In4  1  0.01628506  0.84596111  0.10682254  1
  In  In5  1  -0.01455046  0.82892160  0.62519234  1
  In  In6  1  0.32136617  0.16640542  0.12956927  1
  In  In7  1  0.33012450  0.17526468  0.62462468  1
  In  In8  1  0.33773438  0.51490084  0.10698511  1
  In  In9  1  0.33241652  0.50599752  0.62371180  1
  In  In10  1  0.33419251  0.83051372  0.12481593  1
  In  In11  1  0.34035530  0.81687158  0.63212058  1
  In  In12  1  0.65353377  0.16093438  0.12642330  1
  In  In13  1  0.67546960  0.16824411  0.62810122  1
  In  In14  1  0.66933051  0.51914029  0.12659681  1
  In  In15  1  0.66074777  0.50572761  0.62366691  1
  In  In16  1  0.66818780  0.82689987  0.12352059  1
  In  In17  1  0.66367180  0.82291842  0.62229137  1
  In  In18  1  0.17487588  0.00289429  0.36677490  1
  In  In19  1  0.16399732  -0.01346422  0.87612681  1
  In  In20  1  0.15100634  0.34749523  0.38283079  1
  In  In21  1  0.18487135  0.33783769  0.86250049  1
  In  In22  1  0.17287090  0.64367306  0.37027544  1
  In  In23  1  0.17405056  0.66944846  0.88259997  1
  In  In24  1  0.49298233  -0.02071671  0.36829054  1
  In  In25  1  0.48123400  -0.01874365  0.88108400  1
  In  In26  1  0.50732619  0.34357675  0.37719067  1
  In  In27  1  0.50777688  0.35304935  0.86419046  1
  In  In28  1  0.49995815  0.66540626  0.37395716  1
  In  In29  1  0.49842730  0.66766346  0.87064665  1
  In  In30  1  0.82395628  -0.01188675  0.36531278  1
  In  In31  1  0.83873812  -0.01527664  0.88233208  1
  In  In32  1  0.84587717  0.33241875  0.37848953  1
  In  In33  1  0.83424936  0.35307841  0.86726600  1
  In  In34  1  0.82804253  0.67582310  0.38325777  1
  In  In35  1  0.84767864  0.69798952  0.83992734  1
  In  In36  1  0.00767650  0.17527709  0.36976343  1
  In  In37  1  0.00486816  0.15353548  0.87524530  1
  In  In38  1  0.00982066  0.49012279  0.38122552  1
  In  In39  1  0.00373901  0.53424748  0.88451083  1
  In  In40  1  -0.01212793  0.82639614  0.37223473  1
  In  In41  1  0.01374855  0.81736960  0.89849333  1
  In  In42  1  0.33170190  0.15439736  0.37516783  1
  In  In43  1  0.32092392  0.17397441  0.86800996  1
  In  In44  1  0.32174986  0.51146320  0.38169481  1
  In  In45  1  0.33556221  0.50774898  0.87263838  1
  In  In46  1  0.33829387  0.83652832  0.36715588  1
  In  In47  1  0.35768665  0.76804181  0.93570524  1
  In  In48  1  0.67799811  0.16116057  0.37462638  1
  In  In49  1  0.65450085  0.16782037  0.87284356  1
  In  In50  1  0.65699700  0.51506232  0.38413007  1
  In  In51  1  0.66287301  0.50796161  0.86683789  1
  In  In52  1  0.66704310  0.82535667  0.37227023  1
  In  In53  1  0.67086882  0.82124203  0.87560200  1
  In  In54  1  0.16904577  -0.00241951  0.13597507  1
  In  In55  1  0.15563691  -0.00260906  0.61874589  1
  In  In56  1  0.16317965  0.32898850  0.12587892  1
  In  In57  1  0.17374611  0.33960698  0.62274436  1
  In  In58  1  0.17319756  0.67649967  0.11224024  1
  In  In59  1  0.17696044  0.65874554  0.63521522  1
  In  In60  1  0.51118915  -0.01761298  0.13344245  1
  In  In61  1  0.50750033  -0.01230086  0.62132261  1
  In  In62  1  0.48921149  0.34112246  0.12243953  1
  In  In63  1  0.48485586  0.34822078  0.63167224  1
  In  In64  1  0.50199009  0.67016068  0.11743794  1
  In  In65  1  0.50484821  0.67080423  0.62466019  1
  In  In66  1  0.84988818  -0.02035755  0.13743777  1
  In  In67  1  0.83770929  -0.00209944  0.62045874  1
  In  In68  1  0.84146891  0.34552699  0.12933191  1
  In  In69  1  0.81294292  0.33966620  0.63098024  1
  In  In70  1  0.82945951  0.66555779  0.12703687  1
  In  In71  1  0.83496656  0.66826859  0.62519553  1
  In  In72  1  0.00277135  0.66698371  0.24771202  1
  In  In73  1  0.83139207  0.51147719  -0.00088820  1
  In  In74  1  0.83694018  0.16860025  0.50015263  1
  In  In75  1  0.16678019  0.16835843  -0.00101537  1
  In  In76  1  0.00405110  0.34047028  0.74313004  1
  In  In77  1  0.00388844  -0.00671427  0.75602421  1
  In  In78  1  0.32934451  0.33623840  0.25050693  1
  In  In79  1  0.16805240  0.82965693  0.49852755  1
  In  In80  1  0.66903594  -0.00042707  0.75185140  1
  In  In81  1  0.49681752  0.16376231  -0.00133544  1
  In  In82  1  0.49728482  0.16792494  0.49945281  1
  In  In83  1  0.82184173  0.16479799  -0.00298016  1
  In  In84  1  0.32876035  -0.00458905  0.75109193  1
  In  In85  1  0.67208705  0.33317848  0.25626648  1
  Cu  Cu86  1  0.32930182  0.33668860  0.50497082  1
  Cu  Cu87  1  0.00005752  0.66428124  0.49946864  1
  Cu  Cu88  1  0.49455294  0.50675311  0.74583836  1
  Cu  Cu89  1  0.82430085  0.50647785  0.74594187  1
  Cu  Cu90  1  0.66206462  -0.01242606  0.49182910  1
  Cu  Cu91  1  0.49715377  0.17639294  0.75012706  1
  Cu  Cu92  1  0.33335381  -0.00322825  0.00970362  1
  Cu  Cu93  1  0.16927743  0.82630204  0.76080152  1
  Cu  Cu94  1  0.49892964  0.50823503  0.24520236  1
  Cu  Cu95  1  0.49696614  0.15193336  0.25310771  1
  Cu  Cu96  1  0.34388784  0.34275903  -0.00848775  1
  Cu  Cu97  1  0.66091348  0.34596214  -0.00805354  1
  Cu  Cu98  1  0.84051866  0.50224474  0.25280872  1
  Cu  Cu99  1  0.33303699  -0.00588279  0.49308940  1
  Cu  Cu100  1  0.16805817  0.82733729  0.24118398  1
  Cu  Cu101  1  0.33698640  0.66514337  0.50331000  1
  Cu  Cu102  1  -0.00048759  0.00103213  0.49513400  1
  Cu  Cu103  1  0.16415347  0.16662807  0.25274272  1
  Cu  Cu104  1  0.83391060  0.16262792  0.25210545  1
  Cu  Cu105  1  0.66862040  0.66845702  0.50290739  1
  Cu  Cu106  1  0.00160090  0.33095702  0.00017572  1
  Cu  Cu107  1  0.83326307  0.17202314  0.75247307  1
  Cu  Cu108  1  -0.00054993  0.33862230  0.50318782  1
  Cu  Cu109  1  0.66813826  0.66628808  -0.00269891  1
  Cu  Cu110  1  0.66736809  -0.01137960  0.00543132  1
  Cu  Cu111  1  0.65823390  0.34303367  0.50628603  1
  Cu  Cu112  1  0.50198376  0.82252727  0.24715230  1
  Cu  Cu113  1  0.83265951  0.82925027  0.24870885  1
  Cu  Cu114  1  0.16643925  0.50689133  0.75161328  1
  Se  Se115  1  0.08135280  0.08273048  0.06354307  1
  Se  Se116  1  0.08486698  0.08332526  0.54579018  1
  Se  Se117  1  0.08178352  0.41043946  0.05709736  1
  Se  Se118  1  0.08680029  0.41904577  0.55540997  1
  Se  Se119  1  0.08952003  0.75490399  0.04150284  1
  Se  Se120  1  0.08076480  0.74332581  0.56216384  1
  Se  Se121  1  0.41358479  0.07953879  0.06748927  1
  Se  Se122  1  0.40962562  0.07339756  0.55892849  1
  Se  Se123  1  0.42541511  0.42384960  0.04657239  1
  Se  Se124  1  0.41438927  0.42203635  0.55294888  1
  Se  Se125  1  0.40857940  0.74595065  0.05225464  1
  Se  Se126  1  0.41875757  0.75150139  0.55351411  1
  Se  Se127  1  0.74278462  0.07480098  0.06351965  1
  Se  Se128  1  0.73845603  0.07344845  0.55204119  1
  Se  Se129  1  0.74407097  0.41378998  0.05892979  1
  Se  Se130  1  0.74821099  0.42273581  0.55522166  1
  Se  Se131  1  0.75215015  0.74517370  0.05437629  1
  Se  Se132  1  0.75473263  0.75167039  0.55356506  1
  Se  Se133  1  0.26444611  0.26151216  0.05244779  1
  Se  Se134  1  0.24650281  0.24827627  0.55216115  1
  Se  Se135  1  0.22866419  0.57144124  0.04491837  1
  Se  Se136  1  0.24659582  0.58682516  0.55418284  1
  Se  Se137  1  0.24650642  0.91922761  0.06290832  1
  Se  Se138  1  0.25905742  0.91631296  0.56156166  1
  Se  Se139  1  0.58869099  0.26095240  0.05478100  1
  Se  Se140  1  0.58431138  0.25499648  0.56417136  1
  Se  Se141  1  0.58600520  0.58257066  0.05064691  1
  Se  Se142  1  0.58018627  0.58629837  0.55243960  1
  Se  Se143  1  0.57954710  0.90644586  0.05456020  1
  Se  Se144  1  0.58354828  0.90716335  0.55031941  1
  Se  Se145  1  0.91735577  0.25403211  0.05707156  1
  Se  Se146  1  0.91915712  0.26054052  0.56552098  1
  Se  Se147  1  0.92828745  0.59156964  0.05988878  1
  Se  Se148  1  0.91665306  0.58352483  0.55527048  1
  Se  Se149  1  0.90712951  0.91130160  0.05203461  1
  Se  Se150  1  0.91991996  0.91860155  0.55124997  1
  Se  Se151  1  0.07805633  0.25195162  0.44839125  1
  Se  Se152  1  0.08036062  0.25819564  0.93476543  1
  Se  Se153  1  0.08600968  0.58293438  0.44732728  1
  Se  Se154  1  0.11147499  0.56859750  0.95302086  1
  Se  Se155  1  0.07886458  0.91801697  0.43623545  1
  Se  Se156  1  0.06620455  0.93755731  0.94681161  1
  Se  Se157  1  0.40751619  0.25966569  0.43919162  1
  Se  Se158  1  0.41673816  0.25525523  0.93294971  1
  Se  Se159  1  0.41811036  0.58342615  0.44557834  1
  Se  Se160  1  0.40551035  0.59857981  0.94278414  1
  Se  Se161  1  0.41639223  0.90745160  0.44590557  1
  Se  Se162  1  0.41456697  0.90917773  0.96111362  1
  Se  Se163  1  0.73907974  0.26190009  0.44615972  1
  Se  Se164  1  0.74255616  0.26510037  0.93547419  1
  Se  Se165  1  0.75293245  0.58416670  0.45016638  1
  Se  Se166  1  0.74974739  0.59550420  0.93211182  1
  Se  Se167  1  0.75204032  0.90959642  0.44123938  1
  Se  Se168  1  0.74686781  0.90922510  0.94618668  1
  Se  Se169  1  0.24725334  0.07873034  0.44608523  1
  Se  Se170  1  0.26118126  0.07642977  0.94340940  1
  Se  Se171  1  0.24840260  0.41805413  0.44735410  1
  Se  Se172  1  0.25354669  0.41663590  0.93872986  1
  Se  Se173  1  0.25607174  0.74020315  0.43776592  1
  Se  Se174  1  0.21443552  0.77168137  0.95932136  1
  Se  Se175  1  0.58464951  0.07617296  0.43740363  1
  Se  Se176  1  0.58893726  0.06908205  0.94271002  1
  Se  Se177  1  0.57747888  0.42521635  0.45091296  1
  Se  Se178  1  0.58059066  0.43047405  0.94082208  1
  Se  Se179  1  0.58517184  0.74607858  0.44335379  1
  Se  Se180  1  0.58253459  0.74696711  0.94433651  1
  Se  Se181  1  0.91693834  0.07841881  0.43447802  1
  Se  Se182  1  0.92339716  0.07632326  0.94908454  1
  Se  Se183  1  0.91533596  0.41981796  0.44995383  1
  Se  Se184  1  0.92616788  0.41744360  0.94154123  1
  Se  Se185  1  0.91784951  0.75266004  0.45126018  1
  Se  Se186  1  0.90424584  0.73502626  0.93704577  1
  Se  Se187  1  0.24291033  0.24771786  0.31427204  1
  Se  Se188  1  0.24788443  0.24725098  0.79181081  1
  Se  Se189  1  0.25759644  0.57694308  0.29706488  1
  Se  Se190  1  0.24905357  0.59031790  0.80614432  1
  Se  Se191  1  0.24796062  0.91133316  0.29954482  1
  Se  Se192  1  0.25549105  0.90197055  0.81750697  1
  Se  Se193  1  0.57485240  0.23893788  0.31048535  1
  Se  Se194  1  0.58452643  0.25512972  0.80259469  1
  Se  Se195  1  0.58454214  0.58377799  0.30311507  1
  Se  Se196  1  0.57947109  0.58901667  0.79825900  1
  Se  Se197  1  0.58496183  0.90756928  0.30139714  1
  Se  Se198  1  0.57687770  0.91510086  0.81171616  1
  Se  Se199  1  0.91447812  0.25067521  0.30324904  1
  Se  Se200  1  0.91821824  0.24759122  0.81105863  1
  Se  Se201  1  0.91684391  0.58317563  0.31549145  1
  Se  Se202  1  0.91360120  0.57577483  0.80399611  1
  Se  Se203  1  0.91808931  0.91320529  0.30015403  1
  Se  Se204  1  0.91572866  0.90244134  0.81079210  1
  Se  Se205  1  0.08053691  0.08103058  0.30408506  1
  Se  Se206  1  0.10078164  0.08885000  0.80428128  1
  Se  Se207  1  0.08860436  0.42429747  0.30292226  1
  Se  Se208  1  0.08248934  0.42929244  0.81182709  1
  Se  Se209  1  0.09508306  0.75328150  0.31173429  1
  Se  Se210  1  0.08246309  0.74882563  0.81541418  1
  Se  Se211  1  0.41193668  0.07270398  0.30628094  1
  Se  Se212  1  0.42356316  0.08927577  0.81036829  1
  Se  Se213  1  0.42450576  0.42501904  0.30670137  1
  Se  Se214  1  0.41142696  0.42243447  0.79949510  1
  Se  Se215  1  0.41632178  0.74467571  0.30316255  1
  Se  Se216  1  0.40266477  0.76754841  0.83117896  1
  Se  Se217  1  0.74596889  0.07970043  0.29953825  1
  Se  Se218  1  0.76085977  0.08836525  0.81580570  1
  Se  Se219  1  0.75718439  0.42637104  0.31572824  1
  Se  Se220  1  0.74386124  0.42017982  0.79826845  1
  Se  Se221  1  0.75293552  0.74395812  0.30313321  1
  Se  Se222  1  0.73051223  0.75082637  0.78986190  1
  Se  Se223  1  0.25116277  0.08397476  0.20318868  1
  Se  Se224  1  0.24155896  0.08233262  0.68670622  1
  Se  Se225  1  0.25512335  0.42278230  0.18019023  1
  Se  Se226  1  0.24722013  0.42499647  0.69418481  1
  Se  Se227  1  0.25129192  0.74313181  0.19163278  1
  Se  Se228  1  0.25264635  0.74759827  0.70332636  1
  Se  Se229  1  0.58536134  0.07628673  0.19971055  1
  Se  Se230  1  0.57363187  0.09089047  0.69118522  1
  Se  Se231  1  0.58141838  0.42006042  0.19194775  1
  Se  Se232  1  0.58051912  0.42136735  0.69494799  1
  Se  Se233  1  0.58568232  0.74269650  0.19177350  1
  Se  Se234  1  0.58031371  0.75573628  0.69637377  1
  Se  Se235  1  0.91873319  0.08133399  0.19904218  1
  Se  Se236  1  0.91144952  0.08956885  0.69456875  1
  Se  Se237  1  0.92321361  0.41711603  0.20248008  1
  Se  Se238  1  0.90980635  0.42886507  0.68685125  1
  Se  Se239  1  0.91945714  0.75928141  0.18606319  1
  Se  Se240  1  0.91683980  0.74620690  0.69787773  1
  Se  Se241  1  0.08395478  0.25244751  0.19938078  1
  Se  Se242  1  0.08914193  0.24249653  0.68856254  1
  Se  Se243  1  0.09376466  0.58412410  0.18609879  1
  Se  Se244  1  0.07935730  0.58932641  0.70119554  1
  Se  Se245  1  0.07822878  0.90997065  0.19489917  1
  Se  Se246  1  0.09310213  0.90158533  0.69329062  1
  Se  Se247  1  0.42518187  0.24107675  0.19412292  1
  Se  Se248  1  0.41053069  0.25316656  0.69589464  1
  Se  Se249  1  0.41887098  0.58316089  0.18471072  1
  Se  Se250  1  0.41397240  0.59077976  0.69135338  1
  Se  Se251  1  0.41680449  0.90927846  0.19771414  1
  Se  Se252  1  0.42740105  0.90922755  0.69573848  1
  Se  Se253  1  0.75612905  0.24395065  0.18882397  1
  Se  Se254  1  0.74427272  0.25118146  0.70330786  1
  Se  Se255  1  0.75516798  0.58420044  0.20141375  1
  Se  Se256  1  0.74387325  0.58919043  0.69143702  1
  Se  Se257  1  0.74582655  0.91169104  0.19621744  1
  Se  Se258  1  0.75759414  0.91390206  0.68968349  1
