# generated using pymatgen
data_In86Cu29Se144
_symmetry_space_group_name_H-M   'P 1'
_cell_length_a   17.57962382
_cell_length_b   17.57638793
_cell_length_c   23.44274325
_cell_angle_alpha   90.01757772
_cell_angle_beta   90.00505858
_cell_angle_gamma   89.97116896
_symmetry_Int_Tables_number   1
_chemical_formula_structural   In86Cu29Se144
_chemical_formula_sum   'In86 Cu29 Se144'
_cell_volume   7243.48493198
_cell_formula_units_Z   1
loop_
 _symmetry_equiv_pos_site_id
 _symmetry_equiv_pos_as_xyz
  1  'x, y, z'
loop_
 _atom_site_type_symbol
 _atom_site_label
 _atom_site_symmetry_multiplicity
 _atom_site_fract_x
 _atom_site_fract_y
 _atom_site_fract_z
 _atom_site_occupancy
  In  In0  1  -0.00548278  0.16853775  0.13272832  1
  In  In1  1  0.00387971  0.15111115  0.61749721  1
  In  In2  1  0.00177909  0.48934539  0.13406048  1
  In  In3  1  0.00007944  0.49956948  0.61682573  1
  In  In4  1  -0.00687342  0.83708126  0.13431789  1
  In  In5  1  -0.00128305  0.82824923  0.61297161  1
  In  In6  1  0.33940053  0.15519638  0.12326947  1
  In  In7  1  0.34083754  0.17272358  0.61870772  1
  In  In8  1  0.34474935  0.51774317  0.11921075  1
  In  In9  1  0.32841577  0.50669556  0.63060724  1
  In  In10  1  0.33521746  0.82956562  0.12515082  1
  In  In11  1  0.32751109  0.83127004  0.62274474  1
  In  In12  1  0.65227759  0.15481306  0.11846435  1
  In  In13  1  0.65040907  0.16509630  0.62555803  1
  In  In14  1  0.65968181  0.51038228  0.12126485  1
  In  In15  1  0.67926752  0.50774724  0.62629805  1
  In  In16  1  0.67659685  0.84003259  0.12040167  1
  In  In17  1  0.67163193  0.82974795  0.63161628  1
  In  In18  1  0.16794437  -0.00169277  0.37047938  1
  In  In19  1  0.17367294  0.00165392  0.87776267  1
  In  In20  1  0.16081483  0.34514036  0.38191125  1
  In  In21  1  0.18364052  0.33501527  0.87040153  1
  In  In22  1  0.16400689  0.66601757  0.37244150  1
  In  In23  1  0.16043526  0.65163027  0.87697901  1
  In  In24  1  0.50912597  0.00787973  0.36638311  1
  In  In25  1  0.50545515  -0.01438258  0.88661112  1
  In  In26  1  0.48955578  0.32611376  0.37468171  1
  In  In27  1  0.49306702  0.34312485  0.88259924  1
  In  In28  1  0.50176598  0.68097255  0.36703891  1
  In  In29  1  0.49936614  0.66616566  0.87385295  1
  In  In30  1  0.82318993  -0.01188037  0.36926914  1
  In  In31  1  0.82238125  0.00780477  0.88663387  1
  In  In32  1  0.84610039  0.33799629  0.36919303  1
  In  In33  1  0.81849783  0.32997081  0.87701996  1
  In  In34  1  0.84898254  0.65857014  0.38111785  1
  In  In35  1  0.83939069  0.67927185  0.87828070  1
  In  In36  1  0.00955001  0.17665565  0.36703890  1
  In  In37  1  -0.00486618  0.15406343  0.87991196  1
  In  In38  1  -0.00147237  0.50409905  0.37035394  1
  In  In39  1  0.00577798  0.51555918  0.88257324  1
  In  In40  1  0.00021655  0.83202752  0.37239911  1
  In  In41  1  -0.00769787  0.81843373  0.88675523  1
  In  In42  1  0.34481157  0.15704456  0.37924295  1
  In  In43  1  0.33214111  0.17634922  0.87501379  1
  In  In44  1  0.32114293  0.49711331  0.37217252  1
  In  In45  1  0.33162219  0.50245661  0.87495819  1
  In  In46  1  0.32103185  0.82318013  0.36506499  1
  In  In47  1  0.35182110  0.83468226  0.87610586  1
  In  In48  1  0.66507329  0.14736387  0.38167696  1
  In  In49  1  0.66863723  0.16139893  0.88003022  1
  In  In50  1  0.67542702  0.51595705  0.37599584  1
  In  In51  1  0.65291904  0.49311073  0.87369067  1
  In  In52  1  0.67100111  0.85367114  0.37734679  1
  In  In53  1  0.66750021  0.83261857  0.87769277  1
  In  In54  1  0.17114501  -0.00553984  0.13754177  1
  In  In55  1  0.16727821  -0.00606764  0.60741680  1
  In  In56  1  0.15203700  0.33677111  0.12891034  1
  In  In57  1  0.17700086  0.34315123  0.61602129  1
  In  In58  1  0.17083083  0.65954508  0.12943028  1
  In  In59  1  0.17152054  0.66930128  0.61642545  1
  In  In60  1  0.50108250  -0.00147281  0.12355852  1
  In  In61  1  0.50510488  0.01558448  0.62651254  1
  In  In62  1  0.50067773  0.33582424  0.11654430  1
  In  In63  1  0.49590938  0.31243085  0.62816136  1
  In  In64  1  0.48521570  0.66031314  0.11827085  1
  In  In65  1  0.50203614  0.66813358  0.63649840  1
  In  In66  1  0.82987109  -0.00225194  0.12946346  1
  In  In67  1  0.82888132  -0.01059462  0.62209820  1
  In  In68  1  0.85131216  0.33188516  0.12846046  1
  In  In69  1  0.82743120  0.34589570  0.62274102  1
  In  In70  1  0.83145844  0.67354964  0.12790810  1
  In  In71  1  0.82919193  0.66354229  0.62293779  1
  In  In72  1  0.00062846  0.33608952  0.73921155  1
  In  In73  1  0.16723360  0.83132175  0.01018287  1
  In  In74  1  0.16687879  0.17026282  0.00095721  1
  In  In75  1  0.49999976  0.49691950  0.49967368  1
  In  In76  1  -0.00430056  0.66529313  0.75301003  1
  In  In77  1  0.83876427  0.17061040  0.49666762  1
  In  In78  1  0.32917012  0.33707779  0.25482183  1
  In  In79  1  -0.00166759  -0.00639935  0.74748596  1
  In  In80  1  0.66742131  0.67176724  0.24589684  1
  In  In81  1  0.34462643  0.00045850  0.74964440  1
  In  In82  1  0.49957459  0.84066093  0.50179670  1
  In  In83  1  0.82792471  0.49897659  0.00218737  1
  In  In84  1  0.65807714  0.33710753  0.74856605  1
  In  In85  1  0.66762192  0.33127085  0.24199231  1
  Cu  Cu86  1  0.17176495  0.49750655  0.74967132  1
  Cu  Cu87  1  0.66856977  0.33597254  0.50298631  1
  Cu  Cu88  1  0.17506148  0.16545110  0.74379542  1
  Cu  Cu89  1  0.00436021  0.66848240  0.49379518  1
  Cu  Cu90  1  0.66867688  -0.00577871  0.00232848  1
  Cu  Cu91  1  0.32838023  0.65995627  0.49646588  1
  Cu  Cu92  1  0.00426817  -0.00027028  0.48951419  1
  Cu  Cu93  1  0.32867670  0.34297943  -0.00050991  1
  Cu  Cu94  1  0.33307269  -0.00557736  0.49419668  1
  Cu  Cu95  1  0.17388267  0.82577390  0.74411033  1
  Cu  Cu96  1  0.67866104  0.67423967  0.50320308  1
  Cu  Cu97  1  -0.00517401  -0.00358402  0.00832579  1
  Cu  Cu98  1  0.82668122  0.83886293  0.75497245  1
  Cu  Cu99  1  0.65771032  0.67030255  -0.00066427  1
  Cu  Cu100  1  0.83228694  0.15896734  0.25217390  1
  Cu  Cu101  1  0.82742948  0.16832298  0.75659345  1
  Cu  Cu102  1  0.33205508  0.32654654  0.49865388  1
  Cu  Cu103  1  0.16464595  0.50266931  0.25232932  1
  Cu  Cu104  1  0.50871034  0.83109096  0.75641364  1
  Cu  Cu105  1  0.83322143  0.83192602  0.25183563  1
  Cu  Cu106  1  0.00177613  0.33485186  0.00511555  1
  Cu  Cu107  1  0.49411505  0.49872320  0.75385600  1
  Cu  Cu108  1  0.33270866  0.66907983  -0.00268871  1
  Cu  Cu109  1  0.16287988  0.83117589  0.25030839  1
  Cu  Cu110  1  0.00329950  0.33796155  0.49278918  1
  Cu  Cu111  1  0.50087227  0.16063694  0.24765979  1
  Cu  Cu112  1  0.66609324  0.32429147  -0.00056775  1
  Cu  Cu113  1  0.49515162  0.83766694  0.24582835  1
  Cu  Cu114  1  0.16632329  0.16696329  0.25122966  1
  Se  Se115  1  0.08177542  0.07674990  0.06308554  1
  Se  Se116  1  0.08719494  0.08404840  0.54240290  1
  Se  Se117  1  0.08327258  0.42145376  0.05438247  1
  Se  Se118  1  0.08585366  0.41959369  0.55009711  1
  Se  Se119  1  0.07429483  0.74415595  0.06590867  1
  Se  Se120  1  0.08906910  0.75135164  0.54789493  1
  Se  Se121  1  0.43221920  0.09327211  0.05421708  1
  Se  Se122  1  0.41230312  0.07575836  0.55311374  1
  Se  Se123  1  0.41639989  0.42249676  0.05260846  1
  Se  Se124  1  0.41143054  0.40807068  0.56123978  1
  Se  Se125  1  0.41496752  0.75414287  0.04970284  1
  Se  Se126  1  0.41405409  0.73736267  0.55592589  1
  Se  Se127  1  0.75008726  0.07947798  0.05683151  1
  Se  Se128  1  0.74763044  0.08647851  0.55900339  1
  Se  Se129  1  0.74243424  0.40450224  0.06394283  1
  Se  Se130  1  0.75017044  0.42500414  0.55007831  1
  Se  Se131  1  0.74794229  0.74426757  0.05362010  1
  Se  Se132  1  0.75749436  0.76011961  0.55708460  1
  Se  Se133  1  0.25487960  0.26054331  0.06372050  1
  Se  Se134  1  0.24653139  0.24414064  0.55160404  1
  Se  Se135  1  0.24906670  0.58656572  0.05146649  1
  Se  Se136  1  0.24928787  0.57557539  0.55206145  1
  Se  Se137  1  0.25726893  0.93009112  0.05863876  1
  Se  Se138  1  0.25297187  0.90583694  0.54561793  1
  Se  Se139  1  0.57714494  0.24519395  0.05075469  1
  Se  Se140  1  0.58303864  0.25138684  0.55106360  1
  Se  Se141  1  0.57572611  0.58302695  0.04953014  1
  Se  Se142  1  0.58742319  0.59477167  0.55686311  1
  Se  Se143  1  0.58237179  0.91229428  0.05430248  1
  Se  Se144  1  0.59163514  0.92427171  0.56227552  1
  Se  Se145  1  0.92112545  0.24651852  0.05440593  1
  Se  Se146  1  0.92708134  0.26155207  0.56081614  1
  Se  Se147  1  0.91816727  0.58123706  0.06478856  1
  Se  Se148  1  0.92080031  0.59113812  0.55406699  1
  Se  Se149  1  0.91207121  0.91229087  0.05997307  1
  Se  Se150  1  0.92231713  0.92490002  0.55171315  1
  Se  Se151  1  0.08551079  0.24851413  0.44577242  1
  Se  Se152  1  0.07798375  0.25880033  0.93655228  1
  Se  Se153  1  0.08460198  0.58056394  0.44192802  1
  Se  Se154  1  0.08112235  0.59070402  0.95613914  1
  Se  Se155  1  0.08797944  0.91297742  0.44039180  1
  Se  Se156  1  0.07711349  0.92369186  0.94370995  1
  Se  Se157  1  0.42072325  0.24493016  0.44995708  1
  Se  Se158  1  0.41005549  0.25535579  0.94825842  1
  Se  Se159  1  0.41678678  0.59023437  0.43630898  1
  Se  Se160  1  0.41577806  0.58424344  0.94353271  1
  Se  Se161  1  0.41156785  0.91632540  0.43115416  1
  Se  Se162  1  0.41051262  0.91663494  0.95369358  1
  Se  Se163  1  0.74516480  0.25825976  0.43621729  1
  Se  Se164  1  0.75401175  0.24251297  0.95037169  1
  Se  Se165  1  0.75675402  0.58516610  0.45106956  1
  Se  Se166  1  0.73936847  0.58751094  0.93910454  1
  Se  Se167  1  0.74931892  0.92547696  0.45204797  1
  Se  Se168  1  0.75324711  0.90921072  0.95014633  1
  Se  Se169  1  0.25019037  0.08018296  0.44216985  1
  Se  Se170  1  0.26136759  0.07811991  0.94680437  1
  Se  Se171  1  0.25328998  0.41833720  0.44995717  1
  Se  Se172  1  0.24390567  0.42307916  0.94556969  1
  Se  Se173  1  0.24923502  0.74724660  0.44316823  1
  Se  Se174  1  0.25045913  0.74903345  0.93765665  1
  Se  Se175  1  0.57183984  0.08159355  0.44923474  1
  Se  Se176  1  0.58642308  0.07915205  0.94891784  1
  Se  Se177  1  0.59117772  0.41146953  0.43605696  1
  Se  Se178  1  0.58466398  0.41585258  0.95202868  1
  Se  Se179  1  0.59294030  0.74770696  0.44254003  1
  Se  Se180  1  0.57679695  0.75327168  0.94377789  1
  Se  Se181  1  0.92164249  0.08098454  0.43201904  1
  Se  Se182  1  0.91464739  0.08345208  0.95427877  1
  Se  Se183  1  0.91694153  0.42078830  0.44331665  1
  Se  Se184  1  0.92046980  0.40953523  0.93962282  1
  Se  Se185  1  0.91759344  0.75560722  0.44698028  1
  Se  Se186  1  0.91480963  0.74218830  0.95869398  1
  Se  Se187  1  0.24444361  0.24491316  0.31577038  1
  Se  Se188  1  0.25464092  0.24977988  0.79766224  1
  Se  Se189  1  0.25121943  0.58621174  0.30210543  1
  Se  Se190  1  0.24869547  0.58542526  0.80395873  1
  Se  Se191  1  0.24992131  0.91776336  0.29824623  1
  Se  Se192  1  0.24660208  0.90980032  0.80650506  1
  Se  Se193  1  0.58072420  0.24228766  0.30804112  1
  Se  Se194  1  0.57769244  0.25020630  0.81533663  1
  Se  Se195  1  0.57719996  0.57846460  0.30543969  1
  Se  Se196  1  0.58129314  0.58133864  0.80349251  1
  Se  Se197  1  0.58359039  0.91405512  0.30042590  1
  Se  Se198  1  0.58685600  0.91895245  0.80830888  1
  Se  Se199  1  0.91551749  0.24816201  0.29918362  1
  Se  Se200  1  0.91575729  0.24676459  0.80919751  1
  Se  Se201  1  0.91477494  0.58504045  0.30141529  1
  Se  Se202  1  0.90585782  0.57370714  0.81103910  1
  Se  Se203  1  0.91762521  0.91702029  0.30328059  1
  Se  Se204  1  0.91329537  0.91147614  0.81621705  1
  Se  Se205  1  0.08253727  0.08112143  0.30201035  1
  Se  Se206  1  0.09261520  0.08910351  0.80470586  1
  Se  Se207  1  0.08350309  0.41525639  0.30427429  1
  Se  Se208  1  0.08450176  0.42297157  0.80874028  1
  Se  Se209  1  0.08002480  0.74660483  0.30282058  1
  Se  Se210  1  0.08881297  0.75883413  0.80978898  1
  Se  Se211  1  0.41340277  0.07999785  0.29973995  1
  Se  Se212  1  0.42555935  0.08417776  0.81776353  1
  Se  Se213  1  0.42680543  0.42791515  0.30744088  1
  Se  Se214  1  0.41211980  0.41463490  0.80638562  1
  Se  Se215  1  0.41368180  0.74992359  0.29623076  1
  Se  Se216  1  0.41741307  0.74861067  0.80162406  1
  Se  Se217  1  0.74429662  0.08019510  0.30359031  1
  Se  Se218  1  0.74867272  0.08064390  0.80750827  1
  Se  Se219  1  0.75142021  0.42245455  0.30641568  1
  Se  Se220  1  0.75538123  0.42483603  0.80460791  1
  Se  Se221  1  0.75305000  0.75395008  0.31495324  1
  Se  Se222  1  0.75041858  0.74871818  0.80734312  1
  Se  Se223  1  0.25300720  0.08837545  0.19776170  1
  Se  Se224  1  0.24548065  0.07609413  0.68495321  1
  Se  Se225  1  0.24634777  0.42573444  0.18907733  1
  Se  Se226  1  0.25228500  0.41182238  0.69609352  1
  Se  Se227  1  0.24845087  0.75175841  0.19420876  1
  Se  Se228  1  0.25472351  0.74118473  0.69217729  1
  Se  Se229  1  0.58597203  0.07607540  0.19748193  1
  Se  Se230  1  0.58270271  0.08709467  0.70223221  1
  Se  Se231  1  0.57302667  0.42586043  0.19121062  1
  Se  Se232  1  0.57087373  0.42647024  0.68356613  1
  Se  Se233  1  0.57541721  0.75643206  0.18434635  1
  Se  Se234  1  0.59061498  0.74735910  0.70140014  1
  Se  Se235  1  0.91768902  0.07726013  0.19825353  1
  Se  Se236  1  0.90716710  0.09084663  0.69287614  1
  Se  Se237  1  0.91532313  0.41385233  0.20393579  1
  Se  Se238  1  0.90600946  0.43420766  0.69339005  1
  Se  Se239  1  0.91550816  0.74568512  0.20145719  1
  Se  Se240  1  0.91274350  0.76346809  0.69387410  1
  Se  Se241  1  0.08092284  0.25055635  0.20010705  1
  Se  Se242  1  0.09024242  0.24021537  0.68416020  1
  Se  Se243  1  0.08075372  0.58371759  0.19744012  1
  Se  Se244  1  0.08878759  0.57799696  0.69097722  1
  Se  Se245  1  0.07875382  0.91871898  0.20162380  1
  Se  Se246  1  0.09266423  0.90718737  0.68675930  1
  Se  Se247  1  0.42241418  0.24970605  0.19331738  1
  Se  Se248  1  0.41456364  0.23884901  0.69975001  1
  Se  Se249  1  0.41424632  0.58989060  0.19879113  1
  Se  Se250  1  0.41365532  0.58517943  0.69944599  1
  Se  Se251  1  0.41185217  0.92056847  0.19234405  1
  Se  Se252  1  0.43001792  0.90535146  0.68833178  1
  Se  Se253  1  0.75588189  0.23659665  0.18540003  1
  Se  Se254  1  0.75530903  0.24745709  0.69008946  1
  Se  Se255  1  0.75647270  0.57241212  0.19316062  1
  Se  Se256  1  0.74597455  0.59521322  0.69777723  1
  Se  Se257  1  0.74708645  0.91462359  0.20003300  1
  Se  Se258  1  0.74741227  0.92316212  0.69958116  1
