# generated using pymatgen
data_In86Cu29Se144
_symmetry_space_group_name_H-M   'P 1'
_cell_length_a   17.58463458
_cell_length_b   17.58394734
_cell_length_c   23.45059564
_cell_angle_alpha   90.00466457
_cell_angle_beta   90.00222747
_cell_angle_gamma   89.98990177
_symmetry_Int_Tables_number   1
_chemical_formula_structural   In86Cu29Se144
_chemical_formula_sum   'In86 Cu29 Se144'
_cell_volume   7251.09494633
_cell_formula_units_Z   1
loop_
 _symmetry_equiv_pos_site_id
 _symmetry_equiv_pos_as_xyz
  1  'x, y, z'
loop_
 _atom_site_type_symbol
 _atom_site_label
 _atom_site_symmetry_multiplicity
 _atom_site_fract_x
 _atom_site_fract_y
 _atom_site_fract_z
 _atom_site_occupancy
  In  In0  1  0.01395196  0.16286433  0.13464108  1
  In  In1  1  -0.00945505  0.16038737  0.62100119  1
  In  In2  1  -0.01378794  0.47706659  0.10444236  1
  In  In3  1  -0.00076458  0.51111147  0.62596706  1
  In  In4  1  0.01506464  0.84285053  0.12209973  1
  In  In5  1  0.00896016  0.82896316  0.62937532  1
  In  In6  1  0.33987307  0.17237038  0.11727591  1
  In  In7  1  0.32840858  0.16721270  0.62703890  1
  In  In8  1  0.31660436  0.48036100  0.10419699  1
  In  In9  1  0.33702037  0.49531921  0.63774158  1
  In  In10  1  0.32133947  0.84497587  0.12356833  1
  In  In11  1  0.31448686  0.85084032  0.63962406  1
  In  In12  1  0.67366089  0.17752115  0.12085515  1
  In  In13  1  0.67610469  0.16319998  0.63403496  1
  In  In14  1  0.65008873  0.48363457  0.09966542  1
  In  In15  1  0.67496781  0.48918442  0.63494551  1
  In  In16  1  0.66136881  0.82555206  0.12203289  1
  In  In17  1  0.66279669  0.83914914  0.63719668  1
  In  In18  1  0.16203415  0.00645314  0.38803356  1
  In  In19  1  0.16514931  0.00102928  0.87272905  1
  In  In20  1  0.13072687  0.29269389  0.32980416  1
  In  In21  1  0.16921371  0.32182478  0.88947595  1
  In  In22  1  0.17218271  0.67133825  0.37625388  1
  In  In23  1  0.16813711  0.66806338  0.87603880  1
  In  In24  1  0.50306951  0.00715694  0.37395803  1
  In  In25  1  0.50492956  0.01582201  0.87004641  1
  In  In26  1  0.49866255  0.32342656  0.36238930  1
  In  In27  1  0.49954013  0.33257585  0.87504713  1
  In  In28  1  0.49969327  0.66119569  0.38033740  1
  In  In29  1  0.49930183  0.66261488  0.87224268  1
  In  In30  1  0.85089309  -0.00258268  0.38011216  1
  In  In31  1  0.82520554  -0.00663037  0.86298750  1
  In  In32  1  0.83447207  0.33217614  0.37674538  1
  In  In33  1  0.83610878  0.35737184  0.88326512  1
  In  In34  1  0.82035396  0.66369234  0.38113172  1
  In  In35  1  0.82770984  0.65466105  0.86648787  1
  In  In36  1  0.00080477  0.16225224  0.37850021  1
  In  In37  1  0.01821629  0.16990223  0.87928399  1
  In  In38  1  0.00152626  0.48649133  0.37479764  1
  In  In39  1  -0.00586402  0.50233458  0.88715653  1
  In  In40  1  0.00576479  0.84974151  0.36985807  1
  In  In41  1  0.01068740  0.84433576  0.86643563  1
  In  In42  1  0.29422136  0.17131393  0.37958269  1
  In  In43  1  0.33181661  0.16896533  0.87303098  1
  In  In44  1  0.33893206  0.49155551  0.37355236  1
  In  In45  1  0.33620004  0.50072303  0.87687628  1
  In  In46  1  0.32377692  0.83771103  0.38731537  1
  In  In47  1  0.32166052  0.82835854  0.86750945  1
  In  In48  1  0.66120919  0.18283001  0.37710655  1
  In  In49  1  0.64818820  0.15497228  0.86952707  1
  In  In50  1  0.68007245  0.49656403  0.37796023  1
  In  In51  1  0.67005092  0.50018534  0.87664816  1
  In  In52  1  0.67803405  0.83887586  0.37936965  1
  In  In53  1  0.66824348  0.83407673  0.86636136  1
  In  In54  1  0.16311137  0.00147885  0.12043884  1
  In  In55  1  0.16889358  0.00007010  0.62422021  1
  In  In56  1  0.16846989  0.33149168  0.12511143  1
  In  In57  1  0.17787267  0.32938230  0.62761038  1
  In  In58  1  0.16906811  0.67259416  0.11555490  1
  In  In59  1  0.15445366  0.67505524  0.63663345  1
  In  In60  1  0.48419701  -0.00329881  0.11570506  1
  In  In61  1  0.50173934  -0.00101083  0.63378392  1
  In  In62  1  0.50267318  0.33256524  0.11673954  1
  In  In63  1  0.49562002  0.33729808  0.63226722  1
  In  In64  1  0.50655669  0.64765336  0.11287135  1
  In  In65  1  0.49929827  0.66730171  0.64248540  1
  In  In66  1  0.84182237  0.01571575  0.12632430  1
  In  In67  1  0.82338075  0.01535650  0.63357342  1
  In  In68  1  0.82295698  0.33502605  0.13221564  1
  In  In69  1  0.82990809  0.32316910  0.61827305  1
  In  In70  1  0.83992643  0.65706713  0.11922762  1
  In  In71  1  0.84032355  0.66069519  0.63158648  1
  In  In72  1  0.66652992  0.65518699  0.24505330  1
  In  In73  1  0.00007513  0.33554265  0.75952734  1
  In  In74  1  0.00036990  0.65981150  0.24651848  1
  In  In75  1  0.83019087  0.82793056  -0.01269415  1
  In  In76  1  0.50036492  0.49978605  0.50582427  1
  In  In77  1  0.83373928  0.16673525  -0.00143746  1
  In  In78  1  0.49465355  0.83274838  -0.01195942  1
  In  In79  1  0.49927778  0.83479299  0.51881067  1
  In  In80  1  0.32985429  0.66317053  0.23714189  1
  In  In81  1  0.67044290  0.00763966  0.25181918  1
  In  In82  1  0.50147397  0.16534373  0.50697543  1
  In  In83  1  0.32210179  0.00965426  0.26173198  1
  In  In84  1  0.84139490  0.83751267  0.50242793  1
  In  In85  1  0.16673546  0.49339070  0.50087409  1
  Cu  Cu86  1  0.32294957  0.00826278  -0.00437404  1
  Cu  Cu87  1  0.83058257  0.17453985  0.75358892  1
  Cu  Cu88  1  0.00117940  0.32993512  0.49291928  1
  Cu  Cu89  1  0.49180475  0.17380138  0.74967405  1
  Cu  Cu90  1  0.16611810  0.16414908  0.75232722  1
  Cu  Cu91  1  0.17074382  0.50084361  0.75550560  1
  Cu  Cu92  1  0.84012510  0.83058421  0.74730646  1
  Cu  Cu93  1  0.32042436  0.67034026  0.51096036  1
  Cu  Cu94  1  0.00032405  -0.00084974  -0.00369771  1
  Cu  Cu95  1  0.84291213  0.17000494  0.25284735  1
  Cu  Cu96  1  0.66562013  0.32971547  -0.00478579  1
  Cu  Cu97  1  0.83259218  0.49857600  0.75269790  1
  Cu  Cu98  1  0.66849047  0.66749049  0.50655685  1
  Cu  Cu99  1  0.00630869  0.00338921  0.50328580  1
  Cu  Cu100  1  0.48984550  0.82664718  0.25338068  1
  Cu  Cu101  1  0.16743518  0.49930467  0.23676700  1
  Cu  Cu102  1  0.83926974  0.84010621  0.24723278  1
  Cu  Cu103  1  0.50254384  0.49772011  0.75829539  1
  Cu  Cu104  1  0.49838006  0.83483033  0.75625124  1
  Cu  Cu105  1  0.33733278  0.67216518  -0.00744918  1
  Cu  Cu106  1  0.00323318  0.66742315  -0.00153967  1
  Cu  Cu107  1  0.50080496  0.17038443  0.24029749  1
  Cu  Cu108  1  -0.00096631  0.66899025  0.50568622  1
  Cu  Cu109  1  0.67207061  0.33931146  0.50092215  1
  Cu  Cu110  1  0.50183097  0.48765146  0.24039503  1
  Cu  Cu111  1  0.33854205  0.33118773  -0.00284288  1
  Cu  Cu112  1  0.32326321  0.32384511  0.49569652  1
  Cu  Cu113  1  0.83418158  0.48983362  0.24912879  1
  Cu  Cu114  1  0.16903916  0.83559136  0.75073067  1
  Se  Se115  1  0.07855477  0.08492268  0.05285553  1
  Se  Se116  1  0.08734760  0.08840672  0.55644727  1
  Se  Se117  1  0.11180364  0.43686961  0.05881989  1
  Se  Se118  1  0.07391303  0.40574188  0.56276923  1
  Se  Se119  1  0.08336068  0.75565841  0.04904021  1
  Se  Se120  1  0.08664989  0.74927930  0.55517723  1
  Se  Se121  1  0.41528752  0.08526559  0.04554428  1
  Se  Se122  1  0.41092682  0.07188127  0.56119912  1
  Se  Se123  1  0.42535560  0.41827819  0.04532340  1
  Se  Se124  1  0.40125789  0.40639807  0.55552454  1
  Se  Se125  1  0.41103994  0.74898451  0.06200705  1
  Se  Se126  1  0.40667077  0.74195571  0.57107964  1
  Se  Se127  1  0.74092613  0.07244635  0.05593147  1
  Se  Se128  1  0.75676459  0.09705494  0.55695729  1
  Se  Se129  1  0.75637496  0.40728929  0.04864811  1
  Se  Se130  1  0.75374189  0.42189571  0.55555880  1
  Se  Se131  1  0.74504812  0.73986410  0.05526943  1
  Se  Se132  1  0.74726118  0.75185588  0.56413762  1
  Se  Se133  1  0.25103220  0.25226035  0.05163860  1
  Se  Se134  1  0.24385295  0.24263267  0.55279020  1
  Se  Se135  1  0.25450706  0.59156634  0.04854032  1
  Se  Se136  1  0.24825525  0.58126858  0.56842929  1
  Se  Se137  1  0.24498984  0.91975671  0.04899033  1
  Se  Se138  1  0.24751967  0.91213313  0.55559059  1
  Se  Se139  1  0.58478193  0.24514105  0.04915295  1
  Se  Se140  1  0.58956794  0.26212176  0.56228541  1
  Se  Se141  1  0.59600226  0.59202875  0.03846743  1
  Se  Se142  1  0.58739540  0.59012795  0.56648450  1
  Se  Se143  1  0.58533078  0.91809704  0.05554747  1
  Se  Se144  1  0.59874873  0.93104400  0.56061184  1
  Se  Se145  1  0.91582610  0.24548618  0.07033371  1
  Se  Se146  1  0.91934237  0.24937065  0.54971680  1
  Se  Se147  1  0.91616377  0.58096234  0.04446354  1
  Se  Se148  1  0.91410141  0.58389765  0.55315581  1
  Se  Se149  1  0.91543457  0.92028629  0.05449538  1
  Se  Se150  1  0.92376837  0.92738743  0.56679243  1
  Se  Se151  1  0.08953632  0.25881461  0.43422183  1
  Se  Se152  1  0.06688653  0.26163020  0.95589448  1
  Se  Se153  1  0.07648428  0.58907173  0.44120535  1
  Se  Se154  1  0.08878440  0.58447600  0.94717514  1
  Se  Se155  1  0.08230229  0.91195620  0.45118538  1
  Se  Se156  1  0.08615824  0.91605917  0.94498128  1
  Se  Se157  1  0.41333927  0.25000639  0.43858143  1
  Se  Se158  1  0.41875681  0.24618778  0.94320784  1
  Se  Se159  1  0.40099386  0.59162992  0.45001595  1
  Se  Se160  1  0.42095625  0.58424443  0.94597789  1
  Se  Se161  1  0.42157524  0.92118627  0.44550893  1
  Se  Se162  1  0.40400916  0.92668224  0.93405463  1
  Se  Se163  1  0.75078927  0.25144952  0.44809461  1
  Se  Se164  1  0.74549479  0.25082791  0.93312135  1
  Se  Se165  1  0.74824270  0.58077432  0.45416552  1
  Se  Se166  1  0.76679143  0.56953208  0.94321316  1
  Se  Se167  1  0.74676970  0.93215972  0.44841707  1
  Se  Se168  1  0.73730522  0.92687259  0.94149395  1
  Se  Se169  1  0.27070806  0.06440226  0.44942739  1
  Se  Se170  1  0.24098069  0.09161651  0.94158555  1
  Se  Se171  1  0.24837236  0.40669547  0.43510920  1
  Se  Se172  1  0.25426825  0.41689435  0.94657827  1
  Se  Se173  1  0.24185526  0.75134347  0.45319752  1
  Se  Se174  1  0.24802183  0.75550041  0.94627172  1
  Se  Se175  1  0.59458982  0.07908920  0.44406154  1
  Se  Se176  1  0.58034727  0.08223662  0.95029893  1
  Se  Se177  1  0.58309582  0.40968099  0.44019822  1
  Se  Se178  1  0.58400517  0.41567880  0.94314543  1
  Se  Se179  1  0.58990965  0.74733226  0.44537081  1
  Se  Se180  1  0.59436746  0.74409002  0.93908594  1
  Se  Se181  1  0.91918584  0.08526569  0.45231075  1
  Se  Se182  1  0.91708094  0.07261154  0.93454195  1
  Se  Se183  1  0.91515527  0.41802190  0.44737025  1
  Se  Se184  1  0.93937542  0.39769511  0.95463988  1
  Se  Se185  1  0.92534299  0.74568618  0.43634093  1
  Se  Se186  1  0.92717512  0.74378494  0.93131467  1
  Se  Se187  1  0.26975051  0.26624436  0.30047794  1
  Se  Se188  1  0.24188655  0.25247683  0.80768166  1
  Se  Se189  1  0.24245224  0.57502025  0.30495764  1
  Se  Se190  1  0.25349090  0.58537586  0.80795092  1
  Se  Se191  1  0.23737486  0.90857619  0.31334622  1
  Se  Se192  1  0.25036828  0.92347851  0.80115281  1
  Se  Se193  1  0.58991321  0.24977569  0.29448779  1
  Se  Se194  1  0.58120519  0.25174729  0.80228970  1
  Se  Se195  1  0.57301776  0.56941171  0.30755313  1
  Se  Se196  1  0.58847094  0.58364352  0.80564456  1
  Se  Se197  1  0.57856461  0.90524320  0.30762780  1
  Se  Se198  1  0.58267681  0.92197933  0.80459461  1
  Se  Se199  1  0.92205871  0.25207778  0.30935251  1
  Se  Se200  1  0.90938253  0.24634234  0.81991145  1
  Se  Se201  1  0.90383371  0.57827182  0.30992962  1
  Se  Se202  1  0.92357597  0.57477155  0.80518247  1
  Se  Se203  1  0.92029464  0.92475383  0.29927953  1
  Se  Se204  1  0.91942115  0.91885043  0.79885721  1
  Se  Se205  1  0.10319589  0.09638956  0.31364185  1
  Se  Se206  1  0.07867958  0.08240565  0.80291595  1
  Se  Se207  1  0.08142342  0.42549622  0.29550434  1
  Se  Se208  1  0.09252584  0.42238580  0.81794732  1
  Se  Se209  1  0.08732627  0.75298800  0.30591489  1
  Se  Se210  1  0.08736130  0.74956397  0.80315365  1
  Se  Se211  1  0.42456174  0.10008566  0.30975973  1
  Se  Se212  1  0.41149750  0.08554660  0.80150570  1
  Se  Se213  1  0.41704655  0.41445373  0.30011613  1
  Se  Se214  1  0.41428271  0.41470012  0.80627442  1
  Se  Se215  1  0.41202111  0.74602844  0.31314001  1
  Se  Se216  1  0.41583797  0.74811706  0.80613064  1
  Se  Se217  1  0.76086617  0.09107953  0.31554374  1
  Se  Se218  1  0.74459452  0.08601507  0.80135225  1
  Se  Se219  1  0.74844936  0.41143985  0.30455425  1
  Se  Se220  1  0.74967220  0.41397597  0.80455291  1
  Se  Se221  1  0.75608955  0.75692424  0.30285308  1
  Se  Se222  1  0.75427025  0.75011084  0.80177309  1
  Se  Se223  1  0.24818759  0.09248040  0.18771772  1
  Se  Se224  1  0.24950483  0.08275568  0.69694542  1
  Se  Se225  1  0.25803331  0.41582401  0.19230009  1
  Se  Se226  1  0.24831124  0.41296715  0.70168268  1
  Se  Se227  1  0.23481039  0.76389866  0.19409148  1
  Se  Se228  1  0.25234981  0.74490147  0.70165098  1
  Se  Se229  1  0.57583125  0.08188310  0.18358593  1
  Se  Se230  1  0.57917742  0.09113301  0.69782512  1
  Se  Se231  1  0.59127069  0.41341816  0.18594791  1
  Se  Se232  1  0.58213233  0.41494757  0.70025856  1
  Se  Se233  1  0.56786735  0.74822748  0.19191933  1
  Se  Se234  1  0.58619360  0.75192235  0.70506210  1
  Se  Se235  1  0.92362830  0.08255018  0.20173607  1
  Se  Se236  1  0.91527649  0.09129244  0.70091119  1
  Se  Se237  1  0.92064490  0.41457036  0.19260572  1
  Se  Se238  1  0.91285431  0.41843069  0.69088043  1
  Se  Se239  1  0.91232116  0.75573171  0.18656669  1
  Se  Se240  1  0.92430079  0.74581984  0.69662846  1
  Se  Se241  1  0.08749414  0.25677076  0.20059030  1
  Se  Se242  1  0.08386708  0.24636255  0.69302716  1
  Se  Se243  1  0.08483775  0.57798960  0.17865764  1
  Se  Se244  1  0.08237464  0.57835724  0.70165707  1
  Se  Se245  1  0.08321476  0.92618431  0.19495987  1
  Se  Se246  1  0.08610359  0.91869601  0.69594484  1
  Se  Se247  1  0.41856806  0.25475155  0.18856441  1
  Se  Se248  1  0.40745583  0.25436830  0.69517333  1
  Se  Se249  1  0.42048007  0.56858561  0.18283360  1
  Se  Se250  1  0.41575456  0.58027998  0.70556219  1
  Se  Se251  1  0.41493686  0.91472797  0.19773598  1
  Se  Se252  1  0.41689618  0.91881120  0.70131834  1
  Se  Se253  1  0.74958265  0.24335445  0.20104299  1
  Se  Se254  1  0.75102184  0.25893347  0.69884398  1
  Se  Se255  1  0.75593954  0.56781912  0.18489112  1
  Se  Se256  1  0.75022819  0.58437076  0.69929230  1
  Se  Se257  1  0.75306191  0.91204562  0.18676086  1
  Se  Se258  1  0.75405420  0.91901846  0.70011350  1
