# generated using pymatgen
data_In86Cu29Se144
_symmetry_space_group_name_H-M   'P 1'
_cell_length_a   17.58689665
_cell_length_b   17.58764976
_cell_length_c   23.44343859
_cell_angle_alpha   89.98934430
_cell_angle_beta   89.99735177
_cell_angle_gamma   90.01989781
_symmetry_Int_Tables_number   1
_chemical_formula_structural   In86Cu29Se144
_chemical_formula_sum   'In86 Cu29 Se144'
_cell_volume   7251.34049649
_cell_formula_units_Z   1
loop_
 _symmetry_equiv_pos_site_id
 _symmetry_equiv_pos_as_xyz
  1  'x, y, z'
loop_
 _atom_site_type_symbol
 _atom_site_label
 _atom_site_symmetry_multiplicity
 _atom_site_fract_x
 _atom_site_fract_y
 _atom_site_fract_z
 _atom_site_occupancy
  In  In0  1  -0.00198934  0.17195112  0.13851879  1
  In  In1  1  -0.00736831  0.16856559  0.62980919  1
  In  In2  1  -0.00423684  0.49975902  0.13305892  1
  In  In3  1  -0.00291857  0.50173046  0.62208805  1
  In  In4  1  0.01221269  0.82145708  0.13403200  1
  In  In5  1  -0.01219121  0.83501285  0.62509947  1
  In  In6  1  0.34386523  0.16841513  0.12249242  1
  In  In7  1  0.33201211  0.17624781  0.62188889  1
  In  In8  1  0.33399184  0.50334417  0.13569825  1
  In  In9  1  0.34081447  0.51897657  0.61122541  1
  In  In10  1  0.32502937  0.82651154  0.11879985  1
  In  In11  1  0.32515827  0.80041875  0.61609470  1
  In  In12  1  0.65626740  0.17063827  0.12992265  1
  In  In13  1  0.67491730  0.16378306  0.63265112  1
  In  In14  1  0.67329553  0.48572186  0.12810732  1
  In  In15  1  0.66811936  0.50137064  0.62350657  1
  In  In16  1  0.66620668  0.84513411  0.12429081  1
  In  In17  1  0.67531695  0.83507212  0.62047650  1
  In  In18  1  0.15427604  0.00144540  0.37117493  1
  In  In19  1  0.14865307  -0.00019164  0.87814786  1
  In  In20  1  0.17666236  0.34211482  0.36288195  1
  In  In21  1  0.16073681  0.34100406  0.87199613  1
  In  In22  1  0.16013138  0.65983935  0.37399744  1
  In  In23  1  0.17282417  0.66637320  0.86238335  1
  In  In24  1  0.50372944  -0.01221664  0.37424166  1
  In  In25  1  0.50337190  -0.00386905  0.87685867  1
  In  In26  1  0.50683242  0.34607375  0.36847521  1
  In  In27  1  0.49620487  0.32177064  0.87914459  1
  In  In28  1  0.49177652  0.66982822  0.38450809  1
  In  In29  1  0.49831660  0.68115880  0.87492129  1
  In  In30  1  0.83140519  -0.00211217  0.36989627  1
  In  In31  1  0.83261118  0.00336164  0.86903908  1
  In  In32  1  0.84709121  0.36175124  0.35745901  1
  In  In33  1  0.84076676  0.34971188  0.86541576  1
  In  In34  1  0.84791108  0.65341166  0.38598046  1
  In  In35  1  0.84204934  0.64530594  0.87326301  1
  In  In36  1  0.00450399  0.16685750  0.36330115  1
  In  In37  1  -0.00553911  0.16562991  0.87020751  1
  In  In38  1  -0.00281527  0.51068500  0.37762076  1
  In  In39  1  0.00533991  0.48775343  0.85692631  1
  In  In40  1  -0.00721565  0.82761238  0.37469348  1
  In  In41  1  0.00234364  0.83844951  0.87327831  1
  In  In42  1  0.31283996  0.17516311  0.36978766  1
  In  In43  1  0.34779183  0.17766554  0.88365173  1
  In  In44  1  0.33263939  0.50594675  0.37455436  1
  In  In45  1  0.31999808  0.50621408  0.86998350  1
  In  In46  1  0.34856300  0.82784797  0.38149695  1
  In  In47  1  0.33442704  0.82649454  0.87608181  1
  In  In48  1  0.67303268  0.17502135  0.36664464  1
  In  In49  1  0.66218766  0.16311956  0.87325779  1
  In  In50  1  0.67226212  0.49346274  0.38312777  1
  In  In51  1  0.68376426  0.50128562  0.87298024  1
  In  In52  1  0.66448118  0.83795927  0.37738210  1
  In  In53  1  0.64968191  0.83189396  0.87349525  1
  In  In54  1  0.17315993  -0.01675542  0.12509865  1
  In  In55  1  0.15149276  -0.01082537  0.62290788  1
  In  In56  1  0.16514245  0.33013073  0.13854990  1
  In  In57  1  0.14167479  0.35015434  0.63460717  1
  In  In58  1  0.16438556  0.66956781  0.13115851  1
  In  In59  1  0.17208086  0.64374785  0.64774728  1
  In  In60  1  0.50313446  0.00452429  0.12157067  1
  In  In61  1  0.51432356  -0.00303767  0.62461392  1
  In  In62  1  0.50242643  0.33069258  0.12841047  1
  In  In63  1  0.50060547  0.35239457  0.62163188  1
  In  In64  1  0.48653776  0.66474987  0.12490553  1
  In  In65  1  0.49500738  0.66307950  0.61393448  1
  In  In66  1  0.82991748  0.00185977  0.13508483  1
  In  In67  1  0.83958388  -0.01294357  0.63205490  1
  In  In68  1  0.83165676  0.33807958  0.13198915  1
  In  In69  1  0.82977826  0.34170957  0.63371666  1
  In  In70  1  0.84965799  0.65922915  0.12924861  1
  In  In71  1  0.83542272  0.66710016  0.62091411  1
  In  In72  1  0.16238537  0.17444700  0.50229038  1
  In  In73  1  0.82862518  0.16963561  0.00574858  1
  In  In74  1  0.33294685  -0.00783032  0.74742095  1
  In  In75  1  0.50098782  0.17288110  0.49056456  1
  In  In76  1  0.16898933  0.49864040  -0.00731569  1
  In  In77  1  0.50363447  0.49833117  0.00698863  1
  In  In78  1  0.17159726  0.15875373  0.00905043  1
  In  In79  1  0.16269715  0.82461413  0.49638597  1
  In  In80  1  0.33155223  0.33641489  0.75500828  1
  In  In81  1  0.67334892  0.66197552  0.25327739  1
  In  In82  1  0.33231695  0.00283324  0.24758956  1
  In  In83  1  0.67468781  0.66607597  0.74453426  1
  In  In84  1  0.83350880  0.16923492  0.48879950  1
  In  In85  1  0.83137137  0.82916098  0.00002039  1
  Cu  Cu86  1  0.16861660  0.82993228  0.25223547  1
  Cu  Cu87  1  0.67016116  0.66577680  -0.00573865  1
  Cu  Cu88  1  0.49920130  0.16521810  0.24756619  1
  Cu  Cu89  1  0.49547961  0.83406573  0.74919425  1
  Cu  Cu90  1  0.82922969  0.17200882  0.75166525  1
  Cu  Cu91  1  0.66729656  0.33749340  0.50258386  1
  Cu  Cu92  1  0.00342835  0.33884239  -0.00442919  1
  Cu  Cu93  1  0.16172678  0.50578495  0.25333183  1
  Cu  Cu94  1  0.82739591  0.83495671  0.74964926  1
  Cu  Cu95  1  0.33548053  -0.00282316  0.50008652  1
  Cu  Cu96  1  0.49603642  0.50217173  0.25169202  1
  Cu  Cu97  1  0.50868951  0.16915048  0.75140861  1
  Cu  Cu98  1  0.50216098  0.83044240  0.25421501  1
  Cu  Cu99  1  -0.00210332  0.34198211  0.49680107  1
  Cu  Cu100  1  0.33734769  -0.00646578  -0.00007877  1
  Cu  Cu101  1  0.82705499  0.16315892  0.25003750  1
  Cu  Cu102  1  0.66703293  0.66775288  0.49920924  1
  Cu  Cu103  1  0.67489156  -0.00562856  0.49890801  1
  Cu  Cu104  1  0.16341224  0.15657325  0.75114384  1
  Cu  Cu105  1  -0.00048152  -0.01088585  0.00367863  1
  Cu  Cu106  1  0.32761185  0.34723591  0.49601202  1
  Cu  Cu107  1  0.00243916  0.66798203  0.50550119  1
  Cu  Cu108  1  0.00717510  0.66128965  0.00569399  1
  Cu  Cu109  1  0.67021123  0.33169308  0.00470090  1
  Cu  Cu110  1  0.50386661  0.50650396  0.74398912  1
  Cu  Cu111  1  0.65269404  -0.00087680  -0.00242100  1
  Cu  Cu112  1  0.33228751  0.67066991  -0.00236375  1
  Cu  Cu113  1  0.83687142  0.83349793  0.25223086  1
  Cu  Cu114  1  0.15465357  0.83312314  0.74588097  1
  Se  Se115  1  0.07226438  0.07460260  0.06540326  1
  Se  Se116  1  0.07070338  0.07981282  0.55585129  1
  Se  Se117  1  0.08441968  0.41221094  0.05946343  1
  Se  Se118  1  0.08383281  0.42339205  0.54983645  1
  Se  Se119  1  0.08811542  0.74883938  0.05563876  1
  Se  Se120  1  0.08332701  0.74282990  0.56858247  1
  Se  Se121  1  0.41632339  0.08126444  0.05189687  1
  Se  Se122  1  0.41393708  0.08289000  0.55728986  1
  Se  Se123  1  0.40679279  0.41373705  0.06216677  1
  Se  Se124  1  0.41845078  0.42339710  0.54807795  1
  Se  Se125  1  0.41786373  0.75086908  0.05147271  1
  Se  Se126  1  0.42646605  0.75713708  0.54577817  1
  Se  Se127  1  0.73837991  0.07268709  0.05883077  1
  Se  Se128  1  0.74969514  0.08094156  0.55692928  1
  Se  Se129  1  0.75713189  0.41445777  0.05377754  1
  Se  Se130  1  0.75333604  0.41632488  0.55700298  1
  Se  Se131  1  0.74610171  0.73956297  0.06435455  1
  Se  Se132  1  0.75303313  0.74974086  0.55177815  1
  Se  Se133  1  0.25356848  0.26112415  0.06077856  1
  Se  Se134  1  0.24994500  0.27001054  0.56059305  1
  Se  Se135  1  0.25558871  0.58741265  0.05791614  1
  Se  Se136  1  0.23718944  0.59325368  0.55721102  1
  Se  Se137  1  0.24810416  0.91137818  0.04736234  1
  Se  Se138  1  0.25486571  0.91830645  0.55957952  1
  Se  Se139  1  0.58261770  0.25111006  0.05503253  1
  Se  Se140  1  0.58921214  0.25275092  0.56042979  1
  Se  Se141  1  0.59547278  0.59056635  0.06411198  1
  Se  Se142  1  0.58675981  0.58108499  0.55273855  1
  Se  Se143  1  0.57620075  0.91162121  0.05239895  1
  Se  Se144  1  0.58725537  0.91498143  0.55152966  1
  Se  Se145  1  0.92784173  0.25680995  0.05770387  1
  Se  Se146  1  0.91921566  0.25640883  0.55462173  1
  Se  Se147  1  0.92175389  0.57700065  0.05472055  1
  Se  Se148  1  0.91343766  0.58150569  0.55109671  1
  Se  Se149  1  0.91750772  0.91515206  0.06581544  1
  Se  Se150  1  0.91260038  0.91832440  0.55309077  1
  Se  Se151  1  0.07709493  0.26104341  0.43687701  1
  Se  Se152  1  0.08185544  0.24884220  0.94281510  1
  Se  Se153  1  0.08356836  0.58480766  0.45026755  1
  Se  Se154  1  0.07803348  0.58684495  0.93456685  1
  Se  Se155  1  0.07429138  0.92276485  0.44462993  1
  Se  Se156  1  0.08381947  0.90892258  0.95063735  1
  Se  Se157  1  0.40301699  0.26051927  0.43698951  1
  Se  Se158  1  0.42022669  0.25491321  0.95765461  1
  Se  Se159  1  0.42287347  0.57157087  0.44758722  1
  Se  Se160  1  0.41270576  0.58541706  0.94101848  1
  Se  Se161  1  0.42350341  0.91701576  0.45026282  1
  Se  Se162  1  0.41776581  0.91192319  0.94179298  1
  Se  Se163  1  0.74660758  0.26774260  0.43589770  1
  Se  Se164  1  0.74958224  0.25823481  0.93802943  1
  Se  Se165  1  0.75090582  0.58096671  0.45007997  1
  Se  Se166  1  0.75616613  0.57958690  0.94951896  1
  Se  Se167  1  0.75756146  0.91409734  0.44354647  1
  Se  Se168  1  0.74138818  0.92268156  0.94087453  1
  Se  Se169  1  0.25208147  0.07632790  0.44391738  1
  Se  Se170  1  0.25768172  0.07488022  0.93843654  1
  Se  Se171  1  0.24160711  0.42394429  0.44104840  1
  Se  Se172  1  0.26364299  0.40290816  0.94133745  1
  Se  Se173  1  0.25868897  0.73794103  0.44198671  1
  Se  Se174  1  0.24488549  0.74485807  0.94059515  1
  Se  Se175  1  0.59622106  0.07840474  0.43942431  1
  Se  Se176  1  0.57626646  0.08882304  0.94497446  1
  Se  Se177  1  0.57906365  0.41634997  0.44951679  1
  Se  Se178  1  0.59271325  0.41406382  0.94171915  1
  Se  Se179  1  0.58494911  0.75212068  0.44541984  1
  Se  Se180  1  0.58152140  0.75064890  0.95064680  1
  Se  Se181  1  0.92841388  0.07880627  0.43633195  1
  Se  Se182  1  0.92117951  0.07520502  0.94728247  1
  Se  Se183  1  0.91127002  0.42388002  0.44507907  1
  Se  Se184  1  0.92670196  0.42185893  0.93807601  1
  Se  Se185  1  0.91866267  0.75054987  0.45168144  1
  Se  Se186  1  0.92382552  0.73908273  0.94298530  1
  Se  Se187  1  0.24644317  0.25153906  0.29272996  1
  Se  Se188  1  0.24421287  0.23544185  0.81173053  1
  Se  Se189  1  0.24991976  0.58795748  0.30350537  1
  Se  Se190  1  0.24603351  0.57685899  0.79348800  1
  Se  Se191  1  0.25047770  0.90901898  0.31356806  1
  Se  Se192  1  0.23632868  0.91201829  0.80883121  1
  Se  Se193  1  0.57942538  0.25079480  0.30276839  1
  Se  Se194  1  0.58509436  0.25561525  0.80659316  1
  Se  Se195  1  0.57773047  0.57971288  0.31370957  1
  Se  Se196  1  0.58039239  0.58378015  0.81061704  1
  Se  Se197  1  0.58748028  0.91654162  0.30085481  1
  Se  Se198  1  0.57931733  0.91806581  0.80071200  1
  Se  Se199  1  0.90801443  0.24672889  0.30476736  1
  Se  Se200  1  0.91736933  0.25270140  0.80355294  1
  Se  Se201  1  0.91339002  0.58451328  0.30406207  1
  Se  Se202  1  0.92580281  0.58376227  0.79662755  1
  Se  Se203  1  0.92162850  0.91820941  0.30373044  1
  Se  Se204  1  0.91377065  0.91564687  0.80505924  1
  Se  Se205  1  0.09925315  0.09394613  0.29864315  1
  Se  Se206  1  0.07505229  0.07808143  0.80321296  1
  Se  Se207  1  0.07814766  0.42423696  0.30775295  1
  Se  Se208  1  0.10371945  0.41961121  0.79215829  1
  Se  Se209  1  0.08287049  0.75061579  0.30739921  1
  Se  Se210  1  0.07704568  0.74996107  0.80423288  1
  Se  Se211  1  0.42065998  0.09001233  0.31380073  1
  Se  Se212  1  0.41878144  0.09056309  0.80567416  1
  Se  Se213  1  0.41083784  0.41800353  0.30359493  1
  Se  Se214  1  0.42794820  0.42774607  0.81101432  1
  Se  Se215  1  0.41871414  0.74713436  0.30529174  1
  Se  Se216  1  0.41249200  0.74896836  0.80062996  1
  Se  Se217  1  0.74438096  0.07843204  0.30241066  1
  Se  Se218  1  0.74685406  0.08457589  0.80351600  1
  Se  Se219  1  0.73019282  0.41104165  0.30300507  1
  Se  Se220  1  0.74673854  0.41770200  0.79770506  1
  Se  Se221  1  0.76023418  0.75205888  0.31456263  1
  Se  Se222  1  0.75628321  0.75335385  0.81616317  1
  Se  Se223  1  0.24342422  0.09029279  0.18598403  1
  Se  Se224  1  0.24411663  0.08617436  0.68634143  1
  Se  Se225  1  0.24656560  0.42237732  0.20053408  1
  Se  Se226  1  0.25905727  0.42098446  0.68208279  1
  Se  Se227  1  0.25385007  0.75015445  0.19727422  1
  Se  Se228  1  0.24715557  0.75066586  0.70168620  1
  Se  Se229  1  0.58192358  0.07815860  0.19755037  1
  Se  Se230  1  0.58537585  0.08187833  0.69704544  1
  Se  Se231  1  0.57887890  0.41988430  0.19667864  1
  Se  Se232  1  0.58638154  0.41957882  0.69551846  1
  Se  Se233  1  0.58118211  0.75112907  0.19113121  1
  Se  Se234  1  0.57811146  0.75373930  0.68913246  1
  Se  Se235  1  0.91692321  0.08073088  0.20135521  1
  Se  Se236  1  0.90919967  0.08572678  0.69701537  1
  Se  Se237  1  0.92978633  0.40130833  0.19801450  1
  Se  Se238  1  0.94487037  0.39346635  0.68823986  1
  Se  Se239  1  0.91896419  0.74790758  0.20012464  1
  Se  Se240  1  0.90762161  0.75154712  0.69515543  1
  Se  Se241  1  0.07188417  0.26119018  0.20455322  1
  Se  Se242  1  0.08457859  0.24297251  0.69690949  1
  Se  Se243  1  0.07936519  0.58753049  0.19721206  1
  Se  Se244  1  0.05146511  0.59710404  0.69872731  1
  Se  Se245  1  0.08715766  0.91595985  0.19956992  1
  Se  Se246  1  0.07070595  0.91846984  0.69687750  1
  Se  Se247  1  0.41585694  0.25035361  0.19716625  1
  Se  Se248  1  0.42580569  0.24814704  0.69201295  1
  Se  Se249  1  0.41400570  0.59060315  0.20259259  1
  Se  Se250  1  0.41959016  0.58712619  0.69102519  1
  Se  Se251  1  0.42094007  0.90838284  0.19016211  1
  Se  Se252  1  0.41671434  0.90580442  0.68145219  1
  Se  Se253  1  0.74756699  0.24813122  0.19420444  1
  Se  Se254  1  0.74579980  0.25626119  0.69977708  1
  Se  Se255  1  0.76247837  0.57032414  0.19523935  1
  Se  Se256  1  0.76616282  0.57077892  0.69412634  1
  Se  Se257  1  0.74847083  0.91336763  0.20021585  1
  Se  Se258  1  0.74205844  0.91760188  0.69835908  1
