# generated using pymatgen
data_In86Cu29Se144
_symmetry_space_group_name_H-M   'P 1'
_cell_length_a   17.58826817
_cell_length_b   17.58451295
_cell_length_c   23.45070758
_cell_angle_alpha   89.98623172
_cell_angle_beta   89.99870424
_cell_angle_gamma   89.99736801
_symmetry_Int_Tables_number   1
_chemical_formula_structural   In86Cu29Se144
_chemical_formula_sum   'In86 Cu29 Se144'
_cell_volume   7252.86110804
_cell_formula_units_Z   1
loop_
 _symmetry_equiv_pos_site_id
 _symmetry_equiv_pos_as_xyz
  1  'x, y, z'
loop_
 _atom_site_type_symbol
 _atom_site_label
 _atom_site_symmetry_multiplicity
 _atom_site_fract_x
 _atom_site_fract_y
 _atom_site_fract_z
 _atom_site_occupancy
  In  In0  1  0.00166428  0.16520104  0.12872165  1
  In  In1  1  -0.00952343  0.16948687  0.62427111  1
  In  In2  1  -0.01844931  0.49973203  0.12455502  1
  In  In3  1  0.00498939  0.49186625  0.61851156  1
  In  In4  1  0.01908967  0.83483217  0.13143556  1
  In  In5  1  0.01169615  0.84870799  0.60711437  1
  In  In6  1  0.32017552  0.15017757  0.11133939  1
  In  In7  1  0.32092649  0.14202190  0.63063228  1
  In  In8  1  0.34189645  0.51045845  0.12746248  1
  In  In9  1  0.33249351  0.51630746  0.62944062  1
  In  In10  1  0.33251126  0.83743107  0.12941083  1
  In  In11  1  0.33030792  0.83239726  0.62720862  1
  In  In12  1  0.68187058  0.18079772  0.10596208  1
  In  In13  1  0.66169148  0.15109656  0.62603243  1
  In  In14  1  0.67546923  0.48923279  0.13452145  1
  In  In15  1  0.67869682  0.51373903  0.62506295  1
  In  In16  1  0.65390820  0.83890115  0.12685050  1
  In  In17  1  0.66732876  0.83598325  0.62002837  1
  In  In18  1  0.14724226  -0.02455550  0.35394831  1
  In  In19  1  0.16289886  0.00028727  0.87401418  1
  In  In20  1  0.16488162  0.34647983  0.37172244  1
  In  In21  1  0.15612667  0.32918757  0.87674414  1
  In  In22  1  0.17014736  0.66581559  0.37973873  1
  In  In23  1  0.18923854  0.66528703  0.86943190  1
  In  In24  1  0.48661630  -0.00863608  0.37062062  1
  In  In25  1  0.49687420  -0.00546608  0.87516433  1
  In  In26  1  0.51025846  0.32120973  0.36591578  1
  In  In27  1  0.49906330  0.32961882  0.88339591  1
  In  In28  1  0.51404085  0.68627846  0.36736723  1
  In  In29  1  0.50326984  0.67882859  0.87240471  1
  In  In30  1  0.85766458  -0.01716701  0.39078509  1
  In  In31  1  0.84071469  0.01073914  0.87029872  1
  In  In32  1  0.82782228  0.32360156  0.36671583  1
  In  In33  1  0.84007445  0.32441209  0.89041699  1
  In  In34  1  0.82472279  0.68337928  0.37372121  1
  In  In35  1  0.82047653  0.67380251  0.87768500  1
  In  In36  1  -0.01394314  0.15021786  0.36500370  1
  In  In37  1  0.00696046  0.15505223  0.88543458  1
  In  In38  1  0.01361645  0.50688595  0.37168587  1
  In  In39  1  0.00106983  0.48961172  0.87512729  1
  In  In40  1  -0.00179680  0.84201265  0.38188430  1
  In  In41  1  0.00033086  0.85418520  0.87320782  1
  In  In42  1  0.33858754  0.14941659  0.37076743  1
  In  In43  1  0.33781480  0.15643692  0.88100436  1
  In  In44  1  0.31730041  0.50605700  0.37845762  1
  In  In45  1  0.33218948  0.52049810  0.86885979  1
  In  In46  1  0.33182699  0.83540013  0.37726915  1
  In  In47  1  0.33091558  0.83474758  0.87516549  1
  In  In48  1  0.67284667  0.17439729  0.36770668  1
  In  In49  1  0.67729002  0.15877426  0.88433609  1
  In  In50  1  0.67186303  0.50530853  0.36851637  1
  In  In51  1  0.66207847  0.51163634  0.87910963  1
  In  In52  1  0.67722079  0.81729643  0.38897467  1
  In  In53  1  0.65521518  0.82351925  0.87006812  1
  In  In54  1  0.16487728  -0.00244745  0.13026895  1
  In  In55  1  0.17325607  -0.00591582  0.63692157  1
  In  In56  1  0.17072299  0.31669890  0.12425646  1
  In  In57  1  0.15772398  0.32673442  0.62203041  1
  In  In58  1  0.16773845  0.68875388  0.12988029  1
  In  In59  1  0.17197978  0.67432919  0.61965826  1
  In  In60  1  0.49562948  -0.00905227  0.11482918  1
  In  In61  1  0.50778175  -0.01505312  0.63579057  1
  In  In62  1  0.51652568  0.32760494  0.12301412  1
  In  In63  1  0.50207022  0.32879164  0.63078188  1
  In  In64  1  0.48871853  0.67581663  0.13359562  1
  In  In65  1  0.49753649  0.67735719  0.62777985  1
  In  In66  1  0.82857638  0.01017209  0.12586003  1
  In  In67  1  0.83324914  -0.00230539  0.61991217  1
  In  In68  1  0.83273243  0.33310290  0.12548598  1
  In  In69  1  0.84494687  0.32843316  0.62268770  1
  In  In70  1  0.83479379  0.65127873  0.12607595  1
  In  In71  1  0.81668037  0.68333002  0.62922666  1
  In  In72  1  -0.00465752  0.67109320  0.25225483  1
  In  In73  1  0.49657048  0.50684420  0.50413807  1
  In  In74  1  0.66591229  0.00216028  0.24575164  1
  In  In75  1  0.00132797  0.32806695  0.75192520  1
  In  In76  1  0.50507163  0.49467550  0.00476253  1
  In  In77  1  0.83260668  0.83753486  0.00175622  1
  In  In78  1  0.84227106  0.50810037  0.49280901  1
  In  In79  1  0.50287087  0.16358624  0.49625645  1
  In  In80  1  0.00206431  0.67188958  0.73926698  1
  In  In81  1  0.66724269  0.33545811  0.76133772  1
  In  In82  1  0.33391641  0.33374808  0.75918944  1
  In  In83  1  0.33528269  0.33502036  0.24720262  1
  In  In84  1  0.16174492  0.15941689  0.49970534  1
  In  In85  1  0.16574797  0.49997201  -0.00589743  1
  Cu  Cu86  1  0.49296271  0.83279949  0.75034638  1
  Cu  Cu87  1  0.49708360  0.83484118  0.24951048  1
  Cu  Cu88  1  0.66303943  0.66271584  0.00152828  1
  Cu  Cu89  1  0.33016989  0.32642480  -0.00223331  1
  Cu  Cu90  1  0.82554571  0.84608804  0.74840560  1
  Cu  Cu91  1  0.83527180  0.16453921  0.24517854  1
  Cu  Cu92  1  0.82768708  0.49407872  0.24924681  1
  Cu  Cu93  1  0.00313435  0.66591775  0.49817208  1
  Cu  Cu94  1  0.66667848  0.00202653  0.50358478  1
  Cu  Cu95  1  0.16154294  0.50547226  0.25178247  1
  Cu  Cu96  1  0.33011187  -0.00804630  -0.00215120  1
  Cu  Cu97  1  0.33088344  0.33485379  0.49879476  1
  Cu  Cu98  1  0.33265040  0.67156332  0.50153030  1
  Cu  Cu99  1  0.16766581  0.16622888  0.24536297  1
  Cu  Cu100  1  0.67341647  0.33699339  0.49255936  1
  Cu  Cu101  1  0.00206171  0.67017056  0.00576272  1
  Cu  Cu102  1  0.83058191  0.51034361  0.75439928  1
  Cu  Cu103  1  0.66305969  -0.00306805  -0.00330488  1
  Cu  Cu104  1  0.50508983  0.16634454  0.23741126  1
  Cu  Cu105  1  -0.00336394  0.33043915  0.00454058  1
  Cu  Cu106  1  0.82698439  0.16066904  0.74932417  1
  Cu  Cu107  1  0.00475994  0.00432126  0.00231161  1
  Cu  Cu108  1  0.49356428  0.15373692  0.75432076  1
  Cu  Cu109  1  0.49984940  0.50440370  0.24975843  1
  Cu  Cu110  1  0.50879399  0.51333835  0.75101703  1
  Cu  Cu111  1  0.33366259  -0.00993786  0.50262742  1
  Cu  Cu112  1  0.33389652  0.67818953  0.00369909  1
  Cu  Cu113  1  0.00191098  0.32760644  0.49693367  1
  Cu  Cu114  1  0.16471582  0.83169672  0.74827241  1
  Se  Se115  1  0.08724384  0.08459580  0.05956691  1
  Se  Se116  1  0.07872048  0.07431637  0.56613461  1
  Se  Se117  1  0.08091926  0.41331428  0.06145143  1
  Se  Se118  1  0.08591395  0.41120398  0.54843723  1
  Se  Se119  1  0.08694776  0.75569177  0.05208820  1
  Se  Se120  1  0.08866580  0.75062463  0.54822401  1
  Se  Se121  1  0.41644364  0.07874590  0.04693454  1
  Se  Se122  1  0.41594496  0.07444199  0.55957885  1
  Se  Se123  1  0.40618485  0.40603573  0.06101598  1
  Se  Se124  1  0.41067713  0.40821922  0.56286112  1
  Se  Se125  1  0.41879435  0.75720999  0.05793208  1
  Se  Se126  1  0.41516930  0.75369452  0.55581420  1
  Se  Se127  1  0.75284706  0.07747191  0.04614946  1
  Se  Se128  1  0.75018683  0.08832270  0.55298712  1
  Se  Se129  1  0.75366367  0.42172538  0.05856813  1
  Se  Se130  1  0.75060923  0.41484291  0.55634598  1
  Se  Se131  1  0.74453410  0.74389428  0.06155542  1
  Se  Se132  1  0.75128143  0.75647546  0.54965608  1
  Se  Se133  1  0.24283214  0.24351156  0.04611901  1
  Se  Se134  1  0.26022525  0.24737296  0.55970409  1
  Se  Se135  1  0.25283560  0.59051350  0.05780708  1
  Se  Se136  1  0.25126230  0.58272120  0.55240652  1
  Se  Se137  1  0.24797591  0.91633134  0.05887029  1
  Se  Se138  1  0.24567507  0.91619295  0.55939259  1
  Se  Se139  1  0.57583344  0.24410588  0.04588925  1
  Se  Se140  1  0.59244219  0.25933644  0.55609153  1
  Se  Se141  1  0.58544424  0.58791950  0.06815317  1
  Se  Se142  1  0.59202410  0.59563275  0.55777287  1
  Se  Se143  1  0.58215091  0.90971739  0.04692357  1
  Se  Se144  1  0.57887501  0.91968796  0.55311106  1
  Se  Se145  1  0.91667150  0.24637557  0.05936986  1
  Se  Se146  1  0.91464831  0.24728277  0.54793545  1
  Se  Se147  1  0.91478995  0.58285751  0.04791163  1
  Se  Se148  1  0.92149945  0.59490815  0.56380877  1
  Se  Se149  1  0.92604996  0.92185835  0.06319129  1
  Se  Se150  1  0.89836707  0.90155085  0.55096844  1
  Se  Se151  1  0.08025948  0.25007711  0.43317104  1
  Se  Se152  1  0.08193621  0.24990346  0.95041603  1
  Se  Se153  1  0.08784661  0.58019942  0.44876711  1
  Se  Se154  1  0.07799770  0.59475135  0.93648157  1
  Se  Se155  1  0.08989060  0.92101765  0.44535861  1
  Se  Se156  1  0.08485990  0.91778679  0.94924212  1
  Se  Se157  1  0.40904276  0.25646503  0.43771987  1
  Se  Se158  1  0.41774830  0.24446827  0.94851219  1
  Se  Se159  1  0.41187044  0.59300435  0.43828574  1
  Se  Se160  1  0.41451830  0.59103534  0.94737277  1
  Se  Se161  1  0.42077007  0.91167699  0.44918462  1
  Se  Se162  1  0.41716963  0.91062866  0.94598304  1
  Se  Se163  1  0.75275199  0.24734321  0.44401915  1
  Se  Se164  1  0.74741001  0.24937654  0.95230173  1
  Se  Se165  1  0.73984801  0.59358284  0.44448559  1
  Se  Se166  1  0.75110432  0.58452797  0.94928241  1
  Se  Se167  1  0.74834737  0.91934742  0.44852740  1
  Se  Se168  1  0.74538006  0.91882919  0.93447141  1
  Se  Se169  1  0.25576676  0.07214093  0.44279096  1
  Se  Se170  1  0.24690859  0.07865921  0.94643775  1
  Se  Se171  1  0.24546812  0.41705097  0.44847799  1
  Se  Se172  1  0.26228085  0.41323710  0.93444856  1
  Se  Se173  1  0.24843795  0.75368655  0.44727960  1
  Se  Se174  1  0.24706437  0.75220077  0.94658879  1
  Se  Se175  1  0.59067916  0.07579991  0.43392240  1
  Se  Se176  1  0.57939584  0.08029748  0.94360099  1
  Se  Se177  1  0.58394435  0.41358915  0.43967387  1
  Se  Se178  1  0.59811332  0.40689379  0.94575941  1
  Se  Se179  1  0.57355052  0.75531643  0.45213891  1
  Se  Se180  1  0.58218118  0.74952200  0.94970792  1
  Se  Se181  1  0.92323812  0.08641423  0.45099534  1
  Se  Se182  1  0.91213701  0.08194548  0.95163892  1
  Se  Se183  1  0.92495724  0.41003107  0.43478137  1
  Se  Se184  1  0.92050799  0.41988449  0.95052491  1
  Se  Se185  1  0.91895834  0.74634840  0.44388551  1
  Se  Se186  1  0.92476920  0.74957488  0.94014877  1
  Se  Se187  1  0.24724395  0.24345394  0.30974429  1
  Se  Se188  1  0.24246051  0.24099548  0.81295825  1
  Se  Se189  1  0.24684774  0.58700306  0.30296308  1
  Se  Se190  1  0.24545994  0.57740633  0.79291194  1
  Se  Se191  1  0.27773851  0.94347108  0.31258334  1
  Se  Se192  1  0.24542198  0.91398201  0.80592736  1
  Se  Se193  1  0.58931140  0.24648377  0.29238034  1
  Se  Se194  1  0.57370759  0.23929233  0.81089576  1
  Se  Se195  1  0.58378223  0.58638691  0.30383105  1
  Se  Se196  1  0.59019451  0.59471255  0.80626407  1
  Se  Se197  1  0.58340113  0.91015539  0.30950500  1
  Se  Se198  1  0.57955389  0.91438136  0.80348789  1
  Se  Se199  1  0.91828677  0.24915153  0.29923219  1
  Se  Se200  1  0.90848233  0.24045235  0.81058817  1
  Se  Se201  1  0.90484930  0.57687134  0.31165238  1
  Se  Se202  1  0.91736725  0.58663358  0.81141782  1
  Se  Se203  1  0.91635033  0.91235948  0.30625107  1
  Se  Se204  1  0.91569150  0.92356017  0.79967571  1
  Se  Se205  1  0.08202516  0.08350706  0.29692395  1
  Se  Se206  1  0.06713202  0.07292693  0.80823878  1
  Se  Se207  1  0.07855037  0.41644884  0.29811338  1
  Se  Se208  1  0.09606041  0.42639380  0.80173955  1
  Se  Se209  1  0.08808429  0.75516793  0.31157624  1
  Se  Se210  1  0.08507864  0.75362355  0.81142822  1
  Se  Se211  1  0.42722458  0.08600628  0.29686163  1
  Se  Se212  1  0.40801357  0.07326147  0.80591666  1
  Se  Se213  1  0.42136243  0.42372691  0.31280734  1
  Se  Se214  1  0.43251783  0.42902306  0.81154411  1
  Se  Se215  1  0.41249872  0.75292650  0.30446035  1
  Se  Se216  1  0.41026742  0.74832604  0.80434837  1
  Se  Se217  1  0.76111599  0.08192404  0.30880961  1
  Se  Se218  1  0.74257071  0.08063267  0.80391907  1
  Se  Se219  1  0.74338645  0.41076556  0.30261790  1
  Se  Se220  1  0.76258221  0.42390746  0.81733134  1
  Se  Se221  1  0.74040048  0.75345369  0.30198285  1
  Se  Se222  1  0.75138718  0.75448372  0.80174025  1
  Se  Se223  1  0.25411763  0.08332583  0.19568583  1
  Se  Se224  1  0.24298836  0.08167342  0.70919512  1
  Se  Se225  1  0.24155766  0.42606459  0.18818587  1
  Se  Se226  1  0.24918753  0.41313031  0.68741130  1
  Se  Se227  1  0.25920989  0.74867392  0.20034052  1
  Se  Se228  1  0.24880545  0.74683396  0.69706256  1
  Se  Se229  1  0.58520889  0.08791367  0.17614965  1
  Se  Se230  1  0.58374208  0.07864595  0.70105315  1
  Se  Se231  1  0.57874904  0.41532163  0.19875068  1
  Se  Se232  1  0.58358015  0.42718197  0.69240681  1
  Se  Se233  1  0.58309116  0.75132802  0.19868519  1
  Se  Se234  1  0.58344458  0.75815888  0.69453968  1
  Se  Se235  1  0.91943109  0.07825618  0.19624007  1
  Se  Se236  1  0.91123096  0.08386743  0.69191338  1
  Se  Se237  1  0.91557717  0.41358074  0.19853023  1
  Se  Se238  1  0.90884504  0.42712616  0.69534145  1
  Se  Se239  1  0.90984359  0.75602669  0.18616156  1
  Se  Se240  1  0.91176616  0.76885378  0.68854664  1
  Se  Se241  1  0.08283269  0.25301520  0.19797238  1
  Se  Se242  1  0.09187729  0.23511584  0.69557627  1
  Se  Se243  1  0.08337442  0.58142627  0.18628456  1
  Se  Se244  1  0.09057364  0.57454609  0.68632362  1
  Se  Se245  1  0.09310702  0.91321942  0.20455733  1
  Se  Se246  1  0.07668096  0.91021677  0.69541070  1
  Se  Se247  1  0.41484241  0.24318745  0.18206887  1
  Se  Se248  1  0.41804033  0.23780436  0.69366635  1
  Se  Se249  1  0.41144968  0.58844560  0.20388946  1
  Se  Se250  1  0.42029221  0.58970486  0.69782892  1
  Se  Se251  1  0.42015880  0.92310711  0.19515474  1
  Se  Se252  1  0.40787091  0.91746191  0.69928476  1
  Se  Se253  1  0.74843594  0.24528372  0.19215436  1
  Se  Se254  1  0.75169991  0.24958013  0.69188202  1
  Se  Se255  1  0.74782020  0.58531550  0.20076048  1
  Se  Se256  1  0.74801424  0.59302008  0.70179402  1
  Se  Se257  1  0.75796426  0.90763264  0.19018611  1
  Se  Se258  1  0.74286559  0.92450339  0.69082637  1
