# generated using pymatgen
data_In86Cu29Se144
_symmetry_space_group_name_H-M   'P 1'
_cell_length_a   17.62214003
_cell_length_b   17.62009069
_cell_length_c   23.47105395
_cell_angle_alpha   89.99051725
_cell_angle_beta   90.00472042
_cell_angle_gamma   89.98283953
_symmetry_Int_Tables_number   1
_chemical_formula_structural   In86Cu29Se144
_chemical_formula_sum   'In86 Cu29 Se144'
_cell_volume   7287.84877164
_cell_formula_units_Z   1
loop_
 _symmetry_equiv_pos_site_id
 _symmetry_equiv_pos_as_xyz
  1  'x, y, z'
loop_
 _atom_site_type_symbol
 _atom_site_label
 _atom_site_symmetry_multiplicity
 _atom_site_fract_x
 _atom_site_fract_y
 _atom_site_fract_z
 _atom_site_occupancy
  In  In0  1  -0.00232005  0.16528030  0.11692806  1
  In  In1  1  0.00271217  0.14764865  0.63036542  1
  In  In2  1  -0.00247048  0.49891366  0.12371751  1
  In  In3  1  0.00271473  0.52155321  0.62096490  1
  In  In4  1  0.01800467  0.82831135  0.12568772  1
  In  In5  1  -0.00133647  0.83643403  0.62720683  1
  In  In6  1  0.32592377  0.15611253  0.10908680  1
  In  In7  1  0.32891955  0.17485880  0.63362208  1
  In  In8  1  0.34072634  0.51609425  0.11979261  1
  In  In9  1  0.33263433  0.49710710  0.63511129  1
  In  In10  1  0.33418300  0.82567117  0.11553894  1
  In  In11  1  0.32284175  0.84304755  0.63827214  1
  In  In12  1  0.66384037  0.16052151  0.10921392  1
  In  In13  1  0.65428496  0.18402716  0.64892532  1
  In  In14  1  0.67590943  0.50819547  0.12783726  1
  In  In15  1  0.66136577  0.50102896  0.62385680  1
  In  In16  1  0.65700531  0.82667749  0.12061313  1
  In  In17  1  0.67134183  0.82635840  0.63093863  1
  In  In18  1  0.15757209  0.00452958  0.38270218  1
  In  In19  1  0.17736280  -0.00166963  0.86695081  1
  In  In20  1  0.16058928  0.33062156  0.37941429  1
  In  In21  1  0.17827104  0.31655147  0.88084841  1
  In  In22  1  0.18666206  0.67221442  0.37703802  1
  In  In23  1  0.16872586  0.67122461  0.87595847  1
  In  In24  1  0.50185467  0.00777687  0.38064276  1
  In  In25  1  0.49514822  0.00115260  0.86705185  1
  In  In26  1  0.51210174  0.33452765  0.37570561  1
  In  In27  1  0.48046190  0.31521742  0.84175560  1
  In  In28  1  0.48767600  0.65863682  0.37562556  1
  In  In29  1  0.49897411  0.66638295  0.87134076  1
  In  In30  1  0.83716065  -0.01208679  0.37889843  1
  In  In31  1  0.84110062  0.00600581  0.87370616  1
  In  In32  1  0.83599928  0.32984154  0.38375296  1
  In  In33  1  0.81970771  0.32749946  0.87368077  1
  In  In34  1  0.82944049  0.67092242  0.38089044  1
  In  In35  1  0.83221745  0.66421609  0.86830376  1
  In  In36  1  0.01695256  0.16154661  0.37737716  1
  In  In37  1  0.01750963  0.14770222  0.88718896  1
  In  In38  1  -0.00302086  0.49341608  0.38173144  1
  In  In39  1  0.00448568  0.51808486  0.87064047  1
  In  In40  1  -0.00364761  0.84331530  0.37781777  1
  In  In41  1  0.03623963  0.85526015  0.84178271  1
  In  In42  1  0.32607718  0.15405089  0.37430932  1
  In  In43  1  0.33763437  0.15851192  0.86649726  1
  In  In44  1  0.33269424  0.51983870  0.37838019  1
  In  In45  1  0.33312779  0.49597509  0.86840281  1
  In  In46  1  0.33474910  0.81744732  0.37968820  1
  In  In47  1  0.32686427  0.83146966  0.87207513  1
  In  In48  1  0.66473488  0.17131284  0.37528919  1
  In  In49  1  0.66168791  0.16767104  0.87110067  1
  In  In50  1  0.65743062  0.50628427  0.38562489  1
  In  In51  1  0.65225824  0.49082511  0.85368892  1
  In  In52  1  0.68176897  0.83322438  0.38397956  1
  In  In53  1  0.65229320  0.81673563  0.86715211  1
  In  In54  1  0.16075487  -0.00396146  0.12131154  1
  In  In55  1  0.16409773  -0.00587776  0.62814783  1
  In  In56  1  0.16615439  0.33494520  0.11213913  1
  In  In57  1  0.18399188  0.33490240  0.62626544  1
  In  In58  1  0.18568290  0.68313456  0.10456702  1
  In  In59  1  0.15716328  0.68406573  0.64195574  1
  In  In60  1  0.49397024  -0.00878305  0.10666940  1
  In  In61  1  0.49709261  0.01186584  0.64720440  1
  In  In62  1  0.50778340  0.32677999  0.12072979  1
  In  In63  1  0.48269955  0.35344007  0.64649018  1
  In  In64  1  0.49570097  0.67403741  0.12950921  1
  In  In65  1  0.50047672  0.65248057  0.63955158  1
  In  In66  1  0.83451830  0.00948951  0.12231287  1
  In  In67  1  0.84015241  -0.00873959  0.63462885  1
  In  In68  1  0.83781037  0.33338183  0.12221203  1
  In  In69  1  0.82062950  0.34060761  0.62382584  1
  In  In70  1  0.82183022  0.65710000  0.12815133  1
  In  In71  1  0.83236950  0.67257912  0.61770586  1
  In  In72  1  0.17287333  0.50687157  0.50469729  1
  In  In73  1  -0.00059786  0.33563779  0.24381840  1
  In  In74  1  -0.00437670  0.33309953  0.75540325  1
  In  In75  1  0.67085381  0.33603243  0.25152546  1
  In  In76  1  0.49419419  0.82789384  0.51764788  1
  In  In77  1  0.66880121  -0.00403223  0.25064205  1
  In  In78  1  0.49244347  0.17252967  0.51323822  1
  In  In79  1  0.83223496  0.16578373  0.51088767  1
  In  In80  1  0.32488284  -0.01305263  0.23545435  1
  In  In81  1  0.00036159  0.66728329  0.25294764  1
  In  In82  1  0.83942320  0.83462556  -0.00809212  1
  In  In83  1  0.49623049  0.49717583  -0.01082861  1
  In  In84  1  0.83328759  0.49877765  -0.00048147  1
  In  In85  1  0.33102139  0.33445491  0.25154479  1
  Cu  Cu86  1  0.16852602  0.16570224  0.75172705  1
  Cu  Cu87  1  0.17198287  0.83517478  0.24502103  1
  Cu  Cu88  1  0.32503017  -0.00788231  0.50447016  1
  Cu  Cu89  1  0.66215473  0.66076067  -0.00877540  1
  Cu  Cu90  1  0.66307035  -0.00275807  -0.00997867  1
  Cu  Cu91  1  0.83940745  0.16548153  0.24611621  1
  Cu  Cu92  1  0.50090476  0.50989576  0.25350308  1
  Cu  Cu93  1  -0.00570633  0.33280048  -0.00178017  1
  Cu  Cu94  1  0.65789176  0.34962366  0.50815920  1
  Cu  Cu95  1  0.33400229  0.00229402  -0.00950728  1
  Cu  Cu96  1  0.83419180  0.83086412  0.25499206  1
  Cu  Cu97  1  0.66214400  0.66952566  0.50558294  1
  Cu  Cu98  1  0.49341792  0.15632115  0.23869204  1
  Cu  Cu99  1  0.65787757  0.32461036  -0.00826128  1
  Cu  Cu100  1  0.34005646  0.33172896  0.50651912  1
  Cu  Cu101  1  0.66913354  0.00357016  0.51552080  1
  Cu  Cu102  1  0.83322266  0.50996391  0.74221534  1
  Cu  Cu103  1  0.83730330  0.16137578  0.75319204  1
  Cu  Cu104  1  0.00397524  -0.00615855  0.50596953  1
  Cu  Cu105  1  0.82980493  0.82762747  0.74959655  1
  Cu  Cu106  1  0.49533764  0.83398495  0.75172197  1
  Cu  Cu107  1  0.00588515  0.67524301  -0.00762405  1
  Cu  Cu108  1  0.17030123  0.49797811  0.75157603  1
  Cu  Cu109  1  0.50946944  0.82287019  0.25206087  1
  Cu  Cu110  1  0.33703848  0.32733489  -0.01111964  1
  Cu  Cu111  1  0.16994912  0.50832659  0.24448609  1
  Cu  Cu112  1  -0.00025517  0.67520435  0.50169337  1
  Cu  Cu113  1  0.00149825  0.33208143  0.50032277  1
  Cu  Cu114  1  0.00722701  -0.00384453  -0.00505346  1
  Se  Se115  1  0.08531956  0.08333905  0.05121724  1
  Se  Se116  1  0.08650766  0.08086027  0.55552359  1
  Se  Se117  1  0.07412766  0.41858751  0.05156509  1
  Se  Se118  1  0.08073698  0.41279215  0.56212559  1
  Se  Se119  1  0.08812717  0.76095778  0.04426961  1
  Se  Se120  1  0.08318055  0.75111632  0.55930281  1
  Se  Se121  1  0.42038967  0.08589396  0.04291270  1
  Se  Se122  1  0.40729065  0.07153339  0.56418891  1
  Se  Se123  1  0.41071479  0.40624784  0.05633468  1
  Se  Se124  1  0.41433739  0.41902909  0.56143998  1
  Se  Se125  1  0.42891432  0.75160068  0.05252001  1
  Se  Se126  1  0.40566480  0.74179894  0.57764952  1
  Se  Se127  1  0.74878931  0.07424623  0.04690504  1
  Se  Se128  1  0.74056507  0.08821680  0.57634208  1
  Se  Se129  1  0.73525291  0.40647543  0.05483927  1
  Se  Se130  1  0.75274154  0.42796983  0.55143826  1
  Se  Se131  1  0.74687990  0.73987701  0.05041224  1
  Se  Se132  1  0.74747135  0.75839928  0.55077010  1
  Se  Se133  1  0.24984203  0.25056071  0.04593890  1
  Se  Se134  1  0.25338590  0.24716047  0.55379939  1
  Se  Se135  1  0.23917097  0.56715415  0.05235747  1
  Se  Se136  1  0.24788166  0.59343059  0.57478124  1
  Se  Se137  1  0.25841307  0.92563062  0.05659534  1
  Se  Se138  1  0.24471960  0.90904769  0.55784083  1
  Se  Se139  1  0.57495017  0.24277501  0.04622021  1
  Se  Se140  1  0.58491626  0.26286225  0.56676331  1
  Se  Se141  1  0.58614051  0.58166064  0.05633633  1
  Se  Se142  1  0.57721437  0.58702616  0.55727966  1
  Se  Se143  1  0.58785540  0.91058039  0.04682571  1
  Se  Se144  1  0.58038378  0.92835698  0.57030022  1
  Se  Se145  1  0.91108412  0.24981233  0.05128714  1
  Se  Se146  1  0.92602002  0.25578846  0.56691806  1
  Se  Se147  1  0.92266947  0.59861493  0.05407581  1
  Se  Se148  1  0.91476910  0.58723517  0.54799563  1
  Se  Se149  1  0.92673958  0.91914399  0.05867213  1
  Se  Se150  1  0.91274659  0.91646241  0.55605757  1
  Se  Se151  1  0.08582054  0.24734383  0.45109905  1
  Se  Se152  1  0.08389350  0.24946511  0.94992267  1
  Se  Se153  1  0.08018924  0.59257479  0.44090136  1
  Se  Se154  1  0.08703806  0.58314539  0.94697849  1
  Se  Se155  1  0.08604846  0.91176124  0.44990477  1
  Se  Se156  1  0.08621723  0.91817452  0.93472579  1
  Se  Se157  1  0.41020113  0.25307505  0.43696358  1
  Se  Se158  1  0.42045524  0.25165956  0.93056547  1
  Se  Se159  1  0.41300980  0.58726830  0.45314238  1
  Se  Se160  1  0.40299902  0.59222910  0.94126871  1
  Se  Se161  1  0.41521478  0.92155314  0.44570970  1
  Se  Se162  1  0.41372508  0.91775473  0.93648621  1
  Se  Se163  1  0.73439907  0.25867815  0.45172968  1
  Se  Se164  1  0.74855439  0.24259691  0.94606251  1
  Se  Se165  1  0.74644037  0.58793209  0.44936072  1
  Se  Se166  1  0.74065686  0.57695932  0.93496604  1
  Se  Se167  1  0.74746547  0.92695614  0.45381398  1
  Se  Se168  1  0.74158576  0.91458893  0.93182455  1
  Se  Se169  1  0.24941382  0.08126784  0.44964136  1
  Se  Se170  1  0.25044870  0.08602195  0.93893379  1
  Se  Se171  1  0.25926160  0.41110743  0.44283778  1
  Se  Se172  1  0.25425469  0.41526438  0.94068372  1
  Se  Se173  1  0.25243079  0.75069259  0.45419805  1
  Se  Se174  1  0.24031069  0.76095276  0.94523574  1
  Se  Se175  1  0.59241863  0.08429047  0.45227761  1
  Se  Se176  1  0.57956187  0.08160133  0.93845724  1
  Se  Se177  1  0.57065089  0.42237259  0.45118276  1
  Se  Se178  1  0.58285427  0.40566853  0.93074652  1
  Se  Se179  1  0.58237564  0.75143926  0.44505216  1
  Se  Se180  1  0.57648571  0.74736474  0.94666501  1
  Se  Se181  1  0.92226049  0.07911968  0.44672735  1
  Se  Se182  1  0.91591474  0.08055705  0.95107389  1
  Se  Se183  1  0.91484208  0.41487421  0.45209079  1
  Se  Se184  1  0.92171547  0.41371385  0.93422091  1
  Se  Se185  1  0.91645690  0.75531030  0.44431505  1
  Se  Se186  1  0.92563148  0.74886608  0.92954517  1
  Se  Se187  1  0.24005780  0.24230834  0.30755698  1
  Se  Se188  1  0.25424571  0.24991502  0.80125543  1
  Se  Se189  1  0.25272193  0.58698905  0.30094463  1
  Se  Se190  1  0.24900943  0.58527046  0.80551968  1
  Se  Se191  1  0.24858078  0.90972869  0.31280594  1
  Se  Se192  1  0.23505457  0.89677562  0.79686229  1
  Se  Se193  1  0.57133859  0.23617143  0.29924838  1
  Se  Se194  1  0.60880801  0.27191561  0.80252900  1
  Se  Se195  1  0.58430486  0.58684641  0.31027211  1
  Se  Se196  1  0.60089234  0.60785593  0.80341218  1
  Se  Se197  1  0.57804832  0.91012675  0.31423957  1
  Se  Se198  1  0.58351124  0.91467352  0.80303794  1
  Se  Se199  1  0.91361772  0.24457954  0.31007200  1
  Se  Se200  1  0.91863515  0.23609692  0.81829833  1
  Se  Se201  1  0.91269745  0.57617142  0.31235415  1
  Se  Se202  1  0.91747168  0.58646399  0.79790973  1
  Se  Se203  1  0.91716347  0.91925353  0.30220388  1
  Se  Se204  1  0.91000208  0.91252079  0.80410622  1
  Se  Se205  1  0.08390548  0.07712703  0.30475292  1
  Se  Se206  1  0.08472536  0.08150820  0.80298659  1
  Se  Se207  1  0.09277684  0.42699691  0.30583201  1
  Se  Se208  1  0.09167573  0.41748278  0.81362928  1
  Se  Se209  1  0.09341822  0.75713337  0.31006820  1
  Se  Se210  1  0.06289651  0.72097806  0.80679638  1
  Se  Se211  1  0.41824922  0.07862627  0.30151283  1
  Se  Se212  1  0.42468128  0.08874410  0.79462214  1
  Se  Se213  1  0.42376860  0.42209078  0.31064201  1
  Se  Se214  1  0.43565626  0.44303352  0.79814608  1
  Se  Se215  1  0.41720534  0.74881713  0.30393221  1
  Se  Se216  1  0.41342851  0.74856631  0.80448378  1
  Se  Se217  1  0.75822978  0.09146043  0.31055684  1
  Se  Se218  1  0.75075726  0.08174241  0.80684173  1
  Se  Se219  1  0.75425105  0.42029657  0.31740643  1
  Se  Se220  1  0.76282625  0.42235067  0.80109384  1
  Se  Se221  1  0.74876385  0.75096070  0.30752388  1
  Se  Se222  1  0.74599048  0.74361600  0.80076061  1
  Se  Se223  1  0.24196030  0.09278439  0.18959497  1
  Se  Se224  1  0.24796785  0.08200467  0.69486019  1
  Se  Se225  1  0.24633092  0.42240056  0.18682437  1
  Se  Se226  1  0.25398819  0.40939919  0.70431616  1
  Se  Se227  1  0.25183002  0.75110461  0.18968653  1
  Se  Se228  1  0.23301072  0.77357969  0.71111692  1
  Se  Se229  1  0.57888851  0.07834497  0.18371054  1
  Se  Se230  1  0.59287068  0.08163140  0.71059042  1
  Se  Se231  1  0.57440807  0.42495166  0.19243041  1
  Se  Se232  1  0.60224562  0.40504147  0.69527490  1
  Se  Se233  1  0.59273729  0.74254609  0.19728073  1
  Se  Se234  1  0.57913449  0.75211838  0.69672462  1
  Se  Se235  1  0.92100684  0.08439111  0.19173246  1
  Se  Se236  1  0.92146336  0.07579420  0.70387238  1
  Se  Se237  1  0.90097610  0.42940520  0.19544545  1
  Se  Se238  1  0.91811684  0.42553314  0.68690502  1
  Se  Se239  1  0.91059517  0.75534114  0.18803296  1
  Se  Se240  1  0.91342804  0.74863775  0.69156012  1
  Se  Se241  1  0.09079154  0.24751082  0.18693843  1
  Se  Se242  1  0.08732053  0.24838748  0.69147821  1
  Se  Se243  1  0.08873918  0.58707137  0.18448632  1
  Se  Se244  1  0.08510715  0.58003436  0.70021471  1
  Se  Se245  1  0.08414778  0.91824030  0.19747107  1
  Se  Se246  1  0.07347602  0.92277682  0.69721498  1
  Se  Se247  1  0.41458778  0.24230626  0.18526103  1
  Se  Se248  1  0.42912148  0.23735674  0.69906567  1
  Se  Se249  1  0.41575504  0.58747865  0.19791436  1
  Se  Se250  1  0.42536830  0.56201886  0.70737470  1
  Se  Se251  1  0.43308265  0.90503164  0.18940996  1
  Se  Se252  1  0.41054267  0.92193787  0.70548901  1
  Se  Se253  1  0.75237571  0.23959467  0.18805268  1
  Se  Se254  1  0.76353015  0.25442182  0.70222296  1
  Se  Se255  1  0.75134702  0.58001579  0.20341421  1
  Se  Se256  1  0.74975671  0.58847012  0.68609684  1
  Se  Se257  1  0.75697507  0.90715012  0.18798433  1
  Se  Se258  1  0.74736423  0.91523840  0.69912888  1
