# generated using pymatgen
data_In86Cu29Se144
_symmetry_space_group_name_H-M   'P 1'
_cell_length_a   17.58354184
_cell_length_b   17.58378258
_cell_length_c   23.44642830
_cell_angle_alpha   89.99202114
_cell_angle_beta   90.00275257
_cell_angle_gamma   90.00568361
_symmetry_Int_Tables_number   1
_chemical_formula_structural   In86Cu29Se144
_chemical_formula_sum   'In86 Cu29 Se144'
_cell_volume   7249.28796247
_cell_formula_units_Z   1
loop_
 _symmetry_equiv_pos_site_id
 _symmetry_equiv_pos_as_xyz
  1  'x, y, z'
loop_
 _atom_site_type_symbol
 _atom_site_label
 _atom_site_symmetry_multiplicity
 _atom_site_fract_x
 _atom_site_fract_y
 _atom_site_fract_z
 _atom_site_occupancy
  In  In0  1  0.00068414  0.14983149  0.12984892  1
  In  In1  1  -0.00789344  0.16204154  0.61099546  1
  In  In2  1  0.00773109  0.51370290  0.12138493  1
  In  In3  1  0.00692888  0.50572178  0.61835275  1
  In  In4  1  -0.01025532  0.84248007  0.14174267  1
  In  In5  1  -0.00900611  0.82302249  0.61749338  1
  In  In6  1  0.32869432  0.16007712  0.12172707  1
  In  In7  1  0.32497492  0.17198970  0.62165179  1
  In  In8  1  0.32148994  0.51331824  0.12373777  1
  In  In9  1  0.33475765  0.51351465  0.62690476  1
  In  In10  1  0.34649186  0.83655356  0.12328117  1
  In  In11  1  0.32405739  0.82626333  0.61580154  1
  In  In12  1  0.65958676  0.16787471  0.13702913  1
  In  In13  1  0.68239803  0.15413273  0.64508048  1
  In  In14  1  0.66994543  0.48725189  0.12152411  1
  In  In15  1  0.67089600  0.48476355  0.63200528  1
  In  In16  1  0.67370797  0.84281440  0.12059311  1
  In  In17  1  0.67965942  0.84852270  0.61146737  1
  In  In18  1  0.16899745  -0.00688471  0.36765292  1
  In  In19  1  0.17554040  0.00258115  0.87903911  1
  In  In20  1  0.15711177  0.33989651  0.38214866  1
  In  In21  1  0.16845753  0.33497438  0.88345341  1
  In  In22  1  0.15329241  0.67966009  0.37514410  1
  In  In23  1  0.15333026  0.65446822  0.86524821  1
  In  In24  1  0.49404640  -0.00187684  0.36305823  1
  In  In25  1  0.51177815  -0.00658288  0.88248119  1
  In  In26  1  0.50921087  0.31504008  0.36958214  1
  In  In27  1  0.49861710  0.32102295  0.88021595  1
  In  In28  1  0.51467487  0.67316293  0.37763869  1
  In  In29  1  0.50252993  0.68446619  0.87325617  1
  In  In30  1  0.83082097  -0.00317400  0.38044190  1
  In  In31  1  0.81670690  0.00331633  0.87537412  1
  In  In32  1  0.82602826  0.33591208  0.37848317  1
  In  In33  1  0.83560433  0.34379506  0.86929300  1
  In  In34  1  0.84194208  0.66470256  0.38312234  1
  In  In35  1  0.84360441  0.65715439  0.87730513  1
  In  In36  1  0.01161821  0.15180433  0.38090714  1
  In  In37  1  0.00039788  0.17568100  0.87671218  1
  In  In38  1  -0.00454599  0.50716610  0.37696378  1
  In  In39  1  -0.01145140  0.50893467  0.88087056  1
  In  In40  1  0.00191623  0.83177609  0.37266406  1
  In  In41  1  0.00000058  0.81635552  0.87314838  1
  In  In42  1  0.33588232  0.14515030  0.36629134  1
  In  In43  1  0.33219628  0.17643473  0.88672225  1
  In  In44  1  0.32396219  0.49984039  0.37660751  1
  In  In45  1  0.31807476  0.49829003  0.87500182  1
  In  In46  1  0.31848050  0.84838960  0.38137147  1
  In  In47  1  0.34468224  0.83473824  0.87360574  1
  In  In48  1  0.66458879  0.16856091  0.36567300  1
  In  In49  1  0.66288371  0.15374225  0.86617232  1
  In  In50  1  0.68084404  0.49609882  0.37720599  1
  In  In51  1  0.68642552  0.50161376  0.86836813  1
  In  In52  1  0.65446883  0.85276007  0.39820668  1
  In  In53  1  0.66499014  0.84122441  0.88000776  1
  In  In54  1  0.15519543  0.00365309  0.13834417  1
  In  In55  1  0.16213068  -0.00219386  0.61178123  1
  In  In56  1  0.16937528  0.33841384  0.12212321  1
  In  In57  1  0.15631613  0.32918552  0.61327777  1
  In  In58  1  0.15773103  0.65940757  0.12886564  1
  In  In59  1  0.16731474  0.66532538  0.62194341  1
  In  In60  1  0.50362681  0.00238402  0.12749024  1
  In  In61  1  0.52114734  0.00284556  0.62063873  1
  In  In62  1  0.51603088  0.32950348  0.12596058  1
  In  In63  1  0.51337416  0.33714010  0.63033264  1
  In  In64  1  0.48697041  0.67636310  0.11971150  1
  In  In65  1  0.48758980  0.66879272  0.62890446  1
  In  In66  1  0.83458911  -0.00835670  0.13506302  1
  In  In67  1  0.82753763  0.00315892  0.61772987  1
  In  In68  1  0.82322577  0.33122639  0.12215654  1
  In  In69  1  0.82416683  0.32901945  0.61873819  1
  In  In70  1  0.84195726  0.67585508  0.11856315  1
  In  In71  1  0.84235910  0.66956776  0.62194532  1
  In  In72  1  0.67548532  0.67135287  0.25164884  1
  In  In73  1  0.49946849  0.50318717  0.00088261  1
  In  In74  1  0.33854625  0.33858901  0.74878535  1
  In  In75  1  0.83591710  0.16481303  -0.00027393  1
  In  In76  1  -0.00568572  0.33708342  0.75089404  1
  In  In77  1  -0.00604240  0.33402509  0.25728093  1
  In  In78  1  0.32888744  0.67572142  0.25229945  1
  In  In79  1  0.66640583  0.66677984  0.74827950  1
  In  In80  1  0.33358343  0.33297922  0.24331961  1
  In  In81  1  0.49761194  0.16169404  0.49597402  1
  In  In82  1  0.33982124  -0.00351707  0.75091153  1
  In  In83  1  0.50014568  0.50036027  0.51311452  1
  In  In84  1  0.16762270  0.83258538  0.00547928  1
  In  In85  1  -0.00787476  -0.00584042  0.73812344  1
  Cu  Cu86  1  0.50280528  0.49262456  0.24740451  1
  Cu  Cu87  1  0.00410858  0.00104518  0.49277285  1
  Cu  Cu88  1  0.33666004  0.00881544  0.00108608  1
  Cu  Cu89  1  0.33180415  -0.00414421  0.49159473  1
  Cu  Cu90  1  0.16414594  0.50337770  0.74679801  1
  Cu  Cu91  1  0.00656892  0.66835354  0.49906112  1
  Cu  Cu92  1  0.33325036  0.33286767  0.00457101  1
  Cu  Cu93  1  0.00817964  0.33377189  -0.00037055  1
  Cu  Cu94  1  -0.00438019  0.66528002  -0.00100057  1
  Cu  Cu95  1  0.50645753  0.16265080  0.75647640  1
  Cu  Cu96  1  -0.00923628  0.33724670  0.49749668  1
  Cu  Cu97  1  0.83047520  0.83223522  0.25867133  1
  Cu  Cu98  1  0.33191660  0.66548125  0.49970303  1
  Cu  Cu99  1  0.83244757  0.15825890  0.25190712  1
  Cu  Cu100  1  0.32310136  0.33071574  0.49881553  1
  Cu  Cu101  1  0.32583931  0.67121130  -0.00006899  1
  Cu  Cu102  1  0.00013679  -0.00714490  0.01120198  1
  Cu  Cu103  1  0.50220490  0.83468187  0.74874822  1
  Cu  Cu104  1  0.16910554  0.81810979  0.74421074  1
  Cu  Cu105  1  0.67443557  0.66858308  0.50209352  1
  Cu  Cu106  1  0.16030655  0.16458723  0.75026128  1
  Cu  Cu107  1  0.66714865  0.33045084  0.49897991  1
  Cu  Cu108  1  0.66403289  0.00042387  0.00266908  1
  Cu  Cu109  1  0.66894717  0.67047876  -0.00622511  1
  Cu  Cu110  1  0.16765185  0.16725180  0.25334323  1
  Cu  Cu111  1  0.83449465  0.49826295  0.25385543  1
  Cu  Cu112  1  0.50143861  0.83860644  0.25139720  1
  Cu  Cu113  1  0.83132877  0.83238859  0.74437205  1
  Cu  Cu114  1  0.67024830  0.33098276  -0.00030518  1
  Se  Se115  1  0.08668751  0.07936099  0.05673700  1
  Se  Se116  1  0.08651116  0.08846894  0.54610300  1
  Se  Se117  1  0.08446594  0.42062409  0.05556355  1
  Se  Se118  1  0.08089695  0.41862798  0.54679877  1
  Se  Se119  1  0.06986015  0.74851020  0.06189068  1
  Se  Se120  1  0.08911187  0.75298882  0.55299476  1
  Se  Se121  1  0.42308164  0.08620768  0.05610237  1
  Se  Se122  1  0.40634177  0.07283260  0.56016158  1
  Se  Se123  1  0.41165663  0.41474631  0.06596644  1
  Se  Se124  1  0.40542707  0.40231460  0.56320155  1
  Se  Se125  1  0.41464537  0.75622601  0.04467266  1
  Se  Se126  1  0.41748320  0.74792052  0.55140820  1
  Se  Se127  1  0.74853131  0.07829361  0.06325209  1
  Se  Se128  1  0.73655130  0.08707907  0.55723098  1
  Se  Se129  1  0.75515649  0.41755769  0.04741301  1
  Se  Se130  1  0.74655822  0.41980099  0.55008510  1
  Se  Se131  1  0.74903462  0.75164976  0.05356431  1
  Se  Se132  1  0.76046505  0.75230873  0.55259498  1
  Se  Se133  1  0.24756747  0.24966487  0.05627517  1
  Se  Se134  1  0.24142893  0.24259185  0.54872051  1
  Se  Se135  1  0.24099808  0.58935514  0.05160809  1
  Se  Se136  1  0.24999708  0.58013794  0.55209540  1
  Se  Se137  1  0.25522971  0.92843671  0.06126356  1
  Se  Se138  1  0.24781028  0.91425040  0.54732681  1
  Se  Se139  1  0.59260773  0.24597657  0.05513657  1
  Se  Se140  1  0.58661251  0.24994740  0.55820102  1
  Se  Se141  1  0.59110200  0.59424055  0.06093450  1
  Se  Se142  1  0.59479422  0.59188362  0.56661383  1
  Se  Se143  1  0.57939797  0.91550852  0.05447025  1
  Se  Se144  1  0.57921923  0.91365436  0.54668045  1
  Se  Se145  1  0.92878688  0.25301909  0.06160853  1
  Se  Se146  1  0.90835180  0.25045048  0.54859943  1
  Se  Se147  1  0.91229823  0.57979810  0.05193745  1
  Se  Se148  1  0.91978742  0.58547705  0.55039599  1
  Se  Se149  1  0.91364895  0.91174230  0.06131969  1
  Se  Se150  1  0.92441988  0.92607826  0.55625436  1
  Se  Se151  1  0.07711186  0.25230801  0.44705904  1
  Se  Se152  1  0.08745239  0.24517284  0.94829492  1
  Se  Se153  1  0.08652843  0.58362478  0.44402855  1
  Se  Se154  1  0.08303681  0.58353940  0.94677560  1
  Se  Se155  1  0.08674075  0.91619536  0.44085589  1
  Se  Se156  1  0.07614138  0.91946256  0.94080334  1
  Se  Se157  1  0.40456316  0.25382641  0.43742151  1
  Se  Se158  1  0.42106000  0.24934667  0.95701019  1
  Se  Se159  1  0.41729336  0.58615955  0.44120282  1
  Se  Se160  1  0.40911318  0.59161825  0.93938099  1
  Se  Se161  1  0.42249298  0.91824713  0.44086372  1
  Se  Se162  1  0.41376353  0.92104014  0.94605013  1
  Se  Se163  1  0.74341295  0.24592769  0.44167752  1
  Se  Se164  1  0.74825017  0.25173505  0.93631711  1
  Se  Se165  1  0.75254360  0.58165403  0.44837501  1
  Se  Se166  1  0.75193145  0.58269195  0.94618435  1
  Se  Se167  1  0.76661267  0.90672147  0.45464769  1
  Se  Se168  1  0.75117442  0.91876041  0.95097977  1
  Se  Se169  1  0.24845896  0.08060367  0.43984010  1
  Se  Se170  1  0.24731745  0.08815369  0.94984943  1
  Se  Se171  1  0.24535807  0.42095916  0.44849217  1
  Se  Se172  1  0.25016869  0.41818940  0.95246778  1
  Se  Se173  1  0.25000694  0.74757362  0.44368361  1
  Se  Se174  1  0.24757886  0.74693968  0.93410713  1
  Se  Se175  1  0.58699557  0.07545958  0.43583859  1
  Se  Se176  1  0.58607583  0.08821122  0.94757185  1
  Se  Se177  1  0.58158250  0.41150920  0.44229543  1
  Se  Se178  1  0.59107215  0.41540879  0.94052488  1
  Se  Se179  1  0.58156494  0.74882734  0.45660426  1
  Se  Se180  1  0.58197610  0.75633592  0.94836221  1
  Se  Se181  1  0.91396912  0.08563823  0.44750619  1
  Se  Se182  1  0.92675410  0.07120070  0.94169064  1
  Se  Se183  1  0.91077970  0.42178843  0.44278218  1
  Se  Se184  1  0.91921058  0.41007381  0.94567325  1
  Se  Se185  1  0.92223982  0.75370432  0.44817954  1
  Se  Se186  1  0.91288845  0.75117959  0.94731462  1
  Se  Se187  1  0.24404382  0.25139472  0.31208631  1
  Se  Se188  1  0.24410389  0.24511471  0.80667888  1
  Se  Se189  1  0.24069814  0.58220006  0.30796302  1
  Se  Se190  1  0.25132738  0.58353927  0.79985800  1
  Se  Se191  1  0.26390965  0.92531200  0.29884853  1
  Se  Se192  1  0.24027487  0.90553475  0.80535652  1
  Se  Se193  1  0.58960182  0.25217890  0.29316046  1
  Se  Se194  1  0.58438658  0.25321805  0.80660459  1
  Se  Se195  1  0.58183083  0.57468890  0.30753743  1
  Se  Se196  1  0.57882981  0.58172067  0.81429191  1
  Se  Se197  1  0.59129604  0.91110253  0.30777985  1
  Se  Se198  1  0.58426838  0.91624630  0.80487928  1
  Se  Se199  1  0.91093969  0.23723937  0.31505200  1
  Se  Se200  1  0.90594497  0.23807677  0.80436802  1
  Se  Se201  1  0.91350969  0.58604449  0.30488347  1
  Se  Se202  1  0.91776799  0.58032765  0.80231355  1
  Se  Se203  1  0.91515708  0.91837110  0.30838594  1
  Se  Se204  1  0.91070746  0.91015616  0.80966471  1
  Se  Se205  1  0.08308360  0.08006070  0.30133285  1
  Se  Se206  1  0.08289044  0.08045537  0.80772334  1
  Se  Se207  1  0.08912141  0.42766070  0.30634614  1
  Se  Se208  1  0.09020245  0.42131996  0.81074683  1
  Se  Se209  1  0.08187729  0.75456852  0.29839921  1
  Se  Se210  1  0.07791969  0.74396493  0.79693712  1
  Se  Se211  1  0.43656575  0.10053216  0.29609970  1
  Se  Se212  1  0.41845404  0.09056596  0.81623741  1
  Se  Se213  1  0.42229324  0.41991131  0.31165495  1
  Se  Se214  1  0.42304363  0.42213707  0.81588622  1
  Se  Se215  1  0.42516345  0.75728943  0.31294914  1
  Se  Se216  1  0.41550864  0.75190291  0.79859418  1
  Se  Se217  1  0.75016332  0.07611357  0.30660792  1
  Se  Se218  1  0.75355183  0.08263894  0.79798762  1
  Se  Se219  1  0.74880244  0.41273997  0.30155202  1
  Se  Se220  1  0.75096536  0.41296517  0.79639888  1
  Se  Se221  1  0.74920669  0.75808590  0.32263498  1
  Se  Se222  1  0.75506168  0.75556275  0.81115103  1
  Se  Se223  1  0.25063409  0.08599662  0.19778401  1
  Se  Se224  1  0.24213133  0.08353698  0.69225440  1
  Se  Se225  1  0.23922615  0.43159482  0.19631802  1
  Se  Se226  1  0.23810558  0.41637097  0.68720069  1
  Se  Se227  1  0.24485539  0.76007397  0.18521542  1
  Se  Se228  1  0.25819108  0.74137915  0.69201953  1
  Se  Se229  1  0.59950294  0.06371408  0.19839834  1
  Se  Se230  1  0.58501924  0.07469271  0.70438533  1
  Se  Se231  1  0.59137657  0.41381347  0.19736119  1
  Se  Se232  1  0.56381235  0.43764316  0.69874749  1
  Se  Se233  1  0.57667125  0.75331092  0.19080501  1
  Se  Se234  1  0.58500222  0.76104443  0.68522083  1
  Se  Se235  1  0.91946873  0.07551029  0.20207952  1
  Se  Se236  1  0.90653200  0.09669117  0.68995451  1
  Se  Se237  1  0.91124505  0.41997987  0.18873275  1
  Se  Se238  1  0.91315931  0.42120189  0.68306212  1
  Se  Se239  1  0.90828391  0.74699546  0.20186822  1
  Se  Se240  1  0.91918744  0.74934372  0.69709345  1
  Se  Se241  1  0.08692447  0.24786994  0.19319794  1
  Se  Se242  1  0.08145070  0.24178702  0.68891957  1
  Se  Se243  1  0.07328913  0.58896709  0.20093608  1
  Se  Se244  1  0.08204035  0.58613783  0.69280589  1
  Se  Se245  1  0.08969084  0.90748465  0.20432531  1
  Se  Se246  1  0.09319841  0.90635454  0.68703670  1
  Se  Se247  1  0.42475659  0.24265955  0.18810371  1
  Se  Se248  1  0.42546864  0.23697262  0.69231359  1
  Se  Se249  1  0.42377686  0.57866980  0.19379044  1
  Se  Se250  1  0.42664844  0.57308308  0.69858386  1
  Se  Se251  1  0.41755999  0.91957875  0.19707179  1
  Se  Se252  1  0.42341685  0.91188679  0.68395965  1
  Se  Se253  1  0.75680242  0.24706942  0.19724347  1
  Se  Se254  1  0.73211807  0.27376798  0.69484282  1
  Se  Se255  1  0.75678398  0.57697619  0.18851400  1
  Se  Se256  1  0.75979199  0.57942861  0.69096375  1
  Se  Se257  1  0.74630439  0.91148239  0.20201028  1
  Se  Se258  1  0.75264172  0.91916989  0.69216394  1
