# generated using pymatgen
data_In86Cu29Se144
_symmetry_space_group_name_H-M   'P 1'
_cell_length_a   17.58329455
_cell_length_b   17.58912134
_cell_length_c   23.44421604
_cell_angle_alpha   89.95196917
_cell_angle_beta   90.01143696
_cell_angle_gamma   89.97506221
_symmetry_Int_Tables_number   1
_chemical_formula_structural   In86Cu29Se144
_chemical_formula_sum   'In86 Cu29 Se144'
_cell_volume   7250.69953416
_cell_formula_units_Z   1
loop_
 _symmetry_equiv_pos_site_id
 _symmetry_equiv_pos_as_xyz
  1  'x, y, z'
loop_
 _atom_site_type_symbol
 _atom_site_label
 _atom_site_symmetry_multiplicity
 _atom_site_fract_x
 _atom_site_fract_y
 _atom_site_fract_z
 _atom_site_occupancy
  In  In0  1  -0.00746574  0.14867496  0.10592968  1
  In  In1  1  -0.01160410  0.18054901  0.63571048  1
  In  In2  1  0.01237116  0.50323151  0.12464033  1
  In  In3  1  0.00118609  0.49143632  0.63579199  1
  In  In4  1  -0.01183742  0.82980134  0.12297931  1
  In  In5  1  -0.00089573  0.83679403  0.62810124  1
  In  In6  1  0.32768130  0.15592120  0.12031087  1
  In  In7  1  0.34958074  0.17028703  0.62177650  1
  In  In8  1  0.34351190  0.50411275  0.13092858  1
  In  In9  1  0.32536725  0.50675157  0.62744298  1
  In  In10  1  0.34007065  0.82652367  0.13416032  1
  In  In11  1  0.32364039  0.82457317  0.61756986  1
  In  In12  1  0.67609154  0.17754131  0.11903390  1
  In  In13  1  0.67198344  0.17874833  0.61108480  1
  In  In14  1  0.65664057  0.49471773  0.12830296  1
  In  In15  1  0.67769469  0.49939034  0.63972180  1
  In  In16  1  0.67451620  0.83359693  0.11223884  1
  In  In17  1  0.65908041  0.81985441  0.61296202  1
  In  In18  1  0.15989399  -0.01429261  0.37314883  1
  In  In19  1  0.16197025  0.01372904  0.87659153  1
  In  In20  1  0.18524320  0.33978236  0.38740049  1
  In  In21  1  0.15847477  0.32456750  0.86412249  1
  In  In22  1  0.16898615  0.66735600  0.37987624  1
  In  In23  1  0.16140436  0.66302015  0.86690935  1
  In  In24  1  0.49576481  0.00667830  0.37705744  1
  In  In25  1  0.50445397  -0.00407158  0.88507356  1
  In  In26  1  0.50302146  0.31585749  0.38767435  1
  In  In27  1  0.49962108  0.33087232  0.86668290  1
  In  In28  1  0.50033424  0.68348919  0.38098649  1
  In  In29  1  0.50574765  0.67328254  0.86387910  1
  In  In30  1  0.82829726  0.00243002  0.38211404  1
  In  In31  1  0.84393100  -0.00902213  0.88537660  1
  In  In32  1  0.82312436  0.32778692  0.37378620  1
  In  In33  1  0.82359598  0.32364989  0.86523128  1
  In  In34  1  0.84519954  0.66345165  0.37980695  1
  In  In35  1  0.83157979  0.67496433  0.86502050  1
  In  In36  1  -0.00550297  0.16111984  0.37816708  1
  In  In37  1  -0.00244040  0.16207216  0.87216993  1
  In  In38  1  -0.00108281  0.51645932  0.38041343  1
  In  In39  1  -0.02048808  0.49799150  0.84933391  1
  In  In40  1  0.01136887  0.82799521  0.38549819  1
  In  In41  1  -0.00741971  0.82830402  0.86597737  1
  In  In42  1  0.34784822  0.16718847  0.37222535  1
  In  In43  1  0.33215881  0.17183291  0.87700329  1
  In  In44  1  0.31705514  0.49431400  0.38360594  1
  In  In45  1  0.33411100  0.49908912  0.86610396  1
  In  In46  1  0.33393415  0.83363775  0.37457667  1
  In  In47  1  0.34642648  0.83346770  0.87517941  1
  In  In48  1  0.66878284  0.17027388  0.37987217  1
  In  In49  1  0.66248150  0.17150425  0.88017372  1
  In  In50  1  0.67824291  0.49187088  0.37967683  1
  In  In51  1  0.67555344  0.50272699  0.85578060  1
  In  In52  1  0.66647789  0.82674653  0.39350663  1
  In  In53  1  0.66577020  0.82539315  0.88398441  1
  In  In54  1  0.16515549  0.01090400  0.12373562  1
  In  In55  1  0.16656775  -0.01211953  0.62404265  1
  In  In56  1  0.17885341  0.32493698  0.12211190  1
  In  In57  1  0.16064396  0.34273488  0.62920346  1
  In  In58  1  0.16592948  0.66912681  0.13328847  1
  In  In59  1  0.16400110  0.66908443  0.62539223  1
  In  In60  1  0.49373974  -0.00952232  0.12261115  1
  In  In61  1  0.50091612  0.00104067  0.61613534  1
  In  In62  1  0.51442505  0.33699818  0.12626599  1
  In  In63  1  0.50816587  0.32678044  0.62972715  1
  In  In64  1  0.49749595  0.66070555  0.12668742  1
  In  In65  1  0.49544715  0.66864068  0.62745806  1
  In  In66  1  0.83366524  -0.00235103  0.11649203  1
  In  In67  1  0.83671109  0.00943545  0.62293973  1
  In  In68  1  0.82834512  0.31851329  0.12269751  1
  In  In69  1  0.83614790  0.33075851  0.63230212  1
  In  In70  1  0.83447684  0.68418840  0.12454309  1
  In  In71  1  0.82482159  0.68052304  0.63426508  1
  In  In72  1  0.50305181  0.50014492  0.51107084  1
  In  In73  1  -0.00067801  -0.00623641  0.23834853  1
  In  In74  1  0.16565022  0.49959363  -0.01245089  1
  In  In75  1  0.66828274  0.00004087  0.75214595  1
  In  In76  1  0.32706879  -0.00009547  0.75305878  1
  In  In77  1  0.16531549  0.16379405  0.50113909  1
  In  In78  1  0.83542037  0.50244903  0.51103490  1
  In  In79  1  0.50496923  0.50236252  0.00281852  1
  In  In80  1  0.83249808  0.50259216  -0.01705614  1
  In  In81  1  0.66409093  0.00456946  0.25228285  1
  In  In82  1  0.16441534  0.83743341  -0.00428197  1
  In  In83  1  0.00300311  0.33584061  0.24992757  1
  In  In84  1  0.66777444  0.66648232  0.25037511  1
  In  In85  1  0.33778796  0.33699899  0.25572153  1
  Cu  Cu86  1  0.16490377  0.16587711  0.24197633  1
  Cu  Cu87  1  0.49502643  0.82855071  0.74468156  1
  Cu  Cu88  1  -0.00498219  0.33586393  0.50891669  1
  Cu  Cu89  1  0.16621495  0.16955590  0.75022963  1
  Cu  Cu90  1  -0.00466187  0.00000958  0.50358598  1
  Cu  Cu91  1  0.49887106  0.83688588  0.25263275  1
  Cu  Cu92  1  0.16333533  0.50961401  0.25700333  1
  Cu  Cu93  1  0.66730992  -0.00222355  0.50101576  1
  Cu  Cu94  1  0.50554162  0.16857194  0.74953415  1
  Cu  Cu95  1  0.00441509  0.67284380  0.50498942  1
  Cu  Cu96  1  0.83687252  0.49901361  0.25537473  1
  Cu  Cu97  1  0.33565681  -0.00309547  0.49698351  1
  Cu  Cu98  1  0.33375474  0.67015033  0.50177174  1
  Cu  Cu99  1  0.33731413  0.31998542  -0.00361726  1
  Cu  Cu100  1  0.66351819  0.00699938  0.00074156  1
  Cu  Cu101  1  0.33881161  -0.00186928  0.00030943  1
  Cu  Cu102  1  0.17185461  0.82461607  0.25660016  1
  Cu  Cu103  1  0.50201509  0.16788178  0.25239902  1
  Cu  Cu104  1  0.49613555  0.49897793  0.74434812  1
  Cu  Cu105  1  0.82998532  0.84060795  0.74994750  1
  Cu  Cu106  1  0.83465038  0.16564425  0.74920619  1
  Cu  Cu107  1  -0.01006615  0.66782336  -0.00773616  1
  Cu  Cu108  1  0.83837666  0.83439090  0.25258759  1
  Cu  Cu109  1  0.17175371  0.50534548  0.74661642  1
  Cu  Cu110  1  0.00437222  0.32253403  -0.00762600  1
  Cu  Cu111  1  0.16175059  0.82921262  0.74693749  1
  Cu  Cu112  1  0.49875703  0.50359956  0.25465185  1
  Cu  Cu113  1  0.33643445  0.66678546  0.00399173  1
  Cu  Cu114  1  0.66679730  0.33524060  -0.00426359  1
  Se  Se115  1  0.09025741  0.07734316  0.04506535  1
  Se  Se116  1  0.07325328  0.08207936  0.56505929  1
  Se  Se117  1  0.08108372  0.40554868  0.05330646  1
  Se  Se118  1  0.07939732  0.42152291  0.55652186  1
  Se  Se119  1  0.07867863  0.73754512  0.05361165  1
  Se  Se120  1  0.08628748  0.75885601  0.55760307  1
  Se  Se121  1  0.42090885  0.08323712  0.05394896  1
  Se  Se122  1  0.41712893  0.08361462  0.54801161  1
  Se  Se123  1  0.40854425  0.40754433  0.05781837  1
  Se  Se124  1  0.41065028  0.41052701  0.56585859  1
  Se  Se125  1  0.41752631  0.74767130  0.05953767  1
  Se  Se126  1  0.42030694  0.75160682  0.55345287  1
  Se  Se127  1  0.75124703  0.08647114  0.05273434  1
  Se  Se128  1  0.75135870  0.08374881  0.55099064  1
  Se  Se129  1  0.74697702  0.41829619  0.05450129  1
  Se  Se130  1  0.74194960  0.40846185  0.56201345  1
  Se  Se131  1  0.75623042  0.74905941  0.04727214  1
  Se  Se132  1  0.75902672  0.74966511  0.55134145  1
  Se  Se133  1  0.24953322  0.24147701  0.04936824  1
  Se  Se134  1  0.25006180  0.25366284  0.56252105  1
  Se  Se135  1  0.25246804  0.58377194  0.05889227  1
  Se  Se136  1  0.24863957  0.58848416  0.55469005  1
  Se  Se137  1  0.25796441  0.91732453  0.06094377  1
  Se  Se138  1  0.24954836  0.91711403  0.55004426  1
  Se  Se139  1  0.58343491  0.25407712  0.05141262  1
  Se  Se140  1  0.56460706  0.23922185  0.55157594  1
  Se  Se141  1  0.59885329  0.59551514  0.05694172  1
  Se  Se142  1  0.59774136  0.58683246  0.56739960  1
  Se  Se143  1  0.58380375  0.91840055  0.05300243  1
  Se  Se144  1  0.58056430  0.91396146  0.54990214  1
  Se  Se145  1  0.91571590  0.25066456  0.04964970  1
  Se  Se146  1  0.91140952  0.24941977  0.55637421  1
  Se  Se147  1  0.91960290  0.58287909  0.05622935  1
  Se  Se148  1  0.92555199  0.59377740  0.56775042  1
  Se  Se149  1  0.92350027  0.91881954  0.05269122  1
  Se  Se150  1  0.91379453  0.91634473  0.55773992  1
  Se  Se151  1  0.07462774  0.25983214  0.44237928  1
  Se  Se152  1  0.08984157  0.24220726  0.93979522  1
  Se  Se153  1  0.08545807  0.58645425  0.45175615  1
  Se  Se154  1  0.06378746  0.58229299  0.93210301  1
  Se  Se155  1  0.08497297  0.91951983  0.45362517  1
  Se  Se156  1  0.07187908  0.92194987  0.93695188  1
  Se  Se157  1  0.39003480  0.26522176  0.44577752  1
  Se  Se158  1  0.42738038  0.24720053  0.94166169  1
  Se  Se159  1  0.41427159  0.58603810  0.44360627  1
  Se  Se160  1  0.41153006  0.58551900  0.94090461  1
  Se  Se161  1  0.41992023  0.91473063  0.44308143  1
  Se  Se162  1  0.42043918  0.91016936  0.95096736  1
  Se  Se163  1  0.75468129  0.24838537  0.44866337  1
  Se  Se164  1  0.75338839  0.25131882  0.94631789  1
  Se  Se165  1  0.74561833  0.59068163  0.44669400  1
  Se  Se166  1  0.73611074  0.59450680  0.93387982  1
  Se  Se167  1  0.75547202  0.91444798  0.45209371  1
  Se  Se168  1  0.74310120  0.91985289  0.94659685  1
  Se  Se169  1  0.25329444  0.07678296  0.43617161  1
  Se  Se170  1  0.25759710  0.07969128  0.94422522  1
  Se  Se171  1  0.24542107  0.42491304  0.46307086  1
  Se  Se172  1  0.25915638  0.40409188  0.93731183  1
  Se  Se173  1  0.25132432  0.75395618  0.44622644  1
  Se  Se174  1  0.25430470  0.73997177  0.94033101  1
  Se  Se175  1  0.58627806  0.08132980  0.44388041  1
  Se  Se176  1  0.57884967  0.09003634  0.94907936  1
  Se  Se177  1  0.59177963  0.40943438  0.44829967  1
  Se  Se178  1  0.59132268  0.41886078  0.93508709  1
  Se  Se179  1  0.58472566  0.74194400  0.45794340  1
  Se  Se180  1  0.56408166  0.75458131  0.94368301  1
  Se  Se181  1  0.91420377  0.08471549  0.44969307  1
  Se  Se182  1  0.90997747  0.09409432  0.94548157  1
  Se  Se183  1  0.91940100  0.41403602  0.44111676  1
  Se  Se184  1  0.92712542  0.40688247  0.93280521  1
  Se  Se185  1  0.91773485  0.75116528  0.44995401  1
  Se  Se186  1  0.90969616  0.75292599  0.93975050  1
  Se  Se187  1  0.23944193  0.24439069  0.30787842  1
  Se  Se188  1  0.25582765  0.24887965  0.80146966  1
  Se  Se189  1  0.25365131  0.58441716  0.31001880  1
  Se  Se190  1  0.25373954  0.58818262  0.80145976  1
  Se  Se191  1  0.25082600  0.91686036  0.30385343  1
  Se  Se192  1  0.23856783  0.90682012  0.81313319  1
  Se  Se193  1  0.58217695  0.24888721  0.30897733  1
  Se  Se194  1  0.59105631  0.25033183  0.80234450  1
  Se  Se195  1  0.58165031  0.57973262  0.31632976  1
  Se  Se196  1  0.58069780  0.58409631  0.79618909  1
  Se  Se197  1  0.58514509  0.90671283  0.31409954  1
  Se  Se198  1  0.57250746  0.90983435  0.80668492  1
  Se  Se199  1  0.91275284  0.24265105  0.30518757  1
  Se  Se200  1  0.92019314  0.24900951  0.80177587  1
  Se  Se201  1  0.91939285  0.58636051  0.30298684  1
  Se  Se202  1  0.89352613  0.58483729  0.78983204  1
  Se  Se203  1  0.91680670  0.91441841  0.31310797  1
  Se  Se204  1  0.91436677  0.92299551  0.80219502  1
  Se  Se205  1  0.08512109  0.08689634  0.30378605  1
  Se  Se206  1  0.08277008  0.08309315  0.79973556  1
  Se  Se207  1  0.09175103  0.42046278  0.31607278  1
  Se  Se208  1  0.08731174  0.42229205  0.80024028  1
  Se  Se209  1  0.08261477  0.74773780  0.30942481  1
  Se  Se210  1  0.07748556  0.74489694  0.79986772  1
  Se  Se211  1  0.41744609  0.08051704  0.29960090  1
  Se  Se212  1  0.42757384  0.08370260  0.80884372  1
  Se  Se213  1  0.42518856  0.42328482  0.31961824  1
  Se  Se214  1  0.41553793  0.41405495  0.79963634  1
  Se  Se215  1  0.41765714  0.74995628  0.30449241  1
  Se  Se216  1  0.40935633  0.74810691  0.79869726  1
  Se  Se217  1  0.75981858  0.09161047  0.30670229  1
  Se  Se218  1  0.75707545  0.08728022  0.81361008  1
  Se  Se219  1  0.74996598  0.41531776  0.30220389  1
  Se  Se220  1  0.75204741  0.41033947  0.79463384  1
  Se  Se221  1  0.75518197  0.75636105  0.31275918  1
  Se  Se222  1  0.74173643  0.76065905  0.80223662  1
  Se  Se223  1  0.25254545  0.07968315  0.19728028  1
  Se  Se224  1  0.24562223  0.09124644  0.68691681  1
  Se  Se225  1  0.24081325  0.42606287  0.19504919  1
  Se  Se226  1  0.25261687  0.41586836  0.69743018  1
  Se  Se227  1  0.25554124  0.74278598  0.20081891  1
  Se  Se228  1  0.25033682  0.75003944  0.69552395  1
  Se  Se229  1  0.57786151  0.09049340  0.18675435  1
  Se  Se230  1  0.58126469  0.08736663  0.68806644  1
  Se  Se231  1  0.58197234  0.41789695  0.20397743  1
  Se  Se232  1  0.58485999  0.41452269  0.69851913  1
  Se  Se233  1  0.58184133  0.76090501  0.19018173  1
  Se  Se234  1  0.58474147  0.75016542  0.69375420  1
  Se  Se235  1  0.90694979  0.09131100  0.18952621  1
  Se  Se236  1  0.91841951  0.07993772  0.69903071  1
  Se  Se237  1  0.91187339  0.42298457  0.18717472  1
  Se  Se238  1  0.91378985  0.41353210  0.70182548  1
  Se  Se239  1  0.92041981  0.74850967  0.20072230  1
  Se  Se240  1  0.91745580  0.75670038  0.69986341  1
  Se  Se241  1  0.08175603  0.24171652  0.18278764  1
  Se  Se242  1  0.08293368  0.25605810  0.69882565  1
  Se  Se243  1  0.07931484  0.58708022  0.19995111  1
  Se  Se244  1  0.08340594  0.58610970  0.69605034  1
  Se  Se245  1  0.09663005  0.90038376  0.18701636  1
  Se  Se246  1  0.08233126  0.92049020  0.69885548  1
  Se  Se247  1  0.42077807  0.24785176  0.18979236  1
  Se  Se248  1  0.41734951  0.25001219  0.69934441  1
  Se  Se249  1  0.41680622  0.58785951  0.20273606  1
  Se  Se250  1  0.41226118  0.58626691  0.69550643  1
  Se  Se251  1  0.41494017  0.92019780  0.20042527  1
  Se  Se252  1  0.41655989  0.91484629  0.68820890  1
  Se  Se253  1  0.73922656  0.25991517  0.19668452  1
  Se  Se254  1  0.74697557  0.24244430  0.69402119  1
  Se  Se255  1  0.75917436  0.57736377  0.18897646  1
  Se  Se256  1  0.76547682  0.58133254  0.70411966  1
  Se  Se257  1  0.75503754  0.91061448  0.19275821  1
  Se  Se258  1  0.74867358  0.91206781  0.68459761  1
