# generated using pymatgen
data_In86Cu29Se144
_symmetry_space_group_name_H-M   'P 1'
_cell_length_a   17.70695224
_cell_length_b   17.71587540
_cell_length_c   23.55940653
_cell_angle_alpha   89.91357473
_cell_angle_beta   90.01075005
_cell_angle_gamma   89.97475689
_symmetry_Int_Tables_number   1
_chemical_formula_structural   In86Cu29Se144
_chemical_formula_sum   'In86 Cu29 Se144'
_cell_volume   7390.43897687
_cell_formula_units_Z   1
loop_
 _symmetry_equiv_pos_site_id
 _symmetry_equiv_pos_as_xyz
  1  'x, y, z'
loop_
 _atom_site_type_symbol
 _atom_site_label
 _atom_site_symmetry_multiplicity
 _atom_site_fract_x
 _atom_site_fract_y
 _atom_site_fract_z
 _atom_site_occupancy
  In  In0  1  -0.00427253  0.18465049  0.13022062  1
  In  In1  1  0.00344730  0.15371379  0.61993195  1
  In  In2  1  0.00332205  0.48477068  0.12496751  1
  In  In3  1  -0.00375407  0.51123723  0.61868813  1
  In  In4  1  -0.00219783  0.83744509  0.11968563  1
  In  In5  1  0.00962538  0.83312955  0.62932054  1
  In  In6  1  0.34185170  0.16697947  0.12813441  1
  In  In7  1  0.33556926  0.15952849  0.62546145  1
  In  In8  1  0.33753678  0.50014572  0.11919769  1
  In  In9  1  0.38920499  0.46305927  0.68167373  1
  In  In10  1  0.32588406  0.82083419  0.10030220  1
  In  In11  1  0.34705079  0.81849195  0.64609154  1
  In  In12  1  0.67395767  0.17074283  0.12079282  1
  In  In13  1  0.64048292  0.17944497  0.65621659  1
  In  In14  1  0.65376235  0.50798562  0.12974247  1
  In  In15  1  0.65934957  0.49344882  0.63064143  1
  In  In16  1  0.64172376  0.81563044  0.10355032  1
  In  In17  1  0.65396724  0.82885603  0.64115532  1
  In  In18  1  0.19352883  0.00932383  0.37885331  1
  In  In19  1  0.15541795  0.00025774  0.87093173  1
  In  In20  1  0.15974901  0.33593575  0.37186296  1
  In  In21  1  0.18476550  0.33090472  0.87930317  1
  In  In22  1  0.17369241  0.65912236  0.36852336  1
  In  In23  1  0.20030388  0.64542236  0.90681819  1
  In  In24  1  0.47577617  0.01051358  0.39677744  1
  In  In25  1  0.46744963  -0.02534186  0.81970151  1
  In  In26  1  0.49296640  0.32774896  0.36997731  1
  In  In27  1  0.50921945  0.33241704  0.86159724  1
  In  In28  1  0.50439714  0.67108641  0.36890583  1
  In  In29  1  0.49328390  0.67229323  0.86742963  1
  In  In30  1  0.82674098  -0.00088596  0.37859253  1
  In  In31  1  0.84080233  -0.00848811  0.87495621  1
  In  In32  1  0.83779063  0.33790036  0.36798863  1
  In  In33  1  0.80625394  0.33883656  0.87594025  1
  In  In34  1  0.80097263  0.67143326  0.37156280  1
  In  In35  1  0.83354964  0.67743464  0.88071097  1
  In  In36  1  -0.00303465  0.18385166  0.37683396  1
  In  In37  1  -0.00555524  0.15526843  0.87581951  1
  In  In38  1  -0.00282712  0.48932162  0.36915663  1
  In  In39  1  0.00242804  0.51205894  0.88519390  1
  In  In40  1  0.00059211  0.83602641  0.37160245  1
  In  In41  1  0.00623470  0.83470547  0.88598157  1
  In  In42  1  0.31472321  0.18970913  0.40623238  1
  In  In43  1  0.34650148  0.16815689  0.85197025  1
  In  In44  1  0.33437197  0.50309433  0.36811886  1
  In  In45  1  0.34553812  0.49592814  0.87441842  1
  In  In46  1  0.34957344  0.82692123  0.37368229  1
  In  In47  1  0.33025718  0.83087049  0.87620469  1
  In  In48  1  0.64959981  0.16662573  0.38147352  1
  In  In49  1  0.67149590  0.16497750  0.86675001  1
  In  In50  1  0.66762166  0.50138888  0.37414127  1
  In  In51  1  0.64382975  0.50136483  0.85828324  1
  In  In52  1  0.64458758  0.82804178  0.37048608  1
  In  In53  1  0.66384508  0.83645380  0.86481910  1
  In  In54  1  0.17938704  -0.00451933  0.11578862  1
  In  In55  1  0.16059347  0.00018109  0.63480288  1
  In  In56  1  0.16790904  0.33696842  0.12942754  1
  In  In57  1  0.18841316  0.33425541  0.62245493  1
  In  In58  1  0.18470170  0.67297872  0.11595355  1
  In  In59  1  0.17088781  0.66811412  0.62733717  1
  In  In60  1  0.51102997  -0.00156538  0.11876790  1
  In  In61  1  0.50270096  -0.00306046  0.63667374  1
  In  In62  1  0.48547251  0.34408377  0.13725294  1
  In  In63  1  0.49560109  0.31738651  0.62425329  1
  In  In64  1  0.49854500  0.66818956  0.12084437  1
  In  In65  1  0.49401534  0.66337672  0.63851041  1
  In  In66  1  0.82080296  -0.00387118  0.11323346  1
  In  In67  1  0.83240367  0.00428302  0.63169461  1
  In  In68  1  0.83271096  0.33591764  0.12878592  1
  In  In69  1  0.81852851  0.32994003  0.62179794  1
  In  In70  1  0.81136407  0.66400126  0.12109500  1
  In  In71  1  0.82302402  0.65360124  0.61713787  1
  In  In72  1  0.16708029  0.16167782  -0.00394913  1
  In  In73  1  -0.00291603  0.00793914  0.25300446  1
  In  In74  1  0.00696100  0.67359041  0.76196781  1
  In  In75  1  0.82707768  0.83497522  0.50940626  1
  In  In76  1  0.49325652  0.49281956  0.51295897  1
  In  In77  1  0.66317396  -0.00076787  0.25364183  1
  In  In78  1  0.16656274  0.50430380  0.50065195  1
  In  In79  1  0.51301534  0.16490660  -0.00933865  1
  In  In80  1  0.83163087  0.50173429  0.00317359  1
  In  In81  1  0.34200847  0.00169882  0.25133993  1
  In  In82  1  0.18157365  0.83455772  0.50651383  1
  In  In83  1  0.00329965  0.33507183  0.75140529  1
  In  In84  1  0.82707911  0.16203677  0.49980479  1
  In  In85  1  -0.00175414  0.66012835  0.23991569  1
  Cu  Cu86  1  0.17110280  0.83131402  0.23986641  1
  Cu  Cu87  1  0.18084993  0.49942493  0.24609868  1
  Cu  Cu88  1  0.83084657  0.49742055  0.74806642  1
  Cu  Cu89  1  0.16492904  0.16728756  0.74850908  1
  Cu  Cu90  1  0.16458062  0.83495962  0.75906246  1
  Cu  Cu91  1  0.66762351  -0.00242432  -0.01325186  1
  Cu  Cu92  1  0.50063896  0.50086312  0.24869006  1
  Cu  Cu93  1  0.49929673  0.17352700  0.25516008  1
  Cu  Cu94  1  -0.00488071  0.32904832  0.00532174  1
  Cu  Cu95  1  0.66109605  0.33405407  0.50698550  1
  Cu  Cu96  1  0.17069263  0.50174723  0.75838831  1
  Cu  Cu97  1  0.84110464  0.16695250  0.74996092  1
  Cu  Cu98  1  0.01461786  -0.00121768  0.49994388  1
  Cu  Cu99  1  0.66221672  0.66660595  -0.00781545  1
  Cu  Cu100  1  0.00929179  0.66860443  0.00579565  1
  Cu  Cu101  1  0.83225221  0.17466495  0.24743097  1
  Cu  Cu102  1  0.17084174  0.17282197  0.25748533  1
  Cu  Cu103  1  -0.01165767  0.66953505  0.49412949  1
  Cu  Cu104  1  0.82845760  0.50159540  0.24924922  1
  Cu  Cu105  1  0.81780379  0.83371734  0.24285643  1
  Cu  Cu106  1  0.34536579  0.00444285  -0.01869861  1
  Cu  Cu107  1  -0.00512271  0.00396974  0.00071347  1
  Cu  Cu108  1  0.84700333  0.82698922  0.75491271  1
  Cu  Cu109  1  0.65626479  0.33642959  -0.00652521  1
  Cu  Cu110  1  0.33779937  0.65903477  0.51017957  1
  Cu  Cu111  1  0.65995265  -0.00761840  0.51280776  1
  Cu  Cu112  1  -0.00129344  0.33503489  0.49349819  1
  Cu  Cu113  1  0.34257581  0.33269881  -0.00128820  1
  Cu  Cu114  1  0.49810614  0.83353801  0.24358280  1
  Se  Se115  1  0.07427553  0.08256661  0.06408323  1
  Se  Se116  1  0.09491112  0.08075628  0.55383274  1
  Se  Se117  1  0.08513745  0.40791590  0.05383687  1
  Se  Se118  1  0.07648409  0.40997523  0.55963476  1
  Se  Se119  1  0.08736663  0.75559712  0.05855598  1
  Se  Se120  1  0.07607896  0.74173422  0.55324667  1
  Se  Se121  1  0.41317071  0.07991766  0.05257286  1
  Se  Se122  1  0.43219536  0.08314786  0.56567394  1
  Se  Se123  1  0.42383725  0.41442190  0.05322292  1
  Se  Se124  1  0.39816616  0.41092263  0.57136676  1
  Se  Se125  1  0.44473934  0.77131655  0.05217969  1
  Se  Se126  1  0.41516533  0.74431264  0.56476333  1
  Se  Se127  1  0.73979308  0.08237762  0.04793688  1
  Se  Se128  1  0.74003419  0.08047566  0.56499280  1
  Se  Se129  1  0.73669492  0.41264616  0.05825493  1
  Se  Se130  1  0.74377541  0.41981514  0.55615952  1
  Se  Se131  1  0.74821503  0.74880667  0.04509726  1
  Se  Se132  1  0.73308217  0.74477505  0.55962886  1
  Se  Se133  1  0.25967119  0.25011885  0.05601874  1
  Se  Se134  1  0.25472933  0.24317364  0.55568392  1
  Se  Se135  1  0.25455017  0.58109928  0.05095844  1
  Se  Se136  1  0.25679437  0.57927621  0.56702369  1
  Se  Se137  1  0.26117362  0.92854245  0.04098330  1
  Se  Se138  1  0.25947598  0.91198719  0.57841027  1
  Se  Se139  1  0.58086313  0.25981607  0.06050147  1
  Se  Se140  1  0.59202913  0.24210361  0.56271586  1
  Se  Se141  1  0.58489702  0.58574240  0.05232902  1
  Se  Se142  1  0.58277555  0.58915410  0.56324353  1
  Se  Se143  1  0.57982021  0.92111877  0.04199874  1
  Se  Se144  1  0.58067138  0.90858365  0.56640660  1
  Se  Se145  1  0.90839445  0.25052174  0.05680211  1
  Se  Se146  1  0.92098336  0.25447821  0.55703778  1
  Se  Se147  1  0.92385927  0.59008568  0.06500777  1
  Se  Se148  1  0.91123881  0.58153007  0.54632538  1
  Se  Se149  1  0.91338108  0.91678705  0.05205750  1
  Se  Se150  1  0.92948184  0.92400607  0.55865576  1
  Se  Se151  1  0.08623223  0.25211246  0.44656081  1
  Se  Se152  1  0.07560916  0.25556894  0.93954678  1
  Se  Se153  1  0.07320631  0.59141986  0.43610685  1
  Se  Se154  1  0.08769988  0.57705896  0.95895686  1
  Se  Se155  1  0.08965390  0.91839980  0.43825109  1
  Se  Se156  1  0.08574244  0.92621499  0.95095362  1
  Se  Se157  1  0.43553567  0.24509821  0.44889776  1
  Se  Se158  1  0.41467278  0.25107931  0.93442117  1
  Se  Se159  1  0.41362371  0.58446337  0.44322412  1
  Se  Se160  1  0.41564233  0.59164357  0.93915459  1
  Se  Se161  1  0.40465915  0.90850597  0.45230032  1
  Se  Se162  1  0.42587892  0.93032881  0.92115922  1
  Se  Se163  1  0.74233190  0.25875023  0.44184759  1
  Se  Se164  1  0.73972921  0.24859503  0.94610225  1
  Se  Se165  1  0.74202729  0.58527159  0.44533607  1
  Se  Se166  1  0.74237665  0.58100120  0.93595254  1
  Se  Se167  1  0.73573775  0.92023556  0.44361550  1
  Se  Se168  1  0.75064580  0.90997970  0.93839136  1
  Se  Se169  1  0.27058956  0.06833954  0.45735565  1
  Se  Se170  1  0.26181384  0.08860513  0.92869741  1
  Se  Se171  1  0.25414651  0.41655270  0.43927628  1
  Se  Se172  1  0.25915058  0.41648041  0.94694042  1
  Se  Se173  1  0.25790965  0.73438380  0.44424026  1
  Se  Se174  1  0.24973320  0.76512137  0.95444318  1
  Se  Se175  1  0.58504978  0.07608788  0.45214358  1
  Se  Se176  1  0.58484861  0.07165842  0.92612035  1
  Se  Se177  1  0.58242361  0.41220037  0.44443256  1
  Se  Se178  1  0.57840536  0.41798182  0.93607442  1
  Se  Se179  1  0.56439815  0.75891672  0.44400694  1
  Se  Se180  1  0.58633839  0.75022985  0.93406076  1
  Se  Se181  1  0.92710324  0.07472008  0.44158824  1
  Se  Se182  1  0.91051125  0.08371506  0.94762760  1
  Se  Se183  1  0.91412912  0.41689074  0.44247474  1
  Se  Se184  1  0.91744838  0.40851211  0.94087452  1
  Se  Se185  1  0.91168098  0.75211426  0.43588576  1
  Se  Se186  1  0.92396145  0.74556807  0.95035152  1
  Se  Se187  1  0.25344608  0.24855157  0.31559541  1
  Se  Se188  1  0.24647336  0.25172919  0.80018674  1
  Se  Se189  1  0.25794310  0.58897301  0.29717220  1
  Se  Se190  1  0.25021871  0.58173480  0.81541497  1
  Se  Se191  1  0.24724742  0.90730157  0.30616167  1
  Se  Se192  1  0.24679904  0.92088705  0.80910447  1
  Se  Se193  1  0.58849914  0.25228392  0.30513852  1
  Se  Se194  1  0.60006760  0.25562730  0.79800949  1
  Se  Se195  1  0.58262137  0.58049850  0.30512822  1
  Se  Se196  1  0.58726911  0.60612929  0.79429917  1
  Se  Se197  1  0.55927841  0.92333745  0.30905610  1
  Se  Se198  1  0.60582614  0.93511900  0.79285560  1
  Se  Se199  1  0.91979387  0.25303140  0.30001979  1
  Se  Se200  1  0.90937349  0.25312665  0.81346396  1
  Se  Se201  1  0.90749470  0.58516400  0.30920184  1
  Se  Se202  1  0.90943130  0.57568263  0.81013970  1
  Se  Se203  1  0.90059113  0.90922063  0.30339391  1
  Se  Se204  1  0.92851788  0.90838862  0.80903249  1
  Se  Se205  1  0.09312539  0.08886587  0.31523772  1
  Se  Se206  1  0.07894837  0.08808356  0.80198134  1
  Se  Se207  1  0.08968034  0.42369006  0.29960351  1
  Se  Se208  1  0.08715694  0.42412872  0.81677086  1
  Se  Se209  1  0.08836329  0.75520104  0.30113410  1
  Se  Se210  1  0.10107776  0.74831602  0.82507543  1
  Se  Se211  1  0.41792757  0.09560781  0.31495244  1
  Se  Se212  1  0.44501108  0.11273360  0.78313069  1
  Se  Se213  1  0.41808284  0.41870218  0.30359410  1
  Se  Se214  1  0.41230044  0.40908767  0.80009059  1
  Se  Se215  1  0.41765561  0.74731621  0.29761636  1
  Se  Se216  1  0.41317056  0.76035851  0.80219553  1
  Se  Se217  1  0.75563768  0.09436780  0.31015558  1
  Se  Se218  1  0.76517870  0.08208137  0.80679697  1
  Se  Se219  1  0.74842322  0.41798582  0.30461178  1
  Se  Se220  1  0.74132048  0.42021375  0.79950250  1
  Se  Se221  1  0.73324136  0.75785473  0.29902449  1
  Se  Se222  1  0.75759307  0.74930062  0.80501305  1
  Se  Se223  1  0.24149469  0.08909747  0.19340163  1
  Se  Se224  1  0.24845752  0.08333922  0.69743698  1
  Se  Se225  1  0.25983128  0.41467688  0.19158971  1
  Se  Se226  1  0.24625702  0.41844727  0.70047935  1
  Se  Se227  1  0.25973431  0.75701024  0.18712017  1
  Se  Se228  1  0.23889976  0.74939404  0.70190472  1
  Se  Se229  1  0.57599830  0.09422735  0.19234230  1
  Se  Se230  1  0.61389621  0.04958223  0.70158601  1
  Se  Se231  1  0.58485539  0.41512484  0.19853893  1
  Se  Se232  1  0.54794323  0.43153391  0.68667262  1
  Se  Se233  1  0.58297619  0.75103847  0.19123166  1
  Se  Se234  1  0.59383237  0.72586275  0.70674653  1
  Se  Se235  1  0.90335596  0.08639253  0.18819371  1
  Se  Se236  1  0.92205619  0.08481383  0.69545838  1
  Se  Se237  1  0.91382919  0.42002451  0.19718042  1
  Se  Se238  1  0.91311551  0.42171011  0.68787644  1
  Se  Se239  1  0.90461067  0.75651390  0.18789445  1
  Se  Se240  1  0.91638735  0.74310413  0.68763690  1
  Se  Se241  1  0.08899214  0.25074962  0.19844367  1
  Se  Se242  1  0.08681825  0.24725750  0.68655779  1
  Se  Se243  1  0.09643012  0.57588619  0.18517845  1
  Se  Se244  1  0.08608768  0.57582112  0.69693261  1
  Se  Se245  1  0.08983602  0.91963861  0.19078124  1
  Se  Se246  1  0.07950051  0.91401384  0.70318125  1
  Se  Se247  1  0.41033010  0.24988999  0.20167597  1
  Se  Se248  1  0.42218035  0.23506218  0.69833062  1
  Se  Se249  1  0.42086208  0.58077554  0.18924894  1
  Se  Se250  1  0.38537856  0.60617418  0.69837930  1
  Se  Se251  1  0.42013381  0.91450490  0.18257633  1
  Se  Se252  1  0.42310715  0.91378253  0.70841427  1
  Se  Se253  1  0.74580263  0.25302287  0.19424920  1
  Se  Se254  1  0.75557427  0.25070667  0.70014049  1
  Se  Se255  1  0.74441875  0.58458395  0.19746560  1
  Se  Se256  1  0.74914839  0.57858909  0.69322485  1
  Se  Se257  1  0.73783634  0.91134603  0.18294126  1
  Se  Se258  1  0.76856738  0.89814453  0.68975324  1
