# generated using pymatgen
data_In86Cu29Se144
_symmetry_space_group_name_H-M   'P 1'
_cell_length_a   17.57160602
_cell_length_b   17.57452105
_cell_length_c   23.43719743
_cell_angle_alpha   90.02388981
_cell_angle_beta   89.97793176
_cell_angle_gamma   89.98914391
_symmetry_Int_Tables_number   1
_chemical_formula_structural   In86Cu29Se144
_chemical_formula_sum   'In86 Cu29 Se144'
_cell_volume   7237.69963737
_cell_formula_units_Z   1
loop_
 _symmetry_equiv_pos_site_id
 _symmetry_equiv_pos_as_xyz
  1  'x, y, z'
loop_
 _atom_site_type_symbol
 _atom_site_label
 _atom_site_symmetry_multiplicity
 _atom_site_fract_x
 _atom_site_fract_y
 _atom_site_fract_z
 _atom_site_occupancy
  In  In0  1  0.00910118  0.15755794  0.12874233  1
  In  In1  1  0.02821181  0.15005347  0.65286749  1
  In  In2  1  -0.00677774  0.49809476  0.11346735  1
  In  In3  1  0.01172780  0.49140824  0.63721547  1
  In  In4  1  0.01141971  0.83207379  0.10695582  1
  In  In5  1  0.01261136  0.82148513  0.63695608  1
  In  In6  1  0.34037575  0.17674796  0.12336115  1
  In  In7  1  0.32423205  0.17255022  0.62239024  1
  In  In8  1  0.33154174  0.49733406  0.12631016  1
  In  In9  1  0.33977167  0.50761735  0.61959076  1
  In  In10  1  0.30631170  0.82781590  0.12769923  1
  In  In11  1  0.32137436  0.83649621  0.62727232  1
  In  In12  1  0.64319543  0.17212155  0.12843590  1
  In  In13  1  0.66619919  0.15583939  0.62667001  1
  In  In14  1  0.67282112  0.50129566  0.11006771  1
  In  In15  1  0.66485950  0.51348173  0.62898489  1
  In  In16  1  0.67259600  0.82382907  0.12789871  1
  In  In17  1  0.65700242  0.82426775  0.62824413  1
  In  In18  1  0.16820144  0.00949851  0.38049614  1
  In  In19  1  0.15422947  0.00994271  0.88156872  1
  In  In20  1  0.16819961  0.33259723  0.36969743  1
  In  In21  1  0.16294798  0.33658675  0.87987523  1
  In  In22  1  0.17419013  0.65586642  0.38003421  1
  In  In23  1  0.16389387  0.66553928  0.88128588  1
  In  In24  1  0.49431642  -0.01201836  0.36476853  1
  In  In25  1  0.50840464  -0.00222536  0.88285718  1
  In  In26  1  0.50007638  0.35351991  0.37303684  1
  In  In27  1  0.50018082  0.33620603  0.89178558  1
  In  In28  1  0.48701718  0.65907331  0.36134815  1
  In  In29  1  0.48779505  0.65632188  0.86304915  1
  In  In30  1  0.84077179  -0.00021455  0.35956162  1
  In  In31  1  0.84142705  -0.01619310  0.88468141  1
  In  In32  1  0.83249480  0.32256848  0.36610382  1
  In  In33  1  0.84915767  0.33358806  0.87881537  1
  In  In34  1  0.83200448  0.67684069  0.37121008  1
  In  In35  1  0.83988424  0.67366630  0.88035305  1
  In  In36  1  0.01165514  0.17461043  0.36212635  1
  In  In37  1  0.01473097  0.17637601  0.86427966  1
  In  In38  1  0.01689302  0.50195482  0.37284064  1
  In  In39  1  0.00658549  0.50479194  0.88287985  1
  In  In40  1  0.00562961  0.84571696  0.37292144  1
  In  In41  1  -0.00102753  0.82896767  0.87863890  1
  In  In42  1  0.31193121  0.15832212  0.37027357  1
  In  In43  1  0.32342802  0.17201738  0.88317792  1
  In  In44  1  0.33314733  0.50204236  0.37078809  1
  In  In45  1  0.32367285  0.50692800  0.88499942  1
  In  In46  1  0.33150564  0.82678081  0.37463413  1
  In  In47  1  0.33284958  0.81302411  0.87157887  1
  In  In48  1  0.67592990  0.16257858  0.36558200  1
  In  In49  1  0.66067465  0.15824152  0.88370220  1
  In  In50  1  0.64962407  0.49762441  0.37194343  1
  In  In51  1  0.65077326  0.51011579  0.89328886  1
  In  In52  1  0.66505253  0.82721061  0.35826693  1
  In  In53  1  0.67713994  0.83295189  0.87860413  1
  In  In54  1  0.15263443  -0.01141722  0.11920871  1
  In  In55  1  0.16738827  -0.01071380  0.61873473  1
  In  In56  1  0.16858691  0.33178249  0.12681562  1
  In  In57  1  0.16094241  0.33517878  0.61847115  1
  In  In58  1  0.16895139  0.67138173  0.11630019  1
  In  In59  1  0.17119922  0.66698787  0.62856456  1
  In  In60  1  0.49763838  0.01979602  0.13156000  1
  In  In61  1  0.49731450  -0.00016309  0.62452705  1
  In  In62  1  0.48987272  0.32057476  0.11595887  1
  In  In63  1  0.47443501  0.33838566  0.62497705  1
  In  In64  1  0.50327631  0.65902746  0.12862758  1
  In  In65  1  0.50721764  0.66452341  0.63755424  1
  In  In66  1  0.84486307  -0.01008901  0.12872568  1
  In  In67  1  0.84075439  0.01500126  0.62406713  1
  In  In68  1  0.82935315  0.35338004  0.12135019  1
  In  In69  1  0.84785954  0.34328331  0.62744670  1
  In  In70  1  0.83209854  0.65659092  0.10686728  1
  In  In71  1  0.83088253  0.67204659  0.63672470  1
  In  In72  1  0.49651688  0.83391128  0.00273483  1
  In  In73  1  0.33135543  0.00025009  0.24976321  1
  In  In74  1  0.84081459  0.50334149  0.50084285  1
  In  In75  1  0.67552441  0.33787063  0.75568129  1
  In  In76  1  0.48719603  0.82667835  0.49051305  1
  In  In77  1  0.83036623  0.16945823  0.00419034  1
  In  In78  1  0.32244619  0.33587374  0.75948718  1
  In  In79  1  0.68059855  -0.01521927  0.76424000  1
  In  In80  1  0.33221420  -0.00743600  0.74408216  1
  In  In81  1  0.48934003  0.17388224  0.49725962  1
  In  In82  1  0.84003919  0.83409305  0.49926906  1
  In  In83  1  0.66448152  0.33770208  0.24270274  1
  In  In84  1  0.00128810  0.66727381  0.24165707  1
  In  In85  1  0.84261082  0.17287604  0.49502073  1
  Cu  Cu86  1  0.65951595  0.00929118  0.00819849  1
  Cu  Cu87  1  0.33090138  0.66284989  0.49778145  1
  Cu  Cu88  1  0.83320577  0.50700363  0.23846701  1
  Cu  Cu89  1  0.84508758  0.16906005  0.75415833  1
  Cu  Cu90  1  0.33545032  0.66039984  0.00019329  1
  Cu  Cu91  1  0.65998868  -0.00709017  0.48696293  1
  Cu  Cu92  1  0.16927528  0.50820379  0.75674340  1
  Cu  Cu93  1  0.83920343  0.83241664  0.75670626  1
  Cu  Cu94  1  0.32542773  0.34260697  0.49521214  1
  Cu  Cu95  1  0.00697277  0.33162560  -0.00006652  1
  Cu  Cu96  1  0.83744185  0.50822364  0.75989465  1
  Cu  Cu97  1  0.50174783  0.83488474  0.24344303  1
  Cu  Cu98  1  0.33170628  0.33299642  0.00375310  1
  Cu  Cu99  1  0.16572911  0.16486298  0.24781021  1
  Cu  Cu100  1  0.83105242  0.82755334  0.24360743  1
  Cu  Cu101  1  0.00875369  0.00457113  0.50200266  1
  Cu  Cu102  1  0.49730395  0.50382534  0.24568474  1
  Cu  Cu103  1  0.83871405  0.16255417  0.24352604  1
  Cu  Cu104  1  0.50024473  0.15962918  0.75882496  1
  Cu  Cu105  1  0.65590051  0.66018220  0.49994983  1
  Cu  Cu106  1  0.66498945  0.67208878  -0.00137177  1
  Cu  Cu107  1  0.00452380  0.33211377  0.49782532  1
  Cu  Cu108  1  0.00030372  0.00224318  -0.00251436  1
  Cu  Cu109  1  0.17077508  0.49347463  0.24955096  1
  Cu  Cu110  1  0.50096691  0.50001634  0.75408451  1
  Cu  Cu111  1  0.01269563  0.66492576  0.50882471  1
  Cu  Cu112  1  0.16455307  0.83205266  0.75471200  1
  Cu  Cu113  1  0.32849802  -0.00035360  0.00755867  1
  Cu  Cu114  1  0.65409738  0.34121722  0.50139307  1
  Se  Se115  1  0.08432689  0.08455065  0.05067121  1
  Se  Se116  1  0.08378444  0.08823901  0.56148348  1
  Se  Se117  1  0.08842450  0.41411959  0.05537391  1
  Se  Se118  1  0.07890343  0.42322168  0.55208397  1
  Se  Se119  1  0.06811296  0.72450363  0.04444589  1
  Se  Se120  1  0.09173043  0.75510570  0.55821523  1
  Se  Se121  1  0.41532503  0.08443826  0.05419572  1
  Se  Se122  1  0.40654602  0.07698536  0.55697997  1
  Se  Se123  1  0.41610777  0.41900525  0.05437200  1
  Se  Se124  1  0.41439419  0.42136517  0.54699144  1
  Se  Se125  1  0.40639442  0.74567191  0.06327247  1
  Se  Se126  1  0.41145335  0.74053578  0.56193524  1
  Se  Se127  1  0.74525168  0.08094142  0.06878958  1
  Se  Se128  1  0.74203041  0.07550058  0.54725052  1
  Se  Se129  1  0.75913294  0.42304581  0.04207256  1
  Se  Se130  1  0.74432573  0.41347134  0.56050659  1
  Se  Se131  1  0.75004640  0.75547921  0.04943645  1
  Se  Se132  1  0.74255525  0.74182746  0.55505900  1
  Se  Se133  1  0.24790659  0.24749387  0.05501359  1
  Se  Se134  1  0.24948424  0.25615241  0.55139313  1
  Se  Se135  1  0.25121776  0.57901890  0.05429357  1
  Se  Se136  1  0.24668529  0.58301209  0.55485605  1
  Se  Se137  1  0.24234386  0.91080637  0.05039845  1
  Se  Se138  1  0.26141814  0.92100533  0.55145247  1
  Se  Se139  1  0.59411623  0.26096417  0.05094473  1
  Se  Se140  1  0.58378368  0.25586537  0.56491928  1
  Se  Se141  1  0.58076696  0.58870761  0.05092849  1
  Se  Se142  1  0.57517926  0.58213798  0.55788680  1
  Se  Se143  1  0.58339404  0.92237189  0.06631356  1
  Se  Se144  1  0.58609739  0.91616689  0.55237332  1
  Se  Se145  1  0.92400585  0.25551182  0.06358512  1
  Se  Se146  1  0.92977641  0.25207841  0.56286020  1
  Se  Se147  1  0.93084863  0.59123708  0.04153967  1
  Se  Se148  1  0.92281710  0.59141832  0.56713928  1
  Se  Se149  1  0.91602734  0.91750627  0.04843611  1
  Se  Se150  1  0.92701250  0.92345770  0.56191001  1
  Se  Se151  1  0.08383541  0.24945252  0.44024522  1
  Se  Se152  1  0.08603597  0.24467249  0.94682681  1
  Se  Se153  1  0.08667987  0.57876961  0.45087775  1
  Se  Se154  1  0.08700636  0.58513518  0.95524503  1
  Se  Se155  1  0.08713198  0.91787378  0.44726505  1
  Se  Se156  1  0.08343766  0.91406493  0.94708130  1
  Se  Se157  1  0.40467277  0.26152029  0.43274208  1
  Se  Se158  1  0.41400220  0.24603117  0.95060335  1
  Se  Se159  1  0.41663064  0.58596503  0.44123194  1
  Se  Se160  1  0.42338792  0.58185112  0.94602867  1
  Se  Se161  1  0.40162929  0.93071554  0.44195228  1
  Se  Se162  1  0.40387251  0.92054889  0.94146102  1
  Se  Se163  1  0.73659744  0.26082475  0.44283983  1
  Se  Se164  1  0.74431978  0.25774007  0.94011797  1
  Se  Se165  1  0.74409056  0.58797390  0.43919143  1
  Se  Se166  1  0.75237880  0.58924110  0.94770840  1
  Se  Se167  1  0.74771726  0.91648425  0.43149791  1
  Se  Se168  1  0.73799213  0.92668820  0.95106152  1
  Se  Se169  1  0.24402712  0.09214463  0.45231955  1
  Se  Se170  1  0.24725685  0.08205782  0.94960744  1
  Se  Se171  1  0.24424929  0.42269386  0.43829066  1
  Se  Se172  1  0.24821088  0.41474616  0.94945543  1
  Se  Se173  1  0.24952441  0.74967199  0.44663743  1
  Se  Se174  1  0.25315551  0.74709492  0.94938565  1
  Se  Se175  1  0.58214942  0.08231615  0.43479279  1
  Se  Se176  1  0.57268638  0.08873436  0.95591607  1
  Se  Se177  1  0.57407997  0.42836797  0.45169021  1
  Se  Se178  1  0.58826924  0.41065214  0.95834667  1
  Se  Se179  1  0.58718855  0.74255354  0.43402354  1
  Se  Se180  1  0.57946130  0.74515917  0.93733377  1
  Se  Se181  1  0.92639369  0.07637526  0.43562315  1
  Se  Se182  1  0.92323252  0.08854365  0.93883694  1
  Se  Se183  1  0.92018739  0.40699422  0.43659441  1
  Se  Se184  1  0.92281311  0.41706703  0.95054846  1
  Se  Se185  1  0.93155337  0.73961056  0.44330383  1
  Se  Se186  1  0.89740503  0.77464368  0.94865609  1
  Se  Se187  1  0.24989142  0.25019813  0.29781161  1
  Se  Se188  1  0.23244002  0.23675050  0.80721538  1
  Se  Se189  1  0.24904566  0.58344766  0.30105541  1
  Se  Se190  1  0.25338882  0.58913371  0.80985185  1
  Se  Se191  1  0.24103314  0.91204183  0.30935418  1
  Se  Se192  1  0.24515961  0.91320299  0.81456050  1
  Se  Se193  1  0.58022939  0.25172254  0.31045541  1
  Se  Se194  1  0.57867506  0.24704939  0.81254538  1
  Se  Se195  1  0.58486568  0.58520912  0.29774800  1
  Se  Se196  1  0.59051816  0.57838006  0.80597965  1
  Se  Se197  1  0.58580154  0.91937943  0.29497147  1
  Se  Se198  1  0.57341428  0.90289403  0.81068629  1
  Se  Se199  1  0.91825174  0.25040873  0.29617147  1
  Se  Se200  1  0.92445065  0.26038007  0.80147261  1
  Se  Se201  1  0.91173889  0.57711277  0.30836779  1
  Se  Se202  1  0.92293899  0.58793602  0.81319252  1
  Se  Se203  1  0.91900323  0.90763527  0.29618858  1
  Se  Se204  1  0.92159288  0.91847965  0.80659054  1
  Se  Se205  1  0.08713667  0.07636518  0.30117948  1
  Se  Se206  1  0.07996518  0.07585388  0.80058494  1
  Se  Se207  1  0.08123019  0.41307150  0.29988659  1
  Se  Se208  1  0.08749255  0.42299519  0.80959788  1
  Se  Se209  1  0.08567711  0.74612278  0.31283381  1
  Se  Se210  1  0.08415857  0.74841008  0.80970236  1
  Se  Se211  1  0.42204752  0.09409165  0.30672594  1
  Se  Se212  1  0.41619044  0.08102668  0.81501218  1
  Se  Se213  1  0.41502230  0.41963720  0.29846530  1
  Se  Se214  1  0.42250858  0.41982897  0.81537260  1
  Se  Se215  1  0.41509623  0.75786505  0.29927550  1
  Se  Se216  1  0.41976828  0.75135974  0.79731079  1
  Se  Se217  1  0.75169958  0.08004024  0.29464219  1
  Se  Se218  1  0.76399320  0.09070331  0.81619048  1
  Se  Se219  1  0.75615827  0.42872506  0.30545065  1
  Se  Se220  1  0.75622126  0.42784860  0.81996553  1
  Se  Se221  1  0.74885591  0.73998412  0.29371591  1
  Se  Se222  1  0.75240703  0.75028734  0.80666054  1
  Se  Se223  1  0.24291119  0.08409103  0.18437613  1
  Se  Se224  1  0.24276874  0.08904983  0.69194451  1
  Se  Se225  1  0.25515829  0.40995810  0.19689887  1
  Se  Se226  1  0.24566182  0.42689017  0.69170738  1
  Se  Se227  1  0.23385393  0.74462890  0.19867973  1
  Se  Se228  1  0.25074063  0.75213731  0.70029568  1
  Se  Se229  1  0.58482100  0.08483464  0.20470240  1
  Se  Se230  1  0.58303160  0.07770078  0.70149298  1
  Se  Se231  1  0.57709631  0.42596207  0.18193809  1
  Se  Se232  1  0.57372527  0.41416857  0.69182060  1
  Se  Se233  1  0.58428972  0.74660201  0.19502582  1
  Se  Se234  1  0.59764504  0.73972026  0.70400715  1
  Se  Se235  1  0.92433024  0.07594581  0.19670441  1
  Se  Se236  1  0.92008764  0.07570710  0.70428177  1
  Se  Se237  1  0.92002460  0.42100718  0.19261316  1
  Se  Se238  1  0.91636621  0.42096137  0.70485734  1
  Se  Se239  1  0.91011024  0.75114723  0.17946345  1
  Se  Se240  1  0.92141292  0.74660561  0.70321211  1
  Se  Se241  1  0.08231951  0.25039619  0.19600326  1
  Se  Se242  1  0.07864598  0.27276612  0.69654777  1
  Se  Se243  1  0.08957915  0.57119608  0.18693124  1
  Se  Se244  1  0.08553478  0.58841677  0.69954009  1
  Se  Se245  1  0.08189852  0.90087953  0.18918872  1
  Se  Se246  1  0.08919324  0.91931509  0.69757984  1
  Se  Se247  1  0.42624697  0.24551782  0.19647002  1
  Se  Se248  1  0.41815654  0.23959106  0.70025334  1
  Se  Se249  1  0.40965193  0.58718443  0.19565136  1
  Se  Se250  1  0.41576698  0.57888905  0.69813061  1
  Se  Se251  1  0.41691056  0.90934237  0.18356880  1
  Se  Se252  1  0.43214596  0.90206595  0.69230197  1
  Se  Se253  1  0.75879844  0.24627635  0.18528695  1
  Se  Se254  1  0.75882596  0.24072006  0.69135763  1
  Se  Se255  1  0.74958718  0.58495235  0.18293962  1
  Se  Se256  1  0.75082690  0.58207071  0.70153397  1
  Se  Se257  1  0.74901359  0.91623334  0.19382418  1
  Se  Se258  1  0.76275393  0.90922474  0.68633241  1
