# generated using pymatgen
data_In86Cu29Se144
_symmetry_space_group_name_H-M   'P 1'
_cell_length_a   17.58451466
_cell_length_b   17.58622290
_cell_length_c   23.44473711
_cell_angle_alpha   89.99823790
_cell_angle_beta   90.00430425
_cell_angle_gamma   89.99349555
_symmetry_Int_Tables_number   1
_chemical_formula_structural   In86Cu29Se144
_chemical_formula_sum   'In86 Cu29 Se144'
_cell_volume   7250.17221495
_cell_formula_units_Z   1
loop_
 _symmetry_equiv_pos_site_id
 _symmetry_equiv_pos_as_xyz
  1  'x, y, z'
loop_
 _atom_site_type_symbol
 _atom_site_label
 _atom_site_symmetry_multiplicity
 _atom_site_fract_x
 _atom_site_fract_y
 _atom_site_fract_z
 _atom_site_occupancy
  In  In0  1  -0.01292587  0.17586467  0.13320277  1
  In  In1  1  -0.00584070  0.17816815  0.62863085  1
  In  In2  1  -0.00109466  0.50217331  0.12191137  1
  In  In3  1  0.00024541  0.49868236  0.62786279  1
  In  In4  1  0.00097703  0.83213019  0.12412947  1
  In  In5  1  -0.01426424  0.81903541  0.61308288  1
  In  In6  1  0.34611921  0.16437011  0.12198245  1
  In  In7  1  0.32664764  0.15651205  0.63187350  1
  In  In8  1  0.33227242  0.50990671  0.11651677  1
  In  In9  1  0.32868721  0.51397905  0.63453352  1
  In  In10  1  0.32867908  0.83736484  0.11573437  1
  In  In11  1  0.32654880  0.83783072  0.63587561  1
  In  In12  1  0.71486723  0.20012293  0.06987416  1
  In  In13  1  0.68251220  0.17049067  0.62466717  1
  In  In14  1  0.68046336  0.49165945  0.12152896  1
  In  In15  1  0.66907067  0.50365544  0.63864194  1
  In  In16  1  0.66504219  0.82377424  0.11008650  1
  In  In17  1  0.67633818  0.82470704  0.63210017  1
  In  In18  1  0.15005111  -0.00427294  0.37001777  1
  In  In19  1  0.16655841  -0.01902311  0.87496071  1
  In  In20  1  0.16070722  0.34756729  0.37747682  1
  In  In21  1  0.17055368  0.35437798  0.87860177  1
  In  In22  1  0.12674509  0.69222674  0.40846369  1
  In  In23  1  0.16118016  0.66541680  0.87242537  1
  In  In24  1  0.49017912  -0.00227919  0.37195903  1
  In  In25  1  0.50134150  -0.00020746  0.88198334  1
  In  In26  1  0.50777413  0.32459495  0.36650013  1
  In  In27  1  0.50444166  0.31388180  0.88704460  1
  In  In28  1  0.50354460  0.66198902  0.36896431  1
  In  In29  1  0.51431484  0.68129835  0.87257646  1
  In  In30  1  0.84792008  -0.01356621  0.38127528  1
  In  In31  1  0.82437340  -0.00521982  0.89260107  1
  In  In32  1  0.82771263  0.32983238  0.36798167  1
  In  In33  1  0.82891142  0.33360139  0.88041757  1
  In  In34  1  0.84702694  0.67979785  0.36256765  1
  In  In35  1  0.83472749  0.66532390  0.87851824  1
  In  In36  1  -0.01257014  0.15783376  0.36412133  1
  In  In37  1  -0.01859822  0.16683673  0.87878827  1
  In  In38  1  0.01090715  0.51047891  0.36462457  1
  In  In39  1  -0.00419083  0.50234060  0.87536446  1
  In  In40  1  -0.00105570  0.83102249  0.37276145  1
  In  In41  1  0.00596962  0.82984947  0.88097699  1
  In  In42  1  0.33946021  0.15567462  0.37077890  1
  In  In43  1  0.35546265  0.16464490  0.87698348  1
  In  In44  1  0.32148949  0.49658825  0.37449028  1
  In  In45  1  0.31236269  0.49429428  0.87964498  1
  In  In46  1  0.32417316  0.81697442  0.37266112  1
  In  In47  1  0.33104657  0.82877244  0.87066744  1
  In  In48  1  0.67548349  0.18106868  0.36641732  1
  In  In49  1  0.66186369  0.17132716  0.88487405  1
  In  In50  1  0.67838962  0.50566224  0.36223056  1
  In  In51  1  0.68007242  0.51224480  0.87665949  1
  In  In52  1  0.68319892  0.83822263  0.36922471  1
  In  In53  1  0.70149579  0.79551377  0.92690185  1
  In  In54  1  0.15788423  -0.01475441  0.12648307  1
  In  In55  1  0.17768530  -0.00410600  0.63500541  1
  In  In56  1  0.15142444  0.33755207  0.12658839  1
  In  In57  1  0.14489640  0.33054369  0.62954761  1
  In  In58  1  0.16404789  0.66498107  0.11863359  1
  In  In59  1  0.16115151  0.66929461  0.62742141  1
  In  In60  1  0.52198154  0.00647643  0.10017819  1
  In  In61  1  0.49625674  -0.01045735  0.63153290  1
  In  In62  1  0.53130044  0.33908717  0.10793797  1
  In  In63  1  0.50770225  0.34697552  0.63310595  1
  In  In64  1  0.50401116  0.68068955  0.11542535  1
  In  In65  1  0.50158121  0.66107061  0.64001128  1
  In  In66  1  0.83891205  0.00434083  0.11574796  1
  In  In67  1  0.83218460  0.00403566  0.62284827  1
  In  In68  1  0.83713237  0.34028259  0.11960416  1
  In  In69  1  0.83622565  0.33480478  0.63142139  1
  In  In70  1  0.83394164  0.66598317  0.11716951  1
  In  In71  1  0.83737586  0.67012917  0.63099521  1
  In  In72  1  0.83754679  0.50405378  0.49961102  1
  In  In73  1  0.33453616  -0.00235972  0.24822481  1
  In  In74  1  0.67136219  0.00241903  0.23678059  1
  In  In75  1  0.50188020  0.50343984  -0.00889355  1
  In  In76  1  0.32746806  0.66456809  0.24242072  1
  In  In77  1  0.16866288  0.17287172  0.00379762  1
  In  In78  1  0.49860715  0.50071451  0.50081917  1
  In  In79  1  0.15644654  0.16339255  0.50167887  1
  In  In80  1  0.33494536  0.33443025  0.25509457  1
  In  In81  1  0.50420190  0.16843442  0.49001259  1
  In  In82  1  0.50609679  0.82843900  0.51294199  1
  In  In83  1  -0.00350709  -0.00653021  0.75953843  1
  In  In84  1  0.33733697  0.33130681  0.75797173  1
  In  In85  1  0.66278288  -0.00850493  0.75883305  1
  Cu  Cu86  1  0.00149531  -0.00144062  0.00119033  1
  Cu  Cu87  1  0.49937338  0.83266283  0.75713759  1
  Cu  Cu88  1  0.67129688  0.33326739  0.49489667  1
  Cu  Cu89  1  0.51611582  0.50091238  0.24288758  1
  Cu  Cu90  1  0.32161858  0.33828579  0.50146381  1
  Cu  Cu91  1  0.16628555  0.16597005  0.75475112  1
  Cu  Cu92  1  0.83717065  0.82212074  0.24587861  1
  Cu  Cu93  1  0.67973377  0.00591987  0.49774492  1
  Cu  Cu94  1  0.00103944  0.66269198  -0.00018236  1
  Cu  Cu95  1  0.33226850  -0.00578829  0.50323560  1
  Cu  Cu96  1  0.83674621  0.50407499  0.75369087  1
  Cu  Cu97  1  0.50520346  0.83794687  0.23440520  1
  Cu  Cu98  1  0.50754304  0.16300327  0.75717043  1
  Cu  Cu99  1  0.32311717  0.66762611  -0.00670520  1
  Cu  Cu100  1  -0.00089914  0.34121053  -0.00050827  1
  Cu  Cu101  1  0.83435952  0.49757430  0.24253344  1
  Cu  Cu102  1  0.16025774  0.50296970  0.24858337  1
  Cu  Cu103  1  0.50829987  0.49688147  0.76165273  1
  Cu  Cu104  1  0.16127849  0.16650067  0.24637419  1
  Cu  Cu105  1  0.32643464  -0.00411519  -0.00349578  1
  Cu  Cu106  1  0.82601283  0.16579709  0.23945126  1
  Cu  Cu107  1  0.16024580  0.50273101  0.75211535  1
  Cu  Cu108  1  0.51982408  0.17777427  0.23356310  1
  Cu  Cu109  1  0.32175548  0.66305336  0.50639701  1
  Cu  Cu110  1  0.00063359  -0.00301340  0.49881873  1
  Cu  Cu111  1  0.67366146  0.67360233  0.50317598  1
  Cu  Cu112  1  0.16291544  0.82468611  0.75042510  1
  Cu  Cu113  1  -0.00935637  0.33338411  0.50309761  1
  Cu  Cu114  1  0.82635372  0.17641681  0.75618125  1
  Se  Se115  1  0.07672262  0.08431635  0.06258735  1
  Se  Se116  1  0.07441841  0.07298502  0.56806823  1
  Se  Se117  1  0.08576719  0.42179155  0.05134092  1
  Se  Se118  1  0.07799457  0.41424490  0.55467456  1
  Se  Se119  1  0.08263149  0.75056283  0.05173096  1
  Se  Se120  1  0.09924879  0.76546896  0.55684030  1
  Se  Se121  1  0.41192483  0.07864859  0.04832529  1
  Se  Se122  1  0.41570000  0.07895278  0.55657410  1
  Se  Se123  1  0.41688923  0.41412076  0.05765160  1
  Se  Se124  1  0.40704885  0.41152154  0.56268655  1
  Se  Se125  1  0.40598689  0.74730728  0.04981865  1
  Se  Se126  1  0.41034246  0.73682413  0.56633824  1
  Se  Se127  1  0.73122421  0.05438181  0.04946721  1
  Se  Se128  1  0.75851686  0.09185189  0.55126115  1
  Se  Se129  1  0.74080587  0.40099325  0.04803317  1
  Se  Se130  1  0.74079035  0.41725690  0.55946435  1
  Se  Se131  1  0.75325544  0.74590612  0.04241202  1
  Se  Se132  1  0.75721435  0.75310399  0.55760376  1
  Se  Se133  1  0.25624070  0.26075426  0.06649718  1
  Se  Se134  1  0.25156307  0.25170565  0.56256401  1
  Se  Se135  1  0.24406300  0.58166830  0.04748848  1
  Se  Se136  1  0.24273695  0.57819490  0.55994526  1
  Se  Se137  1  0.23982724  0.91733720  0.04989916  1
  Se  Se138  1  0.24994062  0.91490989  0.55952182  1
  Se  Se139  1  0.57392819  0.23101757  0.04225030  1
  Se  Se140  1  0.58615383  0.25931271  0.55732098  1
  Se  Se141  1  0.58946851  0.58433951  0.05814938  1
  Se  Se142  1  0.59150952  0.59070143  0.56070147  1
  Se  Se143  1  0.56203871  0.88580939  0.04454788  1
  Se  Se144  1  0.59937097  0.92897848  0.56142249  1
  Se  Se145  1  0.92165368  0.25189620  0.05228541  1
  Se  Se146  1  0.90882583  0.25060670  0.55638324  1
  Se  Se147  1  0.91491158  0.57824018  0.04997211  1
  Se  Se148  1  0.92691679  0.59387090  0.55753110  1
  Se  Se149  1  0.91782545  0.91242053  0.05204654  1
  Se  Se150  1  0.91235162  0.92055579  0.55386889  1
  Se  Se151  1  0.07140893  0.25373184  0.43953742  1
  Se  Se152  1  0.07692404  0.25709748  0.93920749  1
  Se  Se153  1  0.08613033  0.56397782  0.44978754  1
  Se  Se154  1  0.08408835  0.58052455  0.94435318  1
  Se  Se155  1  0.08271016  0.91472986  0.44545340  1
  Se  Se156  1  0.08602066  0.91379518  0.95173051  1
  Se  Se157  1  0.40329843  0.26278846  0.43905290  1
  Se  Se158  1  0.39976531  0.25970469  0.95219672  1
  Se  Se159  1  0.40616015  0.59321184  0.44220720  1
  Se  Se160  1  0.40771703  0.59124976  0.93323409  1
  Se  Se161  1  0.41261579  0.91137365  0.44427589  1
  Se  Se162  1  0.40866570  0.91417701  0.94175662  1
  Se  Se163  1  0.75464834  0.24848503  0.44498478  1
  Se  Se164  1  0.75918069  0.23915633  0.95170287  1
  Se  Se165  1  0.74675546  0.59243361  0.43930013  1
  Se  Se166  1  0.74799335  0.59271255  0.95270400  1
  Se  Se167  1  0.75451825  0.91171442  0.44795180  1
  Se  Se168  1  0.72090986  0.93811553  0.95779340  1
  Se  Se169  1  0.25333464  0.07465132  0.44160586  1
  Se  Se170  1  0.24986083  0.08116699  0.93689438  1
  Se  Se171  1  0.24169008  0.42399851  0.45040953  1
  Se  Se172  1  0.25251133  0.41119148  0.95826292  1
  Se  Se173  1  0.24757342  0.75539351  0.45378471  1
  Se  Se174  1  0.24223423  0.75284983  0.94039405  1
  Se  Se175  1  0.59503882  0.07423071  0.43295930  1
  Se  Se176  1  0.56236539  0.10224171  0.94801049  1
  Se  Se177  1  0.58980697  0.41484393  0.43670900  1
  Se  Se178  1  0.59636113  0.41054971  0.93952408  1
  Se  Se179  1  0.58934820  0.74671651  0.44000409  1
  Se  Se180  1  0.56716137  0.75205247  0.96104431  1
  Se  Se181  1  0.92040924  0.08407583  0.44615125  1
  Se  Se182  1  0.91354995  0.08214242  0.95305021  1
  Se  Se183  1  0.92005172  0.41254985  0.43567712  1
  Se  Se184  1  0.91316258  0.42029514  0.94559896  1
  Se  Se185  1  0.91423424  0.75114099  0.44248288  1
  Se  Se186  1  0.91986788  0.74915042  0.94792454  1
  Se  Se187  1  0.24127799  0.23983136  0.31204366  1
  Se  Se188  1  0.24524470  0.24368078  0.81802788  1
  Se  Se189  1  0.23928181  0.58360473  0.30892080  1
  Se  Se190  1  0.24798927  0.58140803  0.80422538  1
  Se  Se191  1  0.24374225  0.90776640  0.30629658  1
  Se  Se192  1  0.24758974  0.91195067  0.79933223  1
  Se  Se193  1  0.59625724  0.25921348  0.29341280  1
  Se  Se194  1  0.58676218  0.25034962  0.80785606  1
  Se  Se195  1  0.59023948  0.58988440  0.29867968  1
  Se  Se196  1  0.59037777  0.58822699  0.80737693  1
  Se  Se197  1  0.57799196  0.91445734  0.30339289  1
  Se  Se198  1  0.58208220  0.90157347  0.82154181  1
  Se  Se199  1  0.90861335  0.24653950  0.29801549  1
  Se  Se200  1  0.91499394  0.25640824  0.80679934  1
  Se  Se201  1  0.91541339  0.58043687  0.29897564  1
  Se  Se202  1  0.91866449  0.58921025  0.80543973  1
  Se  Se203  1  0.91409891  0.91090248  0.30083125  1
  Se  Se204  1  0.90265522  0.91006402  0.81914898  1
  Se  Se205  1  0.07886413  0.08045758  0.29816737  1
  Se  Se206  1  0.08651504  0.08830972  0.81786442  1
  Se  Se207  1  0.08078350  0.41132487  0.29885982  1
  Se  Se208  1  0.08001165  0.41713131  0.80540211  1
  Se  Se209  1  0.08772367  0.74377332  0.31124312  1
  Se  Se210  1  0.07554599  0.74814934  0.80421139  1
  Se  Se211  1  0.43758497  0.09748112  0.29446184  1
  Se  Se212  1  0.42277559  0.07656957  0.80371421  1
  Se  Se213  1  0.43028582  0.43221383  0.30857295  1
  Se  Se214  1  0.42481291  0.41906683  0.82044436  1
  Se  Se215  1  0.42596273  0.75891622  0.29959001  1
  Se  Se216  1  0.41525249  0.74362383  0.80362602  1
  Se  Se217  1  0.75804363  0.08149158  0.30823596  1
  Se  Se218  1  0.75333406  0.08768098  0.81407756  1
  Se  Se219  1  0.75054560  0.41306508  0.29619641  1
  Se  Se220  1  0.75347598  0.42086855  0.80822313  1
  Se  Se221  1  0.74502197  0.74604813  0.29752030  1
  Se  Se222  1  0.73993833  0.75689454  0.82557854  1
  Se  Se223  1  0.24478339  0.09025227  0.18787662  1
  Se  Se224  1  0.25227270  0.08054898  0.70781880  1
  Se  Se225  1  0.24950256  0.42650313  0.19218498  1
  Se  Se226  1  0.24178614  0.41457433  0.69443870  1
  Se  Se227  1  0.24094764  0.76195283  0.18852177  1
  Se  Se228  1  0.25144490  0.74316903  0.69911944  1
  Se  Se229  1  0.59251167  0.09445705  0.17383574  1
  Se  Se230  1  0.58385229  0.08794159  0.68905272  1
  Se  Se231  1  0.59326790  0.41215057  0.19214590  1
  Se  Se232  1  0.59117710  0.41525094  0.70689339  1
  Se  Se233  1  0.58957484  0.74890518  0.18985751  1
  Se  Se234  1  0.58403923  0.75385514  0.69972220  1
  Se  Se235  1  0.91289651  0.07712362  0.19499966  1
  Se  Se236  1  0.90907339  0.09154722  0.69943805  1
  Se  Se237  1  0.92080598  0.41539903  0.19241228  1
  Se  Se238  1  0.91719793  0.41900655  0.69840662  1
  Se  Se239  1  0.91921538  0.74192171  0.18945495  1
  Se  Se240  1  0.92022606  0.75484127  0.69761088  1
  Se  Se241  1  0.07835116  0.25461258  0.19912743  1
  Se  Se242  1  0.07827673  0.24593109  0.70468107  1
  Se  Se243  1  0.08336294  0.58586865  0.19085061  1
  Se  Se244  1  0.07928081  0.58477788  0.69639893  1
  Se  Se245  1  0.07434706  0.91680472  0.19859191  1
  Se  Se246  1  0.08188671  0.90902969  0.69270210  1
  Se  Se247  1  0.42702445  0.25930422  0.18642516  1
  Se  Se248  1  0.42733536  0.24135907  0.69237789  1
  Se  Se249  1  0.42889118  0.57852342  0.18715590  1
  Se  Se250  1  0.42025371  0.57569156  0.70721236  1
  Se  Se251  1  0.42569971  0.92234430  0.17926625  1
  Se  Se252  1  0.41539370  0.91649514  0.70399900  1
  Se  Se253  1  0.74868466  0.24148357  0.17530888  1
  Se  Se254  1  0.74512513  0.25776098  0.69964369  1
  Se  Se255  1  0.75288832  0.58351548  0.18974859  1
  Se  Se256  1  0.75346132  0.58958547  0.70109062  1
  Se  Se257  1  0.75725492  0.90276889  0.18340021  1
  Se  Se258  1  0.76205484  0.91396069  0.69776936  1
