# generated using pymatgen
data_In86Cu29Se144
_symmetry_space_group_name_H-M   'P 1'
_cell_length_a   17.58666012
_cell_length_b   17.58888938
_cell_length_c   23.45387196
_cell_angle_alpha   90.00809468
_cell_angle_beta   89.95937650
_cell_angle_gamma   89.99861118
_symmetry_Int_Tables_number   1
_chemical_formula_structural   In86Cu29Se144
_chemical_formula_sum   'In86 Cu29 Se144'
_cell_volume   7254.98007899
_cell_formula_units_Z   1
loop_
 _symmetry_equiv_pos_site_id
 _symmetry_equiv_pos_as_xyz
  1  'x, y, z'
loop_
 _atom_site_type_symbol
 _atom_site_label
 _atom_site_symmetry_multiplicity
 _atom_site_fract_x
 _atom_site_fract_y
 _atom_site_fract_z
 _atom_site_occupancy
  In  In0  1  -0.00626873  0.15557742  0.12086256  1
  In  In1  1  -0.00744304  0.15409153  0.61971182  1
  In  In2  1  0.00694413  0.50425259  0.12357764  1
  In  In3  1  0.00148479  0.51009157  0.62589911  1
  In  In4  1  -0.01274647  0.84209661  0.14001663  1
  In  In5  1  0.00970234  0.83647251  0.62474714  1
  In  In6  1  0.34073449  0.16523040  0.11923387  1
  In  In7  1  0.34455367  0.16050534  0.63579045  1
  In  In8  1  0.32606514  0.49173962  0.11725503  1
  In  In9  1  0.34725903  0.48374450  0.64203736  1
  In  In10  1  0.35174126  0.84342084  0.11370206  1
  In  In11  1  0.33854539  0.82813158  0.63152558  1
  In  In12  1  0.66962494  0.16323303  0.12051915  1
  In  In13  1  0.66071870  0.16590831  0.62260972  1
  In  In14  1  0.66445903  0.49371014  0.12360812  1
  In  In15  1  0.66522976  0.51512767  0.62801984  1
  In  In16  1  0.65032621  0.84236715  0.12569184  1
  In  In17  1  0.66921154  0.85351721  0.62311165  1
  In  In18  1  0.16934421  -0.00080181  0.36820461  1
  In  In19  1  0.18111546  0.01606002  0.87124617  1
  In  In20  1  0.17641383  0.31743551  0.37068391  1
  In  In21  1  0.17343257  0.32680750  0.88222123  1
  In  In22  1  0.16368928  0.67848711  0.37060569  1
  In  In23  1  0.17351585  0.65073995  0.87813538  1
  In  In24  1  0.49115958  0.00746526  0.38182277  1
  In  In25  1  0.49311328  0.00093401  0.88035189  1
  In  In26  1  0.50482029  0.33793409  0.37197490  1
  In  In27  1  0.49626046  0.33919700  0.87827729  1
  In  In28  1  0.50552266  0.65905498  0.37785649  1
  In  In29  1  0.48827114  0.67353481  0.88017755  1
  In  In30  1  0.84549256  0.00223873  0.37591145  1
  In  In31  1  0.83510198  0.01644840  0.86507798  1
  In  In32  1  0.81450355  0.32893203  0.37254751  1
  In  In33  1  0.83821930  0.32440548  0.88705843  1
  In  In34  1  0.83413974  0.67815319  0.34982583  1
  In  In35  1  0.82608509  0.66494419  0.87947277  1
  In  In36  1  -0.00716654  0.14391199  0.37240015  1
  In  In37  1  0.00521613  0.16517027  0.87964582  1
  In  In38  1  -0.01681599  0.49817628  0.37109009  1
  In  In39  1  0.00901277  0.48901920  0.89076254  1
  In  In40  1  0.00188581  0.84150309  0.35857455  1
  In  In41  1  -0.01098725  0.84413061  0.87532839  1
  In  In42  1  0.35773284  0.18415798  0.35235123  1
  In  In43  1  0.33101650  0.16625272  0.88007376  1
  In  In44  1  0.34998940  0.50235904  0.37312684  1
  In  In45  1  0.33136290  0.49806597  0.87357159  1
  In  In46  1  0.33339608  0.84749138  0.37360052  1
  In  In47  1  0.34672234  0.84304797  0.86863779  1
  In  In48  1  0.65348398  0.17441987  0.37981404  1
  In  In49  1  0.66672698  0.14449250  0.89927697  1
  In  In50  1  0.65832175  0.49230167  0.36241760  1
  In  In51  1  0.66962765  0.49569643  0.88699602  1
  In  In52  1  0.67010558  0.81936779  0.37044070  1
  In  In53  1  0.64639655  0.84574149  0.88363686  1
  In  In54  1  0.16676690  0.00027181  0.11937185  1
  In  In55  1  0.16608559  0.00366940  0.63659029  1
  In  In56  1  0.17954149  0.33753754  0.11965037  1
  In  In57  1  0.18549689  0.33661826  0.63183123  1
  In  In58  1  0.16420533  0.65756960  0.12306285  1
  In  In59  1  0.16594453  0.67626182  0.62976247  1
  In  In60  1  0.50839306  -0.00171996  0.11594951  1
  In  In61  1  0.49793211  0.00301630  0.62358658  1
  In  In62  1  0.49443573  0.32968818  0.12679586  1
  In  In63  1  0.49207749  0.32627725  0.62286653  1
  In  In64  1  0.51170940  0.66973743  0.11935135  1
  In  In65  1  0.49861627  0.65981301  0.61682381  1
  In  In66  1  0.82787383  0.01422703  0.12426109  1
  In  In67  1  0.82871819  0.01037298  0.63358469  1
  In  In68  1  0.81778624  0.31798440  0.11848423  1
  In  In69  1  0.84405243  0.32033497  0.62951674  1
  In  In70  1  0.84178664  0.66070416  0.13499578  1
  In  In71  1  0.83543846  0.66239607  0.62460667  1
  In  In72  1  0.17082192  0.83137665  0.00539302  1
  In  In73  1  0.17020681  0.16137823  0.50222491  1
  In  In74  1  0.82918311  0.83543141  0.49851372  1
  In  In75  1  0.00892931  0.32313896  0.76152479  1
  In  In76  1  0.82549376  0.83431157  0.00321259  1
  In  In77  1  0.33341225  0.66978771  0.24060494  1
  In  In78  1  0.66306025  0.67566969  0.75689100  1
  In  In79  1  0.00546681  0.67061081  0.74810587  1
  In  In80  1  0.66262401  0.32289578  0.74903506  1
  In  In81  1  0.00435056  0.33468471  0.24294532  1
  In  In82  1  0.80574451  0.48811795  0.48975236  1
  In  In83  1  0.66313191  0.00392344  0.24653042  1
  In  In84  1  0.16923360  0.83793810  0.49374128  1
  In  In85  1  0.17064082  0.49970124  0.50993531  1
  Cu  Cu86  1  0.50239486  0.49430966  0.24716171  1
  Cu  Cu87  1  0.83156300  0.50044020  0.24473511  1
  Cu  Cu88  1  0.34214739  0.33638905  0.49568018  1
  Cu  Cu89  1  0.65798513  0.66424775  0.49222828  1
  Cu  Cu90  1  0.16847136  0.16918858  0.75552172  1
  Cu  Cu91  1  0.00325514  0.00406527  -0.00477978  1
  Cu  Cu92  1  -0.00218955  0.33402939  0.00919005  1
  Cu  Cu93  1  0.82964107  0.84852026  0.75223820  1
  Cu  Cu94  1  0.84296029  0.49365018  0.76216785  1
  Cu  Cu95  1  0.34498676  0.66408352  0.50489319  1
  Cu  Cu96  1  0.50004870  0.84073824  0.74982468  1
  Cu  Cu97  1  0.66109541  0.00511131  0.50182872  1
  Cu  Cu98  1  0.16883273  0.83475988  0.75544635  1
  Cu  Cu99  1  0.16272611  0.50329833  0.24661884  1
  Cu  Cu100  1  0.33478433  0.33342495  -0.00046981  1
  Cu  Cu101  1  0.65986098  0.33222672  0.49882601  1
  Cu  Cu102  1  0.49620101  0.83606920  0.24722845  1
  Cu  Cu103  1  0.00129095  0.66180003  0.00628525  1
  Cu  Cu104  1  0.16691197  0.83653825  0.24412117  1
  Cu  Cu105  1  -0.00851980  0.66027986  0.48912435  1
  Cu  Cu106  1  0.49591972  0.16463053  0.75548841  1
  Cu  Cu107  1  0.67239812  0.65774757  0.00259069  1
  Cu  Cu108  1  0.66304439  0.33399924  0.00237802  1
  Cu  Cu109  1  0.49629918  0.50357864  0.75311050  1
  Cu  Cu110  1  0.33265588  0.00576804  0.49969709  1
  Cu  Cu111  1  0.83217343  0.16837268  0.24755230  1
  Cu  Cu112  1  0.33455007  0.66101500  -0.00101159  1
  Cu  Cu113  1  0.17739986  0.15965820  0.24427160  1
  Cu  Cu114  1  -0.00148808  0.32124989  0.50373665  1
  Se  Se115  1  0.08521107  0.08524109  0.05088930  1
  Se  Se116  1  0.08050344  0.06477159  0.55473756  1
  Se  Se117  1  0.08628993  0.41745143  0.05640401  1
  Se  Se118  1  0.07446197  0.40430715  0.56346453  1
  Se  Se119  1  0.06987633  0.75201368  0.06548865  1
  Se  Se120  1  0.07430465  0.73900296  0.54968738  1
  Se  Se121  1  0.43515794  0.09287234  0.04916897  1
  Se  Se122  1  0.41466662  0.08906651  0.55463356  1
  Se  Se123  1  0.41934527  0.41652612  0.05330421  1
  Se  Se124  1  0.41583245  0.42000604  0.55663010  1
  Se  Se125  1  0.41891698  0.74284178  0.05166684  1
  Se  Se126  1  0.42052498  0.75658344  0.55564152  1
  Se  Se127  1  0.74492544  0.07802416  0.04953061  1
  Se  Se128  1  0.74796762  0.08134429  0.55721822  1
  Se  Se129  1  0.75147969  0.41651529  0.05255414  1
  Se  Se130  1  0.73923240  0.40394431  0.56881214  1
  Se  Se131  1  0.74418581  0.74187470  0.06595400  1
  Se  Se132  1  0.73918630  0.73923909  0.55794222  1
  Se  Se133  1  0.25183145  0.24644492  0.05150415  1
  Se  Se134  1  0.26252812  0.25553671  0.55727638  1
  Se  Se135  1  0.24642098  0.58277902  0.05148147  1
  Se  Se136  1  0.25880692  0.59295531  0.56637098  1
  Se  Se137  1  0.26625678  0.93083962  0.04783422  1
  Se  Se138  1  0.25348770  0.92429003  0.56069233  1
  Se  Se139  1  0.58315957  0.25144431  0.05816899  1
  Se  Se140  1  0.57835957  0.24932581  0.55435561  1
  Se  Se141  1  0.58334046  0.57670009  0.05194829  1
  Se  Se142  1  0.58379728  0.57667647  0.54921677  1
  Se  Se143  1  0.58275110  0.91054596  0.04499467  1
  Se  Se144  1  0.57855048  0.91822555  0.55190161  1
  Se  Se145  1  0.91436612  0.24447614  0.05480844  1
  Se  Se146  1  0.91101376  0.23977165  0.55231603  1
  Se  Se147  1  0.91405233  0.58159123  0.05801706  1
  Se  Se148  1  0.91173450  0.57800082  0.54769011  1
  Se  Se149  1  0.92392965  0.92367880  0.05671286  1
  Se  Se150  1  0.91800950  0.91879797  0.56185165  1
  Se  Se151  1  0.07789120  0.24939400  0.43864374  1
  Se  Se152  1  0.07781904  0.25560641  0.94822432  1
  Se  Se153  1  0.08129861  0.58071000  0.43744047  1
  Se  Se154  1  0.08814130  0.58278341  0.95296655  1
  Se  Se155  1  0.07286186  0.92418826  0.43831098  1
  Se  Se156  1  0.08437750  0.92060823  0.94016465  1
  Se  Se157  1  0.41916375  0.25195253  0.43911002  1
  Se  Se158  1  0.41712399  0.25159576  0.94546049  1
  Se  Se159  1  0.42271760  0.57888349  0.44911408  1
  Se  Se160  1  0.41708058  0.57728702  0.94496828  1
  Se  Se161  1  0.41410514  0.91587808  0.44983042  1
  Se  Se162  1  0.43468271  0.89547588  0.94639628  1
  Se  Se163  1  0.74666236  0.24874802  0.44900962  1
  Se  Se164  1  0.74742529  0.24688543  0.95222718  1
  Se  Se165  1  0.74391081  0.59454838  0.42728275  1
  Se  Se166  1  0.75941014  0.57691302  0.95132024  1
  Se  Se167  1  0.73822492  0.92505930  0.43787088  1
  Se  Se168  1  0.74959871  0.92631379  0.93783529  1
  Se  Se169  1  0.25929354  0.08416119  0.43392758  1
  Se  Se170  1  0.24339012  0.09195561  0.95110603  1
  Se  Se171  1  0.25377260  0.41262822  0.43969668  1
  Se  Se172  1  0.25076424  0.41855927  0.94746310  1
  Se  Se173  1  0.26356607  0.73945362  0.44216400  1
  Se  Se174  1  0.25823960  0.74682127  0.93954760  1
  Se  Se175  1  0.57723096  0.08745309  0.44892590  1
  Se  Se176  1  0.55177983  0.09373541  0.95815020  1
  Se  Se177  1  0.58620236  0.42107618  0.44357157  1
  Se  Se178  1  0.57879007  0.41790990  0.95059717  1
  Se  Se179  1  0.57897553  0.75519228  0.44330424  1
  Se  Se180  1  0.59133192  0.73712321  0.94463226  1
  Se  Se181  1  0.91289179  0.08430085  0.45179710  1
  Se  Se182  1  0.91456223  0.08381135  0.94424803  1
  Se  Se183  1  0.91813581  0.40358440  0.44380886  1
  Se  Se184  1  0.91364792  0.41537216  0.95372070  1
  Se  Se185  1  0.91778211  0.74688621  0.43188902  1
  Se  Se186  1  0.92430700  0.74327839  0.94615712  1
  Se  Se187  1  0.25488292  0.25433259  0.29134273  1
  Se  Se188  1  0.25221018  0.25182062  0.80755232  1
  Se  Se189  1  0.24659147  0.58074424  0.30832587  1
  Se  Se190  1  0.25906535  0.58918231  0.80365430  1
  Se  Se191  1  0.25135015  0.91665376  0.29874428  1
  Se  Se192  1  0.25268720  0.92010366  0.80566277  1
  Se  Se193  1  0.58917399  0.25660966  0.30389217  1
  Se  Se194  1  0.57952122  0.24000036  0.81700169  1
  Se  Se195  1  0.57890902  0.58561445  0.29913048  1
  Se  Se196  1  0.58193716  0.57610877  0.81406136  1
  Se  Se197  1  0.57643679  0.91280949  0.31093487  1
  Se  Se198  1  0.57899032  0.92406965  0.80571269  1
  Se  Se199  1  0.91511685  0.24773794  0.30826695  1
  Se  Se200  1  0.90557910  0.23827788  0.80902729  1
  Se  Se201  1  0.91986549  0.58133540  0.29518274  1
  Se  Se202  1  0.92174599  0.58074957  0.81626787  1
  Se  Se203  1  0.90834775  0.91974800  0.29920061  1
  Se  Se204  1  0.92015839  0.92704807  0.80145644  1
  Se  Se205  1  0.08854381  0.08494540  0.30036555  1
  Se  Se206  1  0.08236296  0.08521967  0.80566525  1
  Se  Se207  1  0.09116935  0.42146092  0.31255625  1
  Se  Se208  1  0.09342706  0.42408638  0.81209199  1
  Se  Se209  1  0.08485958  0.75064102  0.29626523  1
  Se  Se210  1  0.08800278  0.75675059  0.81693094  1
  Se  Se211  1  0.40800808  0.06499733  0.30242275  1
  Se  Se212  1  0.41174307  0.08248751  0.80901816  1
  Se  Se213  1  0.41558634  0.41509929  0.30052033  1
  Se  Se214  1  0.41681752  0.41550078  0.80383471  1
  Se  Se215  1  0.41885797  0.75348877  0.30843043  1
  Se  Se216  1  0.42069600  0.75007837  0.80020567  1
  Se  Se217  1  0.75308627  0.09043906  0.31177480  1
  Se  Se218  1  0.72753802  0.08486919  0.81008520  1
  Se  Se219  1  0.75078000  0.41475795  0.29741121  1
  Se  Se220  1  0.75460919  0.41368009  0.81290463  1
  Se  Se221  1  0.73935715  0.75202420  0.28870546  1
  Se  Se222  1  0.75513129  0.76691274  0.81512166  1
  Se  Se223  1  0.25619025  0.07817601  0.18652590  1
  Se  Se224  1  0.25234218  0.08501104  0.70149090  1
  Se  Se225  1  0.24808624  0.42104082  0.19574017  1
  Se  Se226  1  0.24672202  0.42132270  0.70613293  1
  Se  Se227  1  0.24696184  0.76231287  0.17955199  1
  Se  Se228  1  0.24952111  0.75163790  0.70015088  1
  Se  Se229  1  0.57123397  0.09442091  0.19198608  1
  Se  Se230  1  0.57702622  0.08898075  0.69398505  1
  Se  Se231  1  0.58430337  0.41029443  0.19403144  1
  Se  Se232  1  0.58007421  0.42537795  0.69226506  1
  Se  Se233  1  0.58025477  0.75177878  0.19634953  1
  Se  Se234  1  0.58067017  0.75912366  0.68787667  1
  Se  Se235  1  0.91567057  0.08224140  0.19805140  1
  Se  Se236  1  0.92749210  0.07838749  0.69845731  1
  Se  Se237  1  0.90805664  0.41592810  0.18380189  1
  Se  Se238  1  0.91940185  0.42069904  0.69584863  1
  Se  Se239  1  0.91480561  0.74942024  0.20369098  1
  Se  Se240  1  0.90532381  0.76131291  0.69318279  1
  Se  Se241  1  0.09240925  0.24085936  0.18566288  1
  Se  Se242  1  0.09126113  0.24178301  0.68669434  1
  Se  Se243  1  0.07967700  0.58863524  0.19807997  1
  Se  Se244  1  0.09712908  0.57256037  0.69723300  1
  Se  Se245  1  0.08486150  0.92475315  0.19431995  1
  Se  Se246  1  0.08321948  0.91358595  0.69998259  1
  Se  Se247  1  0.40050240  0.25844902  0.19364696  1
  Se  Se248  1  0.41745173  0.25497161  0.70233534  1
  Se  Se249  1  0.42248622  0.57544655  0.18558338  1
  Se  Se250  1  0.42146949  0.59071171  0.69577363  1
  Se  Se251  1  0.42220235  0.92234236  0.18984167  1
  Se  Se252  1  0.41545966  0.92209043  0.69507512  1
  Se  Se253  1  0.74319178  0.24624377  0.19682937  1
  Se  Se254  1  0.76012172  0.23443218  0.69609187  1
  Se  Se255  1  0.74392986  0.58051889  0.19364418  1
  Se  Se256  1  0.76311257  0.57829191  0.70350967  1
  Se  Se257  1  0.75437921  0.91321557  0.18859266  1
  Se  Se258  1  0.74196418  0.92733787  0.70019965  1
