# generated using pymatgen
data_In86Cu29Se144
_symmetry_space_group_name_H-M   'P 1'
_cell_length_a   17.57013613
_cell_length_b   17.57318643
_cell_length_c   23.43190655
_cell_angle_alpha   90.00616286
_cell_angle_beta   89.98493598
_cell_angle_gamma   89.97009679
_symmetry_Int_Tables_number   1
_chemical_formula_structural   In86Cu29Se144
_chemical_formula_sum   'In86 Cu29 Se144'
_cell_volume   7234.91099297
_cell_formula_units_Z   1
loop_
 _symmetry_equiv_pos_site_id
 _symmetry_equiv_pos_as_xyz
  1  'x, y, z'
loop_
 _atom_site_type_symbol
 _atom_site_label
 _atom_site_symmetry_multiplicity
 _atom_site_fract_x
 _atom_site_fract_y
 _atom_site_fract_z
 _atom_site_occupancy
  In  In0  1  -0.00443689  0.16434668  0.12372782  1
  In  In1  1  -0.01719543  0.16479102  0.62294708  1
  In  In2  1  -0.00943262  0.49269917  0.11683279  1
  In  In3  1  -0.00135393  0.50560590  0.62446325  1
  In  In4  1  0.01618023  0.84989293  0.13124884  1
  In  In5  1  0.00675250  0.84240919  0.61729490  1
  In  In6  1  0.33963448  0.16802826  0.11055039  1
  In  In7  1  0.33554033  0.16587658  0.63988648  1
  In  In8  1  0.33554347  0.50930322  0.10745184  1
  In  In9  1  0.33522417  0.50183965  0.64033810  1
  In  In10  1  0.33016626  0.84262481  0.12114724  1
  In  In11  1  0.33368357  0.83415990  0.62511856  1
  In  In12  1  0.66959678  0.16547724  0.12113392  1
  In  In13  1  0.67121080  0.16394399  0.62962836  1
  In  In14  1  0.66613749  0.49860371  0.12530719  1
  In  In15  1  0.66741104  0.49083021  0.62619117  1
  In  In16  1  0.65880896  0.82882805  0.14171171  1
  In  In17  1  0.67403068  0.84380076  0.61503584  1
  In  In18  1  0.15195700  -0.00528321  0.37102605  1
  In  In19  1  0.16729842  -0.00193151  0.87551208  1
  In  In20  1  0.15657504  0.34442927  0.37172088  1
  In  In21  1  0.17533434  0.32222402  0.88203449  1
  In  In22  1  0.17441514  0.67617140  0.37650764  1
  In  In23  1  0.19091225  0.65296836  0.89770217  1
  In  In24  1  0.50281194  -0.01673009  0.37607897  1
  In  In25  1  0.50858953  0.00976625  0.86859142  1
  In  In26  1  0.50783135  0.33797930  0.37505236  1
  In  In27  1  0.50298646  0.33177058  0.87717996  1
  In  In28  1  0.51207975  0.66912882  0.36849625  1
  In  In29  1  0.47922456  0.66447977  0.88006624  1
  In  In30  1  0.82936625  -0.00611351  0.37206633  1
  In  In31  1  0.84482385  0.00890219  0.86639112  1
  In  In32  1  0.83760840  0.32352344  0.38476604  1
  In  In33  1  0.82683400  0.33477288  0.87920115  1
  In  In34  1  0.82289614  0.68143886  0.38278807  1
  In  In35  1  0.82495622  0.65620895  0.87586721  1
  In  In36  1  -0.03654879  0.13937193  0.34340828  1
  In  In37  1  0.00865227  0.15627257  0.88328045  1
  In  In38  1  -0.00571440  0.48381718  0.36371557  1
  In  In39  1  -0.00014262  0.50119611  0.88473503  1
  In  In40  1  -0.00230117  0.83559471  0.37897124  1
  In  In41  1  0.00818415  0.84618728  0.86916366  1
  In  In42  1  0.33988288  0.16714895  0.37796807  1
  In  In43  1  0.33434341  0.16617461  0.87346759  1
  In  In44  1  0.33224266  0.50560992  0.37476183  1
  In  In45  1  0.34071053  0.49925438  0.88041803  1
  In  In46  1  0.33367403  0.82308017  0.39529664  1
  In  In47  1  0.32246279  0.82390474  0.87058288  1
  In  In48  1  0.70023598  0.16445937  0.37435741  1
  In  In49  1  0.66723624  0.16630698  0.87612979  1
  In  In50  1  0.66382822  0.51380008  0.37486455  1
  In  In51  1  0.67658034  0.48608262  0.88312625  1
  In  In52  1  0.66427491  0.83863851  0.37099541  1
  In  In53  1  0.65281428  0.83964549  0.87225987  1
  In  In54  1  0.15551953  -0.00311369  0.11942838  1
  In  In55  1  0.17149224  -0.00827261  0.63505497  1
  In  In56  1  0.16013728  0.32537793  0.11181027  1
  In  In57  1  0.17251890  0.34229763  0.63268177  1
  In  In58  1  0.17515498  0.67759447  0.10980219  1
  In  In59  1  0.17505847  0.67560901  0.62348841  1
  In  In60  1  0.49849381  0.00274038  0.12466734  1
  In  In61  1  0.50601700  -0.00591592  0.62955604  1
  In  In62  1  0.50474181  0.33178348  0.11566959  1
  In  In63  1  0.50553788  0.33037152  0.63855206  1
  In  In64  1  0.50999035  0.66579844  0.12756605  1
  In  In65  1  0.48255453  0.67219576  0.62565817  1
  In  In66  1  0.82737165  0.01057828  0.13802593  1
  In  In67  1  0.83135221  0.00332226  0.62393159  1
  In  In68  1  0.83759243  0.33449493  0.12448649  1
  In  In69  1  0.81801437  0.31714837  0.60772803  1
  In  In70  1  0.82740775  0.65581404  0.12830329  1
  In  In71  1  0.82921116  0.66339364  0.61272325  1
  In  In72  1  0.32891420  -0.00648588  0.24654045  1
  In  In73  1  -0.00142954  0.66761634  0.24569652  1
  In  In74  1  0.15847651  0.16846919  0.49659443  1
  In  In75  1  0.83648924  0.83232261  0.00003018  1
  In  In76  1  0.66039870  0.67023194  0.75159868  1
  In  In77  1  0.16418399  0.50584324  0.50585899  1
  In  In78  1  0.67238377  0.32769604  0.24646154  1
  In  In79  1  0.00826620  0.67525718  0.74259952  1
  In  In80  1  0.33559837  0.67066823  0.24234949  1
  In  In81  1  0.50936000  0.16205625  0.51053221  1
  In  In82  1  0.49503246  0.83175602  0.00225074  1
  In  In83  1  0.00155580  0.32840819  0.75038380  1
  In  In84  1  0.50441168  0.51044622  0.49773595  1
  In  In85  1  0.32970734  0.33566510  0.24876863  1
  Cu  Cu86  1  0.67160598  0.00181494  0.49742216  1
  Cu  Cu87  1  -0.00568129  0.33216115  0.00005978  1
  Cu  Cu88  1  0.82877965  0.84171277  0.74238655  1
  Cu  Cu89  1  0.17030249  0.83066288  0.75128029  1
  Cu  Cu90  1  0.83737450  0.49359510  0.75128885  1
  Cu  Cu91  1  0.49863505  0.17145616  0.75574983  1
  Cu  Cu92  1  0.16138132  0.49894422  0.23882667  1
  Cu  Cu93  1  0.33413179  0.00284101  -0.00545053  1
  Cu  Cu94  1  0.66491727  0.67557256  0.49602984  1
  Cu  Cu95  1  -0.00066127  0.00404464  -0.00156305  1
  Cu  Cu96  1  0.33508258  0.33319113  -0.00683534  1
  Cu  Cu97  1  0.66612068  0.32740701  0.00117025  1
  Cu  Cu98  1  0.16414024  0.16008229  0.75869745  1
  Cu  Cu99  1  -0.00421815  0.67215633  0.00675463  1
  Cu  Cu100  1  0.66752574  0.65658162  0.00335534  1
  Cu  Cu101  1  0.50203122  0.50022446  0.75648863  1
  Cu  Cu102  1  0.32535766  -0.00863545  0.50485158  1
  Cu  Cu103  1  0.82580735  0.50239579  0.24772253  1
  Cu  Cu104  1  0.17836998  0.49920997  0.76198196  1
  Cu  Cu105  1  0.33769634  0.33755914  0.50988730  1
  Cu  Cu106  1  0.83250557  0.83326522  0.25594016  1
  Cu  Cu107  1  -0.00082355  0.66126925  0.49579291  1
  Cu  Cu108  1  0.16252946  0.17274380  0.24025302  1
  Cu  Cu109  1  -0.00525900  0.00107605  0.49522011  1
  Cu  Cu110  1  0.49426354  0.84014673  0.74940360  1
  Cu  Cu111  1  0.82949607  0.16468481  0.74917303  1
  Cu  Cu112  1  -0.00711066  0.32894132  0.49160307  1
  Cu  Cu113  1  0.67318421  0.00321304  -0.00024585  1
  Cu  Cu114  1  0.50728855  0.16245305  0.24554456  1
  Se  Se115  1  0.08348275  0.08870831  0.05139732  1
  Se  Se116  1  0.07652712  0.07575820  0.56039394  1
  Se  Se117  1  0.08072708  0.41865866  0.04857264  1
  Se  Se118  1  0.07418392  0.40234048  0.55702601  1
  Se  Se119  1  0.07679516  0.76111543  0.05495959  1
  Se  Se120  1  0.07798305  0.74023326  0.55624542  1
  Se  Se121  1  0.42403185  0.07904167  0.04820421  1
  Se  Se122  1  0.40429579  0.07848579  0.56130070  1
  Se  Se123  1  0.41822011  0.41325133  0.04973115  1
  Se  Se124  1  0.41965727  0.41833499  0.56543804  1
  Se  Se125  1  0.40777291  0.73952835  0.06121720  1
  Se  Se126  1  0.41838098  0.75883480  0.55305488  1
  Se  Se127  1  0.75757853  0.08154298  0.05554889  1
  Se  Se128  1  0.74914095  0.08725181  0.55419713  1
  Se  Se129  1  0.74630573  0.41190913  0.05813310  1
  Se  Se130  1  0.76467852  0.43495117  0.55678916  1
  Se  Se131  1  0.73983227  0.74788080  0.06079000  1
  Se  Se132  1  0.75324400  0.75608126  0.54820551  1
  Se  Se133  1  0.25149265  0.24830460  0.04597434  1
  Se  Se134  1  0.25435811  0.25249165  0.56192308  1
  Se  Se135  1  0.23972416  0.58030837  0.04452967  1
  Se  Se136  1  0.26627474  0.58608243  0.55999041  1
  Se  Se137  1  0.25058602  0.92407177  0.05194317  1
  Se  Se138  1  0.23975710  0.91148196  0.55762635  1
  Se  Se139  1  0.58210944  0.24078490  0.05097674  1
  Se  Se140  1  0.59333177  0.26394220  0.56139313  1
  Se  Se141  1  0.57970226  0.57769475  0.05526123  1
  Se  Se142  1  0.59175674  0.59793107  0.56438095  1
  Se  Se143  1  0.59549797  0.91754267  0.05859484  1
  Se  Se144  1  0.58218559  0.92334499  0.55041388  1
  Se  Se145  1  0.91285108  0.24768828  0.05382052  1
  Se  Se146  1  0.91346871  0.24118183  0.54433280  1
  Se  Se147  1  0.90976760  0.58601297  0.05346484  1
  Se  Se148  1  0.91781726  0.57786211  0.55030456  1
  Se  Se149  1  0.91977662  0.92514440  0.06142346  1
  Se  Se150  1  0.91339985  0.91954953  0.55364408  1
  Se  Se151  1  0.07158547  0.24991736  0.43031822  1
  Se  Se152  1  0.08169728  0.24985664  0.94861792  1
  Se  Se153  1  0.07639022  0.58210359  0.43249050  1
  Se  Se154  1  0.07842447  0.58829869  0.95159777  1
  Se  Se155  1  0.08346391  0.91615561  0.44892037  1
  Se  Se156  1  0.08294938  0.91758076  0.94751691  1
  Se  Se157  1  0.41696186  0.25858662  0.44839377  1
  Se  Se158  1  0.41887724  0.24587890  0.94362891  1
  Se  Se159  1  0.40958206  0.59709480  0.44043443  1
  Se  Se160  1  0.41298231  0.58326284  0.95502017  1
  Se  Se161  1  0.41825674  0.91796595  0.45246339  1
  Se  Se162  1  0.41541090  0.92150464  0.93504881  1
  Se  Se163  1  0.74165478  0.25664130  0.45195800  1
  Se  Se164  1  0.75120124  0.24571467  0.94737085  1
  Se  Se165  1  0.74785464  0.58662124  0.44773232  1
  Se  Se166  1  0.75475148  0.57626964  0.95112163  1
  Se  Se167  1  0.75004455  0.91308570  0.44424632  1
  Se  Se168  1  0.74697661  0.92036325  0.93734926  1
  Se  Se169  1  0.25473430  0.07561855  0.44084537  1
  Se  Se170  1  0.24814178  0.08556159  0.94270248  1
  Se  Se171  1  0.25624137  0.41036844  0.44548571  1
  Se  Se172  1  0.24786759  0.41859021  0.94570151  1
  Se  Se173  1  0.24136776  0.74466372  0.45785717  1
  Se  Se174  1  0.24931630  0.76402498  0.95412205  1
  Se  Se175  1  0.58957978  0.08183068  0.43690746  1
  Se  Se176  1  0.58491224  0.08169795  0.94641341  1
  Se  Se177  1  0.59484909  0.41238129  0.44638453  1
  Se  Se178  1  0.58323304  0.41416120  0.94964811  1
  Se  Se179  1  0.58101380  0.75525064  0.44179797  1
  Se  Se180  1  0.59000016  0.73983876  0.94281524  1
  Se  Se181  1  0.91426752  0.08294023  0.43847479  1
  Se  Se182  1  0.91033561  0.08439386  0.94786317  1
  Se  Se183  1  0.91527300  0.42367616  0.44486054  1
  Se  Se184  1  0.91169771  0.41735932  0.94696556  1
  Se  Se185  1  0.91762065  0.75229631  0.44865451  1
  Se  Se186  1  0.92279902  0.74415463  0.93457763  1
  Se  Se187  1  0.24191735  0.24178679  0.30957936  1
  Se  Se188  1  0.24892447  0.24908537  0.80377857  1
  Se  Se189  1  0.23872985  0.57700511  0.30199910  1
  Se  Se190  1  0.25763922  0.58785510  0.81206653  1
  Se  Se191  1  0.25255139  0.90695605  0.31761496  1
  Se  Se192  1  0.25078021  0.91841644  0.80400698  1
  Se  Se193  1  0.58273081  0.23842642  0.31174005  1
  Se  Se194  1  0.58740491  0.25204698  0.80635637  1
  Se  Se195  1  0.57217963  0.57076708  0.30154756  1
  Se  Se196  1  0.58150732  0.57964986  0.81844091  1
  Se  Se197  1  0.58492287  0.92089875  0.29972468  1
  Se  Se198  1  0.58447102  0.92163682  0.79726698  1
  Se  Se199  1  0.92077851  0.26817134  0.30402992  1
  Se  Se200  1  0.91278044  0.24089335  0.81213888  1
  Se  Se201  1  0.90582890  0.58427593  0.30868996  1
  Se  Se202  1  0.91841161  0.57997453  0.80426599  1
  Se  Se203  1  0.92104231  0.91424751  0.30496489  1
  Se  Se204  1  0.91732398  0.91523649  0.79927156  1
  Se  Se205  1  0.08901780  0.08699217  0.29931025  1
  Se  Se206  1  0.07708427  0.07607411  0.80585218  1
  Se  Se207  1  0.08167005  0.41282635  0.29148936  1
  Se  Se208  1  0.08746760  0.42073354  0.81262685  1
  Se  Se209  1  0.08866780  0.75565725  0.30626261  1
  Se  Se210  1  0.09687778  0.74644393  0.81457643  1
  Se  Se211  1  0.42179694  0.08739161  0.30594534  1
  Se  Se212  1  0.41434124  0.08255381  0.80235546  1
  Se  Se213  1  0.42284111  0.42478224  0.30759993  1
  Se  Se214  1  0.41827474  0.41559598  0.80872872  1
  Se  Se215  1  0.41479813  0.75842102  0.31135103  1
  Se  Se216  1  0.41789509  0.75159612  0.80365628  1
  Se  Se217  1  0.75585943  0.07835287  0.29832034  1
  Se  Se218  1  0.74651995  0.08163164  0.80389212  1
  Se  Se219  1  0.75299415  0.42006805  0.31195621  1
  Se  Se220  1  0.75085127  0.41379058  0.80349623  1
  Se  Se221  1  0.74608802  0.74826022  0.30350254  1
  Se  Se222  1  0.75761694  0.76055795  0.80866074  1
  Se  Se223  1  0.25089934  0.09403243  0.18569112  1
  Se  Se224  1  0.24894446  0.08016157  0.70224379  1
  Se  Se225  1  0.24683142  0.42122135  0.18093700  1
  Se  Se226  1  0.25619205  0.41204322  0.70618519  1
  Se  Se227  1  0.23921662  0.76271279  0.19142769  1
  Se  Se228  1  0.25507163  0.74834366  0.69778509  1
  Se  Se229  1  0.58807457  0.08078849  0.19068521  1
  Se  Se230  1  0.57732797  0.09043902  0.69492666  1
  Se  Se231  1  0.57391179  0.41548098  0.19381386  1
  Se  Se232  1  0.58783555  0.41983556  0.70254798  1
  Se  Se233  1  0.57753862  0.74252559  0.20550918  1
  Se  Se234  1  0.57787916  0.76140549  0.68800665  1
  Se  Se235  1  0.93423033  0.07214151  0.19780668  1
  Se  Se236  1  0.91521801  0.08120592  0.69773166  1
  Se  Se237  1  0.91282763  0.42245028  0.19533970  1
  Se  Se238  1  0.91291964  0.41487622  0.68729605  1
  Se  Se239  1  0.90912762  0.76076833  0.18649044  1
  Se  Se240  1  0.90662751  0.75537709  0.68526138  1
  Se  Se241  1  0.07967613  0.25565972  0.18854783  1
  Se  Se242  1  0.09087549  0.23676481  0.68889920  1
  Se  Se243  1  0.08773988  0.58474085  0.17954871  1
  Se  Se244  1  0.10016040  0.57184243  0.69344295  1
  Se  Se245  1  0.09516759  0.92520306  0.20400203  1
  Se  Se246  1  0.08054524  0.90979652  0.69921939  1
  Se  Se247  1  0.42243545  0.24363711  0.19081077  1
  Se  Se248  1  0.41300513  0.25678848  0.70458737  1
  Se  Se249  1  0.41949058  0.57018925  0.18958767  1
  Se  Se250  1  0.42107715  0.58726605  0.70415877  1
  Se  Se251  1  0.42783816  0.90404383  0.19359342  1
  Se  Se252  1  0.41048477  0.92245551  0.69521150  1
  Se  Se253  1  0.76528294  0.23586183  0.19358633  1
  Se  Se254  1  0.75331088  0.25398378  0.69509916  1
  Se  Se255  1  0.73882473  0.58518555  0.19902630  1
  Se  Se256  1  0.75836837  0.58260305  0.69542570  1
  Se  Se257  1  0.74921486  0.91554550  0.20030677  1
  Se  Se258  1  0.74218980  0.92393866  0.69279457  1
