# generated using pymatgen
data_In86Cu29Se144
_symmetry_space_group_name_H-M   'P 1'
_cell_length_a   17.58901225
_cell_length_b   17.58573682
_cell_length_c   23.45135514
_cell_angle_alpha   89.97962032
_cell_angle_beta   90.02156391
_cell_angle_gamma   89.98992675
_symmetry_Int_Tables_number   1
_chemical_formula_structural   In86Cu29Se144
_chemical_formula_sum   'In86 Cu29 Se144'
_cell_volume   7253.87219122
_cell_formula_units_Z   1
loop_
 _symmetry_equiv_pos_site_id
 _symmetry_equiv_pos_as_xyz
  1  'x, y, z'
loop_
 _atom_site_type_symbol
 _atom_site_label
 _atom_site_symmetry_multiplicity
 _atom_site_fract_x
 _atom_site_fract_y
 _atom_site_fract_z
 _atom_site_occupancy
  In  In0  1  0.01901627  0.16416643  0.13015382  1
  In  In1  1  0.00365848  0.16586546  0.62553224  1
  In  In2  1  -0.00914885  0.49083751  0.12181109  1
  In  In3  1  -0.01666064  0.51066745  0.62337293  1
  In  In4  1  -0.00495319  0.84238546  0.12027089  1
  In  In5  1  0.01828229  0.83654750  0.62271376  1
  In  In6  1  0.31007430  0.16803165  0.13372062  1
  In  In7  1  0.32461157  0.15866160  0.61337060  1
  In  In8  1  0.33663278  0.51629272  0.12520971  1
  In  In9  1  0.34402879  0.49479005  0.62364648  1
  In  In10  1  0.33843195  0.82047629  0.13360593  1
  In  In11  1  0.33127941  0.82453092  0.62463730  1
  In  In12  1  0.66659569  0.17145463  0.12424181  1
  In  In13  1  0.66862667  0.16907407  0.62396053  1
  In  In14  1  0.68238844  0.50459714  0.11851624  1
  In  In15  1  0.66753814  0.50065310  0.62873561  1
  In  In16  1  0.65297453  0.82508045  0.11621033  1
  In  In17  1  0.65474541  0.83774992  0.63745109  1
  In  In18  1  0.17150369  -0.00841986  0.38943433  1
  In  In19  1  0.16865307  0.01451213  0.87678695  1
  In  In20  1  0.15026619  0.33131687  0.37186114  1
  In  In21  1  0.14833887  0.34544869  0.88116970  1
  In  In22  1  0.18422791  0.67152557  0.37278866  1
  In  In23  1  0.16347863  0.65210372  0.86596074  1
  In  In24  1  0.49107459  0.00836321  0.38588430  1
  In  In25  1  0.49758379  -0.01676304  0.86819836  1
  In  In26  1  0.50883443  0.32851817  0.38487427  1
  In  In27  1  0.50260063  0.32249416  0.86697854  1
  In  In28  1  0.50169189  0.67030820  0.38147273  1
  In  In29  1  0.50993625  0.68689691  0.85355261  1
  In  In30  1  0.85167454  0.00531156  0.38609727  1
  In  In31  1  0.82325540  -0.00941119  0.86264423  1
  In  In32  1  0.83925842  0.33028639  0.38452820  1
  In  In33  1  0.84431501  0.34583743  0.86572197  1
  In  In34  1  0.81605274  0.67189499  0.37611272  1
  In  In35  1  0.82686784  0.67320282  0.88000082  1
  In  In36  1  -0.00501973  0.16768799  0.38958876  1
  In  In37  1  0.00208239  0.17681416  0.86826850  1
  In  In38  1  0.00480562  0.48855606  0.37702480  1
  In  In39  1  0.00968679  0.48964726  0.87811663  1
  In  In40  1  0.01465241  0.83717556  0.38393549  1
  In  In41  1  -0.01561197  0.82388460  0.87195760  1
  In  In42  1  0.33608179  0.15830014  0.37922215  1
  In  In43  1  0.32557557  0.15364848  0.87570061  1
  In  In44  1  0.33680124  0.51596447  0.37510177  1
  In  In45  1  0.31603039  0.50823456  0.87448488  1
  In  In46  1  0.33395013  0.83716552  0.37937057  1
  In  In47  1  0.34458524  0.83311977  0.87204484  1
  In  In48  1  0.67181533  0.16491122  0.38734967  1
  In  In49  1  0.66591890  0.16592393  0.85783642  1
  In  In50  1  0.66004527  0.50775302  0.38435623  1
  In  In51  1  0.67565205  0.51345561  0.86768729  1
  In  In52  1  0.66668317  0.81769897  0.37684794  1
  In  In53  1  0.66745184  0.83110909  0.86775667  1
  In  In54  1  0.16510434  0.00958941  0.12904778  1
  In  In55  1  0.15266923  -0.01429431  0.61299331  1
  In  In56  1  0.15245472  0.32607314  0.12042038  1
  In  In57  1  0.16734899  0.32167956  0.62586157  1
  In  In58  1  0.18518995  0.66537011  0.12333982  1
  In  In59  1  0.16477364  0.68655816  0.62871493  1
  In  In60  1  0.50043322  -0.02037710  0.12343991  1
  In  In61  1  0.50362579  0.00215976  0.61995345  1
  In  In62  1  0.50238161  0.32808459  0.12511625  1
  In  In63  1  0.50465770  0.34334553  0.61671238  1
  In  In64  1  0.48935674  0.67719455  0.13151508  1
  In  In65  1  0.50257754  0.66685910  0.62819309  1
  In  In66  1  0.84568245  -0.00211869  0.12227763  1
  In  In67  1  0.82793010  0.00572805  0.62977860  1
  In  In68  1  0.83383353  0.34440552  0.12429786  1
  In  In69  1  0.83480822  0.33578634  0.62760305  1
  In  In70  1  0.82558302  0.66168887  0.12004417  1
  In  In71  1  0.83738969  0.64907376  0.62108483  1
  In  In72  1  0.49266424  0.15720084  -0.00655476  1
  In  In73  1  0.33003144  -0.00587604  0.74417046  1
  In  In74  1  0.32910627  0.34076499  0.25942280  1
  In  In75  1  0.16918477  0.50281011  0.49664024  1
  In  In76  1  0.16377812  0.83062410  0.00118926  1
  In  In77  1  0.66633493  0.33929984  0.24569562  1
  In  In78  1  0.49614115  0.50396766  -0.00363503  1
  In  In79  1  -0.00052706  0.66615679  0.74801082  1
  In  In80  1  0.83522047  0.83126890  0.50203765  1
  In  In81  1  0.83390456  0.16387082  -0.00241086  1
  In  In82  1  0.66416492  -0.00431919  0.24996166  1
  In  In83  1  0.00387104  0.66389133  0.25674543  1
  In  In84  1  0.01195899  -0.00157815  0.25869064  1
  In  In85  1  0.33117854  0.33355132  0.74817033  1
  Cu  Cu86  1  0.66405976  0.66387043  0.50594920  1
  Cu  Cu87  1  0.33745091  0.67053946  -0.00060683  1
  Cu  Cu88  1  -0.00321689  0.33546772  0.50379824  1
  Cu  Cu89  1  0.67383271  0.33703492  -0.00955774  1
  Cu  Cu90  1  0.16669754  0.49979868  0.25039705  1
  Cu  Cu91  1  0.66510710  0.67036018  -0.00610254  1
  Cu  Cu92  1  0.32015422  0.33497571  0.00116387  1
  Cu  Cu93  1  0.83264007  0.83140727  0.74731079  1
  Cu  Cu94  1  0.66912098  -0.01186737  -0.00845552  1
  Cu  Cu95  1  0.84220940  0.16893627  0.26236477  1
  Cu  Cu96  1  0.67211162  0.33720517  0.50741725  1
  Cu  Cu97  1  0.49533075  0.82940837  0.25458636  1
  Cu  Cu98  1  0.83123841  0.49975429  0.24692945  1
  Cu  Cu99  1  0.33906674  -0.00504683  0.50261784  1
  Cu  Cu100  1  0.50583023  0.51468250  0.25487784  1
  Cu  Cu101  1  0.50229954  0.16721001  0.73945277  1
  Cu  Cu102  1  -0.00361953  0.65834132  -0.00359637  1
  Cu  Cu103  1  0.33602472  0.33086063  0.49662301  1
  Cu  Cu104  1  0.83201854  0.49872289  0.74999961  1
  Cu  Cu105  1  0.66766275  -0.00175370  0.50769352  1
  Cu  Cu106  1  0.83156336  0.83111035  0.24977311  1
  Cu  Cu107  1  0.33147372  -0.00203273  0.00057481  1
  Cu  Cu108  1  0.50095800  0.50020230  0.74475222  1
  Cu  Cu109  1  -0.00458149  -0.00240728  -0.00190582  1
  Cu  Cu110  1  0.83618159  0.16863537  0.74337165  1
  Cu  Cu111  1  0.33891026  0.66944489  0.50106112  1
  Cu  Cu112  1  0.49374551  0.16156964  0.25760507  1
  Cu  Cu113  1  0.00050499  0.33236001  -0.00258885  1
  Cu  Cu114  1  0.15793134  0.16916103  0.75141624  1
  Se  Se115  1  0.07940265  0.07701992  0.05345273  1
  Se  Se116  1  0.10689876  0.10487495  0.56044695  1
  Se  Se117  1  0.08157560  0.41840179  0.05207006  1
  Se  Se118  1  0.08061544  0.41653414  0.56120571  1
  Se  Se119  1  0.07463555  0.73716613  0.06116467  1
  Se  Se120  1  0.08140368  0.74556740  0.55086789  1
  Se  Se121  1  0.40924012  0.07843470  0.06524917  1
  Se  Se122  1  0.42139092  0.08483257  0.55106886  1
  Se  Se123  1  0.40931913  0.40812791  0.05909353  1
  Se  Se124  1  0.41689429  0.41880004  0.54655554  1
  Se  Se125  1  0.41808279  0.75470346  0.05360342  1
  Se  Se126  1  0.42216144  0.75032441  0.55654844  1
  Se  Se127  1  0.73901712  0.07216883  0.05683415  1
  Se  Se128  1  0.75184982  0.08477845  0.55484035  1
  Se  Se129  1  0.75424485  0.41615115  0.04811357  1
  Se  Se130  1  0.75473986  0.42270544  0.55853729  1
  Se  Se131  1  0.74811933  0.75058166  0.05219956  1
  Se  Se132  1  0.74374856  0.74713096  0.56510499  1
  Se  Se133  1  0.24428654  0.24693802  0.05513505  1
  Se  Se134  1  0.24818462  0.25292328  0.54894392  1
  Se  Se135  1  0.25408549  0.58212682  0.04752578  1
  Se  Se136  1  0.25631724  0.58974373  0.56082336  1
  Se  Se137  1  0.25342360  0.91801962  0.06306845  1
  Se  Se138  1  0.25405423  0.91202327  0.55469304  1
  Se  Se139  1  0.59024586  0.25603209  0.04789462  1
  Se  Se140  1  0.58448367  0.25078669  0.55386036  1
  Se  Se141  1  0.58549086  0.59211483  0.05869234  1
  Se  Se142  1  0.58104894  0.57872829  0.55838712  1
  Se  Se143  1  0.57920163  0.91274693  0.04527063  1
  Se  Se144  1  0.58526931  0.91063078  0.55561920  1
  Se  Se145  1  0.92244361  0.25131622  0.06114471  1
  Se  Se146  1  0.91680002  0.25092785  0.55913754  1
  Se  Se147  1  0.91240644  0.57930301  0.05465525  1
  Se  Se148  1  0.91903151  0.58601098  0.54324305  1
  Se  Se149  1  0.90998602  0.91251580  0.04649219  1
  Se  Se150  1  0.92001902  0.92238351  0.56245295  1
  Se  Se151  1  0.08458083  0.25476946  0.45183238  1
  Se  Se152  1  0.08233001  0.24467814  0.94685687  1
  Se  Se153  1  0.08231402  0.59278555  0.43500573  1
  Se  Se154  1  0.08569125  0.58273203  0.94437490  1
  Se  Se155  1  0.06434774  0.93638400  0.45356573  1
  Se  Se156  1  0.07627715  0.91825105  0.93715682  1
  Se  Se157  1  0.41969122  0.24466200  0.44582644  1
  Se  Se158  1  0.40317791  0.25845425  0.94022265  1
  Se  Se159  1  0.42110268  0.58216098  0.45012378  1
  Se  Se160  1  0.41505501  0.59504744  0.93303760  1
  Se  Se161  1  0.42320381  0.91037251  0.45104154  1
  Se  Se162  1  0.41564584  0.91796908  0.94635811  1
  Se  Se163  1  0.75271007  0.25180745  0.45219592  1
  Se  Se164  1  0.74763963  0.25076197  0.93222484  1
  Se  Se165  1  0.75067102  0.58542941  0.45116932  1
  Se  Se166  1  0.74998755  0.58175287  0.94812203  1
  Se  Se167  1  0.74379635  0.92228486  0.43955896  1
  Se  Se168  1  0.75474030  0.90868151  0.93931418  1
  Se  Se169  1  0.25504586  0.08149999  0.45232898  1
  Se  Se170  1  0.24722167  0.08614018  0.95433158  1
  Se  Se171  1  0.25671371  0.41042963  0.43362794  1
  Se  Se172  1  0.24424712  0.42047967  0.94532159  1
  Se  Se173  1  0.25188746  0.75197971  0.45001203  1
  Se  Se174  1  0.25179301  0.74454656  0.93757505  1
  Se  Se175  1  0.58549593  0.08216055  0.45126380  1
  Se  Se176  1  0.59217889  0.07706835  0.93515737  1
  Se  Se177  1  0.58599090  0.41654827  0.45146585  1
  Se  Se178  1  0.58523615  0.41287785  0.93523082  1
  Se  Se179  1  0.58411446  0.75138996  0.45316625  1
  Se  Se180  1  0.58151732  0.74978802  0.93804494  1
  Se  Se181  1  0.90838452  0.09385153  0.46024313  1
  Se  Se182  1  0.91822705  0.07561794  0.93391830  1
  Se  Se183  1  0.91698048  0.42200131  0.45037667  1
  Se  Se184  1  0.91585871  0.41689855  0.94650538  1
  Se  Se185  1  0.92176430  0.74244682  0.43837984  1
  Se  Se186  1  0.91434988  0.74894878  0.95072011  1
  Se  Se187  1  0.24378356  0.24226369  0.31145031  1
  Se  Se188  1  0.24243045  0.24609191  0.81236786  1
  Se  Se189  1  0.25254029  0.58325847  0.29957959  1
  Se  Se190  1  0.25193980  0.58464083  0.79511582  1
  Se  Se191  1  0.24734843  0.91835981  0.31305196  1
  Se  Se192  1  0.24221977  0.91461484  0.81288636  1
  Se  Se193  1  0.58439321  0.24086065  0.30809464  1
  Se  Se194  1  0.58394020  0.25322934  0.79208184  1
  Se  Se195  1  0.58985954  0.59243447  0.31016193  1
  Se  Se196  1  0.58483643  0.58351277  0.79810692  1
  Se  Se197  1  0.57665170  0.91085286  0.31409168  1
  Se  Se198  1  0.58980704  0.91967395  0.80011856  1
  Se  Se199  1  0.92308714  0.25268369  0.31369394  1
  Se  Se200  1  0.91672820  0.25345513  0.79883879  1
  Se  Se201  1  0.90732544  0.57662447  0.31299212  1
  Se  Se202  1  0.91245784  0.57866538  0.81319898  1
  Se  Se203  1  0.91135551  0.90655131  0.31143093  1
  Se  Se204  1  0.91854147  0.91360333  0.79916407  1
  Se  Se205  1  0.09003660  0.09050480  0.32151824  1
  Se  Se206  1  0.07933156  0.08156718  0.80481374  1
  Se  Se207  1  0.07969641  0.41686538  0.29826677  1
  Se  Se208  1  0.08070096  0.41502449  0.79987046  1
  Se  Se209  1  0.09434229  0.76103446  0.30713443  1
  Se  Se210  1  0.08873788  0.75849407  0.80730373  1
  Se  Se211  1  0.41283231  0.07508774  0.30609532  1
  Se  Se212  1  0.42296209  0.09053878  0.80377750  1
  Se  Se213  1  0.43327493  0.42409781  0.31255363  1
  Se  Se214  1  0.42076033  0.42443185  0.81007895  1
  Se  Se215  1  0.41520759  0.74790248  0.31182094  1
  Se  Se216  1  0.40327928  0.74877105  0.79428496  1
  Se  Se217  1  0.75715840  0.08335786  0.31210842  1
  Se  Se218  1  0.75164227  0.08268018  0.79439651  1
  Se  Se219  1  0.75272732  0.42147638  0.31220948  1
  Se  Se220  1  0.74509111  0.41574774  0.80196945  1
  Se  Se221  1  0.74425856  0.74793961  0.29792462  1
  Se  Se222  1  0.75256423  0.74469047  0.80115558  1
  Se  Se223  1  0.24868241  0.07620339  0.20381147  1
  Se  Se224  1  0.24111661  0.09174779  0.69217518  1
  Se  Se225  1  0.24773819  0.42260622  0.18708788  1
  Se  Se226  1  0.24201361  0.42372496  0.68944720  1
  Se  Se227  1  0.24728387  0.74685539  0.19968647  1
  Se  Se228  1  0.24935881  0.75626198  0.70110099  1
  Se  Se229  1  0.57435935  0.09011759  0.19001680  1
  Se  Se230  1  0.58622456  0.08097461  0.69109764  1
  Se  Se231  1  0.57449747  0.43242916  0.18762273  1
  Se  Se232  1  0.58285614  0.41281721  0.69482955  1
  Se  Se233  1  0.58253993  0.75320025  0.19723906  1
  Se  Se234  1  0.59182649  0.73556700  0.70042128  1
  Se  Se235  1  0.91485205  0.08649995  0.19737455  1
  Se  Se236  1  0.92088678  0.08266516  0.69512247  1
  Se  Se237  1  0.91638133  0.41356168  0.19946257  1
  Se  Se238  1  0.91887693  0.42044820  0.69653277  1
  Se  Se239  1  0.91473356  0.75206001  0.19112085  1
  Se  Se240  1  0.91167200  0.75481102  0.68434162  1
  Se  Se241  1  0.08818870  0.24979824  0.20085051  1
  Se  Se242  1  0.07820897  0.25527855  0.69837216  1
  Se  Se243  1  0.08654172  0.57814422  0.18731178  1
  Se  Se244  1  0.08918314  0.57852320  0.68701075  1
  Se  Se245  1  0.09021693  0.90515217  0.19201842  1
  Se  Se246  1  0.08612063  0.92013960  0.69714037  1
  Se  Se247  1  0.42013144  0.24743066  0.19663162  1
  Se  Se248  1  0.41590072  0.24461753  0.68292120  1
  Se  Se249  1  0.41459115  0.58879958  0.20137900  1
  Se  Se250  1  0.41462875  0.58222846  0.69478513  1
  Se  Se251  1  0.41642919  0.91442831  0.19867688  1
  Se  Se252  1  0.42692331  0.90891443  0.68988308  1
  Se  Se253  1  0.76209611  0.24034975  0.19499527  1
  Se  Se254  1  0.74900246  0.25260459  0.69450764  1
  Se  Se255  1  0.74802025  0.58505558  0.19669468  1
  Se  Se256  1  0.75190415  0.58485191  0.69732942  1
  Se  Se257  1  0.75512305  0.91089029  0.18647394  1
  Se  Se258  1  0.74917538  0.91868752  0.69783434  1
