# generated using pymatgen
data_In86Cu29Se144
_symmetry_space_group_name_H-M   'P 1'
_cell_length_a   17.57791007
_cell_length_b   17.57988972
_cell_length_c   23.43423878
_cell_angle_alpha   89.98954484
_cell_angle_beta   89.99792541
_cell_angle_gamma   89.98874035
_symmetry_Int_Tables_number   1
_chemical_formula_structural   In86Cu29Se144
_chemical_formula_sum   'In86 Cu29 Se144'
_cell_volume   7241.59478426
_cell_formula_units_Z   1
loop_
 _symmetry_equiv_pos_site_id
 _symmetry_equiv_pos_as_xyz
  1  'x, y, z'
loop_
 _atom_site_type_symbol
 _atom_site_label
 _atom_site_symmetry_multiplicity
 _atom_site_fract_x
 _atom_site_fract_y
 _atom_site_fract_z
 _atom_site_occupancy
  In  In0  1  0.01252471  0.16616864  0.14099905  1
  In  In1  1  0.02451698  0.18160665  0.62174454  1
  In  In2  1  -0.00775165  0.50713759  0.12113080  1
  In  In3  1  0.00323244  0.49659948  0.62816365  1
  In  In4  1  0.01365974  0.83456675  0.12190764  1
  In  In5  1  0.00365822  0.81824692  0.62362286  1
  In  In6  1  0.32003086  0.15561785  0.12859169  1
  In  In7  1  0.32522846  0.16649293  0.61958605  1
  In  In8  1  0.34512460  0.50172037  0.12762404  1
  In  In9  1  0.33608339  0.49841765  0.61703527  1
  In  In10  1  0.33017052  0.83663771  0.13150802  1
  In  In11  1  0.33472695  0.83330182  0.62369230  1
  In  In12  1  0.66401189  0.17282705  0.13676030  1
  In  In13  1  0.66059244  0.18331009  0.62264746  1
  In  In14  1  0.67118378  0.48870669  0.12928419  1
  In  In15  1  0.66213861  0.49969129  0.62527669  1
  In  In16  1  0.67615666  0.83462620  0.12727287  1
  In  In17  1  0.65200940  0.82523205  0.61929677  1
  In  In18  1  0.16547482  0.00020711  0.37721198  1
  In  In19  1  0.16463857  -0.01405473  0.87501525  1
  In  In20  1  0.16421806  0.34032113  0.39037202  1
  In  In21  1  0.17683057  0.33794975  0.85840452  1
  In  In22  1  0.17632751  0.65353782  0.38589383  1
  In  In23  1  0.17490731  0.67714106  0.86240999  1
  In  In24  1  0.49280843  0.00134330  0.37661625  1
  In  In25  1  0.49418561  0.01166869  0.87466383  1
  In  In26  1  0.49535128  0.32533973  0.39269468  1
  In  In27  1  0.50134704  0.33113844  0.85898873  1
  In  In28  1  0.49467414  0.68081374  0.38747434  1
  In  In29  1  0.48776052  0.65608645  0.86276194  1
  In  In30  1  0.84040300  0.01528011  0.36632405  1
  In  In31  1  0.84622878  0.00342831  0.87874816  1
  In  In32  1  0.83959343  0.34029653  0.37523120  1
  In  In33  1  0.84680213  0.35089670  0.85323983  1
  In  In34  1  0.82709453  0.65644444  0.37971485  1
  In  In35  1  0.82056170  0.64798177  0.85747358  1
  In  In36  1  0.01202089  0.17827717  0.36329911  1
  In  In37  1  -0.00028045  0.16924656  0.87353431  1
  In  In38  1  0.00609832  0.48849671  0.38751537  1
  In  In39  1  -0.00797446  0.49073746  0.86450539  1
  In  In40  1  0.00375127  0.84662125  0.37406420  1
  In  In41  1  0.02000234  0.83322099  0.87714982  1
  In  In42  1  0.33996956  0.16755698  0.38824940  1
  In  In43  1  0.33477830  0.16891413  0.85791999  1
  In  In44  1  0.32546355  0.49874235  0.39061539  1
  In  In45  1  0.32971436  0.49932959  0.86508664  1
  In  In46  1  0.33165278  0.83340064  0.37762624  1
  In  In47  1  0.31391076  0.81966370  0.86679937  1
  In  In48  1  0.65390673  0.16297736  0.37085141  1
  In  In49  1  0.65840129  0.17445107  0.86816627  1
  In  In50  1  0.67318157  0.49569233  0.38509616  1
  In  In51  1  0.67110586  0.50266331  0.85845820  1
  In  In52  1  0.65307235  0.83815282  0.37995963  1
  In  In53  1  0.67845189  0.82634308  0.87567319  1
  In  In54  1  0.17681881  -0.00308003  0.13753371  1
  In  In55  1  0.18897831  0.01801272  0.61120226  1
  In  In56  1  0.16657680  0.32026287  0.12965879  1
  In  In57  1  0.17076013  0.32890477  0.62302692  1
  In  In58  1  0.16569730  0.67345571  0.12331543  1
  In  In59  1  0.17009761  0.66914887  0.62147262  1
  In  In60  1  0.49354350  0.00663674  0.13931026  1
  In  In61  1  0.48413055  -0.01551727  0.61094992  1
  In  In62  1  0.50727436  0.34909582  0.13039690  1
  In  In63  1  0.48958988  0.33334660  0.61419246  1
  In  In64  1  0.49465629  0.65739753  0.12858867  1
  In  In65  1  0.49951662  0.66522928  0.62477656  1
  In  In66  1  0.83410842  0.00214810  0.13568371  1
  In  In67  1  0.83485064  -0.00020938  0.62322056  1
  In  In68  1  0.83517822  0.33600127  0.12883350  1
  In  In69  1  0.81651740  0.35917444  0.64654005  1
  In  In70  1  0.84537583  0.65692726  0.11792931  1
  In  In71  1  0.85134731  0.63327017  0.64929137  1
  In  In72  1  0.66079201  0.67129307  0.25145029  1
  In  In73  1  0.00739969  -0.00201768  0.75257185  1
  In  In74  1  0.84160001  0.17230024  -0.00584522  1
  In  In75  1  0.65929978  -0.00055391  0.75230675  1
  In  In76  1  0.16687240  0.16529034  0.00414350  1
  In  In77  1  0.82877220  0.82519144  0.49888315  1
  In  In78  1  0.16632532  0.50120390  -0.00807851  1
  In  In79  1  0.49399973  0.83009784  0.00153701  1
  In  In80  1  0.00173697  0.66893468  0.24482754  1
  In  In81  1  0.83837248  0.17480145  0.50410308  1
  In  In82  1  0.33534284  0.32536074  0.25815764  1
  In  In83  1  0.50015896  0.17337286  -0.00595872  1
  In  In84  1  0.84551443  0.82394595  0.00639119  1
  In  In85  1  0.49383134  0.49869863  -0.01287944  1
  Cu  Cu86  1  0.65982388  0.00433519  0.49467078  1
  Cu  Cu87  1  0.83832756  0.49570657  0.25230365  1
  Cu  Cu88  1  0.49879228  0.50463494  0.25670337  1
  Cu  Cu89  1  -0.00569130  0.33453752  0.50576486  1
  Cu  Cu90  1  0.17113008  0.83021437  0.25329513  1
  Cu  Cu91  1  0.00040879  0.33671685  -0.00497479  1
  Cu  Cu92  1  0.16978026  0.83991077  0.74228354  1
  Cu  Cu93  1  0.49490073  0.16361523  0.73726040  1
  Cu  Cu94  1  0.17018555  0.50499897  0.73993091  1
  Cu  Cu95  1  0.49845712  0.17200286  0.25927931  1
  Cu  Cu96  1  0.49194886  0.84108538  0.25850922  1
  Cu  Cu97  1  0.66400092  0.33576215  0.50306591  1
  Cu  Cu98  1  0.67220947  0.66019795  0.50792772  1
  Cu  Cu99  1  0.84173096  0.16844513  0.74645834  1
  Cu  Cu100  1  0.67440609  -0.00137063  0.01040081  1
  Cu  Cu101  1  0.33652682  0.67097157  0.50487587  1
  Cu  Cu102  1  0.82761646  0.82349179  0.74721072  1
  Cu  Cu103  1  0.49330704  0.49440888  0.73877617  1
  Cu  Cu104  1  0.67695373  0.33782121  -0.00084888  1
  Cu  Cu105  1  -0.00606841  0.66164644  -0.00955226  1
  Cu  Cu106  1  0.32687687  -0.00337875  0.00190135  1
  Cu  Cu107  1  0.49524588  0.83278521  0.74477300  1
  Cu  Cu108  1  0.82791238  0.84163994  0.25107840  1
  Cu  Cu109  1  0.01101656  0.00141460  0.49951042  1
  Cu  Cu110  1  0.33430490  -0.00622906  0.49685106  1
  Cu  Cu111  1  0.00362274  0.65921023  0.50442891  1
  Cu  Cu112  1  0.82696112  0.17681440  0.25291993  1
  Cu  Cu113  1  0.66296282  0.65248202  -0.01028662  1
  Cu  Cu114  1  0.17125064  0.49501721  0.26119894  1
  Se  Se115  1  0.08151591  0.07682116  0.06633815  1
  Se  Se116  1  0.08968743  0.09173330  0.54912982  1
  Se  Se117  1  0.08173715  0.41123697  0.05865572  1
  Se  Se118  1  0.08297468  0.41469600  0.55702657  1
  Se  Se119  1  0.07381294  0.73820819  0.05115116  1
  Se  Se120  1  0.08656800  0.75002573  0.54868419  1
  Se  Se121  1  0.41356050  0.07814059  0.05662403  1
  Se  Se122  1  0.41251422  0.08399976  0.54983815  1
  Se  Se123  1  0.41200498  0.40668775  0.05472137  1
  Se  Se124  1  0.41043633  0.41566974  0.54264114  1
  Se  Se125  1  0.40678079  0.73894663  0.06082761  1
  Se  Se126  1  0.42245332  0.75409180  0.55521024  1
  Se  Se127  1  0.74929448  0.08964779  0.06261312  1
  Se  Se128  1  0.74086528  0.07889829  0.55756116  1
  Se  Se129  1  0.75680737  0.41935342  0.05543454  1
  Se  Se130  1  0.74918057  0.41524350  0.55768013  1
  Se  Se131  1  0.73876234  0.73380309  0.05490132  1
  Se  Se132  1  0.75499942  0.73712904  0.56927510  1
  Se  Se133  1  0.26389790  0.25824287  0.05683876  1
  Se  Se134  1  0.25775276  0.25907698  0.54685393  1
  Se  Se135  1  0.25485411  0.58380393  0.05967878  1
  Se  Se136  1  0.24995828  0.58489915  0.55170631  1
  Se  Se137  1  0.24777953  0.91652811  0.05995841  1
  Se  Se138  1  0.25078716  0.91109705  0.55086748  1
  Se  Se139  1  0.59228220  0.26097261  0.05736744  1
  Se  Se140  1  0.57697540  0.24747848  0.54642221  1
  Se  Se141  1  0.58684362  0.57955656  0.05749324  1
  Se  Se142  1  0.57994652  0.58089335  0.55441517  1
  Se  Se143  1  0.58441733  0.92250606  0.06347707  1
  Se  Se144  1  0.58373037  0.91355561  0.54732608  1
  Se  Se145  1  0.93122491  0.25353635  0.06122525  1
  Se  Se146  1  0.91392693  0.26365366  0.57318545  1
  Se  Se147  1  0.91293014  0.57504527  0.04204936  1
  Se  Se148  1  0.91758392  0.58088851  0.55867059  1
  Se  Se149  1  0.92250414  0.92733448  0.06179966  1
  Se  Se150  1  0.92402351  0.92022811  0.55491182  1
  Se  Se151  1  0.07248843  0.25033283  0.44899567  1
  Se  Se152  1  0.08592003  0.26021657  0.93793765  1
  Se  Se153  1  0.08823517  0.57469844  0.45273440  1
  Se  Se154  1  0.07718525  0.58735456  0.92897738  1
  Se  Se155  1  0.08879134  0.91110485  0.44955905  1
  Se  Se156  1  0.08386634  0.91877847  0.95122804  1
  Se  Se157  1  0.39167736  0.26845519  0.46059924  1
  Se  Se158  1  0.41019929  0.25814242  0.93325061  1
  Se  Se159  1  0.41732410  0.58619689  0.45007020  1
  Se  Se160  1  0.39759316  0.59472271  0.94110884  1
  Se  Se161  1  0.42116317  0.91048865  0.44654760  1
  Se  Se162  1  0.40929631  0.92160880  0.93882167  1
  Se  Se163  1  0.74284695  0.25357416  0.44009182  1
  Se  Se164  1  0.74860174  0.25744461  0.93398960  1
  Se  Se165  1  0.75685496  0.57749733  0.45513101  1
  Se  Se166  1  0.74858843  0.57302449  0.93737620  1
  Se  Se167  1  0.75094186  0.92851450  0.43898984  1
  Se  Se168  1  0.75175047  0.92110700  0.94754431  1
  Se  Se169  1  0.24940562  0.08003737  0.44769194  1
  Se  Se170  1  0.25823359  0.08256400  0.93776378  1
  Se  Se171  1  0.25673113  0.40687672  0.46089354  1
  Se  Se172  1  0.25885129  0.40717285  0.93935733  1
  Se  Se173  1  0.25080268  0.75007118  0.44829874  1
  Se  Se174  1  0.23585085  0.75433777  0.94457651  1
  Se  Se175  1  0.57433557  0.08837563  0.44568172  1
  Se  Se176  1  0.59819562  0.07590961  0.94452825  1
  Se  Se177  1  0.58061230  0.42014460  0.45061191  1
  Se  Se178  1  0.58979697  0.40725021  0.93501996  1
  Se  Se179  1  0.59311832  0.74839236  0.45437413  1
  Se  Se180  1  0.58339355  0.73994797  0.93720142  1
  Se  Se181  1  0.92491773  0.08245169  0.44415498  1
  Se  Se182  1  0.93925469  0.07310270  0.94951271  1
  Se  Se183  1  0.90902374  0.41821582  0.45363351  1
  Se  Se184  1  0.91376627  0.41367705  0.94050909  1
  Se  Se185  1  0.92743862  0.74001462  0.43878742  1
  Se  Se186  1  0.91518090  0.74251870  0.92892395  1
  Se  Se187  1  0.24268484  0.24557049  0.32066167  1
  Se  Se188  1  0.25153590  0.24960932  0.79192133  1
  Se  Se189  1  0.25633462  0.57798263  0.31119306  1
  Se  Se190  1  0.25280250  0.58695249  0.79688363  1
  Se  Se191  1  0.24981264  0.91609425  0.30808752  1
  Se  Se192  1  0.25122233  0.92063033  0.79980278  1
  Se  Se193  1  0.57539502  0.26179609  0.31115421  1
  Se  Se194  1  0.58145486  0.24452077  0.79091606  1
  Se  Se195  1  0.57935921  0.58374079  0.31767989  1
  Se  Se196  1  0.57407287  0.57789795  0.79622740  1
  Se  Se197  1  0.58170675  0.92170598  0.30684121  1
  Se  Se198  1  0.57299410  0.90523731  0.81469249  1
  Se  Se199  1  0.91515466  0.25672797  0.30377638  1
  Se  Se200  1  0.92733929  0.24962430  0.79884969  1
  Se  Se201  1  0.91833526  0.57840532  0.31061409  1
  Se  Se202  1  0.91990049  0.58180876  0.79538005  1
  Se  Se203  1  0.91663296  0.91926139  0.30339375  1
  Se  Se204  1  0.90883860  0.90588393  0.80761478  1
  Se  Se205  1  0.06310623  0.06149879  0.31078314  1
  Se  Se206  1  0.09620603  0.09099426  0.80958005  1
  Se  Se207  1  0.08547283  0.41423427  0.31234636  1
  Se  Se208  1  0.08945294  0.42310968  0.79754310  1
  Se  Se209  1  0.08968982  0.74862262  0.31258477  1
  Se  Se210  1  0.08455701  0.75722780  0.79581085  1
  Se  Se211  1  0.41221868  0.09000940  0.30989566  1
  Se  Se212  1  0.41874107  0.07841829  0.79552187  1
  Se  Se213  1  0.41999622  0.42140773  0.31666329  1
  Se  Se214  1  0.41181160  0.41499756  0.79761429  1
  Se  Se215  1  0.41634325  0.74896144  0.30851844  1
  Se  Se216  1  0.41114646  0.75077267  0.80061542  1
  Se  Se217  1  0.74473944  0.08844526  0.30273703  1
  Se  Se218  1  0.76120595  0.08742306  0.80804273  1
  Se  Se219  1  0.75060197  0.42124364  0.30792413  1
  Se  Se220  1  0.72922488  0.39462181  0.79806853  1
  Se  Se221  1  0.75532038  0.75795550  0.31250157  1
  Se  Se222  1  0.73822232  0.74387743  0.79733090  1
  Se  Se223  1  0.24115112  0.09375377  0.20572741  1
  Se  Se224  1  0.25304096  0.08318608  0.69498808  1
  Se  Se225  1  0.25030438  0.42058257  0.19402119  1
  Se  Se226  1  0.25259968  0.41939700  0.68860182  1
  Se  Se227  1  0.24894795  0.74582476  0.19650415  1
  Se  Se228  1  0.25176378  0.75122471  0.69294135  1
  Se  Se229  1  0.58158693  0.08796916  0.20307454  1
  Se  Se230  1  0.57795264  0.07989518  0.68103038  1
  Se  Se231  1  0.58549883  0.42281147  0.20547783  1
  Se  Se232  1  0.57504158  0.40927413  0.68637228  1
  Se  Se233  1  0.56966309  0.76353095  0.19147798  1
  Se  Se234  1  0.58158472  0.74872327  0.69687426  1
  Se  Se235  1  0.91214599  0.09164072  0.20069333  1
  Se  Se236  1  0.92039108  0.08849884  0.68634930  1
  Se  Se237  1  0.92291791  0.42005028  0.19391047  1
  Se  Se238  1  0.91906750  0.42698635  0.70454572  1
  Se  Se239  1  0.90485143  0.76053577  0.18847365  1
  Se  Se240  1  0.92000482  0.74864650  0.69750988  1
  Se  Se241  1  0.08508762  0.25873475  0.20640621  1
  Se  Se242  1  0.09120801  0.25504322  0.70043411  1
  Se  Se243  1  0.09478545  0.57063638  0.19271504  1
  Se  Se244  1  0.08472215  0.59041613  0.69154209  1
  Se  Se245  1  0.08510568  0.91062288  0.19891957  1
  Se  Se246  1  0.08947212  0.91819933  0.68026870  1
  Se  Se247  1  0.42443443  0.24405880  0.18694175  1
  Se  Se248  1  0.41274398  0.24945876  0.68687349  1
  Se  Se249  1  0.41396987  0.58515470  0.20356537  1
  Se  Se250  1  0.41146101  0.58351385  0.69044271  1
  Se  Se251  1  0.40789546  0.92188164  0.20176957  1
  Se  Se252  1  0.41417376  0.91979718  0.69489436  1
  Se  Se253  1  0.74624411  0.26237359  0.19894811  1
  Se  Se254  1  0.74915226  0.24487703  0.69742602  1
  Se  Se255  1  0.75972458  0.58267162  0.19513032  1
  Se  Se256  1  0.73648885  0.57878994  0.70157291  1
  Se  Se257  1  0.74113135  0.92353086  0.20000096  1
  Se  Se258  1  0.75144012  0.91092047  0.68956584  1
