# generated using pymatgen
data_In86Cu29Se144
_symmetry_space_group_name_H-M   'P 1'
_cell_length_a   17.58852781
_cell_length_b   17.58876383
_cell_length_c   23.44527364
_cell_angle_alpha   90.00315613
_cell_angle_beta   90.01905618
_cell_angle_gamma   89.98059130
_symmetry_Int_Tables_number   1
_chemical_formula_structural   In86Cu29Se144
_chemical_formula_sum   'In86 Cu29 Se144'
_cell_volume   7253.03985310
_cell_formula_units_Z   1
loop_
 _symmetry_equiv_pos_site_id
 _symmetry_equiv_pos_as_xyz
  1  'x, y, z'
loop_
 _atom_site_type_symbol
 _atom_site_label
 _atom_site_symmetry_multiplicity
 _atom_site_fract_x
 _atom_site_fract_y
 _atom_site_fract_z
 _atom_site_occupancy
  In  In0  1  -0.00702094  0.17361901  0.13763627  1
  In  In1  1  -0.00894899  0.16617494  0.60820329  1
  In  In2  1  -0.00225827  0.48365955  0.12664397  1
  In  In3  1  -0.00262177  0.49953201  0.61920961  1
  In  In4  1  0.01291217  0.83371274  0.13076766  1
  In  In5  1  0.00307904  0.83663754  0.61303384  1
  In  In6  1  0.32998186  0.15275082  0.12640423  1
  In  In7  1  0.33664279  0.16653209  0.62307334  1
  In  In8  1  0.33974128  0.51362872  0.13066377  1
  In  In9  1  0.32942475  0.48303772  0.62479364  1
  In  In10  1  0.32516618  0.84147592  0.13662405  1
  In  In11  1  0.34641630  0.84465967  0.60899849  1
  In  In12  1  0.66396442  0.17045887  0.12800393  1
  In  In13  1  0.67452186  0.17017631  0.61018803  1
  In  In14  1  0.66374952  0.47626277  0.12845185  1
  In  In15  1  0.66678080  0.50052953  0.62711202  1
  In  In16  1  0.68019002  0.83275296  0.12780775  1
  In  In17  1  0.65777566  0.83012574  0.60937311  1
  In  In18  1  0.16708000  0.00144188  0.37499409  1
  In  In19  1  0.16391149  -0.00912950  0.87678886  1
  In  In20  1  0.14620892  0.32765492  0.37401534  1
  In  In21  1  0.18353463  0.33076973  0.87756326  1
  In  In22  1  0.18825916  0.67165448  0.37835952  1
  In  In23  1  0.16492523  0.67490654  0.88425687  1
  In  In24  1  0.50118599  0.00754578  0.37535377  1
  In  In25  1  0.50899841  0.01690839  0.87113661  1
  In  In26  1  0.51053150  0.32435394  0.38344436  1
  In  In27  1  0.50134785  0.33159571  0.86789224  1
  In  In28  1  0.48410444  0.67170471  0.38900957  1
  In  In29  1  0.50019364  0.65504915  0.86858669  1
  In  In30  1  0.82887585  0.00302460  0.37625870  1
  In  In31  1  0.83999221  0.01018180  0.87774498  1
  In  In32  1  0.83122404  0.33628165  0.38113238  1
  In  In33  1  0.81707637  0.32626924  0.87106849  1
  In  In34  1  0.82653363  0.67248252  0.38281633  1
  In  In35  1  0.82849403  0.66568302  0.86370381  1
  In  In36  1  -0.00044272  0.17003848  0.37964514  1
  In  In37  1  -0.01521286  0.15674114  0.88224634  1
  In  In38  1  -0.00909672  0.48426188  0.37543728  1
  In  In39  1  0.00448085  0.50956960  0.87713531  1
  In  In40  1  -0.01169609  0.84903945  0.38124002  1
  In  In41  1  0.00890946  0.84615384  0.87655595  1
  In  In42  1  0.34529730  0.15404920  0.38057704  1
  In  In43  1  0.34713092  0.17302339  0.86552870  1
  In  In44  1  0.33783536  0.51263384  0.37421375  1
  In  In45  1  0.33806366  0.49039323  0.87642428  1
  In  In46  1  0.33172700  0.83543130  0.37877537  1
  In  In47  1  0.32183760  0.83110576  0.87273719  1
  In  In48  1  0.66193551  0.16583046  0.37731219  1
  In  In49  1  0.65670165  0.17625233  0.88877718  1
  In  In50  1  0.66978541  0.49462210  0.38121018  1
  In  In51  1  0.66032031  0.49010499  0.85670158  1
  In  In52  1  0.64463371  0.86244885  0.40056649  1
  In  In53  1  0.67630724  0.82845033  0.86967094  1
  In  In54  1  0.17314572  -0.00542871  0.13562082  1
  In  In55  1  0.17522589  0.01160789  0.61731467  1
  In  In56  1  0.15373469  0.32729508  0.12469243  1
  In  In57  1  0.18181370  0.33502650  0.62472318  1
  In  In58  1  0.17331491  0.67624905  0.12420312  1
  In  In59  1  0.15977680  0.67071487  0.62167957  1
  In  In60  1  0.49126227  0.00813691  0.13192919  1
  In  In61  1  0.49729034  -0.00784055  0.61000756  1
  In  In62  1  0.52329019  0.32929981  0.13576681  1
  In  In63  1  0.49893601  0.33361601  0.62086418  1
  In  In64  1  0.49445094  0.64539695  0.13661871  1
  In  In65  1  0.50772946  0.67984290  0.61015633  1
  In  In66  1  0.82008860  0.01524736  0.14172285  1
  In  In67  1  0.82729342  0.00811518  0.60386861  1
  In  In68  1  0.83589971  0.32211807  0.13114454  1
  In  In69  1  0.82729928  0.32454977  0.61708813  1
  In  In70  1  0.83231363  0.67035135  0.12843774  1
  In  In71  1  0.81333161  0.64566487  0.60962599  1
  In  In72  1  -0.00111875  0.00142972  0.75332451  1
  In  In73  1  -0.00530930  0.66508362  0.74742588  1
  In  In74  1  0.49939747  0.49271416  -0.00189490  1
  In  In75  1  0.00303764  0.66820389  0.25216573  1
  In  In76  1  0.16413436  0.16162432  0.00302776  1
  In  In77  1  0.84709704  0.84237246  -0.00295266  1
  In  In78  1  0.16707320  0.49711602  0.49530777  1
  In  In79  1  0.83230553  0.49682869  0.00468609  1
  In  In80  1  0.00237322  0.33011340  0.73842738  1
  In  In81  1  0.33161512  0.33577145  0.25523116  1
  In  In82  1  0.66152887  0.67132562  0.25753479  1
  In  In83  1  0.33611390  0.66357322  0.74274680  1
  In  In84  1  0.49265969  0.83694018  0.00452288  1
  In  In85  1  0.66633493  -0.00094528  0.74060673  1
  Cu  Cu86  1  0.33821786  0.33872571  -0.00130456  1
  Cu  Cu87  1  0.17639419  0.16415854  0.74659098  1
  Cu  Cu88  1  0.82689535  0.16636896  0.74253153  1
  Cu  Cu89  1  0.32982060  0.00274315  0.49602512  1
  Cu  Cu90  1  0.50100798  0.83566932  0.25985210  1
  Cu  Cu91  1  0.17292132  0.49473034  0.75409067  1
  Cu  Cu92  1  0.50028282  0.83448018  0.73590330  1
  Cu  Cu93  1  0.16369660  0.16344104  0.25394412  1
  Cu  Cu94  1  0.82803741  0.82582252  0.74064299  1
  Cu  Cu95  1  0.16844910  0.83437760  0.25630072  1
  Cu  Cu96  1  0.50195881  0.16612649  0.25475591  1
  Cu  Cu97  1  0.16327311  0.49834341  0.25689957  1
  Cu  Cu98  1  0.33294185  -0.00076251  0.00244015  1
  Cu  Cu99  1  0.50123690  0.16956649  0.74464517  1
  Cu  Cu100  1  0.17318484  0.84048095  0.74720053  1
  Cu  Cu101  1  0.33379757  0.32744193  0.49757459  1
  Cu  Cu102  1  0.66303468  0.66031719  -0.00698249  1
  Cu  Cu103  1  0.00103459  0.33640686  0.00225365  1
  Cu  Cu104  1  0.01077214  0.67013591  0.00001907  1
  Cu  Cu105  1  0.82715731  0.49388941  0.25397907  1
  Cu  Cu106  1  0.67063782  0.66168626  0.49760280  1
  Cu  Cu107  1  0.82915320  0.17294907  0.25967310  1
  Cu  Cu108  1  0.66747987  0.00998197  0.00811156  1
  Cu  Cu109  1  0.50570634  0.49983420  0.74386164  1
  Cu  Cu110  1  0.00314754  0.00025357  0.49239749  1
  Cu  Cu111  1  0.66508584  0.33718796  0.50052397  1
  Cu  Cu112  1  0.00552736  0.66887364  0.49649873  1
  Cu  Cu113  1  0.32574844  0.67372286  0.00749728  1
  Cu  Cu114  1  0.82638109  0.84704772  0.26004245  1
  Se  Se115  1  0.08023763  0.08117867  0.07164373  1
  Se  Se116  1  0.08322507  0.08308550  0.54914903  1
  Se  Se117  1  0.08677569  0.41898848  0.05258842  1
  Se  Se118  1  0.08093266  0.40605288  0.55776645  1
  Se  Se119  1  0.08742085  0.75633685  0.05531751  1
  Se  Se120  1  0.08935828  0.75290561  0.54765220  1
  Se  Se121  1  0.41717316  0.08343767  0.05327513  1
  Se  Se122  1  0.41410585  0.08469667  0.54998141  1
  Se  Se123  1  0.41476834  0.40968575  0.06696438  1
  Se  Se124  1  0.41328584  0.41445478  0.55014722  1
  Se  Se125  1  0.41393899  0.74195247  0.06868607  1
  Se  Se126  1  0.40860055  0.74411665  0.54506872  1
  Se  Se127  1  0.75391057  0.08961956  0.06006883  1
  Se  Se128  1  0.73628553  0.07813580  0.53673940  1
  Se  Se129  1  0.74347848  0.39757196  0.05449417  1
  Se  Se130  1  0.74866976  0.41939515  0.55508708  1
  Se  Se131  1  0.74790247  0.74253463  0.04922532  1
  Se  Se132  1  0.75398173  0.75151480  0.54765361  1
  Se  Se133  1  0.25838716  0.25641570  0.05881874  1
  Se  Se134  1  0.24982233  0.24696122  0.55268161  1
  Se  Se135  1  0.25006490  0.58201331  0.05912495  1
  Se  Se136  1  0.25225812  0.58374670  0.56140311  1
  Se  Se137  1  0.25230157  0.91847546  0.05920164  1
  Se  Se138  1  0.24581708  0.91815341  0.54922001  1
  Se  Se139  1  0.58053324  0.24877652  0.05641882  1
  Se  Se140  1  0.57965998  0.25140008  0.55020291  1
  Se  Se141  1  0.59048222  0.58409345  0.05947650  1
  Se  Se142  1  0.58686397  0.58094680  0.55326679  1
  Se  Se143  1  0.59096319  0.91996314  0.06292721  1
  Se  Se144  1  0.59133877  0.92490917  0.54176274  1
  Se  Se145  1  0.92306144  0.25189551  0.05833920  1
  Se  Se146  1  0.91441473  0.25561534  0.54437555  1
  Se  Se147  1  0.92624770  0.59358282  0.05993054  1
  Se  Se148  1  0.92295659  0.58508564  0.54973374  1
  Se  Se149  1  0.91361434  0.92084823  0.07609105  1
  Se  Se150  1  0.91889600  0.91969599  0.54728708  1
  Se  Se151  1  0.08056611  0.25055345  0.45166931  1
  Se  Se152  1  0.07737227  0.25498881  0.93878385  1
  Se  Se153  1  0.07869200  0.58784093  0.43254626  1
  Se  Se154  1  0.08990406  0.58074706  0.94914419  1
  Se  Se155  1  0.09000809  0.91375765  0.44592209  1
  Se  Se156  1  0.07872837  0.92463720  0.95134577  1
  Se  Se157  1  0.42100968  0.24349557  0.44854762  1
  Se  Se158  1  0.41729032  0.25635495  0.94098173  1
  Se  Se159  1  0.41092207  0.57758760  0.45498458  1
  Se  Se160  1  0.40690820  0.59499099  0.94587377  1
  Se  Se161  1  0.41719428  0.92235301  0.44353359  1
  Se  Se162  1  0.41235055  0.92493694  0.93583350  1
  Se  Se163  1  0.74412413  0.25188933  0.44562637  1
  Se  Se164  1  0.77763412  0.22249529  0.94078210  1
  Se  Se165  1  0.75632669  0.57685804  0.44830431  1
  Se  Se166  1  0.74476395  0.58116381  0.93488600  1
  Se  Se167  1  0.77437335  0.89677318  0.44258985  1
  Se  Se168  1  0.73983251  0.92603166  0.94324406  1
  Se  Se169  1  0.24539458  0.08766614  0.44564282  1
  Se  Se170  1  0.25879385  0.08215862  0.93812318  1
  Se  Se171  1  0.25497253  0.40584012  0.43338962  1
  Se  Se172  1  0.25078647  0.42145303  0.94932458  1
  Se  Se173  1  0.26159118  0.74781727  0.45267575  1
  Se  Se174  1  0.24762754  0.75900095  0.95170292  1
  Se  Se175  1  0.59023014  0.07655441  0.44823862  1
  Se  Se176  1  0.57781072  0.08538489  0.95380608  1
  Se  Se177  1  0.57906378  0.42102386  0.45062959  1
  Se  Se178  1  0.59498824  0.40877926  0.93919776  1
  Se  Se179  1  0.58280619  0.74660495  0.45079799  1
  Se  Se180  1  0.58331000  0.74629804  0.93915067  1
  Se  Se181  1  0.91393054  0.08449279  0.44549914  1
  Se  Se182  1  0.93240546  0.05941017  0.95310724  1
  Se  Se183  1  0.91080632  0.42050571  0.45189131  1
  Se  Se184  1  0.92031116  0.41037349  0.93769402  1
  Se  Se185  1  0.91857699  0.75097198  0.44603919  1
  Se  Se186  1  0.92605982  0.74007858  0.93549210  1
  Se  Se187  1  0.24608484  0.24174661  0.31479368  1
  Se  Se188  1  0.25384278  0.25148486  0.80127879  1
  Se  Se189  1  0.24986085  0.58420962  0.30199160  1
  Se  Se190  1  0.24495753  0.58432978  0.81251168  1
  Se  Se191  1  0.25279530  0.91867292  0.30696140  1
  Se  Se192  1  0.25244207  0.92331816  0.80311568  1
  Se  Se193  1  0.58508466  0.25176714  0.30441981  1
  Se  Se194  1  0.58712077  0.24307619  0.80476741  1
  Se  Se195  1  0.57652200  0.58545677  0.32076176  1
  Se  Se196  1  0.58548171  0.58860732  0.79528907  1
  Se  Se197  1  0.58624768  0.91912865  0.30892294  1
  Se  Se198  1  0.57707519  0.90805789  0.80552519  1
  Se  Se199  1  0.91533014  0.25428806  0.31095833  1
  Se  Se200  1  0.91593646  0.23853755  0.80197708  1
  Se  Se201  1  0.90666236  0.58097723  0.30874294  1
  Se  Se202  1  0.90782033  0.56680262  0.80192180  1
  Se  Se203  1  0.91946454  0.92802477  0.30363735  1
  Se  Se204  1  0.90294723  0.90459702  0.80589997  1
  Se  Se205  1  0.07946132  0.08432072  0.30890091  1
  Se  Se206  1  0.09047019  0.09547693  0.81027963  1
  Se  Se207  1  0.07498596  0.41375892  0.30077885  1
  Se  Se208  1  0.08732276  0.41577968  0.81042806  1
  Se  Se209  1  0.08689792  0.75523262  0.31730633  1
  Se  Se210  1  0.09089442  0.75857380  0.80411651  1
  Se  Se211  1  0.41541537  0.08002881  0.30057105  1
  Se  Se212  1  0.42112092  0.08166341  0.79703338  1
  Se  Se213  1  0.42470990  0.41717630  0.31549398  1
  Se  Se214  1  0.42147163  0.42210624  0.80222831  1
  Se  Se215  1  0.41687750  0.75135095  0.30971419  1
  Se  Se216  1  0.42384616  0.75827103  0.80447949  1
  Se  Se217  1  0.74553348  0.08452248  0.30686680  1
  Se  Se218  1  0.75200318  0.08548356  0.80651936  1
  Se  Se219  1  0.74475058  0.41258131  0.30766322  1
  Se  Se220  1  0.75326263  0.41092101  0.79696821  1
  Se  Se221  1  0.74665561  0.76389229  0.31650789  1
  Se  Se222  1  0.74400362  0.74455708  0.79444578  1
  Se  Se223  1  0.25221487  0.08257548  0.20348227  1
  Se  Se224  1  0.25711278  0.07936570  0.69420633  1
  Se  Se225  1  0.24102512  0.42084732  0.19065024  1
  Se  Se226  1  0.25526866  0.40954670  0.70333101  1
  Se  Se227  1  0.24908621  0.74838645  0.20242287  1
  Se  Se228  1  0.24867480  0.75889822  0.68642363  1
  Se  Se229  1  0.58338300  0.08439054  0.19704841  1
  Se  Se230  1  0.57776510  0.08898260  0.68129439  1
  Se  Se231  1  0.56518048  0.43768605  0.20246366  1
  Se  Se232  1  0.58393319  0.41124957  0.69233835  1
  Se  Se233  1  0.57357528  0.75803679  0.18976959  1
  Se  Se234  1  0.58652366  0.75135544  0.68755177  1
  Se  Se235  1  0.91448927  0.08890458  0.20703067  1
  Se  Se236  1  0.90921356  0.08411934  0.68605153  1
  Se  Se237  1  0.91256803  0.41422173  0.19875139  1
  Se  Se238  1  0.90784915  0.42130566  0.68725325  1
  Se  Se239  1  0.90499744  0.76276786  0.19931793  1
  Se  Se240  1  0.91419637  0.75326460  0.68150525  1
  Se  Se241  1  0.08378985  0.25312915  0.20352314  1
  Se  Se242  1  0.09122053  0.23440903  0.68353174  1
  Se  Se243  1  0.08733652  0.57669630  0.18945478  1
  Se  Se244  1  0.09238784  0.57152063  0.69347994  1
  Se  Se245  1  0.08355663  0.91732737  0.20433976  1
  Se  Se246  1  0.08751084  0.91646964  0.68922250  1
  Se  Se247  1  0.41818254  0.24386971  0.19266550  1
  Se  Se248  1  0.41630760  0.25253202  0.69291791  1
  Se  Se249  1  0.41081250  0.58167343  0.21146650  1
  Se  Se250  1  0.42484373  0.57670396  0.68154584  1
  Se  Se251  1  0.41965090  0.91628660  0.20027169  1
  Se  Se252  1  0.41740804  0.92063689  0.68777571  1
  Se  Se253  1  0.74578243  0.25162716  0.20057582  1
  Se  Se254  1  0.74450595  0.24771912  0.68951736  1
  Se  Se255  1  0.75155399  0.57821672  0.19283332  1
  Se  Se256  1  0.74986594  0.58495269  0.69513397  1
  Se  Se257  1  0.73854138  0.92130464  0.20336727  1
  Se  Se258  1  0.75821091  0.91309005  0.67986865  1
