# generated using pymatgen
data_In86Cu29Se144
_symmetry_space_group_name_H-M   'P 1'
_cell_length_a   17.58670825
_cell_length_b   17.58666439
_cell_length_c   23.45012793
_cell_angle_alpha   90.01394506
_cell_angle_beta   89.98316907
_cell_angle_gamma   90.03743959
_symmetry_Int_Tables_number   1
_chemical_formula_structural   In86Cu29Se144
_chemical_formula_sum   'In86 Cu29 Se144'
_cell_volume   7252.92400481
_cell_formula_units_Z   1
loop_
 _symmetry_equiv_pos_site_id
 _symmetry_equiv_pos_as_xyz
  1  'x, y, z'
loop_
 _atom_site_type_symbol
 _atom_site_label
 _atom_site_symmetry_multiplicity
 _atom_site_fract_x
 _atom_site_fract_y
 _atom_site_fract_z
 _atom_site_occupancy
  In  In0  1  0.00357149  0.15756457  0.12427346  1
  In  In1  1  0.00555133  0.16922038  0.62205954  1
  In  In2  1  0.00021871  0.50165727  0.11703258  1
  In  In3  1  0.00125862  0.49868272  0.62873085  1
  In  In4  1  -0.00423197  0.84665585  0.12773150  1
  In  In5  1  -0.01029163  0.83347258  0.62526200  1
  In  In6  1  0.33952934  0.18050628  0.12107713  1
  In  In7  1  0.33214269  0.17239086  0.62670989  1
  In  In8  1  0.33193258  0.48451059  0.10888389  1
  In  In9  1  0.31947700  0.50612028  0.63336058  1
  In  In10  1  0.33283164  0.82957208  0.12340224  1
  In  In11  1  0.34334119  0.82423971  0.63372396  1
  In  In12  1  0.65927741  0.15752459  0.13334906  1
  In  In13  1  0.68324921  0.19563476  0.60282510  1
  In  In14  1  0.68033625  0.51924247  0.10325240  1
  In  In15  1  0.67015741  0.47900237  0.62380739  1
  In  In16  1  0.69108242  0.81381362  0.15258075  1
  In  In17  1  0.66906142  0.83665499  0.61567877  1
  In  In18  1  0.16408881  0.01736835  0.37757238  1
  In  In19  1  0.17859784  -0.00693638  0.87148220  1
  In  In20  1  0.17585479  0.32687626  0.38257179  1
  In  In21  1  0.16812118  0.33654362  0.87481922  1
  In  In22  1  0.16242648  0.66278137  0.38201901  1
  In  In23  1  0.15333448  0.65630558  0.86267773  1
  In  In24  1  0.51159908  -0.01068352  0.38537636  1
  In  In25  1  0.49578752  0.00425857  0.87275482  1
  In  In26  1  0.48812440  0.34082830  0.37723041  1
  In  In27  1  0.50197841  0.33700531  0.86508334  1
  In  In28  1  0.51816595  0.65710034  0.37550652  1
  In  In29  1  0.48677350  0.66969320  0.87313106  1
  In  In30  1  0.83331798  -0.00394981  0.37450218  1
  In  In31  1  0.82426684  -0.00093789  0.87949948  1
  In  In32  1  0.82544969  0.33849243  0.39630201  1
  In  In33  1  0.85202056  0.34770397  0.85408447  1
  In  In34  1  0.82015957  0.67681169  0.38406017  1
  In  In35  1  0.84340845  0.65116203  0.88452287  1
  In  In36  1  0.00319619  0.16254746  0.38302483  1
  In  In37  1  0.00138833  0.19605375  0.86662569  1
  In  In38  1  0.00202892  0.50046628  0.38390798  1
  In  In39  1  0.00359963  0.50024496  0.87331324  1
  In  In40  1  -0.02344020  0.83761320  0.37651099  1
  In  In41  1  0.00155876  0.81337425  0.87193589  1
  In  In42  1  0.32315328  0.17760615  0.38517317  1
  In  In43  1  0.32897271  0.16094946  0.86545394  1
  In  In44  1  0.34254726  0.48705259  0.37693942  1
  In  In45  1  0.32778400  0.49292876  0.87150053  1
  In  In46  1  0.33208327  0.84337362  0.38285879  1
  In  In47  1  0.30845246  0.81914956  0.84603184  1
  In  In48  1  0.68142661  0.15650438  0.39332752  1
  In  In49  1  0.65929837  0.16797348  0.87203571  1
  In  In50  1  0.66579445  0.50858800  0.37618302  1
  In  In51  1  0.67668316  0.49456015  0.88199911  1
  In  In52  1  0.67396711  0.82850702  0.37303774  1
  In  In53  1  0.67233738  0.83224049  0.88391063  1
  In  In54  1  0.15360212  0.00050932  0.12347781  1
  In  In55  1  0.16478647  0.01539675  0.62340139  1
  In  In56  1  0.18142660  0.34151119  0.10893995  1
  In  In57  1  0.16416135  0.33282780  0.62901660  1
  In  In58  1  0.17669974  0.65855670  0.11979852  1
  In  In59  1  0.18491645  0.65267656  0.63751592  1
  In  In60  1  0.50849108  0.00791789  0.13107090  1
  In  In61  1  0.49863440  0.00077330  0.61756299  1
  In  In62  1  0.49211298  0.33407577  0.12569978  1
  In  In63  1  0.50909927  0.32198155  0.63180425  1
  In  In64  1  0.51742631  0.66540978  0.12035812  1
  In  In65  1  0.48043895  0.66565279  0.62025316  1
  In  In66  1  0.84223842  -0.00837477  0.13899430  1
  In  In67  1  0.83335765  -0.00103972  0.61588179  1
  In  In68  1  0.82397620  0.34235310  0.12302073  1
  In  In69  1  0.83445358  0.33549095  0.62628815  1
  In  In70  1  0.82897541  0.66622071  0.12085254  1
  In  In71  1  0.84209297  0.67437672  0.62281692  1
  In  In72  1  -0.00708209  0.66649164  0.24872266  1
  In  In73  1  0.66077924  0.00700868  0.74646379  1
  In  In74  1  0.66548983  0.66379081  0.75150824  1
  In  In75  1  0.33658799  0.00584015  0.25193979  1
  In  In76  1  0.65784047  0.33123530  0.25267499  1
  In  In77  1  0.33958928  0.66327136  0.24824899  1
  In  In78  1  0.16165942  0.82931502  -0.00117945  1
  In  In79  1  0.49971206  0.17344089  -0.00564652  1
  In  In80  1  0.83747385  0.17230680  -0.00171012  1
  In  In81  1  0.00264164  0.32340711  0.25482400  1
  In  In82  1  0.50069225  0.49854884  0.50418153  1
  In  In83  1  0.49887264  0.83596051  -0.00299090  1
  In  In84  1  0.00158277  0.00339204  0.74225819  1
  In  In85  1  0.16741929  0.82928981  0.50656111  1
  Cu  Cu86  1  0.33001030  0.65535496  -0.00798866  1
  Cu  Cu87  1  0.49504096  0.49835600  0.74622862  1
  Cu  Cu88  1  0.32951159  0.33713354  0.50658229  1
  Cu  Cu89  1  0.16205156  0.49296302  0.75191993  1
  Cu  Cu90  1  0.50217448  0.49579499  0.24578373  1
  Cu  Cu91  1  0.00347017  0.33579134  0.50719570  1
  Cu  Cu92  1  0.33510085  0.00087525  -0.01045105  1
  Cu  Cu93  1  0.16510515  0.17051399  0.74863958  1
  Cu  Cu94  1  0.00263666  0.34049166  -0.00696597  1
  Cu  Cu95  1  -0.00845202  0.66476372  -0.00288033  1
  Cu  Cu96  1  0.15449804  0.83808158  0.25136074  1
  Cu  Cu97  1  0.66301220  -0.00201455  0.49595573  1
  Cu  Cu98  1  0.82964488  0.50267595  0.24794616  1
  Cu  Cu99  1  0.00218425  0.65767943  0.50420415  1
  Cu  Cu100  1  0.49790993  0.83383909  0.74517306  1
  Cu  Cu101  1  0.83444732  0.16252920  0.25900999  1
  Cu  Cu102  1  0.16930790  0.17194121  0.25482051  1
  Cu  Cu103  1  0.67021361  0.33680195  -0.00555601  1
  Cu  Cu104  1  0.67121256  0.66646284  0.50037724  1
  Cu  Cu105  1  -0.00329557  0.00371899  0.00151446  1
  Cu  Cu106  1  0.33484102  0.00726137  0.50235242  1
  Cu  Cu107  1  0.83690874  0.50165483  0.75101534  1
  Cu  Cu108  1  0.67321058  -0.00921506  0.00896223  1
  Cu  Cu109  1  0.83813361  0.82942401  0.75062357  1
  Cu  Cu110  1  -0.00420271  -0.00336858  0.50045839  1
  Cu  Cu111  1  0.17475626  0.49108174  0.24659949  1
  Cu  Cu112  1  0.49940410  0.16818685  0.74543340  1
  Cu  Cu113  1  0.50631968  0.83036541  0.25694671  1
  Cu  Cu114  1  0.49672348  0.16855719  0.25896636  1
  Se  Se115  1  0.08582474  0.08588645  0.04888111  1
  Se  Se116  1  0.08008339  0.08338623  0.54917701  1
  Se  Se117  1  0.08485604  0.42171832  0.04969985  1
  Se  Se118  1  0.08751766  0.41983995  0.55877258  1
  Se  Se119  1  0.07150795  0.74116137  0.06300906  1
  Se  Se120  1  0.07991144  0.73838511  0.56623549  1
  Se  Se121  1  0.41617443  0.07355097  0.05502481  1
  Se  Se122  1  0.41594815  0.09233035  0.55546184  1
  Se  Se123  1  0.42050148  0.40247001  0.04636235  1
  Se  Se124  1  0.41129552  0.41405660  0.56826713  1
  Se  Se125  1  0.40600247  0.73828359  0.05427336  1
  Se  Se126  1  0.42003294  0.76168770  0.55220667  1
  Se  Se127  1  0.75012458  0.08276081  0.06207574  1
  Se  Se128  1  0.74605700  0.07971511  0.55084047  1
  Se  Se129  1  0.75796283  0.41926459  0.04456601  1
  Se  Se130  1  0.75594034  0.41445042  0.55099877  1
  Se  Se131  1  0.74068294  0.75364509  0.06085349  1
  Se  Se132  1  0.75526416  0.75105619  0.55294169  1
  Se  Se133  1  0.24875741  0.23865719  0.04884523  1
  Se  Se134  1  0.24495498  0.25065426  0.55696759  1
  Se  Se135  1  0.24620953  0.57522221  0.04728070  1
  Se  Se136  1  0.25609894  0.58803250  0.55524882  1
  Se  Se137  1  0.25679135  0.92408048  0.05582210  1
  Se  Se138  1  0.25670678  0.92412005  0.56252270  1
  Se  Se139  1  0.59693797  0.25365671  0.05836718  1
  Se  Se140  1  0.56989023  0.25157425  0.54729063  1
  Se  Se141  1  0.56486498  0.56859597  0.04736769  1
  Se  Se142  1  0.59224282  0.58944359  0.56504997  1
  Se  Se143  1  0.58657620  0.91509294  0.06571105  1
  Se  Se144  1  0.58049110  0.91470257  0.55024854  1
  Se  Se145  1  0.92713494  0.26303308  0.06115052  1
  Se  Se146  1  0.91824340  0.25058142  0.55646846  1
  Se  Se147  1  0.91125205  0.58132941  0.05326563  1
  Se  Se148  1  0.91559784  0.57883600  0.55837845  1
  Se  Se149  1  0.91338972  0.92276318  0.05566465  1
  Se  Se150  1  0.91298727  0.90991242  0.54991604  1
  Se  Se151  1  0.08263652  0.25275399  0.44788718  1
  Se  Se152  1  0.08524171  0.25148958  0.94597917  1
  Se  Se153  1  0.08972921  0.57746712  0.45282185  1
  Se  Se154  1  0.08065250  0.58811433  0.94400805  1
  Se  Se155  1  0.08028315  0.91786402  0.43986861  1
  Se  Se156  1  0.07427383  0.92167460  0.93831882  1
  Se  Se157  1  0.41368101  0.25747818  0.45005417  1
  Se  Se158  1  0.40836488  0.25584169  0.93388572  1
  Se  Se159  1  0.41424033  0.58952440  0.44123694  1
  Se  Se160  1  0.41581788  0.57623754  0.93949820  1
  Se  Se161  1  0.41586382  0.91874475  0.45250129  1
  Se  Se162  1  0.40385110  0.91132769  0.93052358  1
  Se  Se163  1  0.74747977  0.25126045  0.46086094  1
  Se  Se164  1  0.74944949  0.25669224  0.93375624  1
  Se  Se165  1  0.75199884  0.57778166  0.44974629  1
  Se  Se166  1  0.74174708  0.59112170  0.94843103  1
  Se  Se167  1  0.74946744  0.91466719  0.44455821  1
  Se  Se168  1  0.75650583  0.91214533  0.95292754  1
  Se  Se169  1  0.24549541  0.08761108  0.45227694  1
  Se  Se170  1  0.24909887  0.08425116  0.94110999  1
  Se  Se171  1  0.25154665  0.42034635  0.44839399  1
  Se  Se172  1  0.23860752  0.42678359  0.94453309  1
  Se  Se173  1  0.25946796  0.74119575  0.44525093  1
  Se  Se174  1  0.25186066  0.74378911  0.93615579  1
  Se  Se175  1  0.57573718  0.08804068  0.45224312  1
  Se  Se176  1  0.59397669  0.06968430  0.94635610  1
  Se  Se177  1  0.59067727  0.41092922  0.44266031  1
  Se  Se178  1  0.58092792  0.41192347  0.94090852  1
  Se  Se179  1  0.58840265  0.74747581  0.44438892  1
  Se  Se180  1  0.58681720  0.73787505  0.94310468  1
  Se  Se181  1  0.91338017  0.08064172  0.44583247  1
  Se  Se182  1  0.92670259  0.08505812  0.93478437  1
  Se  Se183  1  0.92050943  0.42036608  0.45384307  1
  Se  Se184  1  0.91388864  0.41747849  0.93959628  1
  Se  Se185  1  0.92052809  0.74299403  0.44983585  1
  Se  Se186  1  0.91247296  0.75466070  0.94741861  1
  Se  Se187  1  0.25472438  0.25497719  0.30519465  1
  Se  Se188  1  0.24821874  0.25304419  0.80313266  1
  Se  Se189  1  0.24636346  0.57708399  0.30905013  1
  Se  Se190  1  0.24874237  0.57955537  0.80112919  1
  Se  Se191  1  0.24002666  0.91493410  0.30903468  1
  Se  Se192  1  0.25808628  0.93412398  0.79133572  1
  Se  Se193  1  0.57999840  0.24306734  0.32087887  1
  Se  Se194  1  0.58474849  0.24873639  0.79966581  1
  Se  Se195  1  0.58679111  0.57788306  0.29809775  1
  Se  Se196  1  0.57546477  0.57483708  0.81069341  1
  Se  Se197  1  0.58657303  0.91660584  0.30833321  1
  Se  Se198  1  0.58077773  0.90647293  0.80929159  1
  Se  Se199  1  0.90393337  0.25036390  0.31907305  1
  Se  Se200  1  0.90534017  0.23984882  0.79225579  1
  Se  Se201  1  0.90956648  0.57652564  0.31267551  1
  Se  Se202  1  0.92008381  0.58591255  0.80418218  1
  Se  Se203  1  0.91136398  0.91716932  0.30045090  1
  Se  Se204  1  0.91360620  0.91569749  0.80984150  1
  Se  Se205  1  0.08128110  0.08995693  0.30397807  1
  Se  Se206  1  0.08638941  0.08916784  0.81056191  1
  Se  Se207  1  0.09050360  0.42064337  0.31012607  1
  Se  Se208  1  0.07721930  0.40981975  0.80418324  1
  Se  Se209  1  0.08349514  0.75365133  0.31275191  1
  Se  Se210  1  0.10474773  0.77021655  0.80299265  1
  Se  Se211  1  0.41915223  0.08780006  0.32097209  1
  Se  Se212  1  0.41975428  0.08142889  0.79913898  1
  Se  Se213  1  0.41609712  0.41508873  0.29762042  1
  Se  Se214  1  0.41148421  0.41446316  0.79907545  1
  Se  Se215  1  0.41982521  0.75475224  0.31486988  1
  Se  Se216  1  0.41646411  0.74533974  0.79483889  1
  Se  Se217  1  0.74570902  0.08416694  0.31026682  1
  Se  Se218  1  0.75717948  0.09020410  0.80633169  1
  Se  Se219  1  0.75698480  0.41750731  0.30991123  1
  Se  Se220  1  0.74537581  0.42167533  0.80052306  1
  Se  Se221  1  0.74992056  0.74249094  0.30263415  1
  Se  Se222  1  0.75717953  0.75193437  0.81193698  1
  Se  Se223  1  0.24537505  0.09024276  0.18946468  1
  Se  Se224  1  0.24910331  0.08743645  0.69620663  1
  Se  Se225  1  0.25567945  0.41300622  0.18887062  1
  Se  Se226  1  0.24881057  0.41152553  0.70007158  1
  Se  Se227  1  0.23836976  0.75778784  0.19486665  1
  Se  Se228  1  0.24798008  0.75665075  0.69955368  1
  Se  Se229  1  0.58086861  0.08337434  0.20896822  1
  Se  Se230  1  0.58229918  0.09652282  0.68127879  1
  Se  Se231  1  0.58845722  0.42412999  0.18288525  1
  Se  Se232  1  0.58365751  0.41489830  0.69912707  1
  Se  Se233  1  0.58068875  0.74098285  0.20227695  1
  Se  Se234  1  0.58115455  0.75438423  0.68704928  1
  Se  Se235  1  0.91993518  0.08930065  0.19942589  1
  Se  Se236  1  0.90486744  0.08945978  0.68748454  1
  Se  Se237  1  0.91533677  0.42109735  0.19410649  1
  Se  Se238  1  0.91830977  0.41577771  0.69777808  1
  Se  Se239  1  0.90617121  0.76031827  0.19286001  1
  Se  Se240  1  0.92230128  0.74585603  0.70010243  1
  Se  Se241  1  0.09446152  0.24864527  0.18710718  1
  Se  Se242  1  0.07747226  0.25075451  0.69745412  1
  Se  Se243  1  0.09231300  0.57565357  0.19308359  1
  Se  Se244  1  0.08363889  0.58205152  0.69907361  1
  Se  Se245  1  0.07685569  0.92572578  0.19939441  1
  Se  Se246  1  0.09142925  0.91132902  0.68638989  1
  Se  Se247  1  0.42016743  0.24816084  0.19877221  1
  Se  Se248  1  0.41199077  0.25427386  0.69878520  1
  Se  Se249  1  0.42140143  0.57435359  0.18328159  1
  Se  Se250  1  0.41282632  0.58616489  0.69783383  1
  Se  Se251  1  0.42401713  0.90604155  0.19424951  1
  Se  Se252  1  0.42135182  0.92374075  0.69347773  1
  Se  Se253  1  0.75866242  0.24290888  0.19469558  1
  Se  Se254  1  0.74315935  0.25477361  0.69121479  1
  Se  Se255  1  0.74847348  0.58071068  0.19042475  1
  Se  Se256  1  0.75512298  0.57783028  0.68849832  1
  Se  Se257  1  0.72695561  0.94243257  0.19512290  1
  Se  Se258  1  0.75613459  0.91004843  0.69341856  1
