# generated using pymatgen
data_In86Cu29Se144
_symmetry_space_group_name_H-M   'P 1'
_cell_length_a   17.55215543
_cell_length_b   17.55098022
_cell_length_c   23.41319940
_cell_angle_alpha   90.00105635
_cell_angle_beta   90.00363296
_cell_angle_gamma   90.00456542
_symmetry_Int_Tables_number   1
_chemical_formula_structural   In86Cu29Se144
_chemical_formula_sum   'In86 Cu29 Se144'
_cell_volume   7212.61240199
_cell_formula_units_Z   1
loop_
 _symmetry_equiv_pos_site_id
 _symmetry_equiv_pos_as_xyz
  1  'x, y, z'
loop_
 _atom_site_type_symbol
 _atom_site_label
 _atom_site_symmetry_multiplicity
 _atom_site_fract_x
 _atom_site_fract_y
 _atom_site_fract_z
 _atom_site_occupancy
  In  In0  1  0.00710152  0.17629837  0.12043855  1
  In  In1  1  0.00152314  0.15126350  0.61603802  1
  In  In2  1  -0.00136191  0.49718534  0.12298818  1
  In  In3  1  0.00890714  0.50756909  0.61935292  1
  In  In4  1  0.00101840  0.83103128  0.11120651  1
  In  In5  1  -0.01935327  0.84759558  0.64884573  1
  In  In6  1  0.32794616  0.17434715  0.12740729  1
  In  In7  1  0.31977252  0.15458902  0.61440808  1
  In  In8  1  0.32597140  0.50712404  0.14081277  1
  In  In9  1  0.31820409  0.49707545  0.61521219  1
  In  In10  1  0.32026210  0.82178307  0.10721027  1
  In  In11  1  0.35348176  0.83318022  0.62272034  1
  In  In12  1  0.67225614  0.16437006  0.12591232  1
  In  In13  1  0.65655786  0.15645402  0.62163450  1
  In  In14  1  0.66636876  0.49411535  0.12730431  1
  In  In15  1  0.68347266  0.50191272  0.62269664  1
  In  In16  1  0.67219487  0.83709107  0.11238790  1
  In  In17  1  0.66921106  0.83543059  0.63643202  1
  In  In18  1  0.17775910  0.00222372  0.37914383  1
  In  In19  1  0.16252441  0.00056119  0.87196788  1
  In  In20  1  0.16702794  0.33580213  0.37524102  1
  In  In21  1  0.16156792  0.33354965  0.88901961  1
  In  In22  1  0.16161563  0.64336283  0.36926221  1
  In  In23  1  0.15804125  0.67635423  0.88013507  1
  In  In24  1  0.50087568  0.00848375  0.39086998  1
  In  In25  1  0.48672429  -0.01693625  0.86660876  1
  In  In26  1  0.49291637  0.32599569  0.37140145  1
  In  In27  1  0.49321787  0.33520003  0.87709284  1
  In  In28  1  0.49056344  0.68058690  0.37661520  1
  In  In29  1  0.52173807  0.67987812  0.86581837  1
  In  In30  1  0.82212601  -0.00077002  0.38622636  1
  In  In31  1  0.83544321  -0.00352823  0.86532387  1
  In  In32  1  0.84668844  0.34940595  0.36492112  1
  In  In33  1  0.84156632  0.32840198  0.88639408  1
  In  In34  1  0.83548776  0.66706630  0.38364817  1
  In  In35  1  0.83504971  0.67129291  0.86955167  1
  In  In36  1  -0.00261374  0.19503997  0.38342832  1
  In  In37  1  0.00997242  0.15706425  0.87999044  1
  In  In38  1  0.02824034  0.46899582  0.41276468  1
  In  In39  1  -0.00842595  0.50857596  0.88623418  1
  In  In40  1  -0.00439315  0.82705476  0.38099114  1
  In  In41  1  -0.00625857  0.83397907  0.86200440  1
  In  In42  1  0.31170291  0.19903225  0.40562681  1
  In  In43  1  0.32835844  0.14407021  0.88088037  1
  In  In44  1  0.30172862  0.47895005  0.34668422  1
  In  In45  1  0.32587423  0.49154949  0.87924071  1
  In  In46  1  0.34194092  0.83837890  0.37388275  1
  In  In47  1  0.31586719  0.85749874  0.89601763  1
  In  In48  1  0.64849404  0.16732436  0.38490729  1
  In  In49  1  0.68306536  0.16584608  0.87476630  1
  In  In50  1  0.68679685  0.50112439  0.37739452  1
  In  In51  1  0.67272438  0.52187007  0.86967703  1
  In  In52  1  0.66148306  0.84279723  0.39516094  1
  In  In53  1  0.67404945  0.83313592  0.86930066  1
  In  In54  1  0.16825462  -0.00199550  0.10719913  1
  In  In55  1  0.15991357  0.00749448  0.62887717  1
  In  In56  1  0.16573740  0.33520621  0.12811305  1
  In  In57  1  0.15633927  0.32378327  0.59803639  1
  In  In58  1  0.17017501  0.66236633  0.11939293  1
  In  In59  1  0.16023736  0.65637245  0.62463755  1
  In  In60  1  0.50350357  -0.00196785  0.11707973  1
  In  In61  1  0.50501333  -0.00576627  0.63370226  1
  In  In62  1  0.49380090  0.33376896  0.13832004  1
  In  In63  1  0.50335748  0.32353909  0.61287110  1
  In  In64  1  0.49539800  0.66396408  0.12379486  1
  In  In65  1  0.50265155  0.69319604  0.61817133  1
  In  In66  1  0.83421577  0.00289574  0.10880942  1
  In  In67  1  0.84332954  -0.01391903  0.63460646  1
  In  In68  1  0.83246300  0.33511885  0.12546965  1
  In  In69  1  0.83650886  0.33876128  0.61501668  1
  In  In70  1  0.84063686  0.67070133  0.11441184  1
  In  In71  1  0.83121732  0.67247940  0.63691544  1
  In  In72  1  0.67014031  0.32820050  0.74392072  1
  In  In73  1  0.48989141  0.50199338  0.49295410  1
  In  In74  1  0.33936361  0.00598386  0.25079399  1
  In  In75  1  0.66417404  0.00610496  0.26040112  1
  In  In76  1  0.15810931  0.83435946  0.50182769  1
  In  In77  1  0.32870060  0.33003932  0.74189278  1
  In  In78  1  0.00190666  0.32772520  0.74217772  1
  In  In79  1  0.00083101  0.65497878  0.24696799  1
  In  In80  1  0.83888278  0.16572495  0.50275943  1
  In  In81  1  0.00106335  0.00795096  0.24880755  1
  In  In82  1  0.33465220  0.67360160  0.74958743  1
  In  In83  1  0.66744780  0.66353891  0.25294033  1
  In  In84  1  0.50296839  0.50521439  -0.00032545  1
  In  In85  1  0.49768995  0.16340304  0.00491379  1
  Cu  Cu86  1  0.49470294  0.83166321  0.24781113  1
  Cu  Cu87  1  0.15645685  0.49980869  0.75107481  1
  Cu  Cu88  1  0.83745254  0.15779653  0.74759007  1
  Cu  Cu89  1  0.34566989  -0.00268678  0.50654043  1
  Cu  Cu90  1  0.34223866  0.66297563  0.00247907  1
  Cu  Cu91  1  0.83246687  0.50663738  0.75469565  1
  Cu  Cu92  1  0.67949624  0.67546102  -0.00975948  1
  Cu  Cu93  1  0.32173434  0.33592199  0.00995742  1
  Cu  Cu94  1  -0.00364420  0.33142763  0.00713268  1
  Cu  Cu95  1  0.16692767  0.17443727  0.25439803  1
  Cu  Cu96  1  -0.01828764  0.67762338  0.50977120  1
  Cu  Cu97  1  0.50337894  0.49933416  0.25278661  1
  Cu  Cu98  1  0.67544232  0.33897611  0.00275075  1
  Cu  Cu99  1  0.66525902  -0.00100728  -0.00944108  1
  Cu  Cu100  1  0.00618954  0.66611417  -0.00645206  1
  Cu  Cu101  1  0.66721283  0.66973515  0.50664541  1
  Cu  Cu102  1  -0.00765862  -0.00710167  -0.01027115  1
  Cu  Cu103  1  0.17155141  0.15940994  0.75168500  1
  Cu  Cu104  1  0.84185194  0.49659088  0.25158646  1
  Cu  Cu105  1  0.32155987  0.66249596  0.49286731  1
  Cu  Cu106  1  0.16813081  0.82478431  0.23804428  1
  Cu  Cu107  1  0.83341644  0.18142644  0.24810747  1
  Cu  Cu108  1  0.67114167  0.33164416  0.49525147  1
  Cu  Cu109  1  0.49771357  0.50886829  0.73913010  1
  Cu  Cu110  1  0.50052974  0.83550460  0.75198875  1
  Cu  Cu111  1  0.50071740  0.15543457  0.75050071  1
  Cu  Cu112  1  0.82663276  0.83594727  0.25003355  1
  Cu  Cu113  1  0.17173460  0.83482151  0.75494716  1
  Cu  Cu114  1  0.49447786  0.17001440  0.26166777  1
  Se  Se115  1  0.06818719  0.07609316  0.05164738  1
  Se  Se116  1  0.09970707  0.08981854  0.54953086  1
  Se  Se117  1  0.08439674  0.41499121  0.05583102  1
  Se  Se118  1  0.08072325  0.42652550  0.54423907  1
  Se  Se119  1  0.09044212  0.74725991  0.04985034  1
  Se  Se120  1  0.07069985  0.75152370  0.56796061  1
  Se  Se121  1  0.39982234  0.07498613  0.05806712  1
  Se  Se122  1  0.42763589  0.08098115  0.56142860  1
  Se  Se123  1  0.41439515  0.41547597  0.06188355  1
  Se  Se124  1  0.40514945  0.40507327  0.55121036  1
  Se  Se125  1  0.42718819  0.75030379  0.05062247  1
  Se  Se126  1  0.40802750  0.74541229  0.54288355  1
  Se  Se127  1  0.74240831  0.08632309  0.04802536  1
  Se  Se128  1  0.75505125  0.07395431  0.56436630  1
  Se  Se129  1  0.75499579  0.42538190  0.05580461  1
  Se  Se130  1  0.75116573  0.41861741  0.54672921  1
  Se  Se131  1  0.76139282  0.75781897  0.04726201  1
  Se  Se132  1  0.74836806  0.75050026  0.56440123  1
  Se  Se133  1  0.23999195  0.24438223  0.05629796  1
  Se  Se134  1  0.26693721  0.25779609  0.54717803  1
  Se  Se135  1  0.26076423  0.57771596  0.05615160  1
  Se  Se136  1  0.23791137  0.58238342  0.54769576  1
  Se  Se137  1  0.24856279  0.91420907  0.04150870  1
  Se  Se138  1  0.25579961  0.91873457  0.56161938  1
  Se  Se139  1  0.58558380  0.26243727  0.05991302  1
  Se  Se140  1  0.59092920  0.24395411  0.54627453  1
  Se  Se141  1  0.60017325  0.59638471  0.05566334  1
  Se  Se142  1  0.58174713  0.58457147  0.56048321  1
  Se  Se143  1  0.58338390  0.91715059  0.04699289  1
  Se  Se144  1  0.56708269  0.89307240  0.56805443  1
  Se  Se145  1  0.90892048  0.24666953  0.05566421  1
  Se  Se146  1  0.93520715  0.26197588  0.55351361  1
  Se  Se147  1  0.92413449  0.58417122  0.05137728  1
  Se  Se148  1  0.90758323  0.58619463  0.56342996  1
  Se  Se149  1  0.91055394  0.90922611  0.04543908  1
  Se  Se150  1  0.93274923  0.92145202  0.56092995  1
  Se  Se151  1  0.10198193  0.24394488  0.44938896  1
  Se  Se152  1  0.07843082  0.24657110  0.95239025  1
  Se  Se153  1  0.06910762  0.60339965  0.44932645  1
  Se  Se154  1  0.09355577  0.57780065  0.94821338  1
  Se  Se155  1  0.07329669  0.92918751  0.44152462  1
  Se  Se156  1  0.07682634  0.91146509  0.93519764  1
  Se  Se157  1  0.44345709  0.23107127  0.44687493  1
  Se  Se158  1  0.40406767  0.25804594  0.94679152  1
  Se  Se159  1  0.39910098  0.58333499  0.42937877  1
  Se  Se160  1  0.41850600  0.59168152  0.93193349  1
  Se  Se161  1  0.42075327  0.91090629  0.44925908  1
  Se  Se162  1  0.42452932  0.91919471  0.95305087  1
  Se  Se163  1  0.75558032  0.25433419  0.43461882  1
  Se  Se164  1  0.75166483  0.24771685  0.95117494  1
  Se  Se165  1  0.75022782  0.58664893  0.45309552  1
  Se  Se166  1  0.76032634  0.58327725  0.94459270  1
  Se  Se167  1  0.76207370  0.90692270  0.45779195  1
  Se  Se168  1  0.75358971  0.91803275  0.93939844  1
  Se  Se169  1  0.25756762  0.07621137  0.45318648  1
  Se  Se170  1  0.23008794  0.08710389  0.94786337  1
  Se  Se171  1  0.24778472  0.42872828  0.44002944  1
  Se  Se172  1  0.24354332  0.42249727  0.95428342  1
  Se  Se173  1  0.24432846  0.74862592  0.43358445  1
  Se  Se174  1  0.25489414  0.74277910  0.94826669  1
  Se  Se175  1  0.61797177  0.05249357  0.44841369  1
  Se  Se176  1  0.58237677  0.08184169  0.93419471  1
  Se  Se177  1  0.58867776  0.41319448  0.43754266  1
  Se  Se178  1  0.59414768  0.41433838  0.93840170  1
  Se  Se179  1  0.57899375  0.74559229  0.45102150  1
  Se  Se180  1  0.58812832  0.75718185  0.94473344  1
  Se  Se181  1  0.92965337  0.07988138  0.43874799  1
  Se  Se182  1  0.91048858  0.08132762  0.93914525  1
  Se  Se183  1  0.89853558  0.42465681  0.45041835  1
  Se  Se184  1  0.91532538  0.41863620  0.95366161  1
  Se  Se185  1  0.90462985  0.76160411  0.45279893  1
  Se  Se186  1  0.92260286  0.74882750  0.93881679  1
  Se  Se187  1  0.25643330  0.24935889  0.31033448  1
  Se  Se188  1  0.24361591  0.24734149  0.81326432  1
  Se  Se189  1  0.26019632  0.60146405  0.29520214  1
  Se  Se190  1  0.24475123  0.57751646  0.80741332  1
  Se  Se191  1  0.24176308  0.90855918  0.30172823  1
  Se  Se192  1  0.25464616  0.91870219  0.80676925  1
  Se  Se193  1  0.58924390  0.25080196  0.30524007  1
  Se  Se194  1  0.57483403  0.24544911  0.80906086  1
  Se  Se195  1  0.57778425  0.57759307  0.31682288  1
  Se  Se196  1  0.58362567  0.58473640  0.79463497  1
  Se  Se197  1  0.57322467  0.90922900  0.31322040  1
  Se  Se198  1  0.58798927  0.91920455  0.80262183  1
  Se  Se199  1  0.92473376  0.25820410  0.29914558  1
  Se  Se200  1  0.91261782  0.24325000  0.80794197  1
  Se  Se201  1  0.91488621  0.57629417  0.31615284  1
  Se  Se202  1  0.92367852  0.58311134  0.80606113  1
  Se  Se203  1  0.90941966  0.91566568  0.30953273  1
  Se  Se204  1  0.90012790  0.90404297  0.79271869  1
  Se  Se205  1  0.08903054  0.09220637  0.31510503  1
  Se  Se206  1  0.07827737  0.08040219  0.80021796  1
  Se  Se207  1  0.07877908  0.42535009  0.31573032  1
  Se  Se208  1  0.08202286  0.41590847  0.81268503  1
  Se  Se209  1  0.08573282  0.75563690  0.30575664  1
  Se  Se210  1  0.08618253  0.74681944  0.80028428  1
  Se  Se211  1  0.41483278  0.09113430  0.32243318  1
  Se  Se212  1  0.41048013  0.07912188  0.80293799  1
  Se  Se213  1  0.41787971  0.41155560  0.29979605  1
  Se  Se214  1  0.42111919  0.42668939  0.80162522  1
  Se  Se215  1  0.40899276  0.75038579  0.29935111  1
  Se  Se216  1  0.41413814  0.76301800  0.81595420  1
  Se  Se217  1  0.75979826  0.09921012  0.31296759  1
  Se  Se218  1  0.74695079  0.08146249  0.79881279  1
  Se  Se219  1  0.74763502  0.41737026  0.29866771  1
  Se  Se220  1  0.75670419  0.41516470  0.81105232  1
  Se  Se221  1  0.74987833  0.75919298  0.31449984  1
  Se  Se222  1  0.73519680  0.73261695  0.80298550  1
  Se  Se223  1  0.23452793  0.08362670  0.19211748  1
  Se  Se224  1  0.25637688  0.07871743  0.69684451  1
  Se  Se225  1  0.26311575  0.39909328  0.19709300  1
  Se  Se226  1  0.22963334  0.41698503  0.68680486  1
  Se  Se227  1  0.25572958  0.74470923  0.18852574  1
  Se  Se228  1  0.24454058  0.75866133  0.68495740  1
  Se  Se229  1  0.56969749  0.09016015  0.19515965  1
  Se  Se230  1  0.59170151  0.07772836  0.70110856  1
  Se  Se231  1  0.58670963  0.41634913  0.19936563  1
  Se  Se232  1  0.57720344  0.42023642  0.68435929  1
  Se  Se233  1  0.58547606  0.75919272  0.18995262  1
  Se  Se234  1  0.58080436  0.74627272  0.70197426  1
  Se  Se235  1  0.90392314  0.09049403  0.18785351  1
  Se  Se236  1  0.92709596  0.08168975  0.69531321  1
  Se  Se237  1  0.92076844  0.41380086  0.19418966  1
  Se  Se238  1  0.90773107  0.42516853  0.69176013  1
  Se  Se239  1  0.91321374  0.75902903  0.19200284  1
  Se  Se240  1  0.92478641  0.73770167  0.70755570  1
  Se  Se241  1  0.08046708  0.25152645  0.19802783  1
  Se  Se242  1  0.09804911  0.24042219  0.68578787  1
  Se  Se243  1  0.09815605  0.56861226  0.19264466  1
  Se  Se244  1  0.07580122  0.58638200  0.69963914  1
  Se  Se245  1  0.08650208  0.91186116  0.18579532  1
  Se  Se246  1  0.08929613  0.91991979  0.70147684  1
  Se  Se247  1  0.41082993  0.24494581  0.20186153  1
  Se  Se248  1  0.42497367  0.23969320  0.68803529  1
  Se  Se249  1  0.42400970  0.58700564  0.20004690  1
  Se  Se250  1  0.41378578  0.58333906  0.67875461  1
  Se  Se251  1  0.41705566  0.91114507  0.18498444  1
  Se  Se252  1  0.41235059  0.91749985  0.70179259  1
  Se  Se253  1  0.74250632  0.25598566  0.19444736  1
  Se  Se254  1  0.76327329  0.24000250  0.68386696  1
  Se  Se255  1  0.76435895  0.58219274  0.19122560  1
  Se  Se256  1  0.74291942  0.58397327  0.70178301  1
  Se  Se257  1  0.75089159  0.92067965  0.19019846  1
  Se  Se258  1  0.76046963  0.90900230  0.70515549  1
