# generated using pymatgen
data_In86Cu29Se144
_symmetry_space_group_name_H-M   'P 1'
_cell_length_a   17.58947970
_cell_length_b   17.58344201
_cell_length_c   23.45054318
_cell_angle_alpha   90.00630926
_cell_angle_beta   90.03143565
_cell_angle_gamma   90.00748447
_symmetry_Int_Tables_number   1
_chemical_formula_structural   In86Cu29Se144
_chemical_formula_sum   'In86 Cu29 Se144'
_cell_volume   7252.86712997
_cell_formula_units_Z   1
loop_
 _symmetry_equiv_pos_site_id
 _symmetry_equiv_pos_as_xyz
  1  'x, y, z'
loop_
 _atom_site_type_symbol
 _atom_site_label
 _atom_site_symmetry_multiplicity
 _atom_site_fract_x
 _atom_site_fract_y
 _atom_site_fract_z
 _atom_site_occupancy
  In  In0  1  -0.00589395  0.17337481  0.12782173  1
  In  In1  1  0.00022456  0.16080609  0.62311782  1
  In  In2  1  0.01642336  0.49145430  0.13620828  1
  In  In3  1  0.00460832  0.49952862  0.63363487  1
  In  In4  1  -0.01571585  0.84692160  0.13321860  1
  In  In5  1  -0.01812440  0.85141815  0.63973047  1
  In  In6  1  0.34676985  0.16783745  0.12775360  1
  In  In7  1  0.32567690  0.16229965  0.61619989  1
  In  In8  1  0.31669792  0.48225208  0.12114991  1
  In  In9  1  0.33719176  0.47983617  0.62136414  1
  In  In10  1  0.33266030  0.82492183  0.11927446  1
  In  In11  1  0.34749581  0.84200167  0.62757351  1
  In  In12  1  0.66615344  0.16777868  0.12978876  1
  In  In13  1  0.65732362  0.16121718  0.61792373  1
  In  In14  1  0.65565429  0.49462303  0.12434336  1
  In  In15  1  0.65834483  0.49231517  0.61869536  1
  In  In16  1  0.68525683  0.85121789  0.11253069  1
  In  In17  1  0.68676090  0.83740063  0.62171885  1
  In  In18  1  0.15472796  0.02365499  0.37972682  1
  In  In19  1  0.16299311  -0.00047110  0.86856311  1
  In  In20  1  0.14895431  0.30576543  0.34709885  1
  In  In21  1  0.16665391  0.34443165  0.87954103  1
  In  In22  1  0.15654070  0.66703102  0.37041964  1
  In  In23  1  0.15281639  0.66373547  0.87773329  1
  In  In24  1  0.51994568  0.00550675  0.36920774  1
  In  In25  1  0.50176152  0.00431773  0.87653609  1
  In  In26  1  0.50388024  0.32703551  0.38004039  1
  In  In27  1  0.49947094  0.32997726  0.88699658  1
  In  In28  1  0.49136234  0.66300984  0.37270676  1
  In  In29  1  0.50830432  0.66291590  0.88063420  1
  In  In30  1  0.83481293  0.00799988  0.37852946  1
  In  In31  1  0.83756536  0.00746199  0.87642589  1
  In  In32  1  0.81950103  0.31432572  0.36286077  1
  In  In33  1  0.83794975  0.31808694  0.87858495  1
  In  In34  1  0.84749200  0.66540696  0.37455439  1
  In  In35  1  0.84991240  0.67018477  0.87829089  1
  In  In36  1  -0.00596497  0.16437745  0.37040142  1
  In  In37  1  -0.00742315  0.16228270  0.87209560  1
  In  In38  1  0.00633631  0.49188892  0.35891273  1
  In  In39  1  0.00223866  0.50357477  0.87587658  1
  In  In40  1  -0.00884366  0.83740268  0.37607387  1
  In  In41  1  -0.00384510  0.83430531  0.87666783  1
  In  In42  1  0.32139707  0.18673777  0.39423880  1
  In  In43  1  0.34319182  0.16878632  0.87665917  1
  In  In44  1  0.34060652  0.48728791  0.37634214  1
  In  In45  1  0.33618746  0.49465710  0.88340830  1
  In  In46  1  0.33239010  0.82503115  0.37214165  1
  In  In47  1  0.33277230  0.84872635  0.87437310  1
  In  In48  1  0.67074516  0.16809454  0.38080230  1
  In  In49  1  0.67906324  0.15306181  0.88168561  1
  In  In50  1  0.66349717  0.47750752  0.37265551  1
  In  In51  1  0.66166736  0.48598968  0.87858116  1
  In  In52  1  0.67142946  0.85285670  0.37108431  1
  In  In53  1  0.65954677  0.84580029  0.88297448  1
  In  In54  1  0.15466878  0.00418171  0.13191565  1
  In  In55  1  0.15767989  0.01230494  0.63079918  1
  In  In56  1  0.14843585  0.34577630  0.14950107  1
  In  In57  1  0.15821631  0.30531617  0.61402591  1
  In  In58  1  0.16417940  0.65357941  0.12767627  1
  In  In59  1  0.15587569  0.66051227  0.62570606  1
  In  In60  1  0.51327614  0.01482381  0.11734110  1
  In  In61  1  0.49782835  0.01172392  0.63487622  1
  In  In62  1  0.49924831  0.33205938  0.13013257  1
  In  In63  1  0.48251995  0.31486485  0.59681489  1
  In  In64  1  0.49401785  0.66208169  0.11468889  1
  In  In65  1  0.50792802  0.66081638  0.62467900  1
  In  In66  1  0.83401644  0.00270942  0.12304180  1
  In  In67  1  0.83508285  -0.00097696  0.62666194  1
  In  In68  1  0.85082767  0.31273427  0.13076674  1
  In  In69  1  0.84933019  0.33350762  0.62196893  1
  In  In70  1  0.83768293  0.68266485  0.12234417  1
  In  In71  1  0.83562537  0.68108032  0.62519005  1
  In  In72  1  0.16667152  0.83140376  -0.00481684  1
  In  In73  1  0.32748984  0.67451116  0.75340922  1
  In  In74  1  0.83248258  0.49296035  0.49199524  1
  In  In75  1  0.50319411  0.83676165  0.49363992  1
  In  In76  1  0.16842934  0.48979951  0.48979907  1
  In  In77  1  0.67163773  0.66987109  0.74527903  1
  In  In78  1  0.83235689  0.49938949  -0.00088019  1
  In  In79  1  0.66792424  0.66932501  0.23937248  1
  In  In80  1  0.66737825  0.32977344  0.74751367  1
  In  In81  1  0.33475218  0.00253464  0.25534045  1
  In  In82  1  0.33060503  0.66205101  0.24863736  1
  In  In83  1  0.32533495  0.32745240  0.73984165  1
  In  In84  1  0.15689528  0.84211814  0.49572888  1
  In  In85  1  0.16452927  0.17123124  0.01033833  1
  Cu  Cu86  1  0.66666103  0.67075279  0.00336032  1
  Cu  Cu87  1  0.50487472  0.84656056  0.75379936  1
  Cu  Cu88  1  0.66126914  0.33175669  0.00657116  1
  Cu  Cu89  1  0.50045804  0.49245064  0.25030024  1
  Cu  Cu90  1  0.33435171  0.33490443  0.00674580  1
  Cu  Cu91  1  0.34082186  0.66136870  0.00078539  1
  Cu  Cu92  1  0.50851874  0.84306723  0.23708177  1
  Cu  Cu93  1  0.15519622  0.83773811  0.25475928  1
  Cu  Cu94  1  0.15592587  0.49963469  0.75172148  1
  Cu  Cu95  1  0.83451247  0.83770293  0.75357190  1
  Cu  Cu96  1  0.00546970  0.66483278  0.00328562  1
  Cu  Cu97  1  0.66433476  0.66053337  0.50125356  1
  Cu  Cu98  1  0.82973825  0.16205173  0.25182066  1
  Cu  Cu99  1  0.33371655  0.00191796  0.50068111  1
  Cu  Cu100  1  0.66720789  0.00492063  -0.00055044  1
  Cu  Cu101  1  0.67402387  -0.00013893  0.50061476  1
  Cu  Cu102  1  0.50406514  0.17053258  0.25390997  1
  Cu  Cu103  1  0.49569051  0.49239048  0.74771986  1
  Cu  Cu104  1  0.84083566  0.50121622  0.74929243  1
  Cu  Cu105  1  0.83587652  0.49610574  0.24922255  1
  Cu  Cu106  1  0.16419749  0.83583693  0.75529456  1
  Cu  Cu107  1  -0.00179359  0.32514981  0.49134882  1
  Cu  Cu108  1  0.50415607  0.16158322  0.75286824  1
  Cu  Cu109  1  0.83777428  0.16397579  0.74999844  1
  Cu  Cu110  1  -0.00693113  0.67211831  0.50169412  1
  Cu  Cu111  1  0.33620566  0.00035962  -0.00085131  1
  Cu  Cu112  1  0.83374222  0.84003401  0.24876059  1
  Cu  Cu113  1  0.16018023  0.16426132  0.74678052  1
  Cu  Cu114  1  0.33384124  0.65654026  0.49896035  1
  Se  Se115  1  0.06992680  0.07337123  0.05637688  1
  Se  Se116  1  0.10092201  0.10038685  0.55488993  1
  Se  Se117  1  0.08801094  0.41048669  0.06238728  1
  Se  Se118  1  0.07285785  0.40944845  0.55485196  1
  Se  Se119  1  0.08074640  0.75013985  0.06430575  1
  Se  Se120  1  0.07365512  0.75106153  0.56093738  1
  Se  Se121  1  0.41711452  0.08676451  0.05167100  1
  Se  Se122  1  0.42033511  0.07980730  0.55580280  1
  Se  Se123  1  0.42081475  0.41863628  0.05879343  1
  Se  Se124  1  0.41926878  0.42505841  0.54237179  1
  Se  Se125  1  0.41923214  0.75469409  0.04773877  1
  Se  Se126  1  0.41257568  0.74239651  0.55530989  1
  Se  Se127  1  0.74629519  0.08687368  0.05771161  1
  Se  Se128  1  0.75333876  0.08283983  0.55714608  1
  Se  Se129  1  0.75003430  0.40769813  0.06353194  1
  Se  Se130  1  0.74671183  0.40514706  0.55582683  1
  Se  Se131  1  0.75663261  0.75426969  0.04739150  1
  Se  Se132  1  0.75022002  0.74561346  0.54916476  1
  Se  Se133  1  0.25418922  0.25967506  0.06956448  1
  Se  Se134  1  0.27724152  0.27627693  0.55605618  1
  Se  Se135  1  0.25324637  0.58544372  0.05611981  1
  Se  Se136  1  0.25108597  0.58209997  0.55948180  1
  Se  Se137  1  0.25133305  0.92663115  0.05971181  1
  Se  Se138  1  0.25516492  0.91986328  0.56018305  1
  Se  Se139  1  0.57922877  0.24757240  0.06009972  1
  Se  Se140  1  0.59514215  0.25436763  0.54668847  1
  Se  Se141  1  0.58579179  0.58161101  0.05178853  1
  Se  Se142  1  0.57871705  0.57890253  0.55067518  1
  Se  Se143  1  0.58212075  0.91830796  0.05055392  1
  Se  Se144  1  0.58751105  0.92182279  0.56073898  1
  Se  Se145  1  0.91483354  0.24077765  0.04868449  1
  Se  Se146  1  0.91968609  0.24577571  0.55125853  1
  Se  Se147  1  0.92298897  0.58474872  0.06278489  1
  Se  Se148  1  0.91909998  0.58217292  0.55933815  1
  Se  Se149  1  0.90709639  0.90991107  0.05455163  1
  Se  Se150  1  0.91046238  0.91018340  0.55705622  1
  Se  Se151  1  0.08543080  0.24800470  0.43671404  1
  Se  Se152  1  0.08045755  0.25238421  0.94031913  1
  Se  Se153  1  0.06944498  0.58668349  0.44220340  1
  Se  Se154  1  0.08540181  0.57754749  0.95127047  1
  Se  Se155  1  0.06487057  0.93629430  0.44514924  1
  Se  Se156  1  0.07625879  0.92858829  0.94480777  1
  Se  Se157  1  0.43774115  0.23224455  0.45034219  1
  Se  Se158  1  0.41381981  0.24813535  0.95326743  1
  Se  Se159  1  0.41762260  0.57867097  0.44335735  1
  Se  Se160  1  0.42361083  0.57879945  0.94610597  1
  Se  Se161  1  0.40915025  0.92540120  0.43475579  1
  Se  Se162  1  0.41983762  0.91760015  0.94604641  1
  Se  Se163  1  0.75772200  0.24932779  0.44791109  1
  Se  Se164  1  0.74272869  0.25440481  0.94726358  1
  Se  Se165  1  0.74171062  0.58645693  0.43370520  1
  Se  Se166  1  0.74185219  0.59130210  0.93705270  1
  Se  Se167  1  0.75526111  0.91594401  0.44718954  1
  Se  Se168  1  0.75282249  0.92333556  0.94567177  1
  Se  Se169  1  0.24598711  0.08610711  0.45309375  1
  Se  Se170  1  0.25123310  0.08050967  0.94207497  1
  Se  Se171  1  0.24243435  0.39662438  0.42677165  1
  Se  Se172  1  0.25073313  0.41714138  0.95225827  1
  Se  Se173  1  0.25153584  0.73964062  0.44434828  1
  Se  Se174  1  0.26113517  0.73961395  0.93687809  1
  Se  Se175  1  0.58671116  0.08074686  0.44900216  1
  Se  Se176  1  0.57977787  0.08802684  0.94812381  1
  Se  Se177  1  0.57846721  0.41995947  0.44838353  1
  Se  Se178  1  0.57954798  0.41817349  0.95378274  1
  Se  Se179  1  0.59280486  0.74386033  0.43436331  1
  Se  Se180  1  0.58296386  0.75265098  0.94765859  1
  Se  Se181  1  0.90173884  0.10525049  0.44507050  1
  Se  Se182  1  0.90045829  0.10457907  0.94634843  1
  Se  Se183  1  0.92311941  0.40724214  0.43009888  1
  Se  Se184  1  0.92400092  0.40837401  0.94373046  1
  Se  Se185  1  0.91113269  0.75487910  0.44823337  1
  Se  Se186  1  0.92292314  0.75134645  0.95209803  1
  Se  Se187  1  0.26850719  0.24375653  0.30199476  1
  Se  Se188  1  0.24106105  0.24344626  0.80929738  1
  Se  Se189  1  0.24523536  0.57470021  0.31193473  1
  Se  Se190  1  0.24571438  0.57297794  0.80948336  1
  Se  Se191  1  0.23838566  0.91339662  0.31550157  1
  Se  Se192  1  0.25184749  0.92147589  0.80092642  1
  Se  Se193  1  0.59034071  0.25032872  0.30857966  1
  Se  Se194  1  0.57971779  0.24489460  0.81372912  1
  Se  Se195  1  0.57999971  0.58098963  0.30454217  1
  Se  Se196  1  0.58085071  0.57254473  0.80312544  1
  Se  Se197  1  0.58981494  0.92122275  0.29459497  1
  Se  Se198  1  0.59004917  0.92657954  0.80639747  1
  Se  Se199  1  0.91846778  0.25048592  0.29693214  1
  Se  Se200  1  0.91844281  0.25206144  0.80061067  1
  Se  Se201  1  0.91734585  0.58228708  0.30073640  1
  Se  Se202  1  0.91929786  0.58503199  0.80519950  1
  Se  Se203  1  0.91333551  0.92275428  0.30647095  1
  Se  Se204  1  0.91849473  0.92027935  0.80766476  1
  Se  Se205  1  0.08169616  0.08825864  0.29949464  1
  Se  Se206  1  0.07825829  0.08278429  0.80299898  1
  Se  Se207  1  0.09399940  0.41949382  0.29089667  1
  Se  Se208  1  0.07903420  0.41367547  0.80693935  1
  Se  Se209  1  0.07355957  0.75268349  0.30716836  1
  Se  Se210  1  0.08225743  0.75222686  0.80805201  1
  Se  Se211  1  0.42152784  0.09309562  0.31585969  1
  Se  Se212  1  0.41509621  0.08301799  0.80507922  1
  Se  Se213  1  0.42276761  0.40887475  0.30646749  1
  Se  Se214  1  0.41779388  0.41126671  0.80774321  1
  Se  Se215  1  0.42950909  0.76173017  0.29766500  1
  Se  Se216  1  0.42905974  0.75647095  0.80972630  1
  Se  Se217  1  0.74579954  0.08203061  0.30772561  1
  Se  Se218  1  0.75163464  0.08227021  0.80212062  1
  Se  Se219  1  0.74878329  0.41297388  0.29767135  1
  Se  Se220  1  0.75902982  0.42158889  0.80801263  1
  Se  Se221  1  0.75435382  0.75391871  0.30729761  1
  Se  Se222  1  0.75444128  0.75521543  0.81317885  1
  Se  Se223  1  0.24743669  0.08969958  0.19280757  1
  Se  Se224  1  0.25328676  0.08814513  0.69541292  1
  Se  Se225  1  0.25511932  0.41569627  0.20593109  1
  Se  Se226  1  0.22998783  0.42012772  0.68608365  1
  Se  Se227  1  0.23945260  0.76138586  0.19499395  1
  Se  Se228  1  0.24083860  0.76120132  0.68749071  1
  Se  Se229  1  0.58304089  0.08340914  0.19977442  1
  Se  Se230  1  0.59335074  0.08415339  0.70008455  1
  Se  Se231  1  0.58800820  0.41120827  0.19954924  1
  Se  Se232  1  0.56982893  0.41020802  0.68627278  1
  Se  Se233  1  0.58148728  0.75835776  0.17681566  1
  Se  Se234  1  0.57725030  0.76369746  0.68949729  1
  Se  Se235  1  0.91413870  0.08399202  0.19458517  1
  Se  Se236  1  0.92044942  0.08020760  0.69547101  1
  Se  Se237  1  0.91903045  0.41231208  0.19584169  1
  Se  Se238  1  0.92107075  0.41327523  0.69815098  1
  Se  Se239  1  0.91614555  0.74977766  0.20123810  1
  Se  Se240  1  0.91592838  0.74778795  0.70303490  1
  Se  Se241  1  0.09270051  0.22902133  0.19956984  1
  Se  Se242  1  0.07778139  0.25007206  0.69526233  1
  Se  Se243  1  0.07947362  0.59150885  0.20258887  1
  Se  Se244  1  0.07693296  0.59152731  0.70260086  1
  Se  Se245  1  0.07486736  0.92223571  0.20115551  1
  Se  Se246  1  0.08470052  0.92081234  0.69910303  1
  Se  Se247  1  0.41764785  0.25137827  0.20194879  1
  Se  Se248  1  0.42726150  0.24140194  0.68871205  1
  Se  Se249  1  0.42173072  0.57392428  0.18924312  1
  Se  Se250  1  0.41506094  0.57817701  0.69255351  1
  Se  Se251  1  0.41737235  0.91806070  0.18367183  1
  Se  Se252  1  0.41557592  0.92487968  0.70194946  1
  Se  Se253  1  0.75057827  0.25046020  0.19802789  1
  Se  Se254  1  0.75883261  0.24368635  0.68716663  1
  Se  Se255  1  0.76048832  0.57581695  0.18456914  1
  Se  Se256  1  0.75684669  0.57254570  0.68557082  1
  Se  Se257  1  0.74940822  0.92197566  0.19558082  1
  Se  Se258  1  0.75044188  0.91867482  0.69927019  1
