# generated using pymatgen
data_In86Cu29Se144
_symmetry_space_group_name_H-M   'P 1'
_cell_length_a   17.58088566
_cell_length_b   17.58036942
_cell_length_c   23.43252590
_cell_angle_alpha   89.98546714
_cell_angle_beta   90.00430171
_cell_angle_gamma   90.03517638
_symmetry_Int_Tables_number   1
_chemical_formula_structural   In86Cu29Se144
_chemical_formula_sum   'In86 Cu29 Se144'
_cell_volume   7242.48750989
_cell_formula_units_Z   1
loop_
 _symmetry_equiv_pos_site_id
 _symmetry_equiv_pos_as_xyz
  1  'x, y, z'
loop_
 _atom_site_type_symbol
 _atom_site_label
 _atom_site_symmetry_multiplicity
 _atom_site_fract_x
 _atom_site_fract_y
 _atom_site_fract_z
 _atom_site_occupancy
  In  In0  1  -0.01094127  0.18326163  0.12591003  1
  In  In1  1  -0.00812579  0.17936178  0.63018663  1
  In  In2  1  -0.01546870  0.51011307  0.13045038  1
  In  In3  1  -0.02047084  0.51208082  0.64020967  1
  In  In4  1  -0.00333739  0.81356642  0.11778834  1
  In  In5  1  -0.00591491  0.82145908  0.61495451  1
  In  In6  1  0.34615049  0.15664505  0.13444956  1
  In  In7  1  0.33978451  0.15941079  0.62795178  1
  In  In8  1  0.33264814  0.48806332  0.13151049  1
  In  In9  1  0.34678776  0.49457698  0.62402627  1
  In  In10  1  0.34106579  0.84328717  0.12383473  1
  In  In11  1  0.34237249  0.84428312  0.61687260  1
  In  In12  1  0.68139840  0.18665886  0.10373931  1
  In  In13  1  0.67136402  0.17769994  0.60768031  1
  In  In14  1  0.67032240  0.49926586  0.12609323  1
  In  In15  1  0.68462749  0.51417925  0.59345733  1
  In  In16  1  0.65330789  0.83384109  0.12987375  1
  In  In17  1  0.67575577  0.82753519  0.60947668  1
  In  In18  1  0.17088546  -0.01321509  0.37450506  1
  In  In19  1  0.16724445  -0.01708525  0.87387803  1
  In  In20  1  0.16487927  0.32805178  0.36560643  1
  In  In21  1  0.15652741  0.34604165  0.87825167  1
  In  In22  1  0.16308132  0.68237054  0.37591901  1
  In  In23  1  0.16386665  0.67775000  0.87637998  1
  In  In24  1  0.49527190  0.00490699  0.37519282  1
  In  In25  1  0.49585911  0.01468798  0.87955945  1
  In  In26  1  0.50776146  0.33672439  0.37083077  1
  In  In27  1  0.51565295  0.32123894  0.89699026  1
  In  In28  1  0.52150105  0.64726575  0.39335107  1
  In  In29  1  0.51295462  0.66074000  0.88583258  1
  In  In30  1  0.82095481  0.00961784  0.38458842  1
  In  In31  1  0.83886178  0.00863039  0.87744191  1
  In  In32  1  0.82846183  0.33315975  0.37520162  1
  In  In33  1  0.83579638  0.33169833  0.87551233  1
  In  In34  1  0.82977561  0.65773410  0.37510221  1
  In  In35  1  0.83489823  0.65622210  0.87256204  1
  In  In36  1  -0.01536038  0.17318973  0.37616659  1
  In  In37  1  -0.01808282  0.17999081  0.87780303  1
  In  In38  1  -0.01635388  0.48565816  0.36979348  1
  In  In39  1  -0.01342476  0.49719517  0.86345900  1
  In  In40  1  0.00426207  0.82613335  0.37720614  1
  In  In41  1  0.01040465  0.83435763  0.87587056  1
  In  In42  1  0.34541343  0.17196952  0.36144982  1
  In  In43  1  0.34767793  0.16422262  0.87305628  1
  In  In44  1  0.34753858  0.49484285  0.37079020  1
  In  In45  1  0.34539335  0.50256297  0.87795483  1
  In  In46  1  0.33260432  0.83831411  0.37425841  1
  In  In47  1  0.33097594  0.83803809  0.87411295  1
  In  In48  1  0.65200356  0.18481067  0.38922576  1
  In  In49  1  0.67330000  0.16677261  0.88978721  1
  In  In50  1  0.67243160  0.49987937  0.37795467  1
  In  In51  1  0.68265788  0.47593498  0.90018739  1
  In  In52  1  0.67897274  0.81530841  0.38832231  1
  In  In53  1  0.66525561  0.82103297  0.87926898  1
  In  In54  1  0.17913089  -0.00358635  0.12585809  1
  In  In55  1  0.18102849  0.00363282  0.62851587  1
  In  In56  1  0.15814070  0.34117451  0.13905568  1
  In  In57  1  0.16021351  0.32173818  0.62617180  1
  In  In58  1  0.14745220  0.66804032  0.12215006  1
  In  In59  1  0.15058630  0.66498742  0.62373295  1
  In  In60  1  0.50175996  -0.00738717  0.12106424  1
  In  In61  1  0.49931524  -0.00268957  0.62053151  1
  In  In62  1  0.50644195  0.33213198  0.12574392  1
  In  In63  1  0.52658076  0.34746596  0.60137131  1
  In  In64  1  0.50545906  0.67749160  0.12620757  1
  In  In65  1  0.51022484  0.66735281  0.61111989  1
  In  In66  1  0.81475267  0.01306548  0.12231036  1
  In  In67  1  0.83811139  -0.00128072  0.61878095  1
  In  In68  1  0.82632287  0.34224231  0.12251506  1
  In  In69  1  0.83209178  0.33856938  0.61761321  1
  In  In70  1  0.84401621  0.65281682  0.13281584  1
  In  In71  1  0.83575838  0.66983289  0.61588357  1
  In  In72  1  0.33669480  0.32794528  0.74813745  1
  In  In73  1  0.33469146  0.66845243  0.25423584  1
  In  In74  1  0.66636291  0.65769510  0.73881379  1
  In  In75  1  0.67079491  0.33581978  0.74927934  1
  In  In76  1  0.17319004  0.16342545  0.00994565  1
  In  In77  1  0.33103171  0.66641811  0.75170470  1
  In  In78  1  0.16981154  0.50645973  0.00111252  1
  In  In79  1  0.00066702  -0.00163227  0.25747837  1
  In  In80  1  0.16613596  0.50148602  0.50354096  1
  In  In81  1  0.16427741  0.16189490  0.50723627  1
  In  In82  1  0.00390257  0.00135262  0.75063009  1
  In  In83  1  0.66445335  0.00532404  0.75688196  1
  In  In84  1  0.82854813  0.83779061  0.00030826  1
  In  In85  1  0.65825066  0.00435742  0.24987079  1
  Cu  Cu86  1  0.82942505  0.17807390  0.24987074  1
  Cu  Cu87  1  -0.00270998  0.66307236  0.49678155  1
  Cu  Cu88  1  0.34011438  0.32867141  0.01061284  1
  Cu  Cu89  1  0.16540377  0.16498584  0.75227716  1
  Cu  Cu90  1  -0.00123438  0.00223358  -0.00216793  1
  Cu  Cu91  1  0.16094814  0.50179706  0.25081801  1
  Cu  Cu92  1  0.15753796  0.49646850  0.74962605  1
  Cu  Cu93  1  0.34260961  0.33245178  0.49164464  1
  Cu  Cu94  1  0.83351237  0.82538547  0.25419292  1
  Cu  Cu95  1  0.16887549  0.16534624  0.24608476  1
  Cu  Cu96  1  -0.00800565  0.33869738  0.00256353  1
  Cu  Cu97  1  0.50710121  0.49499140  0.75304079  1
  Cu  Cu98  1  0.50104124  0.83023811  0.25389861  1
  Cu  Cu99  1  0.33949354  0.67374168  0.00302185  1
  Cu  Cu100  1  0.82998846  0.49631719  0.25125787  1
  Cu  Cu101  1  0.33089417  0.67367449  0.49420162  1
  Cu  Cu102  1  0.33297773  -0.00921119  -0.00003641  1
  Cu  Cu103  1  0.66539036  -0.00467670  0.49965021  1
  Cu  Cu104  1  0.50785746  0.17061254  0.24705307  1
  Cu  Cu105  1  0.16748577  0.83086999  0.75042806  1
  Cu  Cu106  1  0.16570364  0.83233094  0.25112048  1
  Cu  Cu107  1  0.49410009  0.83764064  0.74639691  1
  Cu  Cu108  1  -0.00782526  0.33792783  0.50149487  1
  Cu  Cu109  1  0.66620238  0.66741890  0.00684012  1
  Cu  Cu110  1  0.51054553  0.49592941  0.25244402  1
  Cu  Cu111  1  0.33132206  0.00266054  0.49932994  1
  Cu  Cu112  1  0.83395698  0.83123211  0.74093933  1
  Cu  Cu113  1  0.50189301  0.16731119  0.74754338  1
  Cu  Cu114  1  -0.00110379  -0.00862111  0.49906424  1
  Se  Se115  1  0.07379423  0.07843381  0.06631300  1
  Se  Se116  1  0.07089549  0.07290570  0.56583488  1
  Se  Se117  1  0.07845890  0.41520300  0.06026117  1
  Se  Se118  1  0.07552235  0.41300812  0.56334586  1
  Se  Se119  1  0.08791099  0.75306875  0.04542340  1
  Se  Se120  1  0.08518702  0.74693894  0.54627549  1
  Se  Se121  1  0.41124322  0.07546827  0.05618979  1
  Se  Se122  1  0.41634678  0.08368569  0.55285734  1
  Se  Se123  1  0.41907831  0.41940600  0.05946691  1
  Se  Se124  1  0.41897485  0.42020271  0.54696351  1
  Se  Se125  1  0.42197772  0.75743646  0.05642608  1
  Se  Se126  1  0.41650430  0.75092147  0.55214869  1
  Se  Se127  1  0.75238639  0.08712661  0.04161438  1
  Se  Se128  1  0.75183046  0.07844301  0.55162619  1
  Se  Se129  1  0.75745280  0.43245141  0.05183074  1
  Se  Se130  1  0.72025614  0.38357621  0.55310937  1
  Se  Se131  1  0.74896904  0.74635187  0.06687513  1
  Se  Se132  1  0.73408216  0.72343612  0.54638456  1
  Se  Se133  1  0.25366574  0.25847645  0.07182904  1
  Se  Se134  1  0.26295561  0.25830009  0.55691872  1
  Se  Se135  1  0.26068022  0.59335557  0.06511782  1
  Se  Se136  1  0.26017485  0.59260424  0.56211373  1
  Se  Se137  1  0.24681708  0.90997222  0.05228325  1
  Se  Se138  1  0.24650144  0.92002377  0.55211720  1
  Se  Se139  1  0.56645259  0.24154731  0.05036642  1
  Se  Se140  1  0.56490293  0.23020396  0.54365338  1
  Se  Se141  1  0.58243655  0.58592052  0.06100715  1
  Se  Se142  1  0.56613614  0.56752334  0.54413132  1
  Se  Se143  1  0.59365870  0.91935061  0.05430187  1
  Se  Se144  1  0.58162844  0.91280567  0.55311552  1
  Se  Se145  1  0.90697145  0.25345654  0.05193217  1
  Se  Se146  1  0.91360328  0.24678100  0.55219442  1
  Se  Se147  1  0.92611831  0.59455541  0.05274264  1
  Se  Se148  1  0.91882035  0.57771996  0.55262126  1
  Se  Se149  1  0.91888108  0.92700304  0.06391075  1
  Se  Se150  1  0.91174893  0.90874318  0.55034300  1
  Se  Se151  1  0.07892627  0.25728732  0.44592483  1
  Se  Se152  1  0.08056280  0.25504542  0.94989788  1
  Se  Se153  1  0.07789593  0.58263379  0.43613451  1
  Se  Se154  1  0.07787706  0.58314421  0.93544856  1
  Se  Se155  1  0.08498955  0.91346231  0.44508947  1
  Se  Se156  1  0.08366324  0.91672197  0.95019593  1
  Se  Se157  1  0.42086445  0.24831262  0.43673698  1
  Se  Se158  1  0.41343967  0.24287221  0.95185931  1
  Se  Se159  1  0.40911366  0.58119756  0.44660939  1
  Se  Se160  1  0.41778195  0.58549436  0.95044858  1
  Se  Se161  1  0.41390128  0.92058346  0.44419362  1
  Se  Se162  1  0.41875669  0.91677276  0.94126214  1
  Se  Se163  1  0.77508563  0.22438765  0.43951179  1
  Se  Se164  1  0.72478274  0.28604716  0.94047960  1
  Se  Se165  1  0.74352651  0.58966837  0.44984274  1
  Se  Se166  1  0.75013352  0.59058683  0.94854313  1
  Se  Se167  1  0.75407076  0.91204600  0.45088238  1
  Se  Se168  1  0.74084408  0.92687838  0.93772103  1
  Se  Se169  1  0.25379271  0.08503900  0.43785220  1
  Se  Se170  1  0.25413919  0.07625597  0.94015399  1
  Se  Se171  1  0.25163725  0.41008473  0.43915993  1
  Se  Se172  1  0.26202981  0.40710424  0.94642394  1
  Se  Se173  1  0.24757407  0.75868096  0.44531876  1
  Se  Se174  1  0.25582328  0.74890639  0.94354205  1
  Se  Se175  1  0.58264680  0.07861509  0.44595988  1
  Se  Se176  1  0.58076786  0.08779289  0.94941365  1
  Se  Se177  1  0.58570471  0.41538354  0.44299817  1
  Se  Se178  1  0.55683357  0.44197016  0.94900630  1
  Se  Se179  1  0.56293834  0.76847367  0.44607483  1
  Se  Se180  1  0.58324794  0.75339738  0.95534884  1
  Se  Se181  1  0.92105280  0.08089564  0.44761979  1
  Se  Se182  1  0.91571973  0.08961886  0.95026667  1
  Se  Se183  1  0.90635403  0.41858423  0.44890795  1
  Se  Se184  1  0.91647345  0.42051534  0.94264551  1
  Se  Se185  1  0.91512170  0.74571407  0.44176309  1
  Se  Se186  1  0.91810783  0.74941355  0.93942054  1
  Se  Se187  1  0.25261303  0.25099580  0.29830557  1
  Se  Se188  1  0.24258439  0.24755941  0.81514536  1
  Se  Se189  1  0.24163115  0.57796363  0.31392884  1
  Se  Se190  1  0.24228782  0.57119783  0.81067050  1
  Se  Se191  1  0.25305840  0.91635856  0.29895286  1
  Se  Se192  1  0.25307612  0.91622700  0.79885088  1
  Se  Se193  1  0.59148982  0.25147198  0.30204937  1
  Se  Se194  1  0.57956713  0.24448774  0.81091969  1
  Se  Se195  1  0.58738705  0.58344187  0.30750317  1
  Se  Se196  1  0.58878085  0.57445438  0.81254058  1
  Se  Se197  1  0.58400093  0.90839742  0.31491304  1
  Se  Se198  1  0.57679643  0.90794352  0.81138040  1
  Se  Se199  1  0.91754066  0.25769284  0.30189529  1
  Se  Se200  1  0.91464678  0.25616789  0.80077926  1
  Se  Se201  1  0.91527651  0.58172575  0.30280430  1
  Se  Se202  1  0.91660020  0.59157428  0.79657887  1
  Se  Se203  1  0.90362891  0.91372226  0.31523159  1
  Se  Se204  1  0.90824547  0.90908792  0.80739425  1
  Se  Se205  1  0.09094872  0.09266936  0.31478048  1
  Se  Se206  1  0.08698512  0.09052873  0.81793896  1
  Se  Se207  1  0.07907544  0.41442172  0.30311682  1
  Se  Se208  1  0.07625917  0.41059493  0.80106097  1
  Se  Se209  1  0.07894653  0.74866645  0.29960877  1
  Se  Se210  1  0.08116867  0.74970420  0.80134589  1
  Se  Se211  1  0.42413542  0.08140070  0.29584483  1
  Se  Se212  1  0.41834399  0.08171754  0.79814770  1
  Se  Se213  1  0.42004156  0.41213736  0.29836638  1
  Se  Se214  1  0.42856504  0.41240413  0.81175580  1
  Se  Se215  1  0.42812859  0.74689619  0.31746452  1
  Se  Se216  1  0.42880312  0.74891752  0.81048398  1
  Se  Se217  1  0.74955513  0.09474591  0.30860857  1
  Se  Se218  1  0.75818488  0.09903661  0.80903450  1
  Se  Se219  1  0.74628777  0.41391538  0.30480445  1
  Se  Se220  1  0.75612321  0.43143997  0.80812477  1
  Se  Se221  1  0.74689451  0.74435077  0.30588108  1
  Se  Se222  1  0.75177891  0.75359708  0.80164525  1
  Se  Se223  1  0.25250720  0.07810498  0.19882977  1
  Se  Se224  1  0.25420185  0.08728011  0.70137301  1
  Se  Se225  1  0.24978459  0.41684963  0.20551675  1
  Se  Se226  1  0.24366574  0.42280445  0.68981246  1
  Se  Se227  1  0.24535912  0.75231253  0.18858713  1
  Se  Se228  1  0.24660656  0.75394523  0.68602335  1
  Se  Se229  1  0.58443023  0.09495571  0.18108698  1
  Se  Se230  1  0.58518019  0.09131194  0.68657071  1
  Se  Se231  1  0.58982327  0.41333908  0.19562137  1
  Se  Se232  1  0.58715836  0.42751185  0.68545665  1
  Se  Se233  1  0.58616490  0.74648706  0.20404427  1
  Se  Se234  1  0.57781557  0.76037760  0.68732352  1
  Se  Se235  1  0.90784271  0.08724382  0.19568793  1
  Se  Se236  1  0.90659143  0.08722902  0.69589393  1
  Se  Se237  1  0.91426002  0.41397541  0.19592524  1
  Se  Se238  1  0.92094181  0.39931121  0.69332351  1
  Se  Se239  1  0.91963239  0.74879058  0.19839643  1
  Se  Se240  1  0.91621446  0.74609302  0.69045294  1
  Se  Se241  1  0.07775827  0.24710790  0.20006426  1
  Se  Se242  1  0.08184962  0.24896245  0.70175497  1
  Se  Se243  1  0.07912939  0.58485520  0.19732325  1
  Se  Se244  1  0.07939330  0.58733839  0.70015985  1
  Se  Se245  1  0.08298110  0.91091507  0.18973639  1
  Se  Se246  1  0.08701946  0.90901051  0.68695543  1
  Se  Se247  1  0.41933302  0.25371686  0.19708092  1
  Se  Se248  1  0.43378359  0.25443470  0.68372557  1
  Se  Se249  1  0.42488632  0.57711074  0.19490175  1
  Se  Se250  1  0.43005715  0.58076585  0.69416143  1
  Se  Se251  1  0.42343251  0.91625616  0.19826877  1
  Se  Se252  1  0.41378676  0.92285061  0.69433807  1
  Se  Se253  1  0.74556645  0.25245857  0.18999912  1
  Se  Se254  1  0.75381356  0.24152931  0.68871845  1
  Se  Se255  1  0.74838596  0.58333619  0.19912242  1
  Se  Se256  1  0.75864740  0.56785485  0.68284077  1
  Se  Se257  1  0.75698674  0.91134275  0.19524141  1
  Se  Se258  1  0.74876780  0.91328462  0.68906961  1
