# generated using pymatgen
data_In86Cu29Se144
_symmetry_space_group_name_H-M   'P 1'
_cell_length_a   17.57910185
_cell_length_b   17.58021347
_cell_length_c   23.45143555
_cell_angle_alpha   90.02715317
_cell_angle_beta   89.99862103
_cell_angle_gamma   90.02187283
_symmetry_Int_Tables_number   1
_chemical_formula_structural   In86Cu29Se144
_chemical_formula_sum   'In86 Cu29 Se144'
_cell_volume   7247.53261809
_cell_formula_units_Z   1
loop_
 _symmetry_equiv_pos_site_id
 _symmetry_equiv_pos_as_xyz
  1  'x, y, z'
loop_
 _atom_site_type_symbol
 _atom_site_label
 _atom_site_symmetry_multiplicity
 _atom_site_fract_x
 _atom_site_fract_y
 _atom_site_fract_z
 _atom_site_occupancy
  In  In0  1  0.00326951  0.16816037  0.12145316  1
  In  In1  1  0.01055154  0.16568571  0.62043509  1
  In  In2  1  -0.00821191  0.50175141  0.13390286  1
  In  In3  1  0.01630305  0.50539222  0.60502413  1
  In  In4  1  -0.00534406  0.83360430  0.12940124  1
  In  In5  1  -0.01224067  0.83115481  0.62574712  1
  In  In6  1  0.33938973  0.17012985  0.11755129  1
  In  In7  1  0.32817474  0.17033972  0.63696928  1
  In  In8  1  0.32643919  0.50463345  0.13536090  1
  In  In9  1  0.32056871  0.51122376  0.62732186  1
  In  In10  1  0.34032952  0.82112536  0.12424639  1
  In  In11  1  0.34666704  0.81487486  0.63587823  1
  In  In12  1  0.67019484  0.17098353  0.11588666  1
  In  In13  1  0.66719460  0.16450870  0.63464722  1
  In  In14  1  0.67262714  0.49762808  0.13214669  1
  In  In15  1  0.67443987  0.49193202  0.62917607  1
  In  In16  1  0.66471239  0.83102835  0.11807330  1
  In  In17  1  0.65284000  0.84064097  0.63115056  1
  In  In18  1  0.17639537  0.00445837  0.37981640  1
  In  In19  1  0.17883146  0.00431285  0.86964535  1
  In  In20  1  0.16921257  0.33498178  0.37927206  1
  In  In21  1  0.16822316  0.32290413  0.87618835  1
  In  In22  1  0.15578584  0.65914784  0.36827914  1
  In  In23  1  0.17262524  0.68568325  0.85396652  1
  In  In24  1  0.49299989  -0.00183571  0.38193937  1
  In  In25  1  0.50013061  -0.00128236  0.87589655  1
  In  In26  1  0.50343467  0.33987555  0.36487979  1
  In  In27  1  0.49009819  0.32894261  0.86982735  1
  In  In28  1  0.50406696  0.67229174  0.37424618  1
  In  In29  1  0.50931175  0.67422170  0.86938868  1
  In  In30  1  0.83500337  -0.00099277  0.37327104  1
  In  In31  1  0.82084172  0.00897630  0.88062161  1
  In  In32  1  0.84727810  0.34594810  0.35656793  1
  In  In33  1  0.82149502  0.33079695  0.87714200  1
  In  In34  1  0.82093650  0.65981339  0.36839871  1
  In  In35  1  0.84027953  0.67749531  0.87078899  1
  In  In36  1  -0.00087579  0.21113854  0.37584673  1
  In  In37  1  -0.00164818  0.16638568  0.88691347  1
  In  In38  1  -0.00361151  0.49278934  0.38139311  1
  In  In39  1  -0.00668081  0.51323572  0.87518619  1
  In  In40  1  0.00159980  0.81769959  0.36427413  1
  In  In41  1  0.00264125  0.82060261  0.87386648  1
  In  In42  1  0.32038673  0.17051965  0.37991265  1
  In  In43  1  0.33599473  0.16752725  0.87609022  1
  In  In44  1  0.32932089  0.49449898  0.37345649  1
  In  In45  1  0.33255060  0.50399178  0.86405518  1
  In  In46  1  0.34100737  0.83568926  0.37671081  1
  In  In47  1  0.34422191  0.84596581  0.86259667  1
  In  In48  1  0.65952823  0.16985370  0.36924992  1
  In  In49  1  0.66289668  0.16417220  0.87561120  1
  In  In50  1  0.67317402  0.50857946  0.37234427  1
  In  In51  1  0.66283652  0.49673022  0.86417503  1
  In  In52  1  0.67165644  0.81903984  0.37683380  1
  In  In53  1  0.66516687  0.83385502  0.87638812  1
  In  In54  1  0.15737522  0.00808504  0.12142609  1
  In  In55  1  0.16770711  0.00969886  0.62683781  1
  In  In56  1  0.17367938  0.32408360  0.13355369  1
  In  In57  1  0.17694609  0.34524765  0.61078968  1
  In  In58  1  0.16873206  0.67041161  0.14198672  1
  In  In59  1  0.18000072  0.65456516  0.63091912  1
  In  In60  1  0.50170665  0.00004860  0.11115372  1
  In  In61  1  0.51172713  -0.01833767  0.63270113  1
  In  In62  1  0.50584884  0.32773740  0.12982744  1
  In  In63  1  0.50482282  0.32536072  0.63510053  1
  In  In64  1  0.49615447  0.67171189  0.12718842  1
  In  In65  1  0.49005858  0.67875767  0.62797939  1
  In  In66  1  0.83075763  -0.00578377  0.11607285  1
  In  In67  1  0.82405600  -0.00661017  0.62892087  1
  In  In68  1  0.84181971  0.31810613  0.13972711  1
  In  In69  1  0.82542332  0.33245108  0.62431753  1
  In  In70  1  0.82516209  0.67994295  0.13900317  1
  In  In71  1  0.83993379  0.65433795  0.62923568  1
  In  In72  1  0.66991036  0.00056801  0.24373057  1
  In  In73  1  0.16952802  0.83981119  -0.00319761  1
  In  In74  1  0.16526615  0.50394328  0.00586622  1
  In  In75  1  0.49322919  0.50694012  0.50465533  1
  In  In76  1  0.83356962  0.17061564  0.50055440  1
  In  In77  1  0.83263047  0.49727286  0.00234437  1
  In  In78  1  0.00268898  0.34010423  0.74638619  1
  In  In79  1  0.16962463  0.82967450  0.50024955  1
  In  In80  1  0.50118755  0.49583548  0.00511115  1
  In  In81  1  0.00398121  0.00011564  0.24903896  1
  In  In82  1  0.33248942  -0.00086320  0.25610097  1
  In  In83  1  0.82789394  0.83349810  0.50049889  1
  In  In84  1  -0.00281857  -0.00493721  0.74856703  1
  In  In85  1  0.49876145  0.16317862  0.50396934  1
  Cu  Cu86  1  0.33926256  -0.00603311  0.50605514  1
  Cu  Cu87  1  0.83330147  0.49871741  0.25397567  1
  Cu  Cu88  1  0.49803790  0.50852662  0.25170541  1
  Cu  Cu89  1  0.16142460  0.49256492  0.25697520  1
  Cu  Cu90  1  -0.00516662  0.00176884  0.00173830  1
  Cu  Cu91  1  0.33231660  0.33546074  0.50301189  1
  Cu  Cu92  1  0.00218393  0.67050787  -0.00136239  1
  Cu  Cu93  1  0.50007241  0.83049985  0.75424315  1
  Cu  Cu94  1  0.17671434  0.16893822  0.75161950  1
  Cu  Cu95  1  0.49635953  0.17627334  0.24489334  1
  Cu  Cu96  1  0.82187077  0.83279044  0.75165164  1
  Cu  Cu97  1  0.83399374  0.50342944  0.74962568  1
  Cu  Cu98  1  0.33394144  0.00299517  -0.00790899  1
  Cu  Cu99  1  0.00199275  0.66127761  0.49826210  1
  Cu  Cu100  1  0.66483173  0.32219112  0.00128756  1
  Cu  Cu101  1  -0.00128196  0.32645690  0.00715340  1
  Cu  Cu102  1  0.67407377  0.34088259  0.49778226  1
  Cu  Cu103  1  0.00686055  0.00908777  0.49431649  1
  Cu  Cu104  1  0.34236052  0.67373007  -0.00231170  1
  Cu  Cu105  1  0.16420817  0.17256711  0.25366231  1
  Cu  Cu106  1  0.82893170  0.16894886  0.75335122  1
  Cu  Cu107  1  0.32937255  0.32734548  0.00074700  1
  Cu  Cu108  1  0.67430787  0.67066464  -0.00239441  1
  Cu  Cu109  1  0.50639895  0.83127349  0.24877095  1
  Cu  Cu110  1  0.66428393  -0.00480656  -0.00488886  1
  Cu  Cu111  1  0.16479505  0.50003848  0.74052243  1
  Cu  Cu112  1  0.49815794  0.16133447  0.75644124  1
  Cu  Cu113  1  0.49929826  0.50105263  0.74302199  1
  Cu  Cu114  1  0.66691884  0.66663655  0.49892969  1
  Se  Se115  1  0.08259628  0.08708319  0.04821021  1
  Se  Se116  1  0.09182810  0.08554717  0.55021322  1
  Se  Se117  1  0.07564861  0.41201446  0.06390668  1
  Se  Se118  1  0.07846706  0.40323412  0.54309199  1
  Se  Se119  1  0.08770471  0.74484452  0.05967178  1
  Se  Se120  1  0.07477299  0.74469142  0.56041035  1
  Se  Se121  1  0.41695014  0.08576489  0.04759323  1
  Se  Se122  1  0.41445350  0.07638042  0.56903814  1
  Se  Se123  1  0.40351979  0.41202578  0.06283210  1
  Se  Se124  1  0.41476600  0.40827192  0.56599763  1
  Se  Se125  1  0.42729418  0.75481841  0.04989388  1
  Se  Se126  1  0.41129916  0.74819268  0.55161699  1
  Se  Se127  1  0.74622419  0.07848010  0.05113951  1
  Se  Se128  1  0.74226449  0.07848794  0.55814169  1
  Se  Se129  1  0.74554353  0.40398374  0.06081533  1
  Se  Se130  1  0.75625312  0.42211477  0.55220756  1
  Se  Se131  1  0.75791049  0.74873155  0.05478781  1
  Se  Se132  1  0.74448956  0.74451170  0.56490149  1
  Se  Se133  1  0.24321168  0.24724428  0.05422444  1
  Se  Se134  1  0.25760338  0.24332173  0.55637881  1
  Se  Se135  1  0.25875015  0.59876644  0.05918008  1
  Se  Se136  1  0.24169023  0.57765107  0.55009333  1
  Se  Se137  1  0.26051076  0.92614099  0.06107355  1
  Se  Se138  1  0.25550973  0.91636674  0.56530867  1
  Se  Se139  1  0.57274998  0.24595868  0.05210375  1
  Se  Se140  1  0.59559481  0.25733303  0.55718577  1
  Se  Se141  1  0.59600225  0.58869209  0.05853685  1
  Se  Se142  1  0.58977421  0.58941803  0.56430656  1
  Se  Se143  1  0.58168360  0.91012290  0.04770328  1
  Se  Se144  1  0.58545854  0.91585279  0.55196646  1
  Se  Se145  1  0.90912314  0.24701483  0.05665212  1
  Se  Se146  1  0.92693637  0.25913123  0.55860953  1
  Se  Se147  1  0.92178071  0.59123155  0.05860494  1
  Se  Se148  1  0.91203932  0.58162936  0.54974111  1
  Se  Se149  1  0.92027795  0.91017876  0.05336026  1
  Se  Se150  1  0.92308957  0.93184943  0.55379942  1
  Se  Se151  1  0.10434957  0.23540276  0.44689728  1
  Se  Se152  1  0.08560202  0.25136301  0.95009813  1
  Se  Se153  1  0.08507781  0.57917811  0.44487088  1
  Se  Se154  1  0.08770659  0.59703338  0.93808925  1
  Se  Se155  1  0.07510764  0.91611512  0.43674868  1
  Se  Se156  1  0.07529935  0.92714242  0.93676585  1
  Se  Se157  1  0.41719375  0.26021055  0.44170531  1
  Se  Se158  1  0.41790173  0.25080423  0.94677305  1
  Se  Se159  1  0.40844758  0.59164584  0.43984594  1
  Se  Se160  1  0.41508968  0.58441663  0.94017940  1
  Se  Se161  1  0.42036965  0.91120352  0.45216262  1
  Se  Se162  1  0.41592771  0.91337330  0.94459484  1
  Se  Se163  1  0.74561950  0.25648292  0.43604329  1
  Se  Se164  1  0.75066202  0.24268840  0.94693719  1
  Se  Se165  1  0.75163670  0.58324190  0.44824514  1
  Se  Se166  1  0.74578209  0.58379410  0.93709107  1
  Se  Se167  1  0.74056585  0.92660615  0.44151007  1
  Se  Se168  1  0.75219939  0.91148799  0.94656080  1
  Se  Se169  1  0.25749820  0.07934297  0.45335272  1
  Se  Se170  1  0.24716855  0.08749371  0.94482155  1
  Se  Se171  1  0.25143422  0.41928755  0.44921752  1
  Se  Se172  1  0.25630632  0.41703833  0.94260038  1
  Se  Se173  1  0.25185027  0.74164239  0.43587048  1
  Se  Se174  1  0.25723611  0.74744866  0.93709114  1
  Se  Se175  1  0.59278146  0.07781581  0.44372187  1
  Se  Se176  1  0.58069755  0.08254336  0.94570579  1
  Se  Se177  1  0.58443646  0.41701181  0.44295800  1
  Se  Se178  1  0.59054616  0.40932694  0.94157537  1
  Se  Se179  1  0.58296274  0.75119229  0.44903925  1
  Se  Se180  1  0.58361523  0.74854975  0.94666694  1
  Se  Se181  1  0.92590234  0.08727597  0.43465327  1
  Se  Se182  1  0.90953216  0.08529956  0.94995427  1
  Se  Se183  1  0.91089027  0.40412319  0.44357036  1
  Se  Se184  1  0.92674307  0.40806379  0.94155054  1
  Se  Se185  1  0.91961580  0.74365425  0.44144456  1
  Se  Se186  1  0.91569437  0.75304682  0.94821976  1
  Se  Se187  1  0.25190948  0.25353195  0.30559564  1
  Se  Se188  1  0.25668224  0.25473436  0.80511934  1
  Se  Se189  1  0.24832788  0.57860397  0.30434106  1
  Se  Se190  1  0.24756898  0.58397532  0.79648688  1
  Se  Se191  1  0.23906612  0.90639453  0.30880042  1
  Se  Se192  1  0.22825750  0.89682114  0.80710188  1
  Se  Se193  1  0.58469258  0.25393717  0.29814507  1
  Se  Se194  1  0.58217790  0.24904076  0.80636176  1
  Se  Se195  1  0.58480880  0.58812929  0.30570901  1
  Se  Se196  1  0.58130220  0.58327684  0.79974864  1
  Se  Se197  1  0.57973102  0.91653718  0.30998417  1
  Se  Se198  1  0.58299762  0.91611439  0.80659047  1
  Se  Se199  1  0.90543833  0.23740187  0.29597697  1
  Se  Se200  1  0.91641570  0.24618578  0.80887245  1
  Se  Se201  1  0.91724544  0.57857382  0.31014832  1
  Se  Se202  1  0.91723244  0.58892370  0.80104967  1
  Se  Se203  1  0.90839345  0.90711169  0.30398351  1
  Se  Se204  1  0.90538655  0.91257713  0.81223508  1
  Se  Se205  1  0.08674245  0.09030252  0.31469869  1
  Se  Se206  1  0.08321366  0.09480299  0.80673179  1
  Se  Se207  1  0.07876833  0.40964453  0.31026003  1
  Se  Se208  1  0.09108653  0.42772595  0.81237228  1
  Se  Se209  1  0.08844665  0.74807625  0.29518740  1
  Se  Se210  1  0.06493209  0.74383318  0.79431182  1
  Se  Se211  1  0.42389286  0.09614953  0.31105742  1
  Se  Se212  1  0.41222436  0.07820676  0.80750142  1
  Se  Se213  1  0.41506498  0.42010249  0.30099073  1
  Se  Se214  1  0.41740599  0.41885104  0.80040643  1
  Se  Se215  1  0.41999675  0.75485591  0.30486224  1
  Se  Se216  1  0.41344086  0.74284841  0.80210234  1
  Se  Se217  1  0.75816050  0.09091798  0.30485590  1
  Se  Se218  1  0.74575845  0.08293371  0.80337407  1
  Se  Se219  1  0.74065221  0.41671188  0.30114306  1
  Se  Se220  1  0.75490486  0.41507492  0.80203078  1
  Se  Se221  1  0.75333341  0.75510570  0.30117828  1
  Se  Se222  1  0.74257175  0.74603998  0.80570641  1
  Se  Se223  1  0.24408896  0.08992812  0.19358572  1
  Se  Se224  1  0.25320588  0.07544357  0.70294045  1
  Se  Se225  1  0.24812782  0.41487508  0.20046225  1
  Se  Se226  1  0.24954902  0.41268722  0.69315928  1
  Se  Se227  1  0.26147506  0.75283068  0.19942502  1
  Se  Se228  1  0.24250571  0.75212086  0.69721207  1
  Se  Se229  1  0.57206466  0.08807812  0.18802269  1
  Se  Se230  1  0.58066978  0.08143718  0.69845400  1
  Se  Se231  1  0.57697196  0.42313346  0.19536967  1
  Se  Se232  1  0.58734369  0.41433540  0.69824539  1
  Se  Se233  1  0.58786216  0.75050384  0.19220748  1
  Se  Se234  1  0.58231308  0.74699978  0.69908609  1
  Se  Se235  1  0.91036147  0.08281284  0.18713181  1
  Se  Se236  1  0.90992885  0.09341875  0.68937389  1
  Se  Se237  1  0.91743037  0.41331586  0.20264212  1
  Se  Se238  1  0.91447192  0.42777430  0.68550922  1
  Se  Se239  1  0.93692892  0.73456210  0.19699492  1
  Se  Se240  1  0.90713923  0.75335001  0.69658456  1
  Se  Se241  1  0.07738075  0.24872708  0.19695596  1
  Se  Se242  1  0.09603296  0.24833953  0.69058549  1
  Se  Se243  1  0.08400317  0.57742052  0.19945120  1
  Se  Se244  1  0.07633573  0.57970159  0.68945848  1
  Se  Se245  1  0.09811385  0.90921040  0.19193420  1
  Se  Se246  1  0.08737702  0.90874848  0.68825769  1
  Se  Se247  1  0.40710551  0.25419592  0.19354467  1
  Se  Se248  1  0.41759277  0.24870203  0.70302049  1
  Se  Se249  1  0.41477504  0.59000455  0.19677904  1
  Se  Se250  1  0.41368626  0.58511219  0.69332567  1
  Se  Se251  1  0.42714748  0.91735355  0.19146699  1
  Se  Se252  1  0.41600328  0.91422821  0.70064659  1
  Se  Se253  1  0.72975804  0.25645850  0.19314103  1
  Se  Se254  1  0.74889676  0.25411375  0.69876897  1
  Se  Se255  1  0.75009275  0.58342762  0.20073351  1
  Se  Se256  1  0.74634180  0.58475293  0.69813414  1
  Se  Se257  1  0.75948109  0.90499450  0.19057371  1
  Se  Se258  1  0.74128577  0.91991264  0.70045698  1
