# generated using pymatgen
data_In86Cu29Se144
_symmetry_space_group_name_H-M   'P 1'
_cell_length_a   17.58261703
_cell_length_b   17.58330154
_cell_length_c   23.44367680
_cell_angle_alpha   90.00578933
_cell_angle_beta   89.99453511
_cell_angle_gamma   89.99460101
_symmetry_Int_Tables_number   1
_chemical_formula_structural   In86Cu29Se144
_chemical_formula_sum   'In86 Cu29 Se144'
_cell_volume   7247.85773491
_cell_formula_units_Z   1
loop_
 _symmetry_equiv_pos_site_id
 _symmetry_equiv_pos_as_xyz
  1  'x, y, z'
loop_
 _atom_site_type_symbol
 _atom_site_label
 _atom_site_symmetry_multiplicity
 _atom_site_fract_x
 _atom_site_fract_y
 _atom_site_fract_z
 _atom_site_occupancy
  In  In0  1  0.00338510  0.15538039  0.13374890  1
  In  In1  1  0.01111848  0.15191801  0.61916660  1
  In  In2  1  0.01608380  0.49918381  0.12466350  1
  In  In3  1  0.01909173  0.49823519  0.62428733  1
  In  In4  1  -0.00073536  0.83282327  0.12664146  1
  In  In5  1  -0.00698007  0.83930738  0.62184801  1
  In  In6  1  0.33613980  0.17362941  0.12313366  1
  In  In7  1  0.33825110  0.16705544  0.62500881  1
  In  In8  1  0.33377654  0.50350859  0.12135268  1
  In  In9  1  0.32552799  0.50904424  0.63285653  1
  In  In10  1  0.30344610  0.79868039  0.08861590  1
  In  In11  1  0.33620891  0.82543142  0.63463390  1
  In  In12  1  0.67270336  0.17257780  0.13470368  1
  In  In13  1  0.65974687  0.18042432  0.62300909  1
  In  In14  1  0.65506572  0.51275572  0.14118874  1
  In  In15  1  0.65283518  0.50092444  0.62410383  1
  In  In16  1  0.65577799  0.81492685  0.11722740  1
  In  In17  1  0.67351794  0.82939910  0.61423650  1
  In  In18  1  0.17040969  0.01042675  0.37532306  1
  In  In19  1  0.19973866  -0.02459711  0.90155999  1
  In  In20  1  0.18143068  0.32362589  0.38081984  1
  In  In21  1  0.17767919  0.32124297  0.88487230  1
  In  In22  1  0.15899388  0.66034503  0.36652233  1
  In  In23  1  0.17217289  0.66973276  0.87995433  1
  In  In24  1  0.49280211  -0.00290075  0.39069787  1
  In  In25  1  0.48038280  0.00354189  0.87499155  1
  In  In26  1  0.49266702  0.33257913  0.36965475  1
  In  In27  1  0.50051119  0.34429368  0.87198549  1
  In  In28  1  0.50325040  0.67451845  0.36881357  1
  In  In29  1  0.47412542  0.68756583  0.90033011  1
  In  In30  1  0.83304234  -0.01332192  0.37420044  1
  In  In31  1  0.82836531  -0.00654254  0.87708255  1
  In  In32  1  0.83024158  0.34650089  0.36670096  1
  In  In33  1  0.81774657  0.34362192  0.87257340  1
  In  In34  1  0.83470852  0.67142596  0.36444504  1
  In  In35  1  0.84754912  0.66754964  0.87600651  1
  In  In36  1  0.01508975  0.16593933  0.37584559  1
  In  In37  1  0.01430602  0.17090355  0.87298538  1
  In  In38  1  0.00362729  0.51179258  0.36944481  1
  In  In39  1  0.00117157  0.51973128  0.87445702  1
  In  In40  1  -0.00375494  0.82493328  0.36316047  1
  In  In41  1  0.01390510  0.82458512  0.88466965  1
  In  In42  1  0.32944618  0.16849036  0.38231487  1
  In  In43  1  0.32297803  0.16163089  0.86425346  1
  In  In44  1  0.32437121  0.49650138  0.37019061  1
  In  In45  1  0.33441504  0.50355133  0.87828984  1
  In  In46  1  0.34529720  0.83393471  0.37563513  1
  In  In47  1  0.33327361  0.82883614  0.87718034  1
  In  In48  1  0.65251760  0.16481433  0.37585505  1
  In  In49  1  0.65283668  0.17708305  0.87393958  1
  In  In50  1  0.67615610  0.50639051  0.35645351  1
  In  In51  1  0.65506152  0.49169980  0.87239718  1
  In  In52  1  0.66383686  0.82730064  0.38269085  1
  In  In53  1  0.67030528  0.83078946  0.88448769  1
  In  In54  1  0.16342676  -0.01490021  0.11458233  1
  In  In55  1  0.16847723  0.01185927  0.61956009  1
  In  In56  1  0.17815613  0.34960845  0.11471688  1
  In  In57  1  0.17963275  0.33750887  0.62078742  1
  In  In58  1  0.16499473  0.66030560  0.12636203  1
  In  In59  1  0.17352837  0.66194003  0.63383670  1
  In  In60  1  0.49266188  -0.01392374  0.12025200  1
  In  In61  1  0.48277755  -0.01514255  0.61361125  1
  In  In62  1  0.48570692  0.34046356  0.13143715  1
  In  In63  1  0.50162118  0.33090156  0.62936286  1
  In  In64  1  0.49477232  0.66752835  0.12375022  1
  In  In65  1  0.49612455  0.66386584  0.62355037  1
  In  In66  1  0.84927274  -0.00197749  0.13444498  1
  In  In67  1  0.84753305  -0.01345627  0.61795894  1
  In  In68  1  0.82072062  0.33144800  0.13527310  1
  In  In69  1  0.82162004  0.33010080  0.62375069  1
  In  In70  1  0.82233932  0.67035790  0.13828623  1
  In  In71  1  0.84033300  0.68623818  0.62074403  1
  In  In72  1  0.66569301  -0.00099220  0.25547029  1
  In  In73  1  0.65812675  0.00267518  0.74455567  1
  In  In74  1  0.65843827  0.65851117  0.75025575  1
  In  In75  1  0.50054526  0.50685325  0.50044290  1
  In  In76  1  0.00733984  0.00107493  0.74556135  1
  In  In77  1  0.84057293  0.16283705  0.01418928  1
  In  In78  1  0.00183214  0.33494548  0.24965439  1
  In  In79  1  0.49797917  0.16086990  -0.00069326  1
  In  In80  1  -0.00151007  0.33800950  0.75038772  1
  In  In81  1  0.83857453  0.50925217  0.48359944  1
  In  In82  1  0.83860106  0.50186752  0.00271407  1
  In  In83  1  0.33275132  -0.00654637  0.25006434  1
  In  In84  1  0.83379217  0.16415969  0.50019600  1
  In  In85  1  0.16474607  0.83654081  0.49850343  1
  Cu  Cu86  1  0.49437913  0.49925078  0.24877688  1
  Cu  Cu87  1  0.17236579  0.16772345  0.25171662  1
  Cu  Cu88  1  0.32824058  0.66739888  0.50560560  1
  Cu  Cu89  1  0.17515424  0.50043803  0.24574678  1
  Cu  Cu90  1  0.84087576  0.82879737  0.74989860  1
  Cu  Cu91  1  0.82906624  0.50512047  0.75149426  1
  Cu  Cu92  1  -0.00025875  0.00262056  0.00600815  1
  Cu  Cu93  1  0.01403545  0.32725058  0.49976783  1
  Cu  Cu94  1  0.33490829  0.33180887  0.49960370  1
  Cu  Cu95  1  0.67059437  -0.01211328  0.00262641  1
  Cu  Cu96  1  0.49364183  0.17665614  0.74953349  1
  Cu  Cu97  1  0.83049762  0.83506220  0.24932488  1
  Cu  Cu98  1  0.82338015  0.17400662  0.74602948  1
  Cu  Cu99  1  0.67087654  0.65676252  0.00819344  1
  Cu  Cu100  1  0.66415104  0.33325098  0.00301796  1
  Cu  Cu101  1  0.66387101  0.00041621  0.49788587  1
  Cu  Cu102  1  0.49435359  0.83311233  0.75432075  1
  Cu  Cu103  1  0.16454815  0.82935588  0.23948902  1
  Cu  Cu104  1  0.49977110  0.16907375  0.25094430  1
  Cu  Cu105  1  0.66266642  0.34157489  0.49546793  1
  Cu  Cu106  1  0.00476646  0.33525934  0.00061492  1
  Cu  Cu107  1  0.33651511  0.33587772  -0.00037629  1
  Cu  Cu108  1  0.17127791  0.16578302  0.74831079  1
  Cu  Cu109  1  0.49007308  0.50219226  0.75356920  1
  Cu  Cu110  1  0.49631276  0.82805340  0.24728718  1
  Cu  Cu111  1  0.00249956  0.66674620  0.49271559  1
  Cu  Cu112  1  0.16692653  0.50271479  0.75548173  1
  Cu  Cu113  1  0.00359114  0.67435322  0.00228560  1
  Cu  Cu114  1  0.17122487  0.83042109  0.75962930  1
  Se  Se115  1  0.08355721  0.08670309  0.05721330  1
  Se  Se116  1  0.07567894  0.06804236  0.54548067  1
  Se  Se117  1  0.08831246  0.42493931  0.04623821  1
  Se  Se118  1  0.09227679  0.41605763  0.55183935  1
  Se  Se119  1  0.08670447  0.75334992  0.05916467  1
  Se  Se120  1  0.08025362  0.74102627  0.55975109  1
  Se  Se121  1  0.40382525  0.07211508  0.05459314  1
  Se  Se122  1  0.43418549  0.10001458  0.55737114  1
  Se  Se123  1  0.41985739  0.41829808  0.05280786  1
  Se  Se124  1  0.41052785  0.41702651  0.56093016  1
  Se  Se125  1  0.43160748  0.75508670  0.04757937  1
  Se  Se126  1  0.41317528  0.74889278  0.55776051  1
  Se  Se127  1  0.74171158  0.07218629  0.06520619  1
  Se  Se128  1  0.74314793  0.07581568  0.56385131  1
  Se  Se129  1  0.74328543  0.41612472  0.06155141  1
  Se  Se130  1  0.74701856  0.42182741  0.55180773  1
  Se  Se131  1  0.75716192  0.74338850  0.05516368  1
  Se  Se132  1  0.75861169  0.75249551  0.54625390  1
  Se  Se133  1  0.25325248  0.25189457  0.05231604  1
  Se  Se134  1  0.25225723  0.24614375  0.55329933  1
  Se  Se135  1  0.24815990  0.58432570  0.05472403  1
  Se  Se136  1  0.24538705  0.58211878  0.55668505  1
  Se  Se137  1  0.25812896  0.92490846  0.04414438  1
  Se  Se138  1  0.25701148  0.91619226  0.56299428  1
  Se  Se139  1  0.58519216  0.25086822  0.06230587  1
  Se  Se140  1  0.58096089  0.26032249  0.55092869  1
  Se  Se141  1  0.58277630  0.57803772  0.05934607  1
  Se  Se142  1  0.59710466  0.60066797  0.55214936  1
  Se  Se143  1  0.58083074  0.90981165  0.05277339  1
  Se  Se144  1  0.58453777  0.91430447  0.55299608  1
  Se  Se145  1  0.92635798  0.26330179  0.06712566  1
  Se  Se146  1  0.92598839  0.25755023  0.56083438  1
  Se  Se147  1  0.92445830  0.59273993  0.06344777  1
  Se  Se148  1  0.92572345  0.58556949  0.55743240  1
  Se  Se149  1  0.91595207  0.91799655  0.05704054  1
  Se  Se150  1  0.92061321  0.91063979  0.54349556  1
  Se  Se151  1  0.09602294  0.24148190  0.44873648  1
  Se  Se152  1  0.08481488  0.24565797  0.95125371  1
  Se  Se153  1  0.08759741  0.58093330  0.44456796  1
  Se  Se154  1  0.08401592  0.58788166  0.94888926  1
  Se  Se155  1  0.07651440  0.91753632  0.43232246  1
  Se  Se156  1  0.08205811  0.91849431  0.95264741  1
  Se  Se157  1  0.42014974  0.25243213  0.44535996  1
  Se  Se158  1  0.41322543  0.25256852  0.93729395  1
  Se  Se159  1  0.40671097  0.59018802  0.43996815  1
  Se  Se160  1  0.43022644  0.56548365  0.94916567  1
  Se  Se161  1  0.40546014  0.91594575  0.45394599  1
  Se  Se162  1  0.42551072  0.90687007  0.94357394  1
  Se  Se163  1  0.74726584  0.25938623  0.43994474  1
  Se  Se164  1  0.74789545  0.25050114  0.94806291  1
  Se  Se165  1  0.73724218  0.59579093  0.43535403  1
  Se  Se166  1  0.74578646  0.58456999  0.93710767  1
  Se  Se167  1  0.74750539  0.91661025  0.44645626  1
  Se  Se168  1  0.75992286  0.90980192  0.95113912  1
  Se  Se169  1  0.26810416  0.06482165  0.44520748  1
  Se  Se170  1  0.24271669  0.10250809  0.94431929  1
  Se  Se171  1  0.25230526  0.41857046  0.44806554  1
  Se  Se172  1  0.25022551  0.41852816  0.94718493  1
  Se  Se173  1  0.25119188  0.74215683  0.43868585  1
  Se  Se174  1  0.24604999  0.75725976  0.94980099  1
  Se  Se175  1  0.57937881  0.08754711  0.45122587  1
  Se  Se176  1  0.59470371  0.07090609  0.94063735  1
  Se  Se177  1  0.58828991  0.42293837  0.43346314  1
  Se  Se178  1  0.58148596  0.41500468  0.94924574  1
  Se  Se179  1  0.56184673  0.76200408  0.44524547  1
  Se  Se180  1  0.59336603  0.74311206  0.95135694  1
  Se  Se181  1  0.92175001  0.07766099  0.43885176  1
  Se  Se182  1  0.92312515  0.08089019  0.93996059  1
  Se  Se183  1  0.93231271  0.40580579  0.43893492  1
  Se  Se184  1  0.92347687  0.40956617  0.93749716  1
  Se  Se185  1  0.91856943  0.74604739  0.43783042  1
  Se  Se186  1  0.91509699  0.75339818  0.94963553  1
  Se  Se187  1  0.25804319  0.24767389  0.30468512  1
  Se  Se188  1  0.24746550  0.25754988  0.79991233  1
  Se  Se189  1  0.25402189  0.58808463  0.30012314  1
  Se  Se190  1  0.25085810  0.58572112  0.80873854  1
  Se  Se191  1  0.23952256  0.90328960  0.30880159  1
  Se  Se192  1  0.25377964  0.91890078  0.80833137  1
  Se  Se193  1  0.58322044  0.25201469  0.30372256  1
  Se  Se194  1  0.58075585  0.25828710  0.80093167  1
  Se  Se195  1  0.57761563  0.58565512  0.29949525  1
  Se  Se196  1  0.56407810  0.58585384  0.81631710  1
  Se  Se197  1  0.56785279  0.91317447  0.31092024  1
  Se  Se198  1  0.58033420  0.91055307  0.81197156  1
  Se  Se199  1  0.91650217  0.24502027  0.31277951  1
  Se  Se200  1  0.90629791  0.24529774  0.81076603  1
  Se  Se201  1  0.90414865  0.56992645  0.30352208  1
  Se  Se202  1  0.91701742  0.58756041  0.79887360  1
  Se  Se203  1  0.91681169  0.91870158  0.29855166  1
  Se  Se204  1  0.91862308  0.91208794  0.80969338  1
  Se  Se205  1  0.08730687  0.08327452  0.30081866  1
  Se  Se206  1  0.09826725  0.08149290  0.81012552  1
  Se  Se207  1  0.09806559  0.41880691  0.31030831  1
  Se  Se208  1  0.08753548  0.42022189  0.81564141  1
  Se  Se209  1  0.08250560  0.74525150  0.29553367  1
  Se  Se210  1  0.08403700  0.74680506  0.80765265  1
  Se  Se211  1  0.42366934  0.08367097  0.31011259  1
  Se  Se212  1  0.41421980  0.08494941  0.79785078  1
  Se  Se213  1  0.41058661  0.41625500  0.30238796  1
  Se  Se214  1  0.40769709  0.41567880  0.80445654  1
  Se  Se215  1  0.40974675  0.74690234  0.30036993  1
  Se  Se216  1  0.41702340  0.74479561  0.80771688  1
  Se  Se217  1  0.75512114  0.09005909  0.31362431  1
  Se  Se218  1  0.75063591  0.09069327  0.80918632  1
  Se  Se219  1  0.74461693  0.40882647  0.29230586  1
  Se  Se220  1  0.74176147  0.42084924  0.79822319  1
  Se  Se221  1  0.74304510  0.75787882  0.30445592  1
  Se  Se222  1  0.75351504  0.75226156  0.80688708  1
  Se  Se223  1  0.24564928  0.08415274  0.18783937  1
  Se  Se224  1  0.25212232  0.08296975  0.69298120  1
  Se  Se225  1  0.25707817  0.41513691  0.19367780  1
  Se  Se226  1  0.24601949  0.41884891  0.69876275  1
  Se  Se227  1  0.25355118  0.75178471  0.18686614  1
  Se  Se228  1  0.25245322  0.74560081  0.70383182  1
  Se  Se229  1  0.57115929  0.08310739  0.18970083  1
  Se  Se230  1  0.56940429  0.09319124  0.68682965  1
  Se  Se231  1  0.57918456  0.41139492  0.19912507  1
  Se  Se232  1  0.57752261  0.42341008  0.69778701  1
  Se  Se233  1  0.58257101  0.74413434  0.19664168  1
  Se  Se234  1  0.58016539  0.76101312  0.69149389  1
  Se  Se235  1  0.90678188  0.09629262  0.20230518  1
  Se  Se236  1  0.90599648  0.09112391  0.69065354  1
  Se  Se237  1  0.91405582  0.42578788  0.18933175  1
  Se  Se238  1  0.90749554  0.42552137  0.68689293  1
  Se  Se239  1  0.91699128  0.75180141  0.19795033  1
  Se  Se240  1  0.92714502  0.75032125  0.69651044  1
  Se  Se241  1  0.09792275  0.25174166  0.18860913  1
  Se  Se242  1  0.08493008  0.24365141  0.69005861  1
  Se  Se243  1  0.08326634  0.58244067  0.20073605  1
  Se  Se244  1  0.08209318  0.58303007  0.70069164  1
  Se  Se245  1  0.08266911  0.92066033  0.19383134  1
  Se  Se246  1  0.09782973  0.90654247  0.68972910  1
  Se  Se247  1  0.41153371  0.24888983  0.19939572  1
  Se  Se248  1  0.40860534  0.25932877  0.69675528  1
  Se  Se249  1  0.41426327  0.58414321  0.19373973  1
  Se  Se250  1  0.41552950  0.59015004  0.69733005  1
  Se  Se251  1  0.41066685  0.89904794  0.18633710  1
  Se  Se252  1  0.41587145  0.91903488  0.69923001  1
  Se  Se253  1  0.75507724  0.24292918  0.20678295  1
  Se  Se254  1  0.73893578  0.25854818  0.69752112  1
  Se  Se255  1  0.75465070  0.57671029  0.20523355  1
  Se  Se256  1  0.75593642  0.58321070  0.68390291  1
  Se  Se257  1  0.74550472  0.90944350  0.18751960  1
  Se  Se258  1  0.75844220  0.91042538  0.69272901  1
