# generated using pymatgen
data_In86Cu29Se144
_symmetry_space_group_name_H-M   'P 1'
_cell_length_a   17.57870477
_cell_length_b   17.57644496
_cell_length_c   23.43846847
_cell_angle_alpha   90.01025884
_cell_angle_beta   89.99062468
_cell_angle_gamma   89.99947544
_symmetry_Int_Tables_number   1
_chemical_formula_structural   In86Cu29Se144
_chemical_formula_sum   'In86 Cu29 Se144'
_cell_volume   7241.81003510
_cell_formula_units_Z   1
loop_
 _symmetry_equiv_pos_site_id
 _symmetry_equiv_pos_as_xyz
  1  'x, y, z'
loop_
 _atom_site_type_symbol
 _atom_site_label
 _atom_site_symmetry_multiplicity
 _atom_site_fract_x
 _atom_site_fract_y
 _atom_site_fract_z
 _atom_site_occupancy
  In  In0  1  0.01244726  0.16889291  0.12204448  1
  In  In1  1  -0.00336618  0.16963225  0.62607403  1
  In  In2  1  -0.00034991  0.50016336  0.12670788  1
  In  In3  1  0.01859605  0.52004993  0.61293453  1
  In  In4  1  -0.00578337  0.82416768  0.12254807  1
  In  In5  1  -0.00600900  0.82408198  0.62493069  1
  In  In6  1  0.33652444  0.17733278  0.12660557  1
  In  In7  1  0.34312387  0.16597602  0.62205932  1
  In  In8  1  0.32442315  0.50880712  0.13377500  1
  In  In9  1  0.31986596  0.49045039  0.59866351  1
  In  In10  1  0.31718759  0.83258340  0.12484807  1
  In  In11  1  0.33648835  0.83915974  0.62450086  1
  In  In12  1  0.65964473  0.17308374  0.13366834  1
  In  In13  1  0.66242856  0.21442587  0.61619269  1
  In  In14  1  0.67283534  0.48436787  0.12464109  1
  In  In15  1  0.67092465  0.49710507  0.61624011  1
  In  In16  1  0.68656766  0.82729470  0.13051054  1
  In  In17  1  0.66907757  0.81708549  0.62922357  1
  In  In18  1  0.15871300  -0.01001091  0.37629702  1
  In  In19  1  0.16962794  -0.00678211  0.87687111  1
  In  In20  1  0.17861076  0.34865686  0.36215499  1
  In  In21  1  0.17217113  0.33055744  0.88073218  1
  In  In22  1  0.16827988  0.65947985  0.37853953  1
  In  In23  1  0.15548069  0.67084538  0.87837218  1
  In  In24  1  0.51501642  -0.00061093  0.37497295  1
  In  In25  1  0.49198003  0.01275503  0.87217159  1
  In  In26  1  0.50344798  0.33648792  0.38313987  1
  In  In27  1  0.50048892  0.33391438  0.86417102  1
  In  In28  1  0.47885509  0.65473276  0.38128691  1
  In  In29  1  0.50238210  0.65056950  0.86746158  1
  In  In30  1  0.82274135  0.00127191  0.37727775  1
  In  In31  1  0.82438461  -0.01127340  0.87862699  1
  In  In32  1  0.83276359  0.33816955  0.36877175  1
  In  In33  1  0.83337289  0.34474320  0.87329899  1
  In  In34  1  0.84514082  0.65409883  0.37982720  1
  In  In35  1  0.83835735  0.66262108  0.87271253  1
  In  In36  1  -0.01304336  0.17373874  0.37265268  1
  In  In37  1  0.00784057  0.18323158  0.87653733  1
  In  In38  1  -0.00009137  0.50044750  0.37109716  1
  In  In39  1  -0.00271627  0.50560061  0.87796298  1
  In  In40  1  0.01381507  0.81643907  0.38253183  1
  In  In41  1  0.01404009  0.81477390  0.87933252  1
  In  In42  1  0.33188932  0.19410671  0.38519615  1
  In  In43  1  0.32814894  0.16020090  0.86586166  1
  In  In44  1  0.32886373  0.49191609  0.38409285  1
  In  In45  1  0.33488475  0.48757379  0.87389277  1
  In  In46  1  0.32932467  0.80869221  0.37906637  1
  In  In47  1  0.30113266  0.82603919  0.86182221  1
  In  In48  1  0.65954464  0.16483727  0.37539325  1
  In  In49  1  0.65897215  0.16904514  0.87222892  1
  In  In50  1  0.67205070  0.48649371  0.38980475  1
  In  In51  1  0.67204694  0.50392956  0.86605885  1
  In  In52  1  0.66762222  0.84741510  0.37736342  1
  In  In53  1  0.68311208  0.82981270  0.87727037  1
  In  In54  1  0.15803441  -0.00907283  0.11358413  1
  In  In55  1  0.18233103  -0.00388258  0.62857814  1
  In  In56  1  0.16757814  0.33549322  0.12614229  1
  In  In57  1  0.17544130  0.35585253  0.62275761  1
  In  In58  1  0.16390692  0.66336962  0.12601897  1
  In  In59  1  0.16323967  0.65607315  0.62033641  1
  In  In60  1  0.50145280  0.01187548  0.13124386  1
  In  In61  1  0.48717223  0.00220592  0.62739719  1
  In  In62  1  0.50070379  0.33039603  0.13522473  1
  In  In63  1  0.49221247  0.34389808  0.61404902  1
  In  In64  1  0.49484475  0.64961943  0.13098991  1
  In  In65  1  0.50918180  0.67124132  0.62695731  1
  In  In66  1  0.83694326  -0.01125597  0.12745204  1
  In  In67  1  0.84097369  0.00043659  0.62415727  1
  In  In68  1  0.81925844  0.34925609  0.12852618  1
  In  In69  1  0.81138763  0.34497296  0.63385312  1
  In  In70  1  0.84639889  0.67207292  0.12232454  1
  In  In71  1  0.83383560  0.66286525  0.62338090  1
  In  In72  1  0.83736019  0.16885966  -0.00425678  1
  In  In73  1  -0.00267675  0.00174085  0.24742797  1
  In  In74  1  0.83075492  0.16882627  0.50074487  1
  In  In75  1  0.33359327  0.65833712  0.74501732  1
  In  In76  1  0.50048661  0.49646297  -0.00076227  1
  In  In77  1  0.50078072  0.83245643  0.49889970  1
  In  In78  1  0.66405510  0.66478803  0.25660723  1
  In  In79  1  0.00296058  -0.00177213  0.74899491  1
  In  In80  1  -0.00241591  0.34039455  0.75241423  1
  In  In81  1  0.33619431  0.00521841  0.24898252  1
  In  In82  1  0.49764992  0.83602228  -0.00276663  1
  In  In83  1  0.49741329  0.17001309  0.00532917  1
  In  In84  1  0.65906263  0.00638652  0.75082099  1
  In  In85  1  0.16393344  0.17016888  0.50511536  1
  Cu  Cu86  1  0.83619964  0.83579402  0.25138332  1
  Cu  Cu87  1  0.16990047  0.81946052  0.25262975  1
  Cu  Cu88  1  0.32225632  0.66966082  0.00247726  1
  Cu  Cu89  1  0.50074652  0.17854415  0.74146762  1
  Cu  Cu90  1  0.50152153  0.17112148  0.25761873  1
  Cu  Cu91  1  0.16794839  0.17278411  0.24664815  1
  Cu  Cu92  1  0.32187681  -0.00331307  -0.00838850  1
  Cu  Cu93  1  0.83384109  0.50093273  0.25209076  1
  Cu  Cu94  1  0.50500333  0.49356765  0.74031228  1
  Cu  Cu95  1  0.17515834  0.17648707  0.74820046  1
  Cu  Cu96  1  0.00007331  0.66310280  0.00198931  1
  Cu  Cu97  1  0.00094330  -0.00303193  0.00152365  1
  Cu  Cu98  1  -0.00378455  0.66345592  0.49947421  1
  Cu  Cu99  1  0.16571145  0.50044553  0.25020222  1
  Cu  Cu100  1  -0.00237401  0.34052049  0.49547330  1
  Cu  Cu101  1  0.67121781  -0.00102562  0.50320609  1
  Cu  Cu102  1  0.67787368  0.66470011  -0.00320232  1
  Cu  Cu103  1  0.82578446  0.17538689  0.25230943  1
  Cu  Cu104  1  0.49929248  0.83466789  0.74768157  1
  Cu  Cu105  1  0.00414951  0.33983771  0.00175735  1
  Cu  Cu106  1  0.67561125  0.67141796  0.49884196  1
  Cu  Cu107  1  0.32913798  0.33265070  0.00218716  1
  Cu  Cu108  1  0.83273198  0.50447137  0.74684276  1
  Cu  Cu109  1  0.00115075  -0.01574235  0.50277130  1
  Cu  Cu110  1  0.67282385  -0.00534121  0.00706680  1
  Cu  Cu111  1  0.83561429  0.82464823  0.75040863  1
  Cu  Cu112  1  0.49866951  0.82899708  0.25964141  1
  Cu  Cu113  1  0.32911404  -0.00369505  0.49937761  1
  Cu  Cu114  1  0.49473765  0.49309868  0.25789900  1
  Se  Se115  1  0.08456924  0.08531850  0.04877284  1
  Se  Se116  1  0.07531316  0.07138671  0.56223015  1
  Se  Se117  1  0.08700492  0.42067518  0.05754880  1
  Se  Se118  1  0.08563777  0.41870031  0.54873730  1
  Se  Se119  1  0.08370018  0.74818275  0.05556881  1
  Se  Se120  1  0.07840604  0.74515032  0.55569365  1
  Se  Se121  1  0.40307816  0.07087195  0.05627119  1
  Se  Se122  1  0.41538344  0.07824341  0.54951888  1
  Se  Se123  1  0.41088341  0.41059655  0.06336327  1
  Se  Se124  1  0.43788712  0.44427369  0.53965830  1
  Se  Se125  1  0.41315249  0.74159175  0.06074548  1
  Se  Se126  1  0.41142149  0.74269886  0.55702023  1
  Se  Se127  1  0.74697729  0.08356856  0.06357467  1
  Se  Se128  1  0.74042840  0.08528662  0.56679091  1
  Se  Se129  1  0.75141095  0.41938493  0.04665293  1
  Se  Se130  1  0.74691046  0.40632757  0.54854480  1
  Se  Se131  1  0.75574546  0.74923862  0.05350427  1
  Se  Se132  1  0.75567867  0.75432110  0.55419165  1
  Se  Se133  1  0.24833405  0.24734860  0.05614180  1
  Se  Se134  1  0.25863452  0.26050070  0.55704024  1
  Se  Se135  1  0.24715392  0.57965168  0.05605022  1
  Se  Se136  1  0.24986721  0.59446171  0.54298833  1
  Se  Se137  1  0.24570042  0.90974395  0.04773279  1
  Se  Se138  1  0.24907981  0.91225001  0.55216438  1
  Se  Se139  1  0.59114258  0.26313491  0.05714518  1
  Se  Se140  1  0.55743787  0.24327395  0.54477336  1
  Se  Se141  1  0.59318016  0.58966266  0.05779241  1
  Se  Se142  1  0.59088548  0.59421125  0.55529831  1
  Se  Se143  1  0.58675299  0.91855231  0.06578691  1
  Se  Se144  1  0.58935765  0.91898837  0.56467312  1
  Se  Se145  1  0.92063952  0.25846599  0.06072420  1
  Se  Se146  1  0.92062438  0.26199526  0.55905496  1
  Se  Se147  1  0.91560656  0.57893705  0.05410236  1
  Se  Se148  1  0.91095157  0.57900845  0.55095817  1
  Se  Se149  1  0.91716930  0.91462390  0.05448753  1
  Se  Se150  1  0.91140705  0.90977368  0.55612052  1
  Se  Se151  1  0.07697350  0.25519309  0.43852367  1
  Se  Se152  1  0.08741454  0.25250025  0.95240395  1
  Se  Se153  1  0.07882766  0.57884299  0.44508287  1
  Se  Se154  1  0.08465315  0.58054634  0.94897160  1
  Se  Se155  1  0.08993498  0.90718616  0.45064376  1
  Se  Se156  1  0.08230074  0.91507512  0.94416408  1
  Se  Se157  1  0.43435674  0.24131001  0.45409805  1
  Se  Se158  1  0.41146699  0.25605022  0.93971667  1
  Se  Se159  1  0.41202986  0.57294405  0.45662269  1
  Se  Se160  1  0.40687406  0.59156516  0.94375991  1
  Se  Se161  1  0.40995706  0.91970172  0.43497283  1
  Se  Se162  1  0.40593992  0.91823011  0.93286881  1
  Se  Se163  1  0.74281831  0.25810887  0.44111586  1
  Se  Se164  1  0.74184282  0.25618405  0.94029508  1
  Se  Se165  1  0.75420732  0.58161954  0.44810620  1
  Se  Se166  1  0.75324728  0.57809273  0.94066581  1
  Se  Se167  1  0.75420565  0.91516894  0.45198503  1
  Se  Se168  1  0.75347543  0.90902492  0.95489400  1
  Se  Se169  1  0.25148231  0.07978661  0.43832095  1
  Se  Se170  1  0.24604895  0.08931368  0.94132465  1
  Se  Se171  1  0.24438971  0.40478931  0.44892626  1
  Se  Se172  1  0.25045852  0.42005752  0.94934269  1
  Se  Se173  1  0.23907423  0.74922590  0.45080113  1
  Se  Se174  1  0.24315222  0.75289567  0.94682091  1
  Se  Se175  1  0.58703009  0.07991673  0.44980109  1
  Se  Se176  1  0.59069963  0.07327897  0.94763067  1
  Se  Se177  1  0.56628304  0.43240910  0.45584369  1
  Se  Se178  1  0.58821388  0.41151706  0.93603913  1
  Se  Se179  1  0.58900571  0.74197196  0.43588641  1
  Se  Se180  1  0.58692611  0.73869618  0.93971232  1
  Se  Se181  1  0.92602131  0.07313766  0.44517169  1
  Se  Se182  1  0.92674462  0.07551339  0.93593825  1
  Se  Se183  1  0.91297749  0.41872683  0.43976225  1
  Se  Se184  1  0.91826130  0.41611890  0.94544806  1
  Se  Se185  1  0.91335679  0.75067768  0.44738620  1
  Se  Se186  1  0.91719302  0.74582859  0.94531518  1
  Se  Se187  1  0.25475708  0.24997721  0.30096154  1
  Se  Se188  1  0.25478811  0.25992246  0.80444385  1
  Se  Se189  1  0.25067669  0.57502401  0.31045087  1
  Se  Se190  1  0.24681739  0.57905457  0.81376299  1
  Se  Se191  1  0.24839165  0.90870700  0.30713450  1
  Se  Se192  1  0.25378547  0.93408559  0.79814459  1
  Se  Se193  1  0.58446515  0.25685122  0.30897560  1
  Se  Se194  1  0.58803757  0.25235949  0.79848531  1
  Se  Se195  1  0.57695723  0.57422828  0.31709670  1
  Se  Se196  1  0.58527616  0.57958282  0.79453482  1
  Se  Se197  1  0.58663953  0.91681531  0.30021869  1
  Se  Se198  1  0.57765429  0.91007428  0.81480872  1
  Se  Se199  1  0.91677448  0.25626912  0.29898141  1
  Se  Se200  1  0.90777169  0.24354226  0.80711602  1
  Se  Se201  1  0.91977403  0.58622376  0.29988264  1
  Se  Se202  1  0.92015216  0.58154298  0.80183220  1
  Se  Se203  1  0.91752567  0.91257156  0.31497928  1
  Se  Se204  1  0.91348392  0.90742733  0.81077653  1
  Se  Se205  1  0.08984514  0.09245850  0.30860008  1
  Se  Se206  1  0.09051813  0.09701023  0.80614052  1
  Se  Se207  1  0.07800660  0.41556314  0.29936650  1
  Se  Se208  1  0.09213650  0.42295930  0.81148529  1
  Se  Se209  1  0.08410928  0.73939112  0.30502933  1
  Se  Se210  1  0.09039287  0.75165098  0.79981815  1
  Se  Se211  1  0.41855077  0.09126844  0.31702409  1
  Se  Se212  1  0.42093876  0.09035354  0.79571307  1
  Se  Se213  1  0.41344047  0.41092834  0.31328125  1
  Se  Se214  1  0.41842523  0.41895430  0.79819430  1
  Se  Se215  1  0.41448467  0.74088360  0.30439207  1
  Se  Se216  1  0.41977385  0.75381562  0.81025370  1
  Se  Se217  1  0.74952068  0.08676963  0.30671442  1
  Se  Se218  1  0.75789965  0.08756217  0.81062881  1
  Se  Se219  1  0.74415946  0.42265363  0.30460659  1
  Se  Se220  1  0.75147584  0.41576559  0.79769188  1
  Se  Se221  1  0.75703206  0.75560439  0.31370674  1
  Se  Se222  1  0.74946639  0.74360262  0.80374973  1
  Se  Se223  1  0.23844390  0.08399637  0.18608296  1
  Se  Se224  1  0.25426833  0.09083014  0.69286631  1
  Se  Se225  1  0.25033880  0.41433283  0.19848350  1
  Se  Se226  1  0.26306892  0.43009001  0.68960446  1
  Se  Se227  1  0.25421039  0.74102910  0.19645593  1
  Se  Se228  1  0.24662379  0.75253506  0.68811892  1
  Se  Se229  1  0.58351078  0.08538245  0.20365905  1
  Se  Se230  1  0.58194667  0.09610462  0.68247050  1
  Se  Se231  1  0.58167527  0.42119436  0.19813457  1
  Se  Se232  1  0.58680673  0.41161875  0.68450472  1
  Se  Se233  1  0.57622468  0.75408295  0.19091856  1
  Se  Se234  1  0.58560330  0.74752987  0.70377271  1
  Se  Se235  1  0.90707281  0.09644819  0.19012770  1
  Se  Se236  1  0.90786585  0.09406995  0.69742339  1
  Se  Se237  1  0.91474422  0.41727577  0.19594817  1
  Se  Se238  1  0.91663429  0.42828533  0.68510826  1
  Se  Se239  1  0.91840708  0.75014928  0.20009408  1
  Se  Se240  1  0.91723467  0.74150592  0.69660968  1
  Se  Se241  1  0.08084729  0.25390555  0.19586967  1
  Se  Se242  1  0.09169437  0.25245788  0.68819874  1
  Se  Se243  1  0.08154519  0.58351990  0.19682284  1
  Se  Se244  1  0.08686514  0.58143457  0.69687413  1
  Se  Se245  1  0.09124048  0.90641925  0.19451834  1
  Se  Se246  1  0.09060663  0.90813800  0.69052429  1
  Se  Se247  1  0.41483978  0.24918802  0.20247273  1
  Se  Se248  1  0.41565084  0.26008669  0.68826430  1
  Se  Se249  1  0.41366417  0.58036028  0.20577777  1
  Se  Se250  1  0.42105977  0.57217293  0.68143164  1
  Se  Se251  1  0.42301593  0.90679405  0.19127091  1
  Se  Se252  1  0.41352459  0.91813458  0.69959497  1
  Se  Se253  1  0.74434633  0.25860556  0.19737855  1
  Se  Se254  1  0.75668139  0.23876789  0.69708833  1
  Se  Se255  1  0.75376690  0.58243966  0.19054418  1
  Se  Se256  1  0.74627882  0.58190767  0.69041287  1
  Se  Se257  1  0.75062238  0.92049409  0.20215142  1
  Se  Se258  1  0.75561380  0.91287839  0.69519871  1
