# generated using pymatgen
data_In86Cu29Se144
_symmetry_space_group_name_H-M   'P 1'
_cell_length_a   17.57097081
_cell_length_b   17.56908194
_cell_length_c   23.42813744
_cell_angle_alpha   89.97960488
_cell_angle_beta   89.98619301
_cell_angle_gamma   90.00324518
_symmetry_Int_Tables_number   1
_chemical_formula_structural   In86Cu29Se144
_chemical_formula_sum   'In86 Cu29 Se144'
_cell_volume   7232.40183902
_cell_formula_units_Z   1
loop_
 _symmetry_equiv_pos_site_id
 _symmetry_equiv_pos_as_xyz
  1  'x, y, z'
loop_
 _atom_site_type_symbol
 _atom_site_label
 _atom_site_symmetry_multiplicity
 _atom_site_fract_x
 _atom_site_fract_y
 _atom_site_fract_z
 _atom_site_occupancy
  In  In0  1  0.00673047  0.17952733  0.12176617  1
  In  In1  1  0.00592337  0.16884683  0.62873317  1
  In  In2  1  -0.00944434  0.50835284  0.13307796  1
  In  In3  1  0.00584345  0.50539669  0.62932023  1
  In  In4  1  0.00010708  0.81862807  0.12728861  1
  In  In5  1  -0.00863077  0.82596928  0.61483471  1
  In  In6  1  0.32487810  0.17625246  0.12661954  1
  In  In7  1  0.34459997  0.17751555  0.61235105  1
  In  In8  1  0.34207528  0.50249277  0.13183351  1
  In  In9  1  0.32358806  0.48986018  0.62394805  1
  In  In10  1  0.32148023  0.83322222  0.12787496  1
  In  In11  1  0.32551106  0.84529032  0.61703900  1
  In  In12  1  0.66537310  0.15514378  0.12792139  1
  In  In13  1  0.65430673  0.19203827  0.63815044  1
  In  In14  1  0.68287798  0.49501034  0.12503023  1
  In  In15  1  0.67251960  0.49531738  0.61364545  1
  In  In16  1  0.66632816  0.83275912  0.13497840  1
  In  In17  1  0.68527965  0.81261332  0.62878360  1
  In  In18  1  0.16705195  0.00514452  0.38763840  1
  In  In19  1  0.16543095  0.00094300  0.88058600  1
  In  In20  1  0.15944252  0.33536539  0.38306527  1
  In  In21  1  0.15011740  0.32046795  0.85495361  1
  In  In22  1  0.16802684  0.66011218  0.37559698  1
  In  In23  1  0.15784620  0.68011538  0.87416732  1
  In  In24  1  0.51305964  -0.00502121  0.37945697  1
  In  In25  1  0.51652524  0.00132097  0.87148633  1
  In  In26  1  0.50637021  0.33937503  0.39793016  1
  In  In27  1  0.50021626  0.34800115  0.85527939  1
  In  In28  1  0.49642592  0.66250486  0.37671245  1
  In  In29  1  0.50704823  0.65502903  0.86463024  1
  In  In30  1  0.81570554  0.00504488  0.37660195  1
  In  In31  1  0.83572071  0.01654815  0.86855267  1
  In  In32  1  0.83788562  0.33757616  0.37856969  1
  In  In33  1  0.84222950  0.33430392  0.87093721  1
  In  In34  1  0.83369597  0.66171915  0.38222169  1
  In  In35  1  0.82810708  0.65498928  0.86970469  1
  In  In36  1  0.00049905  0.18360123  0.37288387  1
  In  In37  1  -0.00853699  0.17635429  0.88158815  1
  In  In38  1  -0.00034067  0.50063646  0.37884897  1
  In  In39  1  -0.01225385  0.48072958  0.85485810  1
  In  In40  1  0.01137899  0.82067531  0.38017083  1
  In  In41  1  0.00973926  0.83582176  0.87473096  1
  In  In42  1  0.32634806  0.17383733  0.38695566  1
  In  In43  1  0.32284335  0.16801776  0.87528507  1
  In  In44  1  0.32513287  0.50479199  0.38439028  1
  In  In45  1  0.33933820  0.49426582  0.86352597  1
  In  In46  1  0.33424521  0.82022971  0.37624438  1
  In  In47  1  0.31704229  0.82561815  0.87306885  1
  In  In48  1  0.66662356  0.15700890  0.38133924  1
  In  In49  1  0.70340627  0.19390504  0.84301996  1
  In  In50  1  0.65114003  0.52077297  0.40871553  1
  In  In51  1  0.67575846  0.50980241  0.86128313  1
  In  In52  1  0.67608637  0.83622995  0.37879442  1
  In  In53  1  0.67089141  0.83022658  0.86383318  1
  In  In54  1  0.16616468  0.00455507  0.12254978  1
  In  In55  1  0.17659492  0.00695529  0.60231189  1
  In  In56  1  0.15652491  0.31572808  0.12234356  1
  In  In57  1  0.16830155  0.33986103  0.63303353  1
  In  In58  1  0.16057351  0.67172368  0.13357322  1
  In  In59  1  0.14863610  0.64776552  0.61479981  1
  In  In60  1  0.51293301  0.00671862  0.13012147  1
  In  In61  1  0.50291280  0.02648373  0.61383831  1
  In  In62  1  0.49458491  0.33563316  0.12429904  1
  In  In63  1  0.50452940  0.33327464  0.61929403  1
  In  In64  1  0.50010196  0.66603589  0.13854616  1
  In  In65  1  0.52357823  0.65710138  0.61864480  1
  In  In66  1  0.82233052  0.00021091  0.12590507  1
  In  In67  1  0.83197239  -0.00694965  0.62590484  1
  In  In68  1  0.84420327  0.34433694  0.11793162  1
  In  In69  1  0.81228987  0.35350949  0.64110585  1
  In  In70  1  0.84082829  0.66224444  0.13445654  1
  In  In71  1  0.83087577  0.66489294  0.61637010  1
  In  In72  1  0.33631149  0.00684689  0.74359845  1
  In  In73  1  0.49761999  0.83407192  0.50100039  1
  In  In74  1  0.83659164  0.83338288  0.00374618  1
  In  In75  1  0.32706804  0.34031967  0.25745658  1
  In  In76  1  0.49387853  0.83651164  -0.00988810  1
  In  In77  1  -0.00033026  -0.00183641  0.74655397  1
  In  In78  1  0.33653096  0.66532862  0.74111880  1
  In  In79  1  0.16417195  0.50009149  -0.00773729  1
  In  In80  1  0.83246716  0.17361134  0.50507187  1
  In  In81  1  0.67422942  0.33802937  0.25671200  1
  In  In82  1  -0.00411002  -0.00084066  0.25630784  1
  In  In83  1  0.50305261  0.50118310  -0.01270297  1
  In  In84  1  0.33773599  -0.00285050  0.24653083  1
  In  In85  1  0.50054023  0.16571569  0.00193342  1
  Cu  Cu86  1  0.16988933  0.82817792  0.25333913  1
  Cu  Cu87  1  0.83062472  0.50608145  0.25731289  1
  Cu  Cu88  1  0.00200590  0.33297534  -0.00534984  1
  Cu  Cu89  1  0.00261258  0.33633952  0.50739899  1
  Cu  Cu90  1  0.83472148  0.50512642  0.74258874  1
  Cu  Cu91  1  0.33047328  0.33144794  0.50491550  1
  Cu  Cu92  1  0.83024091  0.82874333  0.25668174  1
  Cu  Cu93  1  0.00667829  0.00422956  -0.00096490  1
  Cu  Cu94  1  -0.00266511  0.65925819  0.00369504  1
  Cu  Cu95  1  0.32624154  0.32836646  -0.00683964  1
  Cu  Cu96  1  0.50190487  0.17191709  0.74065143  1
  Cu  Cu97  1  0.15730957  0.83447583  0.73998215  1
  Cu  Cu98  1  0.83266128  0.82342481  0.74423401  1
  Cu  Cu99  1  0.50442433  0.50505754  0.26160554  1
  Cu  Cu100  1  0.50417907  0.16207648  0.25897959  1
  Cu  Cu101  1  0.68128213  0.32805761  -0.00775970  1
  Cu  Cu102  1  0.16175072  0.49827455  0.25764498  1
  Cu  Cu103  1  0.32218221  -0.00155605  0.00152456  1
  Cu  Cu104  1  0.66199225  0.00325695  0.50564896  1
  Cu  Cu105  1  0.83298154  0.16978454  0.25316067  1
  Cu  Cu106  1  0.16826488  0.17121313  0.74799467  1
  Cu  Cu107  1  -0.00803376  -0.00184139  0.49992737  1
  Cu  Cu108  1  0.00123726  0.66254597  0.49866735  1
  Cu  Cu109  1  0.32188207  0.67454252  0.00104588  1
  Cu  Cu110  1  0.67239396  0.00690444  -0.00332511  1
  Cu  Cu111  1  0.50883049  0.82722532  0.26047856  1
  Cu  Cu112  1  0.33200046  0.66282894  0.50131075  1
  Cu  Cu113  1  0.67046131  0.65789684  -0.00162948  1
  Cu  Cu114  1  0.50477328  0.83048899  0.73988448  1
  Se  Se115  1  0.08474462  0.08861280  0.05529295  1
  Se  Se116  1  0.07211223  0.08621642  0.55130573  1
  Se  Se117  1  0.07624725  0.41585082  0.05932719  1
  Se  Se118  1  0.08754311  0.41993948  0.55974807  1
  Se  Se119  1  0.08243173  0.74309120  0.05493702  1
  Se  Se120  1  0.08485733  0.74962737  0.54978126  1
  Se  Se121  1  0.40759577  0.07353389  0.06284181  1
  Se  Se122  1  0.38513089  0.05796596  0.55478497  1
  Se  Se123  1  0.40625749  0.41210319  0.05101586  1
  Se  Se124  1  0.41463386  0.41667384  0.55524626  1
  Se  Se125  1  0.41426946  0.74453059  0.05949151  1
  Se  Se126  1  0.41198430  0.73953701  0.56344357  1
  Se  Se127  1  0.75296683  0.08865375  0.05344434  1
  Se  Se128  1  0.74134860  0.08587049  0.56583671  1
  Se  Se129  1  0.75411883  0.41826673  0.04791899  1
  Se  Se130  1  0.75891909  0.40828150  0.54871706  1
  Se  Se131  1  0.74208470  0.74418561  0.06065390  1
  Se  Se132  1  0.75357418  0.75030533  0.54524369  1
  Se  Se133  1  0.24631445  0.24650465  0.04982673  1
  Se  Se134  1  0.24081417  0.25319825  0.55814736  1
  Se  Se135  1  0.25359070  0.58485112  0.06095496  1
  Se  Se136  1  0.24840518  0.57702625  0.55250794  1
  Se  Se137  1  0.24354454  0.91294809  0.05610137  1
  Se  Se138  1  0.24126257  0.90528080  0.54025650  1
  Se  Se139  1  0.59519105  0.26125126  0.05898782  1
  Se  Se140  1  0.56817389  0.22888011  0.55432464  1
  Se  Se141  1  0.58405203  0.58531007  0.06040654  1
  Se  Se142  1  0.59140136  0.57843100  0.54204131  1
  Se  Se143  1  0.59038054  0.92154851  0.05398463  1
  Se  Se144  1  0.58782372  0.91744933  0.56621106  1
  Se  Se145  1  0.91784948  0.25157507  0.05084535  1
  Se  Se146  1  0.91763372  0.26196001  0.56811383  1
  Se  Se147  1  0.91000999  0.58130212  0.05688884  1
  Se  Se148  1  0.92175633  0.57958532  0.55490223  1
  Se  Se149  1  0.92808533  0.92536130  0.06335291  1
  Se  Se150  1  0.90766072  0.91515748  0.55101635  1
  Se  Se151  1  0.07912202  0.24891210  0.45236030  1
  Se  Se152  1  0.08971034  0.25295022  0.94277978  1
  Se  Se153  1  0.08768892  0.57939433  0.44723835  1
  Se  Se154  1  0.06903190  0.58500179  0.93383090  1
  Se  Se155  1  0.07914433  0.91736699  0.44770935  1
  Se  Se156  1  0.08546552  0.91455178  0.94863026  1
  Se  Se157  1  0.41734494  0.24793740  0.45409800  1
  Se  Se158  1  0.41926794  0.25762126  0.93583270  1
  Se  Se159  1  0.41847571  0.58126242  0.44913487  1
  Se  Se160  1  0.40296058  0.59653522  0.93829334  1
  Se  Se161  1  0.40769363  0.92237417  0.43916550  1
  Se  Se162  1  0.40252057  0.92999548  0.93276549  1
  Se  Se163  1  0.73963867  0.25867202  0.44302913  1
  Se  Se164  1  0.76019352  0.24328318  0.93807511  1
  Se  Se165  1  0.77612270  0.56431380  0.45440730  1
  Se  Se166  1  0.75114205  0.57533387  0.94386425  1
  Se  Se167  1  0.74753247  0.92272883  0.45241370  1
  Se  Se168  1  0.74797696  0.91860093  0.93851375  1
  Se  Se169  1  0.24514131  0.09102850  0.45383702  1
  Se  Se170  1  0.24592226  0.08743548  0.94764693  1
  Se  Se171  1  0.24802257  0.41421778  0.44958479  1
  Se  Se172  1  0.25111476  0.40936050  0.93076558  1
  Se  Se173  1  0.24954305  0.74438444  0.44598060  1
  Se  Se174  1  0.23658277  0.75766110  0.94994053  1
  Se  Se175  1  0.57759382  0.08574394  0.45283356  1
  Se  Se176  1  0.59611270  0.09089504  0.93747987  1
  Se  Se177  1  0.58414964  0.41764378  0.46865515  1
  Se  Se178  1  0.59464916  0.40611843  0.93421950  1
  Se  Se179  1  0.58904502  0.74567537  0.44351442  1
  Se  Se180  1  0.58989594  0.73946349  0.93889230  1
  Se  Se181  1  0.91823858  0.08330414  0.43768422  1
  Se  Se182  1  0.91748085  0.08074445  0.94657655  1
  Se  Se183  1  0.92112302  0.41440039  0.44938653  1
  Se  Se184  1  0.92147596  0.41900559  0.94206611  1
  Se  Se185  1  0.91818750  0.75057920  0.44800624  1
  Se  Se186  1  0.92087441  0.74328124  0.94042320  1
  Se  Se187  1  0.24020299  0.24369744  0.31026401  1
  Se  Se188  1  0.25870884  0.25127495  0.79849194  1
  Se  Se189  1  0.25306167  0.57867834  0.30499036  1
  Se  Se190  1  0.24547018  0.58915192  0.81021740  1
  Se  Se191  1  0.24482435  0.91478674  0.31117227  1
  Se  Se192  1  0.23986401  0.91459256  0.80020558  1
  Se  Se193  1  0.57686434  0.25203007  0.31622773  1
  Se  Se194  1  0.58305835  0.25416129  0.79668910  1
  Se  Se195  1  0.59231499  0.58070125  0.31682823  1
  Se  Se196  1  0.57366274  0.56774536  0.79428856  1
  Se  Se197  1  0.59121891  0.91620897  0.30759081  1
  Se  Se198  1  0.58284294  0.91275283  0.79948329  1
  Se  Se199  1  0.91245834  0.25751225  0.30289029  1
  Se  Se200  1  0.92256458  0.24806597  0.80267179  1
  Se  Se201  1  0.91960140  0.58593160  0.30897527  1
  Se  Se202  1  0.91883150  0.58793944  0.79802897  1
  Se  Se203  1  0.90790836  0.90961547  0.31798179  1
  Se  Se204  1  0.90767519  0.90600748  0.80753599  1
  Se  Se205  1  0.08848948  0.08870687  0.31210033  1
  Se  Se206  1  0.08925123  0.08753271  0.80851030  1
  Se  Se207  1  0.08027575  0.41306256  0.30897251  1
  Se  Se208  1  0.09959679  0.43117578  0.79497450  1
  Se  Se209  1  0.08606710  0.74388645  0.30440430  1
  Se  Se210  1  0.07708031  0.75348789  0.79780902  1
  Se  Se211  1  0.41827364  0.08567659  0.31533015  1
  Se  Se212  1  0.42680101  0.09311620  0.80842261  1
  Se  Se213  1  0.42672555  0.41922878  0.31842314  1
  Se  Se214  1  0.41610682  0.42453749  0.78693219  1
  Se  Se215  1  0.41702725  0.74500993  0.30470104  1
  Se  Se216  1  0.42270207  0.76067141  0.80721628  1
  Se  Se217  1  0.74473341  0.08841265  0.30225453  1
  Se  Se218  1  0.73064212  0.06113074  0.80165720  1
  Se  Se219  1  0.74819047  0.43340040  0.32067470  1
  Se  Se220  1  0.75916235  0.41822341  0.80112741  1
  Se  Se221  1  0.75010477  0.74434264  0.31171394  1
  Se  Se222  1  0.74913013  0.74044580  0.79988515  1
  Se  Se223  1  0.24125304  0.09201680  0.19710999  1
  Se  Se224  1  0.24247077  0.09085432  0.68428665  1
  Se  Se225  1  0.23838944  0.42246604  0.18836633  1
  Se  Se226  1  0.24946784  0.42125727  0.70376793  1
  Se  Se227  1  0.25480175  0.74510949  0.20073347  1
  Se  Se228  1  0.24400550  0.75661707  0.68438976  1
  Se  Se229  1  0.59000732  0.08147587  0.20594233  1
  Se  Se230  1  0.58504020  0.08147959  0.69510391  1
  Se  Se231  1  0.57561602  0.42336437  0.19456981  1
  Se  Se232  1  0.60911490  0.39528322  0.68205580  1
  Se  Se233  1  0.59058693  0.74401075  0.20304390  1
  Se  Se234  1  0.58940009  0.74092133  0.69562651  1
  Se  Se235  1  0.91120628  0.08877647  0.19121855  1
  Se  Se236  1  0.90701909  0.09005312  0.69298188  1
  Se  Se237  1  0.90865781  0.42079228  0.19951641  1
  Se  Se238  1  0.92286935  0.41782825  0.69688232  1
  Se  Se239  1  0.91734562  0.75093805  0.20257536  1
  Se  Se240  1  0.91662638  0.74510487  0.68860014  1
  Se  Se241  1  0.07934769  0.25027266  0.20114159  1
  Se  Se242  1  0.08077554  0.25423442  0.69942416  1
  Se  Se243  1  0.08213391  0.58267471  0.19964791  1
  Se  Se244  1  0.08358347  0.58976869  0.70134067  1
  Se  Se245  1  0.08895338  0.91004486  0.19434558  1
  Se  Se246  1  0.08802652  0.91988091  0.67724023  1
  Se  Se247  1  0.42387489  0.24340867  0.19869131  1
  Se  Se248  1  0.41508517  0.25351761  0.69025074  1
  Se  Se249  1  0.41627157  0.58215875  0.20570820  1
  Se  Se250  1  0.42585301  0.57712884  0.68205931  1
  Se  Se251  1  0.43287232  0.90313527  0.19093489  1
  Se  Se252  1  0.42597637  0.91486899  0.68465869  1
  Se  Se253  1  0.75464811  0.24907262  0.18822645  1
  Se  Se254  1  0.76136186  0.24186167  0.70315935  1
  Se  Se255  1  0.74678973  0.58415500  0.19817262  1
  Se  Se256  1  0.74892840  0.58200645  0.68652002  1
  Se  Se257  1  0.75296664  0.91579894  0.20013774  1
  Se  Se258  1  0.74963351  0.91217930  0.69603042  1
