# generated using pymatgen
data_In86Cu29Se144
_symmetry_space_group_name_H-M   'P 1'
_cell_length_a   17.58469387
_cell_length_b   17.58548773
_cell_length_c   23.44915541
_cell_angle_alpha   89.99773000
_cell_angle_beta   90.02540507
_cell_angle_gamma   89.99831478
_symmetry_Int_Tables_number   1
_chemical_formula_structural   In86Cu29Se144
_chemical_formula_sum   'In86 Cu29 Se144'
_cell_volume   7251.30865921
_cell_formula_units_Z   1
loop_
 _symmetry_equiv_pos_site_id
 _symmetry_equiv_pos_as_xyz
  1  'x, y, z'
loop_
 _atom_site_type_symbol
 _atom_site_label
 _atom_site_symmetry_multiplicity
 _atom_site_fract_x
 _atom_site_fract_y
 _atom_site_fract_z
 _atom_site_occupancy
  In  In0  1  0.01860895  0.18514647  0.11531429  1
  In  In1  1  0.00015303  0.16635694  0.62506695  1
  In  In2  1  -0.00900979  0.48366686  0.11672696  1
  In  In3  1  0.02922924  0.47754978  0.64623040  1
  In  In4  1  0.00260736  0.82095844  0.12318101  1
  In  In5  1  -0.00681572  0.84287593  0.63338764  1
  In  In6  1  0.32812287  0.16801154  0.13380357  1
  In  In7  1  0.34189450  0.17617933  0.61740023  1
  In  In8  1  0.32281339  0.50869556  0.13200951  1
  In  In9  1  0.31677605  0.49359828  0.62211440  1
  In  In10  1  0.32795597  0.83688557  0.13327027  1
  In  In11  1  0.33617141  0.82542228  0.61487922  1
  In  In12  1  0.66929996  0.18189653  0.11283833  1
  In  In13  1  0.67174020  0.17080498  0.62088739  1
  In  In14  1  0.68637393  0.48956949  0.12941130  1
  In  In15  1  0.65802150  0.49269262  0.62738896  1
  In  In16  1  0.65968815  0.83378015  0.12939341  1
  In  In17  1  0.67273433  0.83680956  0.61063420  1
  In  In18  1  0.18283696  0.01274621  0.36519740  1
  In  In19  1  0.15557344  0.01099225  0.88241944  1
  In  In20  1  0.17420128  0.32955957  0.37144584  1
  In  In21  1  0.16048351  0.33612945  0.87336900  1
  In  In22  1  0.16077772  0.65075882  0.37593782  1
  In  In23  1  0.16159738  0.67209140  0.88308923  1
  In  In24  1  0.48591232  0.01429232  0.37969810  1
  In  In25  1  0.51168921  0.00933413  0.87282342  1
  In  In26  1  0.48975796  0.32843088  0.36785607  1
  In  In27  1  0.48578496  0.32462969  0.87152775  1
  In  In28  1  0.50827708  0.66893856  0.36317325  1
  In  In29  1  0.49990084  0.67018659  0.87678094  1
  In  In30  1  0.83521816  0.00073922  0.37990081  1
  In  In31  1  0.84684764  0.00724102  0.87120320  1
  In  In32  1  0.82665111  0.32074679  0.37610709  1
  In  In33  1  0.83689824  0.33021097  0.87378936  1
  In  In34  1  0.83289176  0.67585624  0.37169436  1
  In  In35  1  0.83783809  0.64698730  0.88174811  1
  In  In36  1  -0.00002780  0.17190384  0.37795861  1
  In  In37  1  -0.00063365  0.16868883  0.87361849  1
  In  In38  1  0.01703697  0.49710835  0.38076745  1
  In  In39  1  0.00494901  0.49567501  0.87238023  1
  In  In40  1  -0.00914732  0.82942070  0.38074192  1
  In  In41  1  0.00694580  0.84532833  0.87030832  1
  In  In42  1  0.33607959  0.16887267  0.37110061  1
  In  In43  1  0.31425947  0.18193201  0.88751978  1
  In  In44  1  0.32128196  0.48349527  0.35647923  1
  In  In45  1  0.32952571  0.48219946  0.87694511  1
  In  In46  1  0.34225894  0.84582825  0.36785462  1
  In  In47  1  0.33277259  0.82122406  0.87811755  1
  In  In48  1  0.66786510  0.16812135  0.38072394  1
  In  In49  1  0.65263163  0.18908014  0.89097496  1
  In  In50  1  0.65400157  0.50050531  0.36443036  1
  In  In51  1  0.68410858  0.49102632  0.88399630  1
  In  In52  1  0.67453694  0.82623529  0.37744303  1
  In  In53  1  0.65710411  0.83454127  0.87477932  1
  In  In54  1  0.18104761  0.01033684  0.11848810  1
  In  In55  1  0.14889173  0.00415947  0.62658085  1
  In  In56  1  0.16035060  0.32883254  0.12660442  1
  In  In57  1  0.17241303  0.33076256  0.62638069  1
  In  In58  1  0.16998018  0.66868579  0.11808632  1
  In  In59  1  0.16543214  0.65422959  0.62343234  1
  In  In60  1  0.48532124  0.01250841  0.13378915  1
  In  In61  1  0.50615532  0.00520295  0.61123204  1
  In  In62  1  0.49184896  0.30925772  0.13412922  1
  In  In63  1  0.50297077  0.32723277  0.63191839  1
  In  In64  1  0.50070740  0.65620466  0.14376501  1
  In  In65  1  0.49114053  0.66604410  0.61581431  1
  In  In66  1  0.82282719  0.00953785  0.12611275  1
  In  In67  1  0.84343709  0.00609824  0.61770880  1
  In  In68  1  0.84519694  0.34804994  0.11234541  1
  In  In69  1  0.84581493  0.32486826  0.63243349  1
  In  In70  1  0.84190994  0.64687152  0.13296119  1
  In  In71  1  0.84066502  0.67487418  0.62111796  1
  In  In72  1  0.49339474  0.49791990  0.48481807  1
  In  In73  1  0.32853806  0.65726149  0.74997628  1
  In  In74  1  0.00562370  0.00337545  0.25565481  1
  In  In75  1  0.67164771  0.66008029  0.75397829  1
  In  In76  1  0.16584672  0.84053665  0.49649922  1
  In  In77  1  0.66504074  0.33474602  0.24885103  1
  In  In78  1  0.49639645  0.49240155  0.00649091  1
  In  In79  1  0.84009927  0.50082294  0.50183973  1
  In  In80  1  0.67991154  0.01081621  0.73819701  1
  In  In81  1  0.32916158  0.00325912  0.75039238  1
  In  In82  1  -0.00206763  0.66078053  0.25359471  1
  In  In83  1  0.66295780  0.00014041  0.24606192  1
  In  In84  1  0.49006879  0.84149444  0.01465819  1
  In  In85  1  0.83301343  0.83885683  -0.00019394  1
  Cu  Cu86  1  0.50206414  0.83343216  0.25554772  1
  Cu  Cu87  1  -0.00181995  0.00560021  0.49953642  1
  Cu  Cu88  1  0.50588749  0.83474914  0.73620444  1
  Cu  Cu89  1  0.16339620  0.83163755  0.75379053  1
  Cu  Cu90  1  0.66891211  0.32354562  0.50337457  1
  Cu  Cu91  1  0.66841233  0.66488409  0.00758202  1
  Cu  Cu92  1  0.16759598  0.83178387  0.24519207  1
  Cu  Cu93  1  0.50203636  0.49040524  0.75196784  1
  Cu  Cu94  1  0.00133650  0.33171218  -0.00708972  1
  Cu  Cu95  1  0.83670706  0.49616538  0.75595792  1
  Cu  Cu96  1  0.83396585  0.16736693  0.74985154  1
  Cu  Cu97  1  0.00663169  0.32675178  0.50630013  1
  Cu  Cu98  1  0.15848445  0.49508605  0.24747908  1
  Cu  Cu99  1  0.33511393  0.00165040  0.00671481  1
  Cu  Cu100  1  0.33297757  0.00879724  0.49352995  1
  Cu  Cu101  1  0.66570445  0.66970597  0.49208642  1
  Cu  Cu102  1  0.33058085  0.33329192  0.49476320  1
  Cu  Cu103  1  0.66655764  0.01471335  -0.00045862  1
  Cu  Cu104  1  0.66279152  -0.00580788  0.49388636  1
  Cu  Cu105  1  0.00432659  0.00142288  -0.00300500  1
  Cu  Cu106  1  0.84221509  0.82512963  0.75092497  1
  Cu  Cu107  1  0.00128970  0.66357009  0.50250445  1
  Cu  Cu108  1  0.49063398  0.17534968  0.75262896  1
  Cu  Cu109  1  0.32668165  0.66141651  0.00441452  1
  Cu  Cu110  1  0.33642527  0.67137788  0.49384960  1
  Cu  Cu111  1  0.00141775  0.66169947  0.00072150  1
  Cu  Cu112  1  0.32487664  0.32906232  0.00549356  1
  Cu  Cu113  1  0.16261149  0.16968263  0.75405186  1
  Cu  Cu114  1  0.84229053  0.17201904  0.24903254  1
  Se  Se115  1  0.08708226  0.08335592  0.05282433  1
  Se  Se116  1  0.08335031  0.08790546  0.55121814  1
  Se  Se117  1  0.08440364  0.41145652  0.05099397  1
  Se  Se118  1  0.08799711  0.41529042  0.55652223  1
  Se  Se119  1  0.08412947  0.74987245  0.04930242  1
  Se  Se120  1  0.07990140  0.75159814  0.56028555  1
  Se  Se121  1  0.41290697  0.09048775  0.05858819  1
  Se  Se122  1  0.41886508  0.08901065  0.54866087  1
  Se  Se123  1  0.40436730  0.40782959  0.06723804  1
  Se  Se124  1  0.41360081  0.41239356  0.55631611  1
  Se  Se125  1  0.41109289  0.73578269  0.06606288  1
  Se  Se126  1  0.42278921  0.75392392  0.54333063  1
  Se  Se127  1  0.75535663  0.09237757  0.05086108  1
  Se  Se128  1  0.74190407  0.07396294  0.55554872  1
  Se  Se129  1  0.74037077  0.40869552  0.04878977  1
  Se  Se130  1  0.74664025  0.40988766  0.56032752  1
  Se  Se131  1  0.74990799  0.74768916  0.06420837  1
  Se  Se132  1  0.75321349  0.74442360  0.54866143  1
  Se  Se133  1  0.24452527  0.24326917  0.05962557  1
  Se  Se134  1  0.24921391  0.25034238  0.55124965  1
  Se  Se135  1  0.24308087  0.57348896  0.05170594  1
  Se  Se136  1  0.25642028  0.58947263  0.55069577  1
  Se  Se137  1  0.25376093  0.91087231  0.05476699  1
  Se  Se138  1  0.25501884  0.93102602  0.55897864  1
  Se  Se139  1  0.57409353  0.25761139  0.05220509  1
  Se  Se140  1  0.57808915  0.24859420  0.55664472  1
  Se  Se141  1  0.58535265  0.58610329  0.06478090  1
  Se  Se142  1  0.58845869  0.58409791  0.55119035  1
  Se  Se143  1  0.58949482  0.93512745  0.06275243  1
  Se  Se144  1  0.57833432  0.90975783  0.54646168  1
  Se  Se145  1  0.91859051  0.25005175  0.04962123  1
  Se  Se146  1  0.91523064  0.24702607  0.55428221  1
  Se  Se147  1  0.91472553  0.58002449  0.05184781  1
  Se  Se148  1  0.93219771  0.57841958  0.56740739  1
  Se  Se149  1  0.92367025  0.92653387  0.06176984  1
  Se  Se150  1  0.92156025  0.91440516  0.55219462  1
  Se  Se151  1  0.08924741  0.25181334  0.44390246  1
  Se  Se152  1  0.08630130  0.24595467  0.94319817  1
  Se  Se153  1  0.08887505  0.57912348  0.45596795  1
  Se  Se154  1  0.08321699  0.57879515  0.94593680  1
  Se  Se155  1  0.07883022  0.93138157  0.43394279  1
  Se  Se156  1  0.08655140  0.91251629  0.94871277  1
  Se  Se157  1  0.41754708  0.25083704  0.44424595  1
  Se  Se158  1  0.41384338  0.25083254  0.95143594  1
  Se  Se159  1  0.40535383  0.58981564  0.42811742  1
  Se  Se160  1  0.41011666  0.58787533  0.94224021  1
  Se  Se161  1  0.41500805  0.91783696  0.44733933  1
  Se  Se162  1  0.41296058  0.92599511  0.93864333  1
  Se  Se163  1  0.75517650  0.24155727  0.45226616  1
  Se  Se164  1  0.76330581  0.24519739  0.94651597  1
  Se  Se165  1  0.74293527  0.58037066  0.43795348  1
  Se  Se166  1  0.75146376  0.58086033  0.95607055  1
  Se  Se167  1  0.75324781  0.91377375  0.44531933  1
  Se  Se168  1  0.73926194  0.92842062  0.93841725  1
  Se  Se169  1  0.24855448  0.09234209  0.44341046  1
  Se  Se170  1  0.24899568  0.08030085  0.95073860  1
  Se  Se171  1  0.25107023  0.42032261  0.44143629  1
  Se  Se172  1  0.24472334  0.41175578  0.94894811  1
  Se  Se173  1  0.25100749  0.74922076  0.43466945  1
  Se  Se174  1  0.25005158  0.75153539  0.95171834  1
  Se  Se175  1  0.58221084  0.08488666  0.44595169  1
  Se  Se176  1  0.57361932  0.09119089  0.95060065  1
  Se  Se177  1  0.59372669  0.40287751  0.43924094  1
  Se  Se178  1  0.58034861  0.40991247  0.93846487  1
  Se  Se179  1  0.57819662  0.74937260  0.44077852  1
  Se  Se180  1  0.58576645  0.74807873  0.95248788  1
  Se  Se181  1  0.91498060  0.08850028  0.44546811  1
  Se  Se182  1  0.91892178  0.08510551  0.94667352  1
  Se  Se183  1  0.92491709  0.40427269  0.44310130  1
  Se  Se184  1  0.91758346  0.41815898  0.94208864  1
  Se  Se185  1  0.91502566  0.74327954  0.44997480  1
  Se  Se186  1  0.92202067  0.74710509  0.94092385  1
  Se  Se187  1  0.27796696  0.27231427  0.30220160  1
  Se  Se188  1  0.24831339  0.25223020  0.80510946  1
  Se  Se189  1  0.24074711  0.58278148  0.29899344  1
  Se  Se190  1  0.24207822  0.57581071  0.81495695  1
  Se  Se191  1  0.24950981  0.91630979  0.29880149  1
  Se  Se192  1  0.24569485  0.91051682  0.81340103  1
  Se  Se193  1  0.57844225  0.23666552  0.30537927  1
  Se  Se194  1  0.58201259  0.25106739  0.80535444  1
  Se  Se195  1  0.58361784  0.58375720  0.29276010  1
  Se  Se196  1  0.57804429  0.57220356  0.81436836  1
  Se  Se197  1  0.57860594  0.91796755  0.31536630  1
  Se  Se198  1  0.58232619  0.91649372  0.79679242  1
  Se  Se199  1  0.91981804  0.25427800  0.30635151  1
  Se  Se200  1  0.91920776  0.25024364  0.80208294  1
  Se  Se201  1  0.91376008  0.57035158  0.31645310  1
  Se  Se202  1  0.91927026  0.58350179  0.80470494  1
  Se  Se203  1  0.90933983  0.90927549  0.30673354  1
  Se  Se204  1  0.91731345  0.91870230  0.80079394  1
  Se  Se205  1  0.09598062  0.10374941  0.30304199  1
  Se  Se206  1  0.08070738  0.08159952  0.80374209  1
  Se  Se207  1  0.08247158  0.41157323  0.30581834  1
  Se  Se208  1  0.07564260  0.40830214  0.80064694  1
  Se  Se209  1  0.08875151  0.75781645  0.31088046  1
  Se  Se210  1  0.08248551  0.74825635  0.80807136  1
  Se  Se211  1  0.40652780  0.07634047  0.30130330  1
  Se  Se212  1  0.41501111  0.09286256  0.81367825  1
  Se  Se213  1  0.44651479  0.44282941  0.30858036  1
  Se  Se214  1  0.41091088  0.41277337  0.80130754  1
  Se  Se215  1  0.41224079  0.74957229  0.30190307  1
  Se  Se216  1  0.42722413  0.75802883  0.79988539  1
  Se  Se217  1  0.75807732  0.09058192  0.30561628  1
  Se  Se218  1  0.74966937  0.09512716  0.81346053  1
  Se  Se219  1  0.75905950  0.42172823  0.30861395  1
  Se  Se220  1  0.74911879  0.41314894  0.80471083  1
  Se  Se221  1  0.74348622  0.74381507  0.30228524  1
  Se  Se222  1  0.75839573  0.75479600  0.81484068  1
  Se  Se223  1  0.25724079  0.07055811  0.19946376  1
  Se  Se224  1  0.24231723  0.09260418  0.68913705  1
  Se  Se225  1  0.24391071  0.41481358  0.19444040  1
  Se  Se226  1  0.24359037  0.42109324  0.69762269  1
  Se  Se227  1  0.24749845  0.74267498  0.19496062  1
  Se  Se228  1  0.24634103  0.75881703  0.69072846  1
  Se  Se229  1  0.58311213  0.10045815  0.18961860  1
  Se  Se230  1  0.56985496  0.09281825  0.69193748  1
  Se  Se231  1  0.57409369  0.41824129  0.18532006  1
  Se  Se232  1  0.58820503  0.40904316  0.70061563  1
  Se  Se233  1  0.58474370  0.75208913  0.20083688  1
  Se  Se234  1  0.58549156  0.74678434  0.68458584  1
  Se  Se235  1  0.91837600  0.08907522  0.18908910  1
  Se  Se236  1  0.91534301  0.08297902  0.69479259  1
  Se  Se237  1  0.90725931  0.42224606  0.19422651  1
  Se  Se238  1  0.91903628  0.41287045  0.70162471  1
  Se  Se239  1  0.90944140  0.75607352  0.19589401  1
  Se  Se240  1  0.92381198  0.74231693  0.69733676  1
  Se  Se241  1  0.07543246  0.25531043  0.19992280  1
  Se  Se242  1  0.08291230  0.24941087  0.69329297  1
  Se  Se243  1  0.08204162  0.57724763  0.18552134  1
  Se  Se244  1  0.08594067  0.59147611  0.70093190  1
  Se  Se245  1  0.08718633  0.91261508  0.18737465  1
  Se  Se246  1  0.08253565  0.91900317  0.70162798  1
  Se  Se247  1  0.39025217  0.26443996  0.20733402  1
  Se  Se248  1  0.40645961  0.25547768  0.69768315  1
  Se  Se249  1  0.40560118  0.58282318  0.20448178  1
  Se  Se250  1  0.42570782  0.57249867  0.68946587  1
  Se  Se251  1  0.42022353  0.91380760  0.19854795  1
  Se  Se252  1  0.41970351  0.91617238  0.68420394  1
  Se  Se253  1  0.75996109  0.24940205  0.18858892  1
  Se  Se254  1  0.74882988  0.24842186  0.69521959  1
  Se  Se255  1  0.74151317  0.58927953  0.19913385  1
  Se  Se256  1  0.75984205  0.57364963  0.68930612  1
  Se  Se257  1  0.76049170  0.90806167  0.19456929  1
  Se  Se258  1  0.76179115  0.90355455  0.68835655  1
