# generated using pymatgen
data_In86Cu29Se144
_symmetry_space_group_name_H-M   'P 1'
_cell_length_a   17.57733330
_cell_length_b   17.57242877
_cell_length_c   23.43549816
_cell_angle_alpha   89.98993624
_cell_angle_beta   90.01886417
_cell_angle_gamma   89.97523623
_symmetry_Int_Tables_number   1
_chemical_formula_structural   In86Cu29Se144
_chemical_formula_sum   'In86 Cu29 Se144'
_cell_volume   7238.67199738
_cell_formula_units_Z   1
loop_
 _symmetry_equiv_pos_site_id
 _symmetry_equiv_pos_as_xyz
  1  'x, y, z'
loop_
 _atom_site_type_symbol
 _atom_site_label
 _atom_site_symmetry_multiplicity
 _atom_site_fract_x
 _atom_site_fract_y
 _atom_site_fract_z
 _atom_site_occupancy
  In  In0  1  0.01030859  0.16746462  0.12260318  1
  In  In1  1  0.00292085  0.14748501  0.61955882  1
  In  In2  1  -0.00326167  0.49186819  0.12005500  1
  In  In3  1  0.00054847  0.51080174  0.62708402  1
  In  In4  1  0.01349483  0.85461920  0.10486023  1
  In  In5  1  -0.00962142  0.83541550  0.62780654  1
  In  In6  1  0.33282823  0.16695233  0.12504385  1
  In  In7  1  0.33870918  0.17574904  0.62124603  1
  In  In8  1  0.32853193  0.50988519  0.12899422  1
  In  In9  1  0.32231501  0.49858564  0.63310178  1
  In  In10  1  0.32436929  0.84809625  0.13320057  1
  In  In11  1  0.33170671  0.81933409  0.62406497  1
  In  In12  1  0.66212995  0.16612085  0.11898201  1
  In  In13  1  0.66116363  0.17501225  0.62302558  1
  In  In14  1  0.68251124  0.50988647  0.12408549  1
  In  In15  1  0.68817101  0.51168948  0.62997753  1
  In  In16  1  0.67534500  0.82255846  0.12779588  1
  In  In17  1  0.66144609  0.82994268  0.62302175  1
  In  In18  1  0.17440302  0.00715346  0.36574244  1
  In  In19  1  0.16282808  -0.00530948  0.88939340  1
  In  In20  1  0.15413699  0.31923529  0.36328000  1
  In  In21  1  0.17388923  0.32548441  0.88389421  1
  In  In22  1  0.16800743  0.65456819  0.37195884  1
  In  In23  1  0.15798115  0.66621720  0.87661079  1
  In  In24  1  0.49002010  0.01055986  0.38562623  1
  In  In25  1  0.50207179  0.00507249  0.87808807  1
  In  In26  1  0.48288431  0.33214475  0.37255641  1
  In  In27  1  0.48953594  0.32829606  0.87257745  1
  In  In28  1  0.50779647  0.67238232  0.37208079  1
  In  In29  1  0.49772002  0.66511490  0.86432194  1
  In  In30  1  0.83366639  -0.01155318  0.37236058  1
  In  In31  1  0.85293080  -0.01728612  0.89538053  1
  In  In32  1  0.85274948  0.32978715  0.37675851  1
  In  In33  1  0.83577275  0.33261560  0.88168761  1
  In  In34  1  0.82735273  0.67682883  0.38126423  1
  In  In35  1  0.84008177  0.66065359  0.86910077  1
  In  In36  1  0.01062795  0.17480066  0.36682740  1
  In  In37  1  0.00239855  0.15824889  0.89174176  1
  In  In38  1  -0.00195234  0.48221271  0.37881303  1
  In  In39  1  -0.01114974  0.51336989  0.88413867  1
  In  In40  1  -0.01265754  0.83382953  0.37442469  1
  In  In41  1  0.00686957  0.82124997  0.87881952  1
  In  In42  1  0.32947548  0.16575965  0.37346556  1
  In  In43  1  0.32872041  0.16738492  0.88082310  1
  In  In44  1  0.32923450  0.49524454  0.36259589  1
  In  In45  1  0.33002493  0.49265672  0.87244523  1
  In  In46  1  0.33761807  0.84296467  0.36861008  1
  In  In47  1  0.32302368  0.82032867  0.87160086  1
  In  In48  1  0.66583388  0.15366158  0.37728857  1
  In  In49  1  0.66791619  0.16648627  0.88330272  1
  In  In50  1  0.67002337  0.51757274  0.37500517  1
  In  In51  1  0.67544215  0.51122504  0.86870133  1
  In  In52  1  0.67551912  0.82451958  0.38191183  1
  In  In53  1  0.68368648  0.82151535  0.86667432  1
  In  In54  1  0.16223295  0.00645118  0.12213992  1
  In  In55  1  0.15078495  0.01194175  0.61863351  1
  In  In56  1  0.16947897  0.33367802  0.12422177  1
  In  In57  1  0.17499485  0.33582512  0.62595840  1
  In  In58  1  0.17108929  0.67905131  0.11652574  1
  In  In59  1  0.16560495  0.67578370  0.64423098  1
  In  In60  1  0.48706161  0.00153618  0.12776932  1
  In  In61  1  0.50345562  0.00515629  0.61640324  1
  In  In62  1  0.49844226  0.32121664  0.12629185  1
  In  In63  1  0.49109474  0.32213197  0.62199348  1
  In  In64  1  0.50239977  0.67305194  0.13218400  1
  In  In65  1  0.48763078  0.67160935  0.62873216  1
  In  In66  1  0.85837796  0.02086135  0.10449735  1
  In  In67  1  0.84275352  -0.02078365  0.62484329  1
  In  In68  1  0.84443052  0.34720681  0.12058209  1
  In  In69  1  0.82586655  0.33599813  0.62423005  1
  In  In70  1  0.83524415  0.66752158  0.12104801  1
  In  In71  1  0.83802870  0.67604858  0.63339474  1
  In  In72  1  0.00342475  -0.01313425  0.75821200  1
  In  In73  1  0.16574964  0.83798694  0.49957651  1
  In  In74  1  0.67116425  0.00178617  0.74450100  1
  In  In75  1  0.66339280  0.33937910  0.75369788  1
  In  In76  1  0.67005102  -0.01338228  0.25282473  1
  In  In77  1  0.49746705  0.83736907  -0.00043556  1
  In  In78  1  0.16247933  0.49530493  0.50317989  1
  In  In79  1  0.32905809  -0.00303280  0.75827257  1
  In  In80  1  0.00073926  0.66853397  0.24893691  1
  In  In81  1  0.83159682  0.16303876  0.49978145  1
  In  In82  1  0.50192911  0.49957886  0.49948769  1
  In  In83  1  0.66903731  0.33783541  0.24602814  1
  In  In84  1  0.50180223  0.49631740  -0.01096297  1
  In  In85  1  0.00219077  0.33795828  0.74957591  1
  Cu  Cu86  1  0.67044348  0.33298921  0.00413641  1
  Cu  Cu87  1  0.33422228  0.33088313  0.00044307  1
  Cu  Cu88  1  0.66567415  -0.00684904  0.49978697  1
  Cu  Cu89  1  0.66567197  -0.00163543  -0.00198808  1
  Cu  Cu90  1  0.33214409  0.00322023  0.49450612  1
  Cu  Cu91  1  0.00633718  0.33365324  0.00260187  1
  Cu  Cu92  1  0.83840472  0.83597663  0.24612648  1
  Cu  Cu93  1  0.66239701  0.33657768  0.50385018  1
  Cu  Cu94  1  -0.01123431  0.66953880  0.50530061  1
  Cu  Cu95  1  0.67369652  0.66988566  0.50381399  1
  Cu  Cu96  1  0.49942881  0.83038780  0.25428490  1
  Cu  Cu97  1  0.83582299  0.50531443  0.24668380  1
  Cu  Cu98  1  0.16754814  0.83609390  0.24118709  1
  Cu  Cu99  1  0.32229259  0.67239383  0.00134069  1
  Cu  Cu100  1  0.16918529  0.49964972  0.24631659  1
  Cu  Cu101  1  0.49677846  0.49660448  0.74526053  1
  Cu  Cu102  1  -0.00246743  0.66045571  -0.00101207  1
  Cu  Cu103  1  0.32484352  0.32482765  0.49636367  1
  Cu  Cu104  1  0.49300536  0.16403865  0.25336001  1
  Cu  Cu105  1  0.33435222  0.66495772  0.50071256  1
  Cu  Cu106  1  0.17122834  0.16598155  0.24364617  1
  Cu  Cu107  1  0.32864692  0.00431190  0.00647754  1
  Cu  Cu108  1  0.17187627  0.16978451  0.75404971  1
  Cu  Cu109  1  0.49945263  0.83608019  0.74756863  1
  Cu  Cu110  1  0.67107393  0.66297950  -0.00453419  1
  Cu  Cu111  1  0.84594280  0.16804190  0.24283108  1
  Cu  Cu112  1  0.83359016  0.15806320  0.75998433  1
  Cu  Cu113  1  0.49946739  0.50466040  0.25061750  1
  Cu  Cu114  1  0.17119961  0.49750989  0.75862700  1
  Se  Se115  1  0.07220739  0.07356759  0.05022272  1
  Se  Se116  1  0.08249179  0.08649097  0.54031203  1
  Se  Se117  1  0.09013665  0.41902508  0.05355398  1
  Se  Se118  1  0.07116542  0.40688995  0.56214026  1
  Se  Se119  1  0.08213441  0.75010638  0.04620170  1
  Se  Se120  1  0.08330401  0.74123567  0.56036178  1
  Se  Se121  1  0.41864969  0.08605249  0.05397509  1
  Se  Se122  1  0.41370693  0.08607903  0.55245392  1
  Se  Se123  1  0.41555824  0.41476868  0.05853812  1
  Se  Se124  1  0.40083949  0.41415131  0.55510540  1
  Se  Se125  1  0.40842510  0.74852005  0.06103255  1
  Se  Se126  1  0.41822599  0.75096590  0.54996275  1
  Se  Se127  1  0.74549899  0.08533554  0.05084446  1
  Se  Se128  1  0.74457705  0.07157420  0.56484526  1
  Se  Se129  1  0.75169234  0.42162788  0.05293079  1
  Se  Se130  1  0.74678395  0.41928887  0.55445102  1
  Se  Se131  1  0.75000134  0.74812168  0.05063599  1
  Se  Se132  1  0.75556652  0.75375448  0.55876728  1
  Se  Se133  1  0.25043848  0.24826226  0.05490140  1
  Se  Se134  1  0.24249806  0.24624366  0.55379896  1
  Se  Se135  1  0.24693973  0.58114831  0.05367879  1
  Se  Se136  1  0.24867846  0.59329106  0.56142360  1
  Se  Se137  1  0.24608135  0.91621701  0.05506916  1
  Se  Se138  1  0.25708901  0.92624582  0.56187982  1
  Se  Se139  1  0.58065577  0.25130082  0.05128852  1
  Se  Se140  1  0.57814979  0.24923479  0.55015288  1
  Se  Se141  1  0.58418486  0.58929825  0.05524174  1
  Se  Se142  1  0.58901493  0.58914874  0.56186251  1
  Se  Se143  1  0.58874883  0.92149008  0.06386044  1
  Se  Se144  1  0.57986097  0.91197515  0.55271380  1
  Se  Se145  1  0.92084889  0.25348141  0.05757818  1
  Se  Se146  1  0.91909221  0.25137744  0.56264682  1
  Se  Se147  1  0.91416197  0.57907823  0.05440067  1
  Se  Se148  1  0.90978682  0.58525219  0.56031577  1
  Se  Se149  1  0.88993061  0.89490804  0.05424530  1
  Se  Se150  1  0.93805470  0.92861244  0.55207974  1
  Se  Se151  1  0.07210796  0.26225394  0.44293854  1
  Se  Se152  1  0.08860710  0.24627946  0.95254244  1
  Se  Se153  1  0.07055742  0.59054316  0.44447986  1
  Se  Se154  1  0.08804604  0.57850973  0.95045469  1
  Se  Se155  1  0.08125953  0.92265472  0.43369591  1
  Se  Se156  1  0.05437754  0.93133543  0.94456892  1
  Se  Se157  1  0.41503149  0.24591273  0.44539079  1
  Se  Se158  1  0.41865311  0.24748700  0.94824282  1
  Se  Se159  1  0.40817425  0.58328234  0.43755810  1
  Se  Se160  1  0.40784620  0.59584050  0.94185257  1
  Se  Se161  1  0.41458850  0.91260213  0.44792334  1
  Se  Se162  1  0.40199179  0.92317382  0.93946271  1
  Se  Se163  1  0.74161604  0.25722755  0.43922873  1
  Se  Se164  1  0.75309406  0.24932038  0.94929690  1
  Se  Se165  1  0.75422446  0.58443899  0.45020513  1
  Se  Se166  1  0.75636930  0.58087164  0.94395005  1
  Se  Se167  1  0.75459765  0.91518960  0.44784456  1
  Se  Se168  1  0.74145749  0.90943795  0.94421616  1
  Se  Se169  1  0.24599166  0.08512635  0.44372292  1
  Se  Se170  1  0.24598803  0.08583206  0.95001140  1
  Se  Se171  1  0.25005896  0.41057785  0.43660232  1
  Se  Se172  1  0.25312113  0.41832468  0.94889649  1
  Se  Se173  1  0.25289506  0.74298128  0.43896409  1
  Se  Se174  1  0.23938047  0.75430269  0.94709294  1
  Se  Se175  1  0.58436519  0.08421238  0.45234273  1
  Se  Se176  1  0.58030078  0.08423528  0.94969623  1
  Se  Se177  1  0.58819770  0.41086746  0.43435265  1
  Se  Se178  1  0.59699989  0.40644081  0.93322606  1
  Se  Se179  1  0.58499686  0.74664303  0.44872828  1
  Se  Se180  1  0.58470826  0.74359234  0.93930363  1
  Se  Se181  1  0.91892819  0.08318101  0.43257768  1
  Se  Se182  1  0.90114978  0.09496027  0.95473056  1
  Se  Se183  1  0.90839933  0.42036596  0.45141537  1
  Se  Se184  1  0.91938811  0.41471776  0.94906884  1
  Se  Se185  1  0.91273715  0.75713828  0.45035620  1
  Se  Se186  1  0.91479897  0.74276964  0.94352647  1
  Se  Se187  1  0.25310476  0.24919729  0.30041836  1
  Se  Se188  1  0.25398413  0.25190141  0.80757502  1
  Se  Se189  1  0.25126494  0.58661691  0.29702025  1
  Se  Se190  1  0.25089958  0.58604040  0.81022543  1
  Se  Se191  1  0.25115689  0.91737892  0.29817185  1
  Se  Se192  1  0.23062377  0.90922231  0.81016816  1
  Se  Se193  1  0.58149842  0.24365041  0.30819669  1
  Se  Se194  1  0.57933530  0.23966520  0.80728305  1
  Se  Se195  1  0.58600368  0.58727243  0.30110832  1
  Se  Se196  1  0.58002064  0.57716797  0.80047059  1
  Se  Se197  1  0.57596915  0.91106915  0.31860990  1
  Se  Se198  1  0.58018883  0.91135821  0.80962868  1
  Se  Se199  1  0.92256170  0.25511049  0.29781463  1
  Se  Se200  1  0.91920650  0.24055754  0.81264719  1
  Se  Se201  1  0.91348042  0.58149780  0.31331242  1
  Se  Se202  1  0.92746230  0.58250409  0.80040731  1
  Se  Se203  1  0.92111087  0.91996644  0.29868994  1
  Se  Se204  1  0.90436822  0.90023111  0.80974395  1
  Se  Se205  1  0.08535397  0.08524945  0.29814017  1
  Se  Se206  1  0.09002133  0.08959348  0.81204508  1
  Se  Se207  1  0.08313460  0.42110456  0.30125679  1
  Se  Se208  1  0.08831282  0.41858972  0.81781560  1
  Se  Se209  1  0.09270384  0.75912876  0.30928093  1
  Se  Se210  1  0.08000716  0.74553299  0.80272546  1
  Se  Se211  1  0.41276818  0.07810119  0.30623277  1
  Se  Se212  1  0.42348311  0.09155499  0.80772820  1
  Se  Se213  1  0.41642425  0.41428056  0.29601108  1
  Se  Se214  1  0.41669133  0.41539879  0.80249003  1
  Se  Se215  1  0.41420462  0.74650899  0.30579367  1
  Se  Se216  1  0.41487099  0.75369396  0.80093227  1
  Se  Se217  1  0.76117369  0.09127824  0.30266182  1
  Se  Se218  1  0.75692355  0.07629172  0.81877962  1
  Se  Se219  1  0.75723636  0.42398272  0.30981731  1
  Se  Se220  1  0.76620937  0.42255949  0.80487938  1
  Se  Se221  1  0.75595284  0.75581878  0.30338705  1
  Se  Se222  1  0.73898141  0.72193048  0.79813941  1
  Se  Se223  1  0.25300507  0.07900130  0.19228109  1
  Se  Se224  1  0.24458132  0.08585120  0.69096739  1
  Se  Se225  1  0.25366723  0.41580076  0.19420617  1
  Se  Se226  1  0.24860637  0.41033717  0.70333873  1
  Se  Se227  1  0.25132411  0.74740556  0.19460088  1
  Se  Se228  1  0.25931428  0.75328588  0.70442331  1
  Se  Se229  1  0.58061028  0.08614638  0.19669142  1
  Se  Se230  1  0.57400900  0.09384440  0.69366494  1
  Se  Se231  1  0.57864904  0.42862373  0.18528220  1
  Se  Se232  1  0.57905161  0.42281347  0.68223188  1
  Se  Se233  1  0.58783044  0.75312428  0.20051729  1
  Se  Se234  1  0.57903969  0.75044876  0.69373205  1
  Se  Se235  1  0.92566854  0.08099643  0.19148236  1
  Se  Se236  1  0.91144850  0.08081189  0.69650831  1
  Se  Se237  1  0.92057429  0.41909684  0.19897881  1
  Se  Se238  1  0.90689313  0.42438500  0.69282490  1
  Se  Se239  1  0.92192692  0.76069971  0.18446045  1
  Se  Se240  1  0.93848544  0.74013045  0.70053649  1
  Se  Se241  1  0.08593352  0.25282770  0.19458994  1
  Se  Se242  1  0.08547969  0.23842990  0.69045885  1
  Se  Se243  1  0.08922178  0.58123033  0.18609572  1
  Se  Se244  1  0.08827880  0.57569333  0.70088166  1
  Se  Se245  1  0.08071004  0.91824027  0.19118408  1
  Se  Se246  1  0.09617174  0.91052153  0.69024059  1
  Se  Se247  1  0.41386192  0.24919408  0.19819435  1
  Se  Se248  1  0.40888625  0.25609195  0.69706592  1
  Se  Se249  1  0.41688873  0.58854559  0.19631847  1
  Se  Se250  1  0.41074922  0.58211445  0.69592077  1
  Se  Se251  1  0.41861209  0.91739009  0.20201903  1
  Se  Se252  1  0.42058713  0.91787671  0.68882500  1
  Se  Se253  1  0.75770803  0.24552196  0.18677138  1
  Se  Se254  1  0.75728606  0.23934266  0.69808392  1
  Se  Se255  1  0.75378116  0.59320140  0.19798451  1
  Se  Se256  1  0.74505938  0.60343325  0.70393218  1
  Se  Se257  1  0.76465903  0.92023230  0.18323289  1
  Se  Se258  1  0.75971405  0.90021747  0.69684434  1
