# generated using pymatgen
data_In86Cu29Se144
_symmetry_space_group_name_H-M   'P 1'
_cell_length_a   17.58277354
_cell_length_b   17.57888346
_cell_length_c   23.44392141
_cell_angle_alpha   89.98049740
_cell_angle_beta   90.00108638
_cell_angle_gamma   90.00346474
_symmetry_Int_Tables_number   1
_chemical_formula_structural   In86Cu29Se144
_chemical_formula_sum   'In86 Cu29 Se144'
_cell_volume   7246.17636818
_cell_formula_units_Z   1
loop_
 _symmetry_equiv_pos_site_id
 _symmetry_equiv_pos_as_xyz
  1  'x, y, z'
loop_
 _atom_site_type_symbol
 _atom_site_label
 _atom_site_symmetry_multiplicity
 _atom_site_fract_x
 _atom_site_fract_y
 _atom_site_fract_z
 _atom_site_occupancy
  In  In0  1  0.00873208  0.17134778  0.12502204  1
  In  In1  1  0.00419927  0.16656111  0.62303204  1
  In  In2  1  0.00010054  0.49842464  0.13115081  1
  In  In3  1  0.01613256  0.53792173  0.59634405  1
  In  In4  1  -0.00145913  0.84042332  0.11350307  1
  In  In5  1  -0.00585121  0.78803357  0.62559519  1
  In  In6  1  0.31591142  0.16744242  0.12864376  1
  In  In7  1  0.35176576  0.16496939  0.62243923  1
  In  In8  1  0.34569840  0.50526404  0.12352810  1
  In  In9  1  0.33804552  0.50292175  0.62494805  1
  In  In10  1  0.33857244  0.83143024  0.12535341  1
  In  In11  1  0.33349080  0.82750950  0.62344334  1
  In  In12  1  0.66904320  0.16462737  0.13319002  1
  In  In13  1  0.65084676  0.17217089  0.62172350  1
  In  In14  1  0.65214749  0.51732137  0.13829719  1
  In  In15  1  0.67779358  0.50403701  0.60387506  1
  In  In16  1  0.66373784  0.83172988  0.12375859  1
  In  In17  1  0.65779331  0.84358061  0.64308472  1
  In  In18  1  0.16849159  -0.01989011  0.37530094  1
  In  In19  1  0.17452819  -0.00729235  0.88515432  1
  In  In20  1  0.16811300  0.35937280  0.36772344  1
  In  In21  1  0.17048597  0.32304304  0.87972988  1
  In  In22  1  0.18539328  0.64418847  0.38731586  1
  In  In23  1  0.18108606  0.68243786  0.86277904  1
  In  In24  1  0.49843083  -0.00506690  0.37264704  1
  In  In25  1  0.49384474  -0.02989905  0.87015630  1
  In  In26  1  0.51292758  0.32593400  0.39050131  1
  In  In27  1  0.50098598  0.35577509  0.87661504  1
  In  In28  1  0.50004175  0.66725863  0.37714072  1
  In  In29  1  0.49828060  0.66494794  0.87111793  1
  In  In30  1  0.82979271  0.00844986  0.37314776  1
  In  In31  1  0.81021978  -0.00771126  0.86469829  1
  In  In32  1  0.84209148  0.34305642  0.36846571  1
  In  In33  1  0.83838029  0.33444374  0.87648348  1
  In  In34  1  0.81934225  0.67201942  0.37702067  1
  In  In35  1  0.83792702  0.68332708  0.85109605  1
  In  In36  1  -0.01455271  0.17103756  0.37333667  1
  In  In37  1  0.00974630  0.17475623  0.88146462  1
  In  In38  1  0.01050303  0.49610602  0.38306266  1
  In  In39  1  -0.00966285  0.50805198  0.87307230  1
  In  In40  1  0.00561508  0.82648004  0.38281174  1
  In  In41  1  0.00984848  0.82318429  0.88013665  1
  In  In42  1  0.34993354  0.16937791  0.37423929  1
  In  In43  1  0.32297532  0.16146224  0.87775128  1
  In  In44  1  0.33219364  0.50914334  0.38178290  1
  In  In45  1  0.34715260  0.51480310  0.86340907  1
  In  In46  1  0.33769953  0.82830860  0.37352285  1
  In  In47  1  0.35819379  0.79322595  0.91128890  1
  In  In48  1  0.65747949  0.15538106  0.36756345  1
  In  In49  1  0.67444556  0.16278729  0.87484558  1
  In  In50  1  0.66326867  0.50072269  0.37934530  1
  In  In51  1  0.65345604  0.50559724  0.87959117  1
  In  In52  1  0.65643962  0.82182370  0.36624887  1
  In  In53  1  0.66050357  0.82706053  0.86981731  1
  In  In54  1  0.16817024  0.00454071  0.12570277  1
  In  In55  1  0.18390969  -0.01182711  0.62671822  1
  In  In56  1  0.16702694  0.32712271  0.12513538  1
  In  In57  1  0.16205527  0.35512989  0.62396339  1
  In  In58  1  0.17048429  0.67774688  0.12243200  1
  In  In59  1  0.17641505  0.66784436  0.62468605  1
  In  In60  1  0.51017249  -0.01303565  0.13227766  1
  In  In61  1  0.50212641  0.00003014  0.62083876  1
  In  In62  1  0.49768567  0.35208088  0.12840204  1
  In  In63  1  0.50117056  0.32482565  0.61461309  1
  In  In64  1  0.49748845  0.67285796  0.12386248  1
  In  In65  1  0.50582257  0.67136092  0.62852155  1
  In  In66  1  0.83056978  -0.01339888  0.12026199  1
  In  In67  1  0.81844046  -0.02135331  0.62598335  1
  In  In68  1  0.83083186  0.33339086  0.13396142  1
  In  In69  1  0.82394777  0.35641212  0.62020460  1
  In  In70  1  0.81992200  0.66532840  0.12469022  1
  In  In71  1  0.82569741  0.66432617  0.63516769  1
  In  In72  1  0.17161287  0.50610676  0.00332604  1
  In  In73  1  0.33525941  0.33682472  0.25230063  1
  In  In74  1  0.00187895  0.66477641  0.24930974  1
  In  In75  1  -0.00418702  0.00306116  0.24546675  1
  In  In76  1  0.83127676  0.17115359  0.50016447  1
  In  In77  1  0.83445163  0.82836405  0.50322609  1
  In  In78  1  0.00159308  0.34215551  0.75485954  1
  In  In79  1  0.82889471  0.50259479  -0.00442245  1
  In  In80  1  0.33589138  -0.00945932  0.75352933  1
  In  In81  1  0.66107429  0.33703921  0.74544243  1
  In  In82  1  0.83884556  0.16138503  0.00416562  1
  In  In83  1  0.00415213  -0.00485144  0.75334833  1
  In  In84  1  0.17384936  0.17412065  0.48995399  1
  In  In85  1  0.49540471  0.16183712  0.00192419  1
  Cu  Cu86  1  0.82946346  0.83667729  0.24785888  1
  Cu  Cu87  1  -0.00587760  -0.00119153  -0.00274124  1
  Cu  Cu88  1  0.49898618  0.82987391  0.24989890  1
  Cu  Cu89  1  0.50282566  0.50229353  0.25626914  1
  Cu  Cu90  1  -0.00246819  0.66880347  -0.00652307  1
  Cu  Cu91  1  0.34114177  0.66939751  0.50372935  1
  Cu  Cu92  1  0.16437192  0.82811132  0.74959499  1
  Cu  Cu93  1  0.82951582  0.50095169  0.25305834  1
  Cu  Cu94  1  0.66015557  -0.00717026  0.49730577  1
  Cu  Cu95  1  0.83123010  0.16054189  0.74372219  1
  Cu  Cu96  1  0.65760599  -0.01317663  -0.00531664  1
  Cu  Cu97  1  0.50045795  0.16310758  0.25241456  1
  Cu  Cu98  1  0.17538447  0.17434787  0.75472946  1
  Cu  Cu99  1  0.17681970  0.82601837  0.25105048  1
  Cu  Cu100  1  0.66577959  0.33973463  0.00775081  1
  Cu  Cu101  1  0.16970213  0.50558735  0.74207117  1
  Cu  Cu102  1  0.82456831  0.17206154  0.25208100  1
  Cu  Cu103  1  0.66424071  0.67257969  0.00049215  1
  Cu  Cu104  1  -0.00204249  0.34645484  0.49633953  1
  Cu  Cu105  1  0.16254233  0.16689681  0.24929788  1
  Cu  Cu106  1  0.33295783  0.33800925  0.00350220  1
  Cu  Cu107  1  0.83388148  0.50014867  0.74512897  1
  Cu  Cu108  1  0.32412216  -0.00053018  0.00620398  1
  Cu  Cu109  1  0.01161989  -0.00903983  0.50569464  1
  Cu  Cu110  1  0.50023169  0.16780887  0.74702631  1
  Cu  Cu111  1  0.49453025  0.50097082  0.74399344  1
  Cu  Cu112  1  0.34137717  -0.00828632  0.49922259  1
  Cu  Cu113  1  0.33315700  0.33667125  0.49919900  1
  Cu  Cu114  1  0.65861845  0.67241639  0.49942215  1
  Se  Se115  1  0.07543743  0.07753092  0.05658523  1
  Se  Se116  1  0.09166191  0.07974319  0.55828814  1
  Se  Se117  1  0.07776952  0.41390985  0.05774226  1
  Se  Se118  1  0.08796382  0.42630883  0.54599067  1
  Se  Se119  1  0.07897959  0.74745003  0.05266767  1
  Se  Se120  1  0.09409998  0.75051822  0.55418335  1
  Se  Se121  1  0.40826724  0.07690778  0.06692615  1
  Se  Se122  1  0.42184029  0.08139510  0.54897550  1
  Se  Se123  1  0.42062681  0.42162372  0.05047687  1
  Se  Se124  1  0.41683250  0.41705786  0.55443970  1
  Se  Se125  1  0.42322787  0.75883479  0.05234695  1
  Se  Se126  1  0.42490071  0.75321679  0.55626264  1
  Se  Se127  1  0.73531196  0.07336769  0.05354136  1
  Se  Se128  1  0.74374879  0.07291435  0.55673418  1
  Se  Se129  1  0.74375604  0.42192806  0.06641541  1
  Se  Se130  1  0.73288436  0.39576217  0.54129653  1
  Se  Se131  1  0.75113424  0.75284793  0.05308926  1
  Se  Se132  1  0.73689429  0.75053915  0.56409087  1
  Se  Se133  1  0.24961663  0.25150242  0.05226952  1
  Se  Se134  1  0.25321468  0.25681790  0.56252105  1
  Se  Se135  1  0.26542397  0.59802457  0.05568038  1
  Se  Se136  1  0.25554079  0.58340028  0.55386253  1
  Se  Se137  1  0.24513720  0.91331100  0.06076515  1
  Se  Se138  1  0.25435092  0.91075867  0.55061716  1
  Se  Se139  1  0.58562840  0.25338284  0.06242427  1
  Se  Se140  1  0.59240079  0.25481227  0.54458627  1
  Se  Se141  1  0.58429946  0.58763388  0.05597240  1
  Se  Se142  1  0.57668741  0.58659252  0.55226810  1
  Se  Se143  1  0.57615272  0.90872641  0.05268201  1
  Se  Se144  1  0.58694913  0.90990691  0.55873931  1
  Se  Se145  1  0.92113263  0.26127860  0.05900265  1
  Se  Se146  1  0.92576610  0.26298171  0.55920547  1
  Se  Se147  1  0.92251876  0.58939423  0.05821865  1
  Se  Se148  1  0.88676151  0.57733281  0.55773829  1
  Se  Se149  1  0.90747309  0.91308570  0.04438165  1
  Se  Se150  1  0.92896222  0.91450935  0.56598543  1
  Se  Se151  1  0.07463804  0.26108381  0.43628441  1
  Se  Se152  1  0.08693478  0.25191517  0.95259392  1
  Se  Se153  1  0.07697687  0.59161997  0.44977466  1
  Se  Se154  1  0.08184080  0.59078055  0.93666692  1
  Se  Se155  1  0.09029372  0.90701511  0.45113874  1
  Se  Se156  1  0.08200400  0.91468841  0.94855720  1
  Se  Se157  1  0.41657570  0.24711570  0.45259355  1
  Se  Se158  1  0.41327004  0.25793892  0.94022470  1
  Se  Se159  1  0.42180186  0.58380495  0.44950916  1
  Se  Se160  1  0.42051768  0.58030818  0.94267016  1
  Se  Se161  1  0.42262986  0.90892273  0.44372681  1
  Se  Se162  1  0.41128272  0.92030026  0.95297911  1
  Se  Se163  1  0.75018263  0.24804665  0.42862935  1
  Se  Se164  1  0.74368929  0.25946385  0.94766388  1
  Se  Se165  1  0.74443782  0.58865428  0.44856743  1
  Se  Se166  1  0.74724612  0.59835261  0.93560123  1
  Se  Se167  1  0.74663101  0.91774983  0.43828666  1
  Se  Se168  1  0.74575970  0.90910010  0.94125897  1
  Se  Se169  1  0.26056572  0.07262622  0.43821400  1
  Se  Se170  1  0.24519582  0.08714704  0.95308037  1
  Se  Se171  1  0.24891668  0.41973190  0.44773487  1
  Se  Se172  1  0.25883327  0.41856077  0.93829378  1
  Se  Se173  1  0.25601680  0.74770405  0.44588080  1
  Se  Se174  1  0.22936547  0.75255620  0.95171703  1
  Se  Se175  1  0.58099862  0.07896383  0.44327909  1
  Se  Se176  1  0.58257505  0.07506231  0.93675892  1
  Se  Se177  1  0.57401230  0.43070125  0.45083892  1
  Se  Se178  1  0.58277594  0.42214242  0.95425019  1
  Se  Se179  1  0.57815644  0.75786426  0.44620434  1
  Se  Se180  1  0.57913069  0.74942017  0.94273831  1
  Se  Se181  1  0.92737464  0.07103533  0.44856468  1
  Se  Se182  1  0.91628664  0.07430320  0.93199073  1
  Se  Se183  1  0.90875838  0.42533277  0.44580713  1
  Se  Se184  1  0.92911300  0.40849331  0.94628103  1
  Se  Se185  1  0.92375409  0.73433261  0.44669136  1
  Se  Se186  1  0.90871344  0.74440473  0.93811222  1
  Se  Se187  1  0.24270751  0.24500228  0.31293378  1
  Se  Se188  1  0.25937792  0.25600156  0.80619823  1
  Se  Se189  1  0.24913474  0.57365242  0.30474371  1
  Se  Se190  1  0.25313677  0.58777391  0.79745875  1
  Se  Se191  1  0.25612637  0.91453839  0.30275910  1
  Se  Se192  1  0.24450070  0.90449359  0.81257706  1
  Se  Se193  1  0.57722493  0.25135947  0.30676960  1
  Se  Se194  1  0.57647468  0.24752219  0.81275651  1
  Se  Se195  1  0.58659435  0.58754534  0.30799064  1
  Se  Se196  1  0.57917616  0.57718982  0.80189134  1
  Se  Se197  1  0.58294524  0.91647640  0.30133305  1
  Se  Se198  1  0.59694447  0.92733673  0.80165488  1
  Se  Se199  1  0.91666379  0.25234127  0.29834068  1
  Se  Se200  1  0.91044184  0.23827366  0.80547713  1
  Se  Se201  1  0.91005696  0.58220483  0.31280789  1
  Se  Se202  1  0.91997638  0.58403255  0.79553595  1
  Se  Se203  1  0.91358322  0.90808447  0.31079040  1
  Se  Se204  1  0.91422641  0.90825608  0.81261067  1
  Se  Se205  1  0.08592689  0.08615929  0.31329092  1
  Se  Se206  1  0.09517544  0.08999973  0.81063811  1
  Se  Se207  1  0.07358544  0.42254574  0.30022727  1
  Se  Se208  1  0.09663326  0.42988629  0.81217557  1
  Se  Se209  1  0.09278379  0.75080791  0.31122104  1
  Se  Se210  1  0.07611890  0.74523565  0.79945173  1
  Se  Se211  1  0.41497370  0.07933979  0.30227258  1
  Se  Se212  1  0.42505828  0.08744956  0.81207594  1
  Se  Se213  1  0.42547679  0.41839376  0.31665356  1
  Se  Se214  1  0.41574847  0.41399074  0.79829102  1
  Se  Se215  1  0.41710496  0.74438916  0.30337161  1
  Se  Se216  1  0.41202677  0.75879913  0.81337395  1
  Se  Se217  1  0.74724012  0.07788099  0.29899573  1
  Se  Se218  1  0.74103038  0.08533583  0.79568106  1
  Se  Se219  1  0.74516563  0.41934289  0.30697897  1
  Se  Se220  1  0.75545386  0.42224972  0.80974992  1
  Se  Se221  1  0.74908436  0.74862025  0.29878316  1
  Se  Se222  1  0.71935772  0.72985554  0.79584095  1
  Se  Se223  1  0.24691721  0.08015989  0.20172169  1
  Se  Se224  1  0.25094513  0.09110734  0.69321580  1
  Se  Se225  1  0.24870590  0.42355467  0.18818286  1
  Se  Se226  1  0.25379130  0.41771173  0.69497334  1
  Se  Se227  1  0.25826675  0.74490523  0.19571396  1
  Se  Se228  1  0.25439248  0.75017876  0.69755146  1
  Se  Se229  1  0.58428157  0.08091217  0.19800787  1
  Se  Se230  1  0.58104677  0.08436432  0.69290346  1
  Se  Se231  1  0.58472699  0.41622467  0.20302286  1
  Se  Se232  1  0.57751640  0.42509189  0.68222565  1
  Se  Se233  1  0.58463200  0.74891428  0.19508652  1
  Se  Se234  1  0.59981285  0.73314726  0.70300880  1
  Se  Se235  1  0.90269895  0.09314407  0.18657610  1
  Se  Se236  1  0.91341047  0.08178064  0.68623957  1
  Se  Se237  1  0.91426100  0.42023413  0.19886464  1
  Se  Se238  1  0.92173817  0.42775335  0.68575743  1
  Se  Se239  1  0.91312475  0.75895223  0.18821147  1
  Se  Se240  1  0.89730079  0.75800353  0.70203360  1
  Se  Se241  1  0.08185444  0.25398241  0.19891386  1
  Se  Se242  1  0.09065372  0.24741650  0.69337690  1
  Se  Se243  1  0.09730069  0.57896118  0.19107474  1
  Se  Se244  1  0.08284268  0.58492877  0.68856596  1
  Se  Se245  1  0.08773740  0.90488219  0.19443962  1
  Se  Se246  1  0.08652670  0.90675840  0.68664488  1
  Se  Se247  1  0.42258077  0.24407530  0.18926269  1
  Se  Se248  1  0.42096032  0.25369341  0.69369533  1
  Se  Se249  1  0.42349393  0.58315502  0.19688584  1
  Se  Se250  1  0.41417544  0.59108907  0.69438525  1
  Se  Se251  1  0.41523370  0.91575768  0.19837754  1
  Se  Se252  1  0.42766786  0.90710560  0.69249834  1
  Se  Se253  1  0.74075209  0.25721193  0.20069157  1
  Se  Se254  1  0.75729215  0.24850015  0.68595357  1
  Se  Se255  1  0.74929527  0.58954681  0.20250480  1
  Se  Se256  1  0.73885219  0.56978959  0.69238813  1
  Se  Se257  1  0.74579085  0.91853572  0.19400997  1
  Se  Se258  1  0.75243728  0.91556938  0.70938295  1
