# generated using pymatgen
data_In86Cu29Se144
_symmetry_space_group_name_H-M   'P 1'
_cell_length_a   17.58512110
_cell_length_b   17.58119550
_cell_length_c   23.43908230
_cell_angle_alpha   90.02907993
_cell_angle_beta   89.99169258
_cell_angle_gamma   90.00846968
_symmetry_Int_Tables_number   1
_chemical_formula_structural   In86Cu29Se144
_chemical_formula_sum   'In86 Cu29 Se144'
_cell_volume   7246.60026427
_cell_formula_units_Z   1
loop_
 _symmetry_equiv_pos_site_id
 _symmetry_equiv_pos_as_xyz
  1  'x, y, z'
loop_
 _atom_site_type_symbol
 _atom_site_label
 _atom_site_symmetry_multiplicity
 _atom_site_fract_x
 _atom_site_fract_y
 _atom_site_fract_z
 _atom_site_occupancy
  In  In0  1  0.00289231  0.15375763  0.12701950  1
  In  In1  1  0.00020966  0.16106248  0.62630333  1
  In  In2  1  -0.00109207  0.50065419  0.11615405  1
  In  In3  1  -0.01543254  0.51165872  0.63465791  1
  In  In4  1  0.01181423  0.83742871  0.12411533  1
  In  In5  1  -0.00558730  0.82860987  0.62386204  1
  In  In6  1  0.32185296  0.14635426  0.11265637  1
  In  In7  1  0.31778675  0.14486655  0.60662467  1
  In  In8  1  0.33081155  0.49285411  0.11597424  1
  In  In9  1  0.33416311  0.50644522  0.62939848  1
  In  In10  1  0.33958013  0.84721902  0.11613551  1
  In  In11  1  0.33513529  0.85202312  0.61109408  1
  In  In12  1  0.65665604  0.16509958  0.13049483  1
  In  In13  1  0.68627392  0.19023984  0.60256625  1
  In  In14  1  0.67213694  0.50967716  0.12107521  1
  In  In15  1  0.67300142  0.48111382  0.62868020  1
  In  In16  1  0.66053499  0.84221553  0.13931102  1
  In  In17  1  0.67334992  0.83904785  0.61510406  1
  In  In18  1  0.16501204  0.00116528  0.37462425  1
  In  In19  1  0.16125453  0.00497660  0.88316213  1
  In  In20  1  0.15679964  0.32496370  0.37150341  1
  In  In21  1  0.16132801  0.33627407  0.88088187  1
  In  In22  1  0.17678867  0.68114847  0.36964858  1
  In  In23  1  0.15560385  0.67444709  0.87853047  1
  In  In24  1  0.50298024  -0.00752580  0.37304686  1
  In  In25  1  0.49494573  0.00522213  0.88982429  1
  In  In26  1  0.49471202  0.32390258  0.37270610  1
  In  In27  1  0.50848297  0.32840439  0.87759286  1
  In  In28  1  0.51405482  0.67067230  0.36748921  1
  In  In29  1  0.49133502  0.67851886  0.88596896  1
  In  In30  1  0.83468448  0.00287968  0.37745305  1
  In  In31  1  0.84962568  -0.00645001  0.87004619  1
  In  In32  1  0.83248820  0.32929452  0.38912774  1
  In  In33  1  0.84299195  0.34495158  0.86466415  1
  In  In34  1  0.83200291  0.66944408  0.37975424  1
  In  In35  1  0.83022698  0.66020046  0.87368633  1
  In  In36  1  0.01935074  0.14135413  0.40200920  1
  In  In37  1  0.00465781  0.17443863  0.86634678  1
  In  In38  1  -0.00361688  0.49012852  0.37340065  1
  In  In39  1  -0.00218395  0.49881176  0.87615196  1
  In  In40  1  -0.01672139  0.85732684  0.39605908  1
  In  In41  1  0.00935671  0.84772788  0.85672237  1
  In  In42  1  0.35441096  0.13484213  0.39795629  1
  In  In43  1  0.32822739  0.16203665  0.88526438  1
  In  In44  1  0.33434956  0.51276317  0.36838789  1
  In  In45  1  0.32887653  0.50502148  0.88637828  1
  In  In46  1  0.31457479  0.85840607  0.39115586  1
  In  In47  1  0.32753386  0.84615324  0.89114766  1
  In  In48  1  0.68870837  0.15450213  0.39228212  1
  In  In49  1  0.65463723  0.17079480  0.87242877  1
  In  In50  1  0.67199973  0.50851952  0.36866256  1
  In  In51  1  0.67771444  0.49770665  0.88158051  1
  In  In52  1  0.66714901  0.83041431  0.37509464  1
  In  In53  1  0.66553176  0.82880826  0.87444393  1
  In  In54  1  0.16734047  -0.00205076  0.12653466  1
  In  In55  1  0.13527238  -0.02717123  0.58798362  1
  In  In56  1  0.16982790  0.33155670  0.11564665  1
  In  In57  1  0.15536847  0.31417678  0.62428641  1
  In  In58  1  0.16658302  0.66995941  0.11591724  1
  In  In59  1  0.15164940  0.66191400  0.62821285  1
  In  In60  1  0.50003658  -0.00145779  0.12944803  1
  In  In61  1  0.50672129  0.00946622  0.61034740  1
  In  In62  1  0.49447242  0.32032254  0.11475302  1
  In  In63  1  0.51132386  0.32663062  0.62725150  1
  In  In64  1  0.50984315  0.67760162  0.12270076  1
  In  In65  1  0.49597563  0.67629560  0.62477263  1
  In  In66  1  0.83843884  -0.00204463  0.14237332  1
  In  In67  1  0.84831650  -0.00296390  0.61649318  1
  In  In68  1  0.82333153  0.34228660  0.12421155  1
  In  In69  1  0.83113513  0.33919238  0.62556192  1
  In  In70  1  0.82753813  0.65228737  0.12973717  1
  In  In71  1  0.84918190  0.67902742  0.61400416  1
  In  In72  1  0.32800041  0.32213280  0.24140088  1
  In  In73  1  0.32776335  0.00473382  0.75017970  1
  In  In74  1  -0.00056924  0.67377054  0.24871770  1
  In  In75  1  0.67365408  0.00737670  0.73887598  1
  In  In76  1  0.16384406  0.49886820  0.49496276  1
  In  In77  1  0.83028548  0.17285899  0.00378483  1
  In  In78  1  0.32573699  0.67409052  0.75826396  1
  In  In79  1  0.33572849  0.67421392  0.24466056  1
  In  In80  1  0.83223668  0.82849717  -0.00212974  1
  In  In81  1  0.32998083  0.32897384  0.74754453  1
  In  In82  1  -0.00410166  0.32920887  0.25108786  1
  In  In83  1  0.67322867  0.66427867  0.75463262  1
  In  In84  1  0.66658080  0.32929191  0.25594565  1
  In  In85  1  0.51167637  0.49656978  0.49651193  1
  Cu  Cu86  1  0.49937541  0.17187996  0.74651366  1
  Cu  Cu87  1  0.66118517  0.66869755  0.00151720  1
  Cu  Cu88  1  0.49658168  0.83377782  0.25228733  1
  Cu  Cu89  1  0.33510786  0.67616877  0.49810028  1
  Cu  Cu90  1  0.83934775  0.16539665  0.26285045  1
  Cu  Cu91  1  0.33398462  0.66283217  0.00403232  1
  Cu  Cu92  1  0.66320057  -0.00980903  0.49550335  1
  Cu  Cu93  1  0.00646300  0.00011020  -0.00023810  1
  Cu  Cu94  1  0.00221896  0.66738915  0.50208533  1
  Cu  Cu95  1  0.00212474  0.33227790  -0.00695423  1
  Cu  Cu96  1  0.16495427  0.83480201  0.73992895  1
  Cu  Cu97  1  -0.00252242  0.66480715  -0.00276347  1
  Cu  Cu98  1  0.50383315  0.49712503  0.75810549  1
  Cu  Cu99  1  0.50325094  0.49455861  0.24273981  1
  Cu  Cu100  1  0.66362454  -0.00149716  0.00681278  1
  Cu  Cu101  1  0.33736768  0.33001437  -0.00247168  1
  Cu  Cu102  1  0.83361273  0.49830748  0.75111776  1
  Cu  Cu103  1  0.50543886  0.84409726  0.75082929  1
  Cu  Cu104  1  0.66861235  0.66365304  0.49776402  1
  Cu  Cu105  1  -0.00816941  0.33718392  0.50697775  1
  Cu  Cu106  1  0.16117263  0.84354786  0.25186396  1
  Cu  Cu107  1  0.50054500  0.14938399  0.25325724  1
  Cu  Cu108  1  0.15351310  0.49030193  0.75267689  1
  Cu  Cu109  1  0.83348234  0.83162681  0.26122957  1
  Cu  Cu110  1  0.66588344  0.33968071  -0.00088864  1
  Cu  Cu111  1  0.82894348  0.16790457  0.74018213  1
  Cu  Cu112  1  0.15888994  0.15920273  0.74877886  1
  Cu  Cu113  1  0.16946047  0.15833939  0.25552775  1
  Cu  Cu114  1  0.33590011  0.33528118  0.49951756  1
  Se  Se115  1  0.08756246  0.08399976  0.05410402  1
  Se  Se116  1  0.08896476  0.10130241  0.54960326  1
  Se  Se117  1  0.08304552  0.41505261  0.05093710  1
  Se  Se118  1  0.07695478  0.41925339  0.56429071  1
  Se  Se119  1  0.07879460  0.75112601  0.05000330  1
  Se  Se120  1  0.08694886  0.74850201  0.55503657  1
  Se  Se121  1  0.43849118  0.09549256  0.05955304  1
  Se  Se122  1  0.41740945  0.08253947  0.54219878  1
  Se  Se123  1  0.42018853  0.41457980  0.05010059  1
  Se  Se124  1  0.41224795  0.41726046  0.56016731  1
  Se  Se125  1  0.41616215  0.74885736  0.05587112  1
  Se  Se126  1  0.41923207  0.75584012  0.55318055  1
  Se  Se127  1  0.75021875  0.07418104  0.06516793  1
  Se  Se128  1  0.74079636  0.06667133  0.55893142  1
  Se  Se129  1  0.75065572  0.42296535  0.05058003  1
  Se  Se130  1  0.74723933  0.41243464  0.55124622  1
  Se  Se131  1  0.74247074  0.74753610  0.06414584  1
  Se  Se132  1  0.75197707  0.74971124  0.54969298  1
  Se  Se133  1  0.25161065  0.24622121  0.04960819  1
  Se  Se134  1  0.24966422  0.25570257  0.55275730  1
  Se  Se135  1  0.24629193  0.57886756  0.05162593  1
  Se  Se136  1  0.25654994  0.59041141  0.55617453  1
  Se  Se137  1  0.23149790  0.90362822  0.05608292  1
  Se  Se138  1  0.26575083  0.94207796  0.54350177  1
  Se  Se139  1  0.59274552  0.24694568  0.05190101  1
  Se  Se140  1  0.57116529  0.24597170  0.54859957  1
  Se  Se141  1  0.57926167  0.58278764  0.05415532  1
  Se  Se142  1  0.59102056  0.58840716  0.56470162  1
  Se  Se143  1  0.58468025  0.91281529  0.06059317  1
  Se  Se144  1  0.57783027  0.90819907  0.54940577  1
  Se  Se145  1  0.92590666  0.25986370  0.06339106  1
  Se  Se146  1  0.91532439  0.24993776  0.56141654  1
  Se  Se147  1  0.91249740  0.58697196  0.05294718  1
  Se  Se148  1  0.91807758  0.57830122  0.54974696  1
  Se  Se149  1  0.91717130  0.92584949  0.05831223  1
  Se  Se150  1  0.92581142  0.91272512  0.54784211  1
  Se  Se151  1  0.07908537  0.26129334  0.45093262  1
  Se  Se152  1  0.08380659  0.24199368  0.94549385  1
  Se  Se153  1  0.07962981  0.59373680  0.43409895  1
  Se  Se154  1  0.08282321  0.58064324  0.94506213  1
  Se  Se155  1  0.09594701  0.91475348  0.45033566  1
  Se  Se156  1  0.07834210  0.90976548  0.94312146  1
  Se  Se157  1  0.41916761  0.25025286  0.44895862  1
  Se  Se158  1  0.42046842  0.24748040  0.94346920  1
  Se  Se159  1  0.41587696  0.59166224  0.44192815  1
  Se  Se160  1  0.42048812  0.58216960  0.95081763  1
  Se  Se161  1  0.43019177  0.90660374  0.44571306  1
  Se  Se162  1  0.43024310  0.90675999  0.95343989  1
  Se  Se163  1  0.74870764  0.25314655  0.45917560  1
  Se  Se164  1  0.74716682  0.25971151  0.93711614  1
  Se  Se165  1  0.75093050  0.57907737  0.44589422  1
  Se  Se166  1  0.75058999  0.58942450  0.95007380  1
  Se  Se167  1  0.75214948  0.91234951  0.44279313  1
  Se  Se168  1  0.74586402  0.92860954  0.94053134  1
  Se  Se169  1  0.22454426  0.10598371  0.44095901  1
  Se  Se170  1  0.26805270  0.05835354  0.94700008  1
  Se  Se171  1  0.26000733  0.41280638  0.43481303  1
  Se  Se172  1  0.24858317  0.41378654  0.94899173  1
  Se  Se173  1  0.24300292  0.75474673  0.45072799  1
  Se  Se174  1  0.25157115  0.74296204  0.94580844  1
  Se  Se175  1  0.58297405  0.07859409  0.44422709  1
  Se  Se176  1  0.58990396  0.08686890  0.94939815  1
  Se  Se177  1  0.59363032  0.40691523  0.43262626  1
  Se  Se178  1  0.58194075  0.42128650  0.94468401  1
  Se  Se179  1  0.58401783  0.74650292  0.44578802  1
  Se  Se180  1  0.58416238  0.75834082  0.94907709  1
  Se  Se181  1  0.89655094  0.09699524  0.44985443  1
  Se  Se182  1  0.92213815  0.08223172  0.94408141  1
  Se  Se183  1  0.91629044  0.42260125  0.44991375  1
  Se  Se184  1  0.91319137  0.41622283  0.94609364  1
  Se  Se185  1  0.91454010  0.74887883  0.45055769  1
  Se  Se186  1  0.92547319  0.74927229  0.93416922  1
  Se  Se187  1  0.25147959  0.23816520  0.31376174  1
  Se  Se188  1  0.24243280  0.23787543  0.80872807  1
  Se  Se189  1  0.23873592  0.57993767  0.29867324  1
  Se  Se190  1  0.23845657  0.57227515  0.80904268  1
  Se  Se191  1  0.25088852  0.92194191  0.30398170  1
  Se  Se192  1  0.24282406  0.90766145  0.80784922  1
  Se  Se193  1  0.58053106  0.23179941  0.31165651  1
  Se  Se194  1  0.58335985  0.25519140  0.79835351  1
  Se  Se195  1  0.58224736  0.57871310  0.29777745  1
  Se  Se196  1  0.57554124  0.58521377  0.81718939  1
  Se  Se197  1  0.58722191  0.91275687  0.30319616  1
  Se  Se198  1  0.58323576  0.92584626  0.80992644  1
  Se  Se199  1  0.92037604  0.24316216  0.32199632  1
  Se  Se200  1  0.91171713  0.24703887  0.80004736  1
  Se  Se201  1  0.91282582  0.57935935  0.30714684  1
  Se  Se202  1  0.91591856  0.58178222  0.80547056  1
  Se  Se203  1  0.91893056  0.91863877  0.30820908  1
  Se  Se204  1  0.91597817  0.91910096  0.79149532  1
  Se  Se205  1  0.07619225  0.08513506  0.30855881  1
  Se  Se206  1  0.08070144  0.07476801  0.80623991  1
  Se  Se207  1  0.09357657  0.42519915  0.30167593  1
  Se  Se208  1  0.07521864  0.40664116  0.80803734  1
  Se  Se209  1  0.07958736  0.76698946  0.31325150  1
  Se  Se210  1  0.08824124  0.74916842  0.79734975  1
  Se  Se211  1  0.41112731  0.07381792  0.30726479  1
  Se  Se212  1  0.42473623  0.09154363  0.80915293  1
  Se  Se213  1  0.41918982  0.42011525  0.30273023  1
  Se  Se214  1  0.41336728  0.42129334  0.81199663  1
  Se  Se215  1  0.41317530  0.75977125  0.31532874  1
  Se  Se216  1  0.41980919  0.76906470  0.80989764  1
  Se  Se217  1  0.74765194  0.08216492  0.30677656  1
  Se  Se218  1  0.75793490  0.09117646  0.81102501  1
  Se  Se219  1  0.76454786  0.41630815  0.30892273  1
  Se  Se220  1  0.74366061  0.41854152  0.80205214  1
  Se  Se221  1  0.74905963  0.74335064  0.30633601  1
  Se  Se222  1  0.76365958  0.76367286  0.80515526  1
  Se  Se223  1  0.25201609  0.08034696  0.19643349  1
  Se  Se224  1  0.23359943  0.08034551  0.68574822  1
  Se  Se225  1  0.24028243  0.42277043  0.19091722  1
  Se  Se226  1  0.23732793  0.42134007  0.68872587  1
  Se  Se227  1  0.23895632  0.76206597  0.18993485  1
  Se  Se228  1  0.25202847  0.75886521  0.68240967  1
  Se  Se229  1  0.59065519  0.07306072  0.20070856  1
  Se  Se230  1  0.58057617  0.09730864  0.68375888  1
  Se  Se231  1  0.57939096  0.40895973  0.18550386  1
  Se  Se232  1  0.58023995  0.41547712  0.69974916  1
  Se  Se233  1  0.58227119  0.74765141  0.20332701  1
  Se  Se234  1  0.58350897  0.75912125  0.69441507  1
  Se  Se235  1  0.92302750  0.08630518  0.20486087  1
  Se  Se236  1  0.91393854  0.07996880  0.69464767  1
  Se  Se237  1  0.91079669  0.42510088  0.19213735  1
  Se  Se238  1  0.91698186  0.41233686  0.69935818  1
  Se  Se239  1  0.90654317  0.76151315  0.18738973  1
  Se  Se240  1  0.92511655  0.73803969  0.69519147  1
  Se  Se241  1  0.09522739  0.24289302  0.19296973  1
  Se  Se242  1  0.07528780  0.24756721  0.70118433  1
  Se  Se243  1  0.08638215  0.58235807  0.18758372  1
  Se  Se244  1  0.07808084  0.58350562  0.70272661  1
  Se  Se245  1  0.07620538  0.92508632  0.19832508  1
  Se  Se246  1  0.08621513  0.91841460  0.68375015  1
  Se  Se247  1  0.42556070  0.23208740  0.19076125  1
  Se  Se248  1  0.40996731  0.23713611  0.68279376  1
  Se  Se249  1  0.42079408  0.57617175  0.18596086  1
  Se  Se250  1  0.42544639  0.58228409  0.70077944  1
  Se  Se251  1  0.41366450  0.91534726  0.19711950  1
  Se  Se252  1  0.42612764  0.92168370  0.68902525  1
  Se  Se253  1  0.76238858  0.24015778  0.19551114  1
  Se  Se254  1  0.74371250  0.25325677  0.69255889  1
  Se  Se255  1  0.74388889  0.57949661  0.20085693  1
  Se  Se256  1  0.75801876  0.58013989  0.68747941  1
  Se  Se257  1  0.75124538  0.91685525  0.20683022  1
  Se  Se258  1  0.76170629  0.90784813  0.68904308  1
