# generated using pymatgen
data_In86Cu29Se144
_symmetry_space_group_name_H-M   'P 1'
_cell_length_a   17.58230028
_cell_length_b   17.58522911
_cell_length_c   23.44594398
_cell_angle_alpha   89.98503561
_cell_angle_beta   89.98287848
_cell_angle_gamma   89.99035305
_symmetry_Int_Tables_number   1
_chemical_formula_structural   In86Cu29Se144
_chemical_formula_sum   'In86 Cu29 Se144'
_cell_volume   7249.22211292
_cell_formula_units_Z   1
loop_
 _symmetry_equiv_pos_site_id
 _symmetry_equiv_pos_as_xyz
  1  'x, y, z'
loop_
 _atom_site_type_symbol
 _atom_site_label
 _atom_site_symmetry_multiplicity
 _atom_site_fract_x
 _atom_site_fract_y
 _atom_site_fract_z
 _atom_site_occupancy
  In  In0  1  -0.00131063  0.16365527  0.11653631  1
  In  In1  1  0.01537619  0.17401646  0.60853324  1
  In  In2  1  0.01103042  0.50713404  0.12778109  1
  In  In3  1  0.00055677  0.48551767  0.62818797  1
  In  In4  1  -0.00047587  0.83448377  0.12100024  1
  In  In5  1  0.00812219  0.84871479  0.61068725  1
  In  In6  1  0.33404386  0.16514285  0.12746469  1
  In  In7  1  0.33300210  0.17081875  0.61807948  1
  In  In8  1  0.32319152  0.49578905  0.14238247  1
  In  In9  1  0.31641147  0.47665429  0.60198884  1
  In  In10  1  0.32972369  0.84679825  0.13424018  1
  In  In11  1  0.34083219  0.84064654  0.61655523  1
  In  In12  1  0.65517424  0.15997542  0.11787474  1
  In  In13  1  0.67302463  0.17434219  0.62210812  1
  In  In14  1  0.65867635  0.50814034  0.12521395  1
  In  In15  1  0.66580817  0.50753208  0.63152930  1
  In  In16  1  0.67605480  0.83949358  0.12115752  1
  In  In17  1  0.66092407  0.82521126  0.61889414  1
  In  In18  1  0.17298022  -0.00477623  0.38025795  1
  In  In19  1  0.17446320  -0.00399886  0.88019424  1
  In  In20  1  0.19090610  0.32065658  0.39362436  1
  In  In21  1  0.15932305  0.32521684  0.86508827  1
  In  In22  1  0.18608463  0.65771350  0.38385635  1
  In  In23  1  0.17056143  0.68006997  0.87735543  1
  In  In24  1  0.49722498  -0.00080185  0.36908015  1
  In  In25  1  0.50074885  0.01678808  0.87401077  1
  In  In26  1  0.46675258  0.36062489  0.41299052  1
  In  In27  1  0.49259436  0.32871842  0.86373579  1
  In  In28  1  0.47922262  0.68865985  0.38193340  1
  In  In29  1  0.50059966  0.65689696  0.87346299  1
  In  In30  1  0.82041456  0.01189629  0.38457472  1
  In  In31  1  0.83838605  -0.00400640  0.88036425  1
  In  In32  1  0.82512828  0.32041202  0.38033001  1
  In  In33  1  0.82237322  0.32627232  0.86072160  1
  In  In34  1  0.84285685  0.67421154  0.37441207  1
  In  In35  1  0.82812605  0.68014813  0.87242187  1
  In  In36  1  0.00670796  0.15004367  0.38973708  1
  In  In37  1  -0.00103457  0.16780195  0.87798357  1
  In  In38  1  0.01904087  0.49906018  0.38334184  1
  In  In39  1  0.01258005  0.48984089  0.86912260  1
  In  In40  1  0.00095759  0.84235354  0.39072089  1
  In  In41  1  -0.00003213  0.83514486  0.87919443  1
  In  In42  1  0.33429121  0.17458372  0.37869056  1
  In  In43  1  0.33440488  0.16802851  0.87284440  1
  In  In44  1  0.32654637  0.50356391  0.37660113  1
  In  In45  1  0.34143595  0.49695199  0.87325293  1
  In  In46  1  0.33785385  0.83139996  0.37057083  1
  In  In47  1  0.31819019  0.83408710  0.87848889  1
  In  In48  1  0.66154408  0.16098602  0.37726325  1
  In  In49  1  0.65920149  0.17354825  0.87690105  1
  In  In50  1  0.66337964  0.48392921  0.37554753  1
  In  In51  1  0.66349130  0.49752440  0.85446659  1
  In  In52  1  0.64031314  0.85899418  0.38323608  1
  In  In53  1  0.67670476  0.83647640  0.86974272  1
  In  In54  1  0.17586674  0.00900042  0.12426493  1
  In  In55  1  0.18407687  0.02599061  0.60369871  1
  In  In56  1  0.18428459  0.32409550  0.12963544  1
  In  In57  1  0.16739672  0.32676791  0.61997028  1
  In  In58  1  0.16659803  0.66878337  0.12853660  1
  In  In59  1  0.17166862  0.67565982  0.61654170  1
  In  In60  1  0.47918840  0.01670081  0.14870007  1
  In  In61  1  0.48875271  -0.00760184  0.61888631  1
  In  In62  1  0.49901456  0.32172775  0.12470514  1
  In  In63  1  0.49610339  0.33242168  0.61750356  1
  In  In64  1  0.48811941  0.66845105  0.13218183  1
  In  In65  1  0.50385080  0.66562820  0.62018899  1
  In  In66  1  0.83213236  -0.00094406  0.12093048  1
  In  In67  1  0.84354462  0.00429906  0.60965368  1
  In  In68  1  0.84964538  0.32622093  0.12380261  1
  In  In69  1  0.84541554  0.32898046  0.63986424  1
  In  In70  1  0.81973974  0.68148986  0.12159739  1
  In  In71  1  0.82009351  0.66546103  0.62772433  1
  In  In72  1  0.66008001  0.31761590  0.25233351  1
  In  In73  1  0.82771423  0.49489107  -0.00726278  1
  In  In74  1  0.33778029  0.65828617  0.75023902  1
  In  In75  1  0.66613825  0.00270604  0.74673883  1
  In  In76  1  -0.00936635  0.65987765  0.74666742  1
  In  In77  1  0.49782246  0.84379483  0.01370163  1
  In  In78  1  0.16540571  0.49404420  0.00353677  1
  In  In79  1  0.49545286  0.49546273  -0.00697429  1
  In  In80  1  0.01447080  0.67110151  0.24748756  1
  In  In81  1  0.00865825  -0.00085497  0.26297062  1
  In  In82  1  0.83160453  0.50144377  0.51279459  1
  In  In83  1  0.66030250  0.66982307  0.25450166  1
  In  In84  1  0.01832514  0.32327232  0.26434920  1
  In  In85  1  0.00335002  0.00390019  0.74641306  1
  Cu  Cu86  1  0.67218214  0.32835358  -0.00572853  1
  Cu  Cu87  1  0.33683621  0.32464813  -0.00041438  1
  Cu  Cu88  1  0.00483859  -0.00492878  0.00077581  1
  Cu  Cu89  1  0.16838113  0.83992082  0.74802678  1
  Cu  Cu90  1  0.66461483  0.67753586  -0.00422587  1
  Cu  Cu91  1  0.49244721  0.49464479  0.26050329  1
  Cu  Cu92  1  0.49542459  0.17543121  0.25889608  1
  Cu  Cu93  1  0.83088565  0.15698419  0.25384055  1
  Cu  Cu94  1  0.33913345  0.67202776  0.49802637  1
  Cu  Cu95  1  0.49838224  0.83094748  0.74181277  1
  Cu  Cu96  1  0.66559757  0.32416420  0.50200925  1
  Cu  Cu97  1  0.82784564  0.82985058  0.74157317  1
  Cu  Cu98  1  0.16971971  0.83116255  0.25571983  1
  Cu  Cu99  1  -0.00735577  0.66860070  0.00194158  1
  Cu  Cu100  1  0.66828337  0.66377733  0.49650224  1
  Cu  Cu101  1  0.17004473  0.49181129  0.74227735  1
  Cu  Cu102  1  0.00835673  0.67095812  0.49851573  1
  Cu  Cu103  1  -0.00234253  0.33785925  0.50333728  1
  Cu  Cu104  1  -0.00022570  0.32032197  -0.00358860  1
  Cu  Cu105  1  0.49335889  0.49680721  0.74028799  1
  Cu  Cu106  1  0.33788076  0.00130465  0.49262566  1
  Cu  Cu107  1  0.33699130  0.00469737  0.00713436  1
  Cu  Cu108  1  0.66802323  0.00354428  -0.00097158  1
  Cu  Cu109  1  0.82623554  0.84264068  0.25114891  1
  Cu  Cu110  1  0.65975904  -0.00451794  0.50086474  1
  Cu  Cu111  1  0.84463387  0.49947925  0.25081687  1
  Cu  Cu112  1  0.17337693  0.16785857  0.74135227  1
  Cu  Cu113  1  0.83682303  0.16591630  0.74892943  1
  Cu  Cu114  1  0.49370490  0.17029109  0.74587299  1
  Se  Se115  1  0.08631709  0.08034635  0.05345385  1
  Se  Se116  1  0.05854745  0.05662823  0.55067875  1
  Se  Se117  1  0.07415113  0.40109724  0.06171943  1
  Se  Se118  1  0.08506718  0.41853555  0.55399633  1
  Se  Se119  1  0.08041690  0.74381294  0.05765953  1
  Se  Se120  1  0.09176319  0.75920522  0.54830582  1
  Se  Se121  1  0.42363992  0.08454342  0.05977907  1
  Se  Se122  1  0.41700996  0.08376330  0.55095441  1
  Se  Se123  1  0.40784216  0.41312738  0.06090695  1
  Se  Se124  1  0.42122174  0.41306521  0.54150853  1
  Se  Se125  1  0.40399967  0.74751344  0.06124033  1
  Se  Se126  1  0.42372392  0.75222710  0.55289368  1
  Se  Se127  1  0.75208298  0.08691893  0.05374178  1
  Se  Se128  1  0.74185249  0.07997013  0.55376866  1
  Se  Se129  1  0.74071673  0.40956888  0.06269645  1
  Se  Se130  1  0.74525634  0.40342866  0.56578799  1
  Se  Se131  1  0.75186543  0.76074555  0.04461284  1
  Se  Se132  1  0.75023521  0.74575441  0.55149028  1
  Se  Se133  1  0.25125727  0.24352083  0.05266891  1
  Se  Se134  1  0.23002800  0.22953266  0.55134557  1
  Se  Se135  1  0.25657417  0.58186663  0.06214017  1
  Se  Se136  1  0.25253000  0.59065973  0.54984870  1
  Se  Se137  1  0.25222218  0.91836441  0.05630747  1
  Se  Se138  1  0.25316293  0.91786881  0.54801755  1
  Se  Se139  1  0.58288336  0.25332360  0.04994805  1
  Se  Se140  1  0.57877940  0.24211447  0.55283325  1
  Se  Se141  1  0.58301291  0.59609426  0.05317635  1
  Se  Se142  1  0.58914002  0.58086832  0.55360021  1
  Se  Se143  1  0.58561765  0.93911109  0.06816283  1
  Se  Se144  1  0.57739849  0.91072193  0.55388407  1
  Se  Se145  1  0.90998152  0.24067596  0.04733694  1
  Se  Se146  1  0.91219690  0.25642949  0.55707160  1
  Se  Se147  1  0.91370223  0.58532026  0.06101036  1
  Se  Se148  1  0.92938468  0.59352002  0.56393743  1
  Se  Se149  1  0.91631227  0.91571972  0.05327359  1
  Se  Se150  1  0.89856637  0.89701711  0.54850151  1
  Se  Se151  1  0.07805272  0.25464311  0.44736839  1
  Se  Se152  1  0.09141009  0.24545108  0.94396460  1
  Se  Se153  1  0.09367768  0.58405008  0.45268783  1
  Se  Se154  1  0.07526916  0.58890873  0.94212081  1
  Se  Se155  1  0.06868012  0.94411442  0.45039460  1
  Se  Se156  1  0.08731067  0.91272681  0.94584278  1
  Se  Se157  1  0.42627019  0.23313690  0.45469605  1
  Se  Se158  1  0.42227749  0.24976380  0.94172039  1
  Se  Se159  1  0.41808966  0.58412030  0.44419957  1
  Se  Se160  1  0.40133628  0.59641720  0.94550275  1
  Se  Se161  1  0.41979879  0.91411144  0.44158977  1
  Se  Se162  1  0.41404203  0.92526789  0.94089822  1
  Se  Se163  1  0.74703794  0.23928490  0.44977574  1
  Se  Se164  1  0.75667384  0.24765962  0.94086283  1
  Se  Se165  1  0.75112838  0.58282485  0.43683596  1
  Se  Se166  1  0.73599697  0.58803078  0.93620442  1
  Se  Se167  1  0.74713594  0.91375388  0.44765844  1
  Se  Se168  1  0.74655687  0.91784229  0.94495005  1
  Se  Se169  1  0.25000405  0.08681518  0.44597220  1
  Se  Se170  1  0.25703032  0.08338913  0.94503055  1
  Se  Se171  1  0.25252797  0.42569503  0.45421805  1
  Se  Se172  1  0.25618458  0.40757950  0.94008241  1
  Se  Se173  1  0.25430377  0.75804281  0.44667546  1
  Se  Se174  1  0.24818024  0.75095327  0.95165242  1
  Se  Se175  1  0.57847351  0.07684001  0.44436767  1
  Se  Se176  1  0.58386150  0.08698139  0.94750644  1
  Se  Se177  1  0.58933996  0.42089644  0.45710537  1
  Se  Se178  1  0.59304357  0.41163538  0.93430282  1
  Se  Se179  1  0.58541056  0.74837809  0.44456390  1
  Se  Se180  1  0.57924417  0.75583282  0.93904030  1
  Se  Se181  1  0.89863387  0.09806730  0.45118949  1
  Se  Se182  1  0.92238731  0.07831618  0.94571164  1
  Se  Se183  1  0.91583269  0.41520397  0.44115524  1
  Se  Se184  1  0.92347694  0.40643205  0.93739342  1
  Se  Se185  1  0.91652470  0.74934648  0.45045411  1
  Se  Se186  1  0.91362399  0.75112956  0.94478705  1
  Se  Se187  1  0.25512860  0.25908000  0.30736806  1
  Se  Se188  1  0.25313347  0.24956741  0.80092920  1
  Se  Se189  1  0.25758692  0.59207538  0.30345285  1
  Se  Se190  1  0.23721101  0.57431199  0.80971150  1
  Se  Se191  1  0.25050589  0.91865964  0.30582992  1
  Se  Se192  1  0.25189694  0.91953531  0.80361240  1
  Se  Se193  1  0.56661128  0.25627266  0.32396200  1
  Se  Se194  1  0.58355651  0.24757287  0.79948923  1
  Se  Se195  1  0.57648569  0.57643929  0.31590000  1
  Se  Se196  1  0.57330016  0.58447084  0.79501793  1
  Se  Se197  1  0.58096734  0.92182763  0.29646741  1
  Se  Se198  1  0.57418240  0.91155708  0.80679532  1
  Se  Se199  1  0.91225132  0.23619854  0.31305710  1
  Se  Se200  1  0.92265891  0.24658199  0.80334464  1
  Se  Se201  1  0.92492364  0.57721099  0.31000205  1
  Se  Se202  1  0.90946924  0.57605904  0.81612008  1
  Se  Se203  1  0.90746497  0.91341298  0.31580809  1
  Se  Se204  1  0.90967846  0.90726516  0.80245797  1
  Se  Se205  1  0.09964187  0.09753463  0.31046956  1
  Se  Se206  1  0.09552111  0.08976756  0.80697193  1
  Se  Se207  1  0.10548547  0.41882458  0.31687993  1
  Se  Se208  1  0.08251528  0.40984220  0.79325717  1
  Se  Se209  1  0.08827075  0.75805631  0.31961965  1
  Se  Se210  1  0.08510900  0.75682634  0.80199813  1
  Se  Se211  1  0.41115323  0.08781953  0.30659624  1
  Se  Se212  1  0.41529047  0.08462429  0.80091044  1
  Se  Se213  1  0.41522066  0.41082562  0.31663403  1
  Se  Se214  1  0.41120198  0.41712090  0.79778885  1
  Se  Se215  1  0.41782451  0.75323376  0.29660804  1
  Se  Se216  1  0.42026574  0.75699150  0.81035147  1
  Se  Se217  1  0.74199438  0.07964513  0.30483461  1
  Se  Se218  1  0.75862852  0.08578454  0.80961689  1
  Se  Se219  1  0.76085294  0.41579458  0.30360617  1
  Se  Se220  1  0.74993318  0.41494380  0.79286691  1
  Se  Se221  1  0.75097451  0.75950330  0.31291463  1
  Se  Se222  1  0.74469487  0.74882359  0.79607770  1
  Se  Se223  1  0.26199676  0.07405059  0.19714766  1
  Se  Se224  1  0.25483252  0.08210692  0.68995745  1
  Se  Se225  1  0.25257741  0.40150993  0.20654360  1
  Se  Se226  1  0.25276472  0.41017220  0.68868593  1
  Se  Se227  1  0.24890169  0.75090625  0.19661292  1
  Se  Se228  1  0.25108933  0.75547719  0.69291744  1
  Se  Se229  1  0.58261007  0.09741516  0.20214906  1
  Se  Se230  1  0.57446760  0.08818813  0.68626612  1
  Se  Se231  1  0.57672745  0.42301482  0.19564664  1
  Se  Se232  1  0.57884572  0.41457794  0.68897663  1
  Se  Se233  1  0.58058517  0.75990568  0.18846143  1
  Se  Se234  1  0.58300633  0.74648129  0.69360842  1
  Se  Se235  1  0.91841484  0.08343250  0.19491716  1
  Se  Se236  1  0.91544242  0.09224929  0.68532470  1
  Se  Se237  1  0.92551213  0.41700400  0.19513271  1
  Se  Se238  1  0.91276657  0.42849274  0.70322635  1
  Se  Se239  1  0.90758104  0.75786076  0.19556993  1
  Se  Se240  1  0.91831332  0.76001066  0.68339980  1
  Se  Se241  1  0.08877872  0.23567835  0.19083069  1
  Se  Se242  1  0.08204694  0.24605364  0.69097142  1
  Se  Se243  1  0.10478343  0.56705078  0.20195747  1
  Se  Se244  1  0.09461687  0.58268145  0.68813766  1
  Se  Se245  1  0.08720488  0.90910545  0.19451771  1
  Se  Se246  1  0.09615532  0.92127485  0.68498438  1
  Se  Se247  1  0.41512418  0.25244398  0.19762022  1
  Se  Se248  1  0.41331269  0.25298377  0.68995064  1
  Se  Se249  1  0.41684623  0.57934787  0.20150904  1
  Se  Se250  1  0.41037495  0.57143100  0.67795999  1
  Se  Se251  1  0.42501561  0.90584390  0.20614813  1
  Se  Se252  1  0.41263389  0.91639623  0.69581891  1
  Se  Se253  1  0.75900383  0.24167703  0.18928796  1
  Se  Se254  1  0.74856687  0.24794219  0.69950511  1
  Se  Se255  1  0.75960071  0.57938755  0.19411875  1
  Se  Se256  1  0.75839717  0.57748008  0.70045930  1
  Se  Se257  1  0.74840116  0.92445175  0.19438970  1
  Se  Se258  1  0.75559779  0.91821896  0.68313860  1
