# generated using pymatgen
data_In86Cu29Se144
_symmetry_space_group_name_H-M   'P 1'
_cell_length_a   17.57645304
_cell_length_b   17.57884280
_cell_length_c   23.43177871
_cell_angle_alpha   89.99126475
_cell_angle_beta   89.97727658
_cell_angle_gamma   90.01876038
_symmetry_Int_Tables_number   1
_chemical_formula_structural   In86Cu29Se144
_chemical_formula_sum   'In86 Cu29 Se144'
_cell_volume   7239.80244016
_cell_formula_units_Z   1
loop_
 _symmetry_equiv_pos_site_id
 _symmetry_equiv_pos_as_xyz
  1  'x, y, z'
loop_
 _atom_site_type_symbol
 _atom_site_label
 _atom_site_symmetry_multiplicity
 _atom_site_fract_x
 _atom_site_fract_y
 _atom_site_fract_z
 _atom_site_occupancy
  In  In0  1  -0.00268553  0.18007771  0.12581865  1
  In  In1  1  0.01130135  0.14630864  0.62502006  1
  In  In2  1  0.00551660  0.50169025  0.11682652  1
  In  In3  1  0.00942194  0.51001808  0.61994032  1
  In  In4  1  0.00713950  0.82085683  0.12326128  1
  In  In5  1  0.00059413  0.83533079  0.62224459  1
  In  In6  1  0.34033769  0.16720448  0.12945257  1
  In  In7  1  0.33236791  0.16772246  0.62181964  1
  In  In8  1  0.32256063  0.50747005  0.13857260  1
  In  In9  1  0.32935639  0.50650513  0.62852489  1
  In  In10  1  0.32557867  0.82386301  0.11375744  1
  In  In11  1  0.33375622  0.83207924  0.62542427  1
  In  In12  1  0.66685250  0.15795242  0.13318349  1
  In  In13  1  0.65057387  0.17086412  0.61783135  1
  In  In14  1  0.67291029  0.48798810  0.13018535  1
  In  In15  1  0.67742291  0.49602649  0.62190685  1
  In  In16  1  0.66326067  0.84891005  0.12695865  1
  In  In17  1  0.65684199  0.82240847  0.61981214  1
  In  In18  1  0.16421356  -0.00031319  0.38971546  1
  In  In19  1  0.16249490  -0.00915757  0.86504937  1
  In  In20  1  0.17583389  0.33572876  0.38438772  1
  In  In21  1  0.18000282  0.33448718  0.87421933  1
  In  In22  1  0.17997962  0.65753790  0.38311398  1
  In  In23  1  0.16751662  0.66609525  0.86961318  1
  In  In24  1  0.50284332  0.00218456  0.38270494  1
  In  In25  1  0.48041555  -0.00301018  0.86849473  1
  In  In26  1  0.49181996  0.32716387  0.37383961  1
  In  In27  1  0.49563250  0.34231937  0.86918705  1
  In  In28  1  0.49077147  0.68275849  0.37901767  1
  In  In29  1  0.51201436  0.67239869  0.86729992  1
  In  In30  1  0.81733157  0.00588115  0.37896867  1
  In  In31  1  0.84607058  -0.00532060  0.87430466  1
  In  In32  1  0.82968965  0.34637439  0.37431631  1
  In  In33  1  0.82950752  0.33427169  0.88395124  1
  In  In34  1  0.84019664  0.66232207  0.38260760  1
  In  In35  1  0.82810597  0.65908844  0.86900807  1
  In  In36  1  0.00953621  0.16951415  0.38208138  1
  In  In37  1  -0.00214707  0.15263008  0.87244689  1
  In  In38  1  0.00125936  0.50133402  0.38257806  1
  In  In39  1  -0.00701811  0.50681381  0.87684446  1
  In  In40  1  0.00678166  0.82994807  0.39388784  1
  In  In41  1  0.01303083  0.83983976  0.86545090  1
  In  In42  1  0.31810766  0.19841020  0.40186724  1
  In  In43  1  0.33667477  0.16387677  0.85803958  1
  In  In44  1  0.31516219  0.48934390  0.36251572  1
  In  In45  1  0.32279567  0.49244946  0.86802688  1
  In  In46  1  0.33467338  0.83213230  0.38378745  1
  In  In47  1  0.33184952  0.82918091  0.87026275  1
  In  In48  1  0.65947485  0.16328241  0.37258021  1
  In  In49  1  0.66742889  0.17850817  0.87470315  1
  In  In50  1  0.68236640  0.49726033  0.37073266  1
  In  In51  1  0.66872819  0.50814101  0.87443049  1
  In  In52  1  0.65336422  0.84488700  0.38456089  1
  In  In53  1  0.67076389  0.81884048  0.87471982  1
  In  In54  1  0.17841151  -0.00748826  0.12389885  1
  In  In55  1  0.16706296  -0.00008143  0.61909739  1
  In  In56  1  0.16054498  0.34436232  0.13182857  1
  In  In57  1  0.18443389  0.34315558  0.60847557  1
  In  In58  1  0.17097162  0.66743628  0.11860300  1
  In  In59  1  0.16522022  0.66874783  0.62823777  1
  In  In60  1  0.50589885  0.00292899  0.12404040  1
  In  In61  1  0.49320401  -0.00445743  0.62343703  1
  In  In62  1  0.49851216  0.33680243  0.13759284  1
  In  In63  1  0.48294937  0.31079670  0.60588515  1
  In  In64  1  0.48418045  0.66408951  0.12349412  1
  In  In65  1  0.49185841  0.67519513  0.63191070  1
  In  In66  1  0.81802726  -0.00038892  0.12951037  1
  In  In67  1  0.85716603  -0.00474180  0.62724383  1
  In  In68  1  0.83271551  0.32842774  0.12265092  1
  In  In69  1  0.81652438  0.33761815  0.61564336  1
  In  In70  1  0.84632863  0.66255016  0.12350311  1
  In  In71  1  0.83275095  0.66698956  0.62558939  1
  In  In72  1  0.16350071  0.16660489  -0.00228203  1
  In  In73  1  0.00569934  0.66299365  0.25395668  1
  In  In74  1  0.49980235  0.50243604  -0.00088628  1
  In  In75  1  0.83655494  0.82916583  0.00126330  1
  In  In76  1  0.00327507  0.33301997  0.74173837  1
  In  In77  1  0.00204747  0.33592176  0.25606342  1
  In  In78  1  0.66701890  -0.00353452  0.73929205  1
  In  In79  1  -0.00122415  0.00170138  0.26620424  1
  In  In80  1  0.66238818  0.66582690  0.24763607  1
  In  In81  1  0.33947389  0.00712800  0.25634625  1
  In  In82  1  0.65525323  0.33816894  0.74238689  1
  In  In83  1  0.49684909  0.50305541  0.49779534  1
  In  In84  1  0.49911603  0.16393104  -0.00172522  1
  In  In85  1  0.83984659  0.16481194  0.50175563  1
  Cu  Cu86  1  0.83454289  0.50600640  0.74615405  1
  Cu  Cu87  1  0.17026166  0.83145177  0.24924065  1
  Cu  Cu88  1  0.32547527  -0.01215343  -0.00860436  1
  Cu  Cu89  1  0.17278587  0.16376143  0.74463655  1
  Cu  Cu90  1  0.66426278  0.00289142  0.00470673  1
  Cu  Cu91  1  0.84214165  0.82616223  0.74886318  1
  Cu  Cu92  1  0.50015075  0.83144951  0.74751977  1
  Cu  Cu93  1  -0.00237488  0.66621745  0.50754268  1
  Cu  Cu94  1  0.82301619  0.83370915  0.25854351  1
  Cu  Cu95  1  0.49806001  0.50167738  0.25337164  1
  Cu  Cu96  1  0.33236137  0.33817997  0.00062540  1
  Cu  Cu97  1  0.00174801  0.33617528  0.50140708  1
  Cu  Cu98  1  0.49351598  0.50178019  0.74690813  1
  Cu  Cu99  1  0.49370937  0.84056347  0.25675406  1
  Cu  Cu100  1  0.32919018  0.66974028  0.50605623  1
  Cu  Cu101  1  0.33149762  0.66641855  -0.00471039  1
  Cu  Cu102  1  0.83474726  0.16351555  0.74833762  1
  Cu  Cu103  1  0.34139900  -0.00173872  0.50519254  1
  Cu  Cu104  1  0.67409100  0.32905937  0.00578925  1
  Cu  Cu105  1  0.82708389  0.16695767  0.25037718  1
  Cu  Cu106  1  -0.00230206  0.33750103  0.00112665  1
  Cu  Cu107  1  -0.00263546  0.00040360  -0.00445605  1
  Cu  Cu108  1  0.67012037  -0.00267838  0.50387907  1
  Cu  Cu109  1  0.66827144  0.66690186  0.49818465  1
  Cu  Cu110  1  0.00611020  0.66515140  -0.00462385  1
  Cu  Cu111  1  0.16952390  0.83342334  0.74358268  1
  Cu  Cu112  1  0.16726170  0.50183376  0.74490064  1
  Cu  Cu113  1  0.49885988  0.16786228  0.25723121  1
  Cu  Cu114  1  0.66888508  0.66390125  -0.00431164  1
  Se  Se115  1  0.07596047  0.07608771  0.06165701  1
  Se  Se116  1  0.08296559  0.07664521  0.54645329  1
  Se  Se117  1  0.08878553  0.41517988  0.05121419  1
  Se  Se118  1  0.08593634  0.42285962  0.55104260  1
  Se  Se119  1  0.08762283  0.75017899  0.04874669  1
  Se  Se120  1  0.08563336  0.74956454  0.55601407  1
  Se  Se121  1  0.40267191  0.07082768  0.05341859  1
  Se  Se122  1  0.42345199  0.08743190  0.55395428  1
  Se  Se123  1  0.41308510  0.41438176  0.06242073  1
  Se  Se124  1  0.40075655  0.41435792  0.55279916  1
  Se  Se125  1  0.41847833  0.74825875  0.04737260  1
  Se  Se126  1  0.41911955  0.75145479  0.55430347  1
  Se  Se127  1  0.74824980  0.08581058  0.05634612  1
  Se  Se128  1  0.74897231  0.07676668  0.56594380  1
  Se  Se129  1  0.75496799  0.41916977  0.05424507  1
  Se  Se130  1  0.74629747  0.41999637  0.54319741  1
  Se  Se131  1  0.74233110  0.74376928  0.06353245  1
  Se  Se132  1  0.75084524  0.74928161  0.55399201  1
  Se  Se133  1  0.25475635  0.25298310  0.05972097  1
  Se  Se134  1  0.24361974  0.23641127  0.54852646  1
  Se  Se135  1  0.25733421  0.58073069  0.05472096  1
  Se  Se136  1  0.24649856  0.58468312  0.55750888  1
  Se  Se137  1  0.24101490  0.90915039  0.04694955  1
  Se  Se138  1  0.25441689  0.91415834  0.55420656  1
  Se  Se139  1  0.58388207  0.25539034  0.06215568  1
  Se  Se140  1  0.60649750  0.27761285  0.55213526  1
  Se  Se141  1  0.59183419  0.58758568  0.06275913  1
  Se  Se142  1  0.58524129  0.59142433  0.56117023  1
  Se  Se143  1  0.57823682  0.91653152  0.05152789  1
  Se  Se144  1  0.58190989  0.91677625  0.55583125  1
  Se  Se145  1  0.91610777  0.24892211  0.05073368  1
  Se  Se146  1  0.92718581  0.25510441  0.56581527  1
  Se  Se147  1  0.92027253  0.58426028  0.04905058  1
  Se  Se148  1  0.91119134  0.57967455  0.55525106  1
  Se  Se149  1  0.92235495  0.92293765  0.06383691  1
  Se  Se150  1  0.91695868  0.91287121  0.55014818  1
  Se  Se151  1  0.08701255  0.25315760  0.45064026  1
  Se  Se152  1  0.07351035  0.25747452  0.93610800  1
  Se  Se153  1  0.08108860  0.58862344  0.44824793  1
  Se  Se154  1  0.08820491  0.58110978  0.94124823  1
  Se  Se155  1  0.08541311  0.91762645  0.45814791  1
  Se  Se156  1  0.08285356  0.91997337  0.94299520  1
  Se  Se157  1  0.43545199  0.24696041  0.45626598  1
  Se  Se158  1  0.40852990  0.25615937  0.93938948  1
  Se  Se159  1  0.40316790  0.59083812  0.43955011  1
  Se  Se160  1  0.41260027  0.58677282  0.93396796  1
  Se  Se161  1  0.42203869  0.91436843  0.44895555  1
  Se  Se162  1  0.41691030  0.90940921  0.94260184  1
  Se  Se163  1  0.75043068  0.24997503  0.43934758  1
  Se  Se164  1  0.75217606  0.24314534  0.95043548  1
  Se  Se165  1  0.75001409  0.58122530  0.44666682  1
  Se  Se166  1  0.75459409  0.58053454  0.94666754  1
  Se  Se167  1  0.75200635  0.91373540  0.45033446  1
  Se  Se168  1  0.74435049  0.92182128  0.94257302  1
  Se  Se169  1  0.25783380  0.07990882  0.45078596  1
  Se  Se170  1  0.25511872  0.08123605  0.93489237  1
  Se  Se171  1  0.24908538  0.43054513  0.44917751  1
  Se  Se172  1  0.24821030  0.42067329  0.94837000  1
  Se  Se173  1  0.24579192  0.75430347  0.45147867  1
  Se  Se174  1  0.24807648  0.74902189  0.94091617  1
  Se  Se175  1  0.58954801  0.08380976  0.45060970  1
  Se  Se176  1  0.58718424  0.07451201  0.93563499  1
  Se  Se177  1  0.58624986  0.41805962  0.43485846  1
  Se  Se178  1  0.59311867  0.40632161  0.94292351  1
  Se  Se179  1  0.57964844  0.75111640  0.45085702  1
  Se  Se180  1  0.58356439  0.74829844  0.94718253  1
  Se  Se181  1  0.92593465  0.07183981  0.44175549  1
  Se  Se182  1  0.91163984  0.08503064  0.94764327  1
  Se  Se183  1  0.91629489  0.41567667  0.44740931  1
  Se  Se184  1  0.91474927  0.42040429  0.94624591  1
  Se  Se185  1  0.91294639  0.74844349  0.45356443  1
  Se  Se186  1  0.92434979  0.74651042  0.93536895  1
  Se  Se187  1  0.25470600  0.25478873  0.31284700  1
  Se  Se188  1  0.24914285  0.25284101  0.79876097  1
  Se  Se189  1  0.25230258  0.59425931  0.30069092  1
  Se  Se190  1  0.25134926  0.58410915  0.79967698  1
  Se  Se191  1  0.24353512  0.91539744  0.31119878  1
  Se  Se192  1  0.25362677  0.91534289  0.79949686  1
  Se  Se193  1  0.58531158  0.25419669  0.30457544  1
  Se  Se194  1  0.57068984  0.24225649  0.80404414  1
  Se  Se195  1  0.57457782  0.58283485  0.31504672  1
  Se  Se196  1  0.58448054  0.57713243  0.80067508  1
  Se  Se197  1  0.58027834  0.92192002  0.30699270  1
  Se  Se198  1  0.58358065  0.91042614  0.80854685  1
  Se  Se199  1  0.91008295  0.23957888  0.31246282  1
  Se  Se200  1  0.91009894  0.24958239  0.80776528  1
  Se  Se201  1  0.90967569  0.57274216  0.30667644  1
  Se  Se202  1  0.91972741  0.58545478  0.80051823  1
  Se  Se203  1  0.90932084  0.90482063  0.31974073  1
  Se  Se204  1  0.92025918  0.91719616  0.79969089  1
  Se  Se205  1  0.10016963  0.09229770  0.31128549  1
  Se  Se206  1  0.08605714  0.08540784  0.80055295  1
  Se  Se207  1  0.09267001  0.42680003  0.31188781  1
  Se  Se208  1  0.08804230  0.42079294  0.80738663  1
  Se  Se209  1  0.08971597  0.75785767  0.31364855  1
  Se  Se210  1  0.08619569  0.74892022  0.79832425  1
  Se  Se211  1  0.41655534  0.09796790  0.32215781  1
  Se  Se212  1  0.41601694  0.07834195  0.79285834  1
  Se  Se213  1  0.41576718  0.41451071  0.30401004  1
  Se  Se214  1  0.41141663  0.41524056  0.79853104  1
  Se  Se215  1  0.40838709  0.75568769  0.30464611  1
  Se  Se216  1  0.41844277  0.74704424  0.80241477  1
  Se  Se217  1  0.74402646  0.08125978  0.30225072  1
  Se  Se218  1  0.75251691  0.08485764  0.80852046  1
  Se  Se219  1  0.75125301  0.41306472  0.29671488  1
  Se  Se220  1  0.75585207  0.41926817  0.80464524  1
  Se  Se221  1  0.74619108  0.75039567  0.31697259  1
  Se  Se222  1  0.75188837  0.74776352  0.80017484  1
  Se  Se223  1  0.24187002  0.08972794  0.19413338  1
  Se  Se224  1  0.25244754  0.07861428  0.69026318  1
  Se  Se225  1  0.26055227  0.40138792  0.19829439  1
  Se  Se226  1  0.24831938  0.41447788  0.69341336  1
  Se  Se227  1  0.24895589  0.75074914  0.19118032  1
  Se  Se228  1  0.25480217  0.74704943  0.69574346  1
  Se  Se229  1  0.57676805  0.08120472  0.20068079  1
  Se  Se230  1  0.57236073  0.09254943  0.69278338  1
  Se  Se231  1  0.58519602  0.41967716  0.20243924  1
  Se  Se232  1  0.56706529  0.42409046  0.68005638  1
  Se  Se233  1  0.57075910  0.76013443  0.19131124  1
  Se  Se234  1  0.58748959  0.74661507  0.69969224  1
  Se  Se235  1  0.91342619  0.08660790  0.19427786  1
  Se  Se236  1  0.92460341  0.08190585  0.70159661  1
  Se  Se237  1  0.91795975  0.42137877  0.18828579  1
  Se  Se238  1  0.90682132  0.42062164  0.68514696  1
  Se  Se239  1  0.90882563  0.76021470  0.19829115  1
  Se  Se240  1  0.92322687  0.74566992  0.69206431  1
  Se  Se241  1  0.09181930  0.24032505  0.19874529  1
  Se  Se242  1  0.09569249  0.24633377  0.68332320  1
  Se  Se243  1  0.09334975  0.57597303  0.19124932  1
  Se  Se244  1  0.07990907  0.58611727  0.69817502  1
  Se  Se245  1  0.08431369  0.91303651  0.19502958  1
  Se  Se246  1  0.08540845  0.91779925  0.69149814  1
  Se  Se247  1  0.41552685  0.24838988  0.20115876  1
  Se  Se248  1  0.41465496  0.25228329  0.69086983  1
  Se  Se249  1  0.41557659  0.58753215  0.20154373  1
  Se  Se250  1  0.40996984  0.58913708  0.69836465  1
  Se  Se251  1  0.41493951  0.91296474  0.18807292  1
  Se  Se252  1  0.41654676  0.91499171  0.69642069  1
  Se  Se253  1  0.74868980  0.25116979  0.19408034  1
  Se  Se254  1  0.75219600  0.24123311  0.69046928  1
  Se  Se255  1  0.76197917  0.57955807  0.19367357  1
  Se  Se256  1  0.74551755  0.58438334  0.69440754  1
  Se  Se257  1  0.74411713  0.91844212  0.20367654  1
  Se  Se258  1  0.76078464  0.90432920  0.68641012  1
