# generated using pymatgen
data_In86Cu29Se144
_symmetry_space_group_name_H-M   'P 1'
_cell_length_a   17.58497319
_cell_length_b   17.58232219
_cell_length_c   23.44425858
_cell_angle_alpha   90.00401927
_cell_angle_beta   90.01542945
_cell_angle_gamma   90.00500402
_symmetry_Int_Tables_number   1
_chemical_formula_structural   In86Cu29Se144
_chemical_formula_sum   'In86 Cu29 Se144'
_cell_volume   7248.60491143
_cell_formula_units_Z   1
loop_
 _symmetry_equiv_pos_site_id
 _symmetry_equiv_pos_as_xyz
  1  'x, y, z'
loop_
 _atom_site_type_symbol
 _atom_site_label
 _atom_site_symmetry_multiplicity
 _atom_site_fract_x
 _atom_site_fract_y
 _atom_site_fract_z
 _atom_site_occupancy
  In  In0  1  -0.01698921  0.17182246  0.13289022  1
  In  In1  1  -0.00595938  0.16892264  0.61078036  1
  In  In2  1  0.00818970  0.50682528  0.11924246  1
  In  In3  1  0.01178556  0.49760156  0.60996638  1
  In  In4  1  0.01148701  0.82120193  0.13593626  1
  In  In5  1  0.00234313  0.81970919  0.62616388  1
  In  In6  1  0.35187546  0.17057038  0.12275405  1
  In  In7  1  0.34622479  0.17835134  0.62085316  1
  In  In8  1  0.31895955  0.48587171  0.11377111  1
  In  In9  1  0.32577465  0.50713990  0.63217998  1
  In  In10  1  0.31775323  0.84573055  0.11835822  1
  In  In11  1  0.32117601  0.82454508  0.61890117  1
  In  In12  1  0.67247012  0.17626435  0.12508278  1
  In  In13  1  0.66941145  0.17510546  0.62339110  1
  In  In14  1  0.65401254  0.48658068  0.11296845  1
  In  In15  1  0.66605061  0.48417154  0.62835439  1
  In  In16  1  0.65944588  0.83111527  0.12431609  1
  In  In17  1  0.66928783  0.85284771  0.62861569  1
  In  In18  1  0.16560340  0.00352687  0.38215331  1
  In  In19  1  0.15475676  -0.00840248  0.87813191  1
  In  In20  1  0.16911383  0.32872586  0.38375846  1
  In  In21  1  0.18339379  0.33661350  0.87207985  1
  In  In22  1  0.16311681  0.66983245  0.37797755  1
  In  In23  1  0.17128949  0.66135883  0.87574280  1
  In  In24  1  0.49222103  0.00691293  0.38371395  1
  In  In25  1  0.51621873  0.00055162  0.87040083  1
  In  In26  1  0.49253793  0.31495686  0.35783651  1
  In  In27  1  0.49989437  0.32989935  0.87790985  1
  In  In28  1  0.50808572  0.67187533  0.37986251  1
  In  In29  1  0.47856939  0.66242621  0.87538251  1
  In  In30  1  0.85178848  0.00390794  0.37134131  1
  In  In31  1  0.82784210  0.01396261  0.87664783  1
  In  In32  1  0.83362849  0.33594851  0.38088997  1
  In  In33  1  0.82830901  0.33373049  0.87700003  1
  In  In34  1  0.84240528  0.64616413  0.37763793  1
  In  In35  1  0.83501835  0.64872906  0.87185928  1
  In  In36  1  0.01075928  0.17187258  0.38766208  1
  In  In37  1  -0.00771705  0.15979744  0.87718213  1
  In  In38  1  -0.00215582  0.49833584  0.37853816  1
  In  In39  1  -0.00788696  0.50476084  0.87827875  1
  In  In40  1  0.01262280  0.83911196  0.37086686  1
  In  In41  1  0.01915279  0.82785567  0.87720970  1
  In  In42  1  0.33256055  0.17008432  0.37998436  1
  In  In43  1  0.33349245  0.18497490  0.87166055  1
  In  In44  1  0.33246360  0.48351268  0.37143729  1
  In  In45  1  0.33482584  0.50022889  0.88054986  1
  In  In46  1  0.33185075  0.83393122  0.38545566  1
  In  In47  1  0.33306326  0.81599648  0.87692606  1
  In  In48  1  0.66056969  0.17381139  0.37710994  1
  In  In49  1  0.66776230  0.16721532  0.87337678  1
  In  In50  1  0.68400132  0.48995332  0.38051285  1
  In  In51  1  0.67497307  0.48279997  0.88115423  1
  In  In52  1  0.66024426  0.82822486  0.38150233  1
  In  In53  1  0.65668608  0.84661506  0.87050706  1
  In  In54  1  0.16785671  -0.00909628  0.12436978  1
  In  In55  1  0.16357470  0.00101936  0.61671392  1
  In  In56  1  0.16807281  0.35472165  0.12907764  1
  In  In57  1  0.17228336  0.34301754  0.61262545  1
  In  In58  1  0.15347659  0.64515267  0.10968264  1
  In  In59  1  0.16613772  0.66271178  0.62289105  1
  In  In60  1  0.48697151  0.02158628  0.12268246  1
  In  In61  1  0.50905029  0.01498999  0.61787555  1
  In  In62  1  0.49892753  0.32801354  0.12973030  1
  In  In63  1  0.51192411  0.32787246  0.63306058  1
  In  In64  1  0.50766499  0.66369231  0.11971665  1
  In  In65  1  0.47995565  0.66271780  0.62903201  1
  In  In66  1  0.83384587  0.02174376  0.13148400  1
  In  In67  1  0.82123980  0.01131798  0.62807915  1
  In  In68  1  0.82278163  0.32282576  0.11887060  1
  In  In69  1  0.82578821  0.32742862  0.61027077  1
  In  In70  1  0.84985792  0.65985099  0.12714420  1
  In  In71  1  0.85276414  0.66595696  0.62990618  1
  In  In72  1  -0.00523388  -0.00009396  0.74253337  1
  In  In73  1  0.83404797  0.83727643  0.50541768  1
  In  In74  1  0.50047919  0.50017645  0.50279270  1
  In  In75  1  -0.00106307  0.33490336  0.25539837  1
  In  In76  1  0.66349280  0.66781257  0.75783995  1
  In  In77  1  0.32965486  0.00815298  0.25170256  1
  In  In78  1  -0.00482743  0.33372658  0.74513707  1
  In  In79  1  0.67564432  0.65654296  0.25756618  1
  In  In80  1  0.33065651  0.65893236  0.24041185  1
  In  In81  1  0.33863702  -0.00203881  0.74688786  1
  In  In82  1  0.16576023  0.16794170  -0.00260160  1
  In  In83  1  0.66865284  0.00186158  0.24360929  1
  In  In84  1  0.49642357  0.83515017  -0.00520662  1
  In  In85  1  0.83637400  0.83007678  0.00997352  1
  Cu  Cu86  1  0.84233657  0.83048401  0.25218934  1
  Cu  Cu87  1  0.33730697  0.33222558  0.49916088  1
  Cu  Cu88  1  0.66215620  0.32684678  -0.00072937  1
  Cu  Cu89  1  0.66679164  0.65605532  -0.00626915  1
  Cu  Cu90  1  0.50813018  0.17240683  0.74628792  1
  Cu  Cu91  1  0.33418654  -0.00016004  0.50305165  1
  Cu  Cu92  1  0.00316671  0.66646949  0.50007367  1
  Cu  Cu93  1  0.49603627  0.83461670  0.74902626  1
  Cu  Cu94  1  0.83660452  0.49695551  0.75062104  1
  Cu  Cu95  1  0.16539462  0.50160217  0.74697190  1
  Cu  Cu96  1  0.66269097  0.33151958  0.49938309  1
  Cu  Cu97  1  -0.00598316  0.00051465  0.00267725  1
  Cu  Cu98  1  0.66291049  0.67357082  0.50348200  1
  Cu  Cu99  1  0.50645272  0.48847087  0.24712040  1
  Cu  Cu100  1  0.49448365  0.49156235  0.75620479  1
  Cu  Cu101  1  0.16717940  0.17124093  0.74478573  1
  Cu  Cu102  1  0.84061133  0.83691366  0.74949639  1
  Cu  Cu103  1  0.16489034  0.16866164  0.25847636  1
  Cu  Cu104  1  0.33761171  0.33566755  0.00090041  1
  Cu  Cu105  1  0.49469751  0.83627483  0.25347299  1
  Cu  Cu106  1  0.00286858  0.00140248  0.49825196  1
  Cu  Cu107  1  0.66508902  0.01076526  0.00009797  1
  Cu  Cu108  1  0.32579749  0.66326927  0.50223712  1
  Cu  Cu109  1  0.16004030  0.82986241  0.24962790  1
  Cu  Cu110  1  -0.00161017  0.33563895  0.00341895  1
  Cu  Cu111  1  0.00305194  0.66372564  -0.00046453  1
  Cu  Cu112  1  0.17245809  0.81765452  0.75065496  1
  Cu  Cu113  1  0.66679501  0.00745950  0.50101966  1
  Cu  Cu114  1  0.83620762  0.49246792  0.25080852  1
  Se  Se115  1  0.07426265  0.08445261  0.06188501  1
  Se  Se116  1  0.08688727  0.08812086  0.54882358  1
  Se  Se117  1  0.08653472  0.41879044  0.05036887  1
  Se  Se118  1  0.07122521  0.39711016  0.54228492  1
  Se  Se119  1  0.08136377  0.75181306  0.05360953  1
  Se  Se120  1  0.08653276  0.75044165  0.55278888  1
  Se  Se121  1  0.39866415  0.07557122  0.04652666  1
  Se  Se122  1  0.41795171  0.08829336  0.55075913  1
  Se  Se123  1  0.42317995  0.41435891  0.05688151  1
  Se  Se124  1  0.41320823  0.41155265  0.56513704  1
  Se  Se125  1  0.41130992  0.75094291  0.06160803  1
  Se  Se126  1  0.41328772  0.74560199  0.55291714  1
  Se  Se127  1  0.75094916  0.08773433  0.05531027  1
  Se  Se128  1  0.75172453  0.09099921  0.55214668  1
  Se  Se129  1  0.74950812  0.41239869  0.04921826  1
  Se  Se130  1  0.74415483  0.42231220  0.54787504  1
  Se  Se131  1  0.73953805  0.73414367  0.06097714  1
  Se  Se132  1  0.74642635  0.74586179  0.56784397  1
  Se  Se133  1  0.25108146  0.25784955  0.06111249  1
  Se  Se134  1  0.25294285  0.24762725  0.55193478  1
  Se  Se135  1  0.26630386  0.59452053  0.05157210  1
  Se  Se136  1  0.24639198  0.57520890  0.55383693  1
  Se  Se137  1  0.25344113  0.93436405  0.04670734  1
  Se  Se138  1  0.24721618  0.91570293  0.55161393  1
  Se  Se139  1  0.57967456  0.24643450  0.05664262  1
  Se  Se140  1  0.57817440  0.25001464  0.55361551  1
  Se  Se141  1  0.57822884  0.57901298  0.04691601  1
  Se  Se142  1  0.58804398  0.59084618  0.56642221  1
  Se  Se143  1  0.58492294  0.92793359  0.05917078  1
  Se  Se144  1  0.58616349  0.91990696  0.55298527  1
  Se  Se145  1  0.91679129  0.24737072  0.05206553  1
  Se  Se146  1  0.91526544  0.25317220  0.54375449  1
  Se  Se147  1  0.91586681  0.57967946  0.04935333  1
  Se  Se148  1  0.91698845  0.58493893  0.55228405  1
  Se  Se149  1  0.92253279  0.92104398  0.07014161  1
  Se  Se150  1  0.92483420  0.92706021  0.56599101  1
  Se  Se151  1  0.06841966  0.27487930  0.45480358  1
  Se  Se152  1  0.07656345  0.26023277  0.93605091  1
  Se  Se153  1  0.08413075  0.58191453  0.44560349  1
  Se  Se154  1  0.08423149  0.57947226  0.94461843  1
  Se  Se155  1  0.08566673  0.91391048  0.44885881  1
  Se  Se156  1  0.07957148  0.91569625  0.95423368  1
  Se  Se157  1  0.42280557  0.25299704  0.44415485  1
  Se  Se158  1  0.41700773  0.24736093  0.94935275  1
  Se  Se159  1  0.40889377  0.58781178  0.43933713  1
  Se  Se160  1  0.40621824  0.58996735  0.95210797  1
  Se  Se161  1  0.41887431  0.91526704  0.45067590  1
  Se  Se162  1  0.41212966  0.92460685  0.93129233  1
  Se  Se163  1  0.74864347  0.24983374  0.44650373  1
  Se  Se164  1  0.74953316  0.24718165  0.94551249  1
  Se  Se165  1  0.74392376  0.59058256  0.44882430  1
  Se  Se166  1  0.75543232  0.57490996  0.94538803  1
  Se  Se167  1  0.74698573  0.92571733  0.44012783  1
  Se  Se168  1  0.74393189  0.91855082  0.94783672  1
  Se  Se169  1  0.25232723  0.08456900  0.44793044  1
  Se  Se170  1  0.25149793  0.08250704  0.93139725  1
  Se  Se171  1  0.25289318  0.41770544  0.44969533  1
  Se  Se172  1  0.24903896  0.41646595  0.94983832  1
  Se  Se173  1  0.24556412  0.75001135  0.44881487  1
  Se  Se174  1  0.23301909  0.76140186  0.94374875  1
  Se  Se175  1  0.58171588  0.08824575  0.44686473  1
  Se  Se176  1  0.58022286  0.08833393  0.94462354  1
  Se  Se177  1  0.58081092  0.40954956  0.43759621  1
  Se  Se178  1  0.57994115  0.41455536  0.94842614  1
  Se  Se179  1  0.57648537  0.75634962  0.45498163  1
  Se  Se180  1  0.59008858  0.74271142  0.93622386  1
  Se  Se181  1  0.91808336  0.08519730  0.44823017  1
  Se  Se182  1  0.91181066  0.08484561  0.95108821  1
  Se  Se183  1  0.89415805  0.44074676  0.44334410  1
  Se  Se184  1  0.91505648  0.41446219  0.94430740  1
  Se  Se185  1  0.92063060  0.74922535  0.44095929  1
  Se  Se186  1  0.91896838  0.74351308  0.94060322  1
  Se  Se187  1  0.24945270  0.25104189  0.31026612  1
  Se  Se188  1  0.25188115  0.25455912  0.79549819  1
  Se  Se189  1  0.24697225  0.57870107  0.31013497  1
  Se  Se190  1  0.25076042  0.57685320  0.80594205  1
  Se  Se191  1  0.24506047  0.90824672  0.30858721  1
  Se  Se192  1  0.24402851  0.91086959  0.80657563  1
  Se  Se193  1  0.60032046  0.25703209  0.29823551  1
  Se  Se194  1  0.58572175  0.25441661  0.80611612  1
  Se  Se195  1  0.57747462  0.56923906  0.31370344  1
  Se  Se196  1  0.57645615  0.57384532  0.81600507  1
  Se  Se197  1  0.57785213  0.91521675  0.31055378  1
  Se  Se198  1  0.58481066  0.92104413  0.79203151  1
  Se  Se199  1  0.91465107  0.24195595  0.31483891  1
  Se  Se200  1  0.90909662  0.24144673  0.80621151  1
  Se  Se201  1  0.92121440  0.57738155  0.30047199  1
  Se  Se202  1  0.92258023  0.58221312  0.79817937  1
  Se  Se203  1  0.92497581  0.91666246  0.30201149  1
  Se  Se204  1  0.91740435  0.91342833  0.81632472  1
  Se  Se205  1  0.08425711  0.08698492  0.31355745  1
  Se  Se206  1  0.08947875  0.09010847  0.80407011  1
  Se  Se207  1  0.09384035  0.42161386  0.31134221  1
  Se  Se208  1  0.08653693  0.41994240  0.80815068  1
  Se  Se209  1  0.08092067  0.74327940  0.30313289  1
  Se  Se210  1  0.08405440  0.74028290  0.80362819  1
  Se  Se211  1  0.42649425  0.09449554  0.30659566  1
  Se  Se212  1  0.42466985  0.09265814  0.80629732  1
  Se  Se213  1  0.41492914  0.41208968  0.29781273  1
  Se  Se214  1  0.41079690  0.41124073  0.81129885  1
  Se  Se215  1  0.41624201  0.75132181  0.30946363  1
  Se  Se216  1  0.41423255  0.74848395  0.79911183  1
  Se  Se217  1  0.75342199  0.08441221  0.31103414  1
  Se  Se218  1  0.74185638  0.07695170  0.80378276  1
  Se  Se219  1  0.75241767  0.41057267  0.30329153  1
  Se  Se220  1  0.75204862  0.41420411  0.80190966  1
  Se  Se221  1  0.76122807  0.75568903  0.31535338  1
  Se  Se222  1  0.75949409  0.76033338  0.81366380  1
  Se  Se223  1  0.24099889  0.09551741  0.18907246  1
  Se  Se224  1  0.24733499  0.08743019  0.68745076  1
  Se  Se225  1  0.25301354  0.42609172  0.20019302  1
  Se  Se226  1  0.24473294  0.41332036  0.69378689  1
  Se  Se227  1  0.24116890  0.75561072  0.18724650  1
  Se  Se228  1  0.25474898  0.73888203  0.69402788  1
  Se  Se229  1  0.57384482  0.09585583  0.19392980  1
  Se  Se230  1  0.58898694  0.08704468  0.69305069  1
  Se  Se231  1  0.59313559  0.40905634  0.19457623  1
  Se  Se232  1  0.58499412  0.41592960  0.70428599  1
  Se  Se233  1  0.57930158  0.75146352  0.20027662  1
  Se  Se234  1  0.57942774  0.75343448  0.68919302  1
  Se  Se235  1  0.92240678  0.08103300  0.20571307  1
  Se  Se236  1  0.90965705  0.10117365  0.69233326  1
  Se  Se237  1  0.91470727  0.41745988  0.18504100  1
  Se  Se238  1  0.91182253  0.42430564  0.68152870  1
  Se  Se239  1  0.92137348  0.74120499  0.20128460  1
  Se  Se240  1  0.92443249  0.74911028  0.70391217  1
  Se  Se241  1  0.09182301  0.24836773  0.19113665  1
  Se  Se242  1  0.08647015  0.24679211  0.68329325  1
  Se  Se243  1  0.08768415  0.58037564  0.19360018  1
  Se  Se244  1  0.08063472  0.57710649  0.68856335  1
  Se  Se245  1  0.08292963  0.92158467  0.19868141  1
  Se  Se246  1  0.09519523  0.90675637  0.69324399  1
  Se  Se247  1  0.40868162  0.25562391  0.19958161  1
  Se  Se248  1  0.41660301  0.25421036  0.69953875  1
  Se  Se249  1  0.43113049  0.57318297  0.18816629  1
  Se  Se250  1  0.41379576  0.57900694  0.70440437  1
  Se  Se251  1  0.41958938  0.91430237  0.19013213  1
  Se  Se252  1  0.42295360  0.91149444  0.68101634  1
  Se  Se253  1  0.76386787  0.23918430  0.19714242  1
  Se  Se254  1  0.74530412  0.26670812  0.68953093  1
  Se  Se255  1  0.75426968  0.57083770  0.18768549  1
  Se  Se256  1  0.75311172  0.58169338  0.69287379  1
  Se  Se257  1  0.75977101  0.90265917  0.18905434  1
  Se  Se258  1  0.75536068  0.92195788  0.70175158  1
