# generated using pymatgen
data_In86Cu29Se144
_symmetry_space_group_name_H-M   'P 1'
_cell_length_a   17.58321223
_cell_length_b   17.58577093
_cell_length_c   23.44000024
_cell_angle_alpha   90.01149708
_cell_angle_beta   90.01999808
_cell_angle_gamma   89.96305159
_symmetry_Int_Tables_number   1
_chemical_formula_structural   In86Cu29Se144
_chemical_formula_sum   'In86 Cu29 Se144'
_cell_volume   7247.98216550
_cell_formula_units_Z   1
loop_
 _symmetry_equiv_pos_site_id
 _symmetry_equiv_pos_as_xyz
  1  'x, y, z'
loop_
 _atom_site_type_symbol
 _atom_site_label
 _atom_site_symmetry_multiplicity
 _atom_site_fract_x
 _atom_site_fract_y
 _atom_site_fract_z
 _atom_site_occupancy
  In  In0  1  0.00236623  0.18041614  0.13042968  1
  In  In1  1  0.01015841  0.16069636  0.61940039  1
  In  In2  1  -0.00264108  0.49794186  0.13845746  1
  In  In3  1  -0.00705169  0.49696393  0.61737003  1
  In  In4  1  -0.01264366  0.83370902  0.12910719  1
  In  In5  1  -0.00313282  0.82559965  0.61561530  1
  In  In6  1  0.33803196  0.17443287  0.12231995  1
  In  In7  1  0.33777200  0.16817302  0.62177410  1
  In  In8  1  0.33989299  0.49678259  0.11856336  1
  In  In9  1  0.34200870  0.49501140  0.62602687  1
  In  In10  1  0.33519529  0.82626945  0.11635726  1
  In  In11  1  0.34028647  0.83679117  0.63360091  1
  In  In12  1  0.66708121  0.15313882  0.13006291  1
  In  In13  1  0.65487282  0.18242679  0.63382189  1
  In  In14  1  0.65467522  0.50638204  0.12060446  1
  In  In15  1  0.66376860  0.50114109  0.63156807  1
  In  In16  1  0.67237413  0.83438515  0.12041878  1
  In  In17  1  0.65846755  0.83005375  0.63584722  1
  In  In18  1  0.17643482  -0.00571139  0.38619405  1
  In  In19  1  0.17425797  -0.00208309  0.87040221  1
  In  In20  1  0.15953512  0.33860350  0.38609080  1
  In  In21  1  0.17886704  0.33378028  0.87077203  1
  In  In22  1  0.16179653  0.66931193  0.38523390  1
  In  In23  1  0.17027719  0.66054285  0.87164340  1
  In  In24  1  0.50530119  -0.00162025  0.38160723  1
  In  In25  1  0.49746383  -0.01148373  0.85989879  1
  In  In26  1  0.51186964  0.32771627  0.39787414  1
  In  In27  1  0.50036454  0.34611954  0.85739722  1
  In  In28  1  0.49835644  0.66583603  0.38781161  1
  In  In29  1  0.51075378  0.67864422  0.86457461  1
  In  In30  1  0.81086753  0.00523756  0.37746411  1
  In  In31  1  0.82767630  0.00455346  0.88205578  1
  In  In32  1  0.83634981  0.33814437  0.37013554  1
  In  In33  1  0.81287189  0.33879580  0.87657098  1
  In  In34  1  0.84070684  0.65648555  0.38219396  1
  In  In35  1  0.83282860  0.67614691  0.88207492  1
  In  In36  1  -0.00542562  0.17563193  0.37300365  1
  In  In37  1  -0.00107506  0.15833691  0.87920183  1
  In  In38  1  -0.00187846  0.49735930  0.37867343  1
  In  In39  1  0.00648515  0.50963090  0.87846440  1
  In  In40  1  0.00609841  0.82297200  0.38151108  1
  In  In41  1  -0.01465824  0.82298275  0.88267225  1
  In  In42  1  0.34767160  0.17528953  0.39472999  1
  In  In43  1  0.33659602  0.16862860  0.86412053  1
  In  In44  1  0.33761662  0.48463430  0.39743541  1
  In  In45  1  0.37963890  0.54716778  0.81596361  1
  In  In46  1  0.33886129  0.83060871  0.38847454  1
  In  In47  1  0.36052602  0.85396522  0.84221730  1
  In  In48  1  0.65403845  0.16716600  0.36914548  1
  In  In49  1  0.66843583  0.17035622  0.87010773  1
  In  In50  1  0.67444662  0.49862129  0.38397965  1
  In  In51  1  0.64614581  0.48788675  0.84543503  1
  In  In52  1  0.65663000  0.84105720  0.38591925  1
  In  In53  1  0.66494141  0.83781550  0.87017799  1
  In  In54  1  0.17187734  -0.00966707  0.12778002  1
  In  In55  1  0.18396315  0.01106438  0.61420346  1
  In  In56  1  0.16535957  0.32394987  0.12876347  1
  In  In57  1  0.20818654  0.35834122  0.58212704  1
  In  In58  1  0.16934003  0.65126056  0.12709638  1
  In  In59  1  0.17734250  0.67464823  0.61937244  1
  In  In60  1  0.51275035  0.00448394  0.12268964  1
  In  In61  1  0.49773238  -0.00153173  0.63213717  1
  In  In62  1  0.49682776  0.34149401  0.12467447  1
  In  In63  1  0.50397983  0.33471541  0.62361245  1
  In  In64  1  0.50233622  0.66911022  0.11026728  1
  In  In65  1  0.49783120  0.66329474  0.63398907  1
  In  In66  1  0.81811236  -0.00970750  0.12020626  1
  In  In67  1  0.83014413  -0.01333985  0.62283301  1
  In  In68  1  0.83226220  0.32736801  0.12851674  1
  In  In69  1  0.82070627  0.34524197  0.63207188  1
  In  In70  1  0.83543852  0.67549988  0.12545310  1
  In  In71  1  0.81438487  0.65505069  0.62082043  1
  In  In72  1  0.16347671  0.16604847  -0.00114007  1
  In  In73  1  0.32830995  0.66185861  0.26203582  1
  In  In74  1  0.82693300  0.51233605  -0.00008858  1
  In  In75  1  0.83185749  0.16742734  0.49715367  1
  In  In76  1  0.16778044  0.82948677  -0.00379146  1
  In  In77  1  0.33861731  0.00347315  0.25823441  1
  In  In78  1  -0.00294088  0.66598695  0.75601107  1
  In  In79  1  0.00717537  -0.00044143  0.74904091  1
  In  In80  1  0.67033209  0.66661856  0.24909307  1
  In  In81  1  -0.00018530  0.32761628  0.74205784  1
  In  In82  1  0.50330530  0.16213891  -0.00015961  1
  In  In83  1  0.33643691  0.33483193  0.25234230  1
  In  In84  1  -0.01273819  0.00351057  0.25686268  1
  In  In85  1  0.17406445  0.49825491  -0.00593466  1
  Cu  Cu86  1  0.34582921  -0.00569622  0.50665043  1
  Cu  Cu87  1  0.16753528  0.17067319  0.25652755  1
  Cu  Cu88  1  0.50047782  0.50294528  0.24799597  1
  Cu  Cu89  1  -0.00248713  0.66506287  0.50074349  1
  Cu  Cu90  1  0.50179721  0.16691383  0.74600311  1
  Cu  Cu91  1  -0.00633790  0.33196225  0.49694913  1
  Cu  Cu92  1  0.66812040  0.34154687  0.50658169  1
  Cu  Cu93  1  0.82278246  0.17074625  0.24889842  1
  Cu  Cu94  1  0.34966916  0.66816169  -0.02042170  1
  Cu  Cu95  1  0.33933550  0.66462151  0.51025157  1
  Cu  Cu96  1  0.16247870  0.49344243  0.73490758  1
  Cu  Cu97  1  0.82909312  0.82956677  0.25112811  1
  Cu  Cu98  1  0.16051000  0.49547974  0.25946373  1
  Cu  Cu99  1  -0.00644496  0.33778732  0.00520156  1
  Cu  Cu100  1  0.50510464  0.84236709  0.25241309  1
  Cu  Cu101  1  0.16018149  0.82255284  0.25644397  1
  Cu  Cu102  1  0.83501886  0.49245579  0.25749061  1
  Cu  Cu103  1  0.66520118  -0.00928265  -0.00151909  1
  Cu  Cu104  1  0.34441748  0.34546933  -0.00923710  1
  Cu  Cu105  1  0.82976439  0.83227269  0.74899694  1
  Cu  Cu106  1  0.66094644  0.00254914  0.50726439  1
  Cu  Cu107  1  0.66194463  0.33515068  -0.00992411  1
  Cu  Cu108  1  0.83527559  0.16383294  0.75378311  1
  Cu  Cu109  1  -0.01009039  -0.00126361  0.00306963  1
  Cu  Cu110  1  0.00259291  -0.01056752  0.50035240  1
  Cu  Cu111  1  0.17906194  0.17148640  0.73764569  1
  Cu  Cu112  1  0.65880632  0.66316258  -0.00849909  1
  Cu  Cu113  1  0.66128778  0.67063116  0.50933761  1
  Cu  Cu114  1  0.16709207  0.83753418  0.74222876  1
  Se  Se115  1  0.07561598  0.07441253  0.06338258  1
  Se  Se116  1  0.08487294  0.07799553  0.54784898  1
  Se  Se117  1  0.08143243  0.41328643  0.06091208  1
  Se  Se118  1  0.07651358  0.41545568  0.54974117  1
  Se  Se119  1  0.08442824  0.74763211  0.06686805  1
  Se  Se120  1  0.08670730  0.74768409  0.55034020  1
  Se  Se121  1  0.40681260  0.07495532  0.05756672  1
  Se  Se122  1  0.42648508  0.08363275  0.55661833  1
  Se  Se123  1  0.42645875  0.42403811  0.04827489  1
  Se  Se124  1  0.40851825  0.40171368  0.55343088  1
  Se  Se125  1  0.41895571  0.75307362  0.04398795  1
  Se  Se126  1  0.41946907  0.74919755  0.56444000  1
  Se  Se127  1  0.74360736  0.08090071  0.05188989  1
  Se  Se128  1  0.74464219  0.08556940  0.56403930  1
  Se  Se129  1  0.74233934  0.41165351  0.05615225  1
  Se  Se130  1  0.75170720  0.42619571  0.55659353  1
  Se  Se131  1  0.74159792  0.73767388  0.05359206  1
  Se  Se132  1  0.74461736  0.75717653  0.56046500  1
  Se  Se133  1  0.26089578  0.26598020  0.04999877  1
  Se  Se134  1  0.22929873  0.21890300  0.55517279  1
  Se  Se135  1  0.26860926  0.59664778  0.04933455  1
  Se  Se136  1  0.25421260  0.57878199  0.55809621  1
  Se  Se137  1  0.25903741  0.92678931  0.05157219  1
  Se  Se138  1  0.25841852  0.90987085  0.55606058  1
  Se  Se139  1  0.58978577  0.25650311  0.05787417  1
  Se  Se140  1  0.58490551  0.24993659  0.55118761  1
  Se  Se141  1  0.57660648  0.57720763  0.04351448  1
  Se  Se142  1  0.58066761  0.58376265  0.56170295  1
  Se  Se143  1  0.58036165  0.91143117  0.05381538  1
  Se  Se144  1  0.58350802  0.91688163  0.56268836  1
  Se  Se145  1  0.91608967  0.24850790  0.05652025  1
  Se  Se146  1  0.91586118  0.25673877  0.56338989  1
  Se  Se147  1  0.92692354  0.58616157  0.06262785  1
  Se  Se148  1  0.91064071  0.58514294  0.55356475  1
  Se  Se149  1  0.91063448  0.91149191  0.05555999  1
  Se  Se150  1  0.91269813  0.91215990  0.55076344  1
  Se  Se151  1  0.07690942  0.24462300  0.44763062  1
  Se  Se152  1  0.07546024  0.26373330  0.94085055  1
  Se  Se153  1  0.08040826  0.57942053  0.44898724  1
  Se  Se154  1  0.07769428  0.59968080  0.95074061  1
  Se  Se155  1  0.08918870  0.90850901  0.44783919  1
  Se  Se156  1  0.07378913  0.92697854  0.93941025  1
  Se  Se157  1  0.40121936  0.27955802  0.46147770  1
  Se  Se158  1  0.41906256  0.25349216  0.93691694  1
  Se  Se159  1  0.41993079  0.57979484  0.45531361  1
  Se  Se160  1  0.42123014  0.58175870  0.92157168  1
  Se  Se161  1  0.42800502  0.91193030  0.45123999  1
  Se  Se162  1  0.41199729  0.91761876  0.93263956  1
  Se  Se163  1  0.74124624  0.25915960  0.44055622  1
  Se  Se164  1  0.74822484  0.24568747  0.94699196  1
  Se  Se165  1  0.74537393  0.59144434  0.45172707  1
  Se  Se166  1  0.73265502  0.57947271  0.93011239  1
  Se  Se167  1  0.74625304  0.92067655  0.45345226  1
  Se  Se168  1  0.75185627  0.91014905  0.94534683  1
  Se  Se169  1  0.26378768  0.07712468  0.44940737  1
  Se  Se170  1  0.25780876  0.08205094  0.94049957  1
  Se  Se171  1  0.23749790  0.41565291  0.45999181  1
  Se  Se172  1  0.26730232  0.42423165  0.92936599  1
  Se  Se173  1  0.25589997  0.74293359  0.45113495  1
  Se  Se174  1  0.25927681  0.75086729  0.93048288  1
  Se  Se175  1  0.58617390  0.08730023  0.44800644  1
  Se  Se176  1  0.58751027  0.07197484  0.93624452  1
  Se  Se177  1  0.58425676  0.42967303  0.45584161  1
  Se  Se178  1  0.58323113  0.41809714  0.93268114  1
  Se  Se179  1  0.57854596  0.75326386  0.45323933  1
  Se  Se180  1  0.58247735  0.75614126  0.94227266  1
  Se  Se181  1  0.92299665  0.07199692  0.43933200  1
  Se  Se182  1  0.91279550  0.08721580  0.95023211  1
  Se  Se183  1  0.90894166  0.41699218  0.44635092  1
  Se  Se184  1  0.91915476  0.41591839  0.94127355  1
  Se  Se185  1  0.91359083  0.75033281  0.44905796  1
  Se  Se186  1  0.91879924  0.74107821  0.95701740  1
  Se  Se187  1  0.25065002  0.24611680  0.31755821  1
  Se  Se188  1  0.25436588  0.25441998  0.79756705  1
  Se  Se189  1  0.24595753  0.56576217  0.32115646  1
  Se  Se190  1  0.23432465  0.57941536  0.79469641  1
  Se  Se191  1  0.24748223  0.90181756  0.31053149  1
  Se  Se192  1  0.24853284  0.92636425  0.79246994  1
  Se  Se193  1  0.57372874  0.26409454  0.31185356  1
  Se  Se194  1  0.58434649  0.24938715  0.80087476  1
  Se  Se195  1  0.57732005  0.58186999  0.31097221  1
  Se  Se196  1  0.60151585  0.60907230  0.79068998  1
  Se  Se197  1  0.58751471  0.92159854  0.30741341  1
  Se  Se198  1  0.58168637  0.90693328  0.79369954  1
  Se  Se199  1  0.91188364  0.24848638  0.30073711  1
  Se  Se200  1  0.91372453  0.24521812  0.81312219  1
  Se  Se201  1  0.91716335  0.58029865  0.30646100  1
  Se  Se202  1  0.90590595  0.57449115  0.81240668  1
  Se  Se203  1  0.90410926  0.90914974  0.31682559  1
  Se  Se204  1  0.91406042  0.91212188  0.80784514  1
  Se  Se205  1  0.09278819  0.08271007  0.31370128  1
  Se  Se206  1  0.09696786  0.09965626  0.80376120  1
  Se  Se207  1  0.07876820  0.40906055  0.30952210  1
  Se  Se208  1  0.08687211  0.42313093  0.80589104  1
  Se  Se209  1  0.07922301  0.73854650  0.30790870  1
  Se  Se210  1  0.08814701  0.76587665  0.80925726  1
  Se  Se211  1  0.42479853  0.09713140  0.31537570  1
  Se  Se212  1  0.41755128  0.08344739  0.79787572  1
  Se  Se213  1  0.41992414  0.42860962  0.31167529  1
  Se  Se214  1  0.38983474  0.40097442  0.79895805  1
  Se  Se215  1  0.42640187  0.75802719  0.30993495  1
  Se  Se216  1  0.39397625  0.72245100  0.80196849  1
  Se  Se217  1  0.74208367  0.08601968  0.30199993  1
  Se  Se218  1  0.75200786  0.08027506  0.80592792  1
  Se  Se219  1  0.74210463  0.41684799  0.30636140  1
  Se  Se220  1  0.75024290  0.40912465  0.79454655  1
  Se  Se221  1  0.75133339  0.75389079  0.31674700  1
  Se  Se222  1  0.75411371  0.75025679  0.80774489  1
  Se  Se223  1  0.24509583  0.09329505  0.19329789  1
  Se  Se224  1  0.26026207  0.07841964  0.69362875  1
  Se  Se225  1  0.24311471  0.42770715  0.19127645  1
  Se  Se226  1  0.24459507  0.40891192  0.68312159  1
  Se  Se227  1  0.24622673  0.75375032  0.19371025  1
  Se  Se228  1  0.25128549  0.74808641  0.69719143  1
  Se  Se229  1  0.57454580  0.08511596  0.19952502  1
  Se  Se230  1  0.58807621  0.08196578  0.69757828  1
  Se  Se231  1  0.58248067  0.42109407  0.19342489  1
  Se  Se232  1  0.59052500  0.40540850  0.69634058  1
  Se  Se233  1  0.57346313  0.75313420  0.19053420  1
  Se  Se234  1  0.59159044  0.73178930  0.70419708  1
  Se  Se235  1  0.90551285  0.08928380  0.18835882  1
  Se  Se236  1  0.91277450  0.08690139  0.68998074  1
  Se  Se237  1  0.91445254  0.40822855  0.19912067  1
  Se  Se238  1  0.90984636  0.43080208  0.69851389  1
  Se  Se239  1  0.91639576  0.74725803  0.20194656  1
  Se  Se240  1  0.91031423  0.75188613  0.69017585  1
  Se  Se241  1  0.08399998  0.25472459  0.20459464  1
  Se  Se242  1  0.09567015  0.25057722  0.68108313  1
  Se  Se243  1  0.08564801  0.58236447  0.20164596  1
  Se  Se244  1  0.08188836  0.58302659  0.68485459  1
  Se  Se245  1  0.08575334  0.91259255  0.20012603  1
  Se  Se246  1  0.08844891  0.91471135  0.68034890  1
  Se  Se247  1  0.42804791  0.24210917  0.19501321  1
  Se  Se248  1  0.41903091  0.24999853  0.69166565  1
  Se  Se249  1  0.42051827  0.58548312  0.19029882  1
  Se  Se250  1  0.41966813  0.57122286  0.70009284  1
  Se  Se251  1  0.41652172  0.91047070  0.19044587  1
  Se  Se252  1  0.43114059  0.90641866  0.70424581  1
  Se  Se253  1  0.73933024  0.25179369  0.19398684  1
  Se  Se254  1  0.75509810  0.24900363  0.69937625  1
  Se  Se255  1  0.75989832  0.57175375  0.19052616  1
  Se  Se256  1  0.74892216  0.58302351  0.70100607  1
  Se  Se257  1  0.74579155  0.91246157  0.19745285  1
  Se  Se258  1  0.74837890  0.91945687  0.69881685  1
