# generated using pymatgen
data_In86Cu29Se144
_symmetry_space_group_name_H-M   'P 1'
_cell_length_a   17.57131207
_cell_length_b   17.58047341
_cell_length_c   23.43558978
_cell_angle_alpha   89.97652633
_cell_angle_beta   90.00211788
_cell_angle_gamma   90.01555167
_symmetry_Int_Tables_number   1
_chemical_formula_structural   In86Cu29Se144
_chemical_formula_sum   'In86 Cu29 Se144'
_cell_volume   7239.53367379
_cell_formula_units_Z   1
loop_
 _symmetry_equiv_pos_site_id
 _symmetry_equiv_pos_as_xyz
  1  'x, y, z'
loop_
 _atom_site_type_symbol
 _atom_site_label
 _atom_site_symmetry_multiplicity
 _atom_site_fract_x
 _atom_site_fract_y
 _atom_site_fract_z
 _atom_site_occupancy
  In  In0  1  -0.00514430  0.16506426  0.10739297  1
  In  In1  1  -0.00124632  0.14812537  0.62548759  1
  In  In2  1  -0.00247524  0.50702068  0.11993197  1
  In  In3  1  -0.01742530  0.52281671  0.62766028  1
  In  In4  1  -0.02922749  0.84471803  0.14703112  1
  In  In5  1  -0.00772902  0.83349581  0.62626584  1
  In  In6  1  0.32873154  0.16071207  0.11797655  1
  In  In7  1  0.32296513  0.17602669  0.63435494  1
  In  In8  1  0.32610978  0.49652137  0.11349903  1
  In  In9  1  0.33689013  0.49622881  0.64087190  1
  In  In10  1  0.34729947  0.83922253  0.12596525  1
  In  In11  1  0.33541318  0.83264224  0.63937565  1
  In  In12  1  0.66203429  0.16357956  0.11704798  1
  In  In13  1  0.67497391  0.17995424  0.62815584  1
  In  In14  1  0.69531995  0.54288667  0.08136251  1
  In  In15  1  0.68321381  0.49699373  0.62777429  1
  In  In16  1  0.69347282  0.81669906  0.15193558  1
  In  In17  1  0.67501276  0.81537864  0.62344706  1
  In  In18  1  0.16533948  -0.00054648  0.36921696  1
  In  In19  1  0.17153667  0.00745493  0.87154405  1
  In  In20  1  0.14699658  0.32589950  0.37891396  1
  In  In21  1  0.16884799  0.32238752  0.88587804  1
  In  In22  1  0.15787950  0.67694500  0.37897672  1
  In  In23  1  0.15585692  0.65917256  0.86866056  1
  In  In24  1  0.50075305  -0.00177458  0.36883077  1
  In  In25  1  0.49692928  0.01306665  0.87951146  1
  In  In26  1  0.49477277  0.34662225  0.37214611  1
  In  In27  1  0.49927754  0.33444684  0.87074942  1
  In  In28  1  0.51331696  0.65847560  0.37518833  1
  In  In29  1  0.50144952  0.66495200  0.87346158  1
  In  In30  1  0.81924595  -0.01864848  0.34641812  1
  In  In31  1  0.83936216  -0.01056327  0.88124224  1
  In  In32  1  0.83593845  0.33029861  0.37807462  1
  In  In33  1  0.82090737  0.34567404  0.88747934  1
  In  In34  1  0.82941401  0.66931822  0.37158890  1
  In  In35  1  0.82898222  0.66303318  0.87777779  1
  In  In36  1  0.01021068  0.16342134  0.37706202  1
  In  In37  1  0.00596318  0.16098813  0.88597406  1
  In  In38  1  -0.02273802  0.51326894  0.38034070  1
  In  In39  1  -0.01437663  0.50783583  0.89344014  1
  In  In40  1  -0.03789422  0.80221266  0.33166280  1
  In  In41  1  -0.01243011  0.82196941  0.86762167  1
  In  In42  1  0.33041697  0.15261408  0.37496467  1
  In  In43  1  0.33170676  0.16930564  0.87343800  1
  In  In44  1  0.34453461  0.50546958  0.37484842  1
  In  In45  1  0.33390494  0.49647846  0.87183344  1
  In  In46  1  0.31809856  0.83668944  0.37412291  1
  In  In47  1  0.32993938  0.83275519  0.86627530  1
  In  In48  1  0.67990366  0.16274125  0.37215406  1
  In  In49  1  0.65414166  0.17281506  0.88413642  1
  In  In50  1  0.68444842  0.51485746  0.36942343  1
  In  In51  1  0.66895066  0.50320469  0.87709046  1
  In  In52  1  0.67299688  0.83271079  0.37263576  1
  In  In53  1  0.68233643  0.82253489  0.88263844  1
  In  In54  1  0.15964764  0.00891886  0.12869731  1
  In  In55  1  0.15740607  0.00675254  0.62876367  1
  In  In56  1  0.15312603  0.33295573  0.10107683  1
  In  In57  1  0.17478173  0.33175283  0.62698057  1
  In  In58  1  0.15566511  0.65520688  0.11608239  1
  In  In59  1  0.16026729  0.67202842  0.63466563  1
  In  In60  1  0.50011712  0.00188170  0.12628030  1
  In  In61  1  0.49873382  -0.01309371  0.62777096  1
  In  In62  1  0.50925347  0.34010304  0.11333785  1
  In  In63  1  0.50233856  0.33424507  0.63426935  1
  In  In64  1  0.52194456  0.66584203  0.11639536  1
  In  In65  1  0.51458922  0.65545883  0.63842741  1
  In  In66  1  0.83249059  0.00224788  0.12640266  1
  In  In67  1  0.84571614  0.00058493  0.62735474  1
  In  In68  1  0.84680716  0.33724860  0.10992099  1
  In  In69  1  0.81654293  0.34926245  0.63551381  1
  In  In70  1  0.83064103  0.67138412  0.13007460  1
  In  In71  1  0.83461715  0.66613703  0.62175985  1
  In  In72  1  0.15134428  0.83614214  0.50349757  1
  In  In73  1  0.32641824  0.32845003  0.22973673  1
  In  In74  1  0.51242562  0.83487455  -0.00208173  1
  In  In75  1  0.84607533  0.16668750  0.49935849  1
  In  In76  1  0.33396661  0.67132529  0.25074448  1
  In  In77  1  0.51732379  0.49413525  0.50995765  1
  In  In78  1  0.15992235  0.83283592  0.00143120  1
  In  In79  1  0.00348691  0.32929303  0.76739571  1
  In  In80  1  -0.00111657  0.33753050  0.23670510  1
  In  In81  1  0.66460018  0.33172566  0.24541258  1
  In  In82  1  0.50645004  0.83210605  0.49551130  1
  In  In83  1  0.16510760  0.49302560  0.50009566  1
  In  In84  1  0.66194954  0.00016267  0.75647058  1
  In  In85  1  0.50077833  0.16643379  0.51388161  1
  Cu  Cu86  1  0.00118037  0.32701042  0.50966490  1
  Cu  Cu87  1  0.83858506  0.16758319  0.24156054  1
  Cu  Cu88  1  0.49774768  0.16768590  0.75390699  1
  Cu  Cu89  1  0.33856564  0.66612098  0.51539690  1
  Cu  Cu90  1  0.67621640  0.00057609  0.49309859  1
  Cu  Cu91  1  0.15314988  0.50599482  0.24762041  1
  Cu  Cu92  1  0.16333454  0.16542895  0.75650074  1
  Cu  Cu93  1  0.33432463  0.66328899  -0.00654081  1
  Cu  Cu94  1  0.50330835  0.83896345  0.24814661  1
  Cu  Cu95  1  0.32921651  0.32258109  0.50229025  1
  Cu  Cu96  1  0.33025750  0.00678156  -0.00130579  1
  Cu  Cu97  1  -0.01175587  0.67989249  0.00264590  1
  Cu  Cu98  1  0.66064431  0.32894590  -0.00527262  1
  Cu  Cu99  1  -0.00055424  -0.00756790  0.00400610  1
  Cu  Cu100  1  0.83268208  0.82812336  0.75153476  1
  Cu  Cu101  1  0.32069260  0.00231432  0.50086407  1
  Cu  Cu102  1  0.50066262  0.83325998  0.75407847  1
  Cu  Cu103  1  0.17190019  0.83743909  0.24508312  1
  Cu  Cu104  1  0.83073203  0.16724013  0.75355844  1
  Cu  Cu105  1  0.16505258  0.49677293  0.75401375  1
  Cu  Cu106  1  0.50509304  0.50419375  0.23944902  1
  Cu  Cu107  1  0.67271972  -0.00258277  0.00493847  1
  Cu  Cu108  1  0.83535582  0.50645617  0.75779668  1
  Cu  Cu109  1  0.16089892  0.83624579  0.75076064  1
  Cu  Cu110  1  0.34005482  0.33109663  -0.00700744  1
  Cu  Cu111  1  0.50473402  0.15782552  0.24846485  1
  Cu  Cu112  1  0.17334955  0.16609772  0.24633947  1
  Cu  Cu113  1  0.50400171  0.50186263  0.75556911  1
  Cu  Cu114  1  -0.00315828  -0.00494377  0.49286860  1
  Se  Se115  1  0.08805217  0.07942496  0.04830988  1
  Se  Se116  1  0.07917971  0.07642639  0.54926169  1
  Se  Se117  1  0.09197011  0.44384484  0.04869592  1
  Se  Se118  1  0.07281553  0.41512580  0.56941918  1
  Se  Se119  1  0.06560521  0.75797622  0.06699378  1
  Se  Se120  1  0.06905929  0.73506783  0.55825470  1
  Se  Se121  1  0.42036353  0.08105196  0.05319141  1
  Se  Se122  1  0.40486659  0.07252368  0.56432143  1
  Se  Se123  1  0.41621982  0.41742702  0.04916882  1
  Se  Se124  1  0.40811568  0.40916348  0.56021704  1
  Se  Se125  1  0.41310103  0.74300597  0.05449012  1
  Se  Se126  1  0.42321008  0.74805637  0.56818899  1
  Se  Se127  1  0.75647081  0.08629294  0.05350138  1
  Se  Se128  1  0.74651351  0.08066449  0.55978706  1
  Se  Se129  1  0.74417457  0.40860946  0.05037527  1
  Se  Se130  1  0.74865535  0.41181653  0.55167233  1
  Se  Se131  1  0.74005082  0.74945205  0.06181948  1
  Se  Se132  1  0.77424261  0.76893098  0.55322695  1
  Se  Se133  1  0.25493778  0.25119840  0.04963949  1
  Se  Se134  1  0.24337853  0.24204557  0.55431497  1
  Se  Se135  1  0.24621374  0.58491648  0.04682740  1
  Se  Se136  1  0.25437734  0.58097524  0.56612319  1
  Se  Se137  1  0.25617248  0.92144642  0.05895319  1
  Se  Se138  1  0.25357974  0.91479289  0.56371211  1
  Se  Se139  1  0.57779286  0.24304716  0.04746414  1
  Se  Se140  1  0.59383572  0.26698523  0.55737725  1
  Se  Se141  1  0.55784710  0.56273962  0.04466452  1
  Se  Se142  1  0.60303562  0.59602605  0.55934302  1
  Se  Se143  1  0.59645233  0.91511510  0.06717095  1
  Se  Se144  1  0.59681817  0.92344041  0.55665527  1
  Se  Se145  1  0.93985943  0.26988520  0.04053916  1
  Se  Se146  1  0.91747189  0.25641893  0.57310988  1
  Se  Se147  1  0.90971840  0.59040589  0.05493756  1
  Se  Se148  1  0.89298129  0.56737199  0.54868737  1
  Se  Se149  1  0.91445531  0.91315464  0.05884564  1
  Se  Se150  1  0.91579224  0.91750591  0.55291160  1
  Se  Se151  1  0.08159500  0.24246895  0.45537691  1
  Se  Se152  1  0.07644839  0.25304937  0.95432698  1
  Se  Se153  1  0.07661200  0.59040039  0.44718706  1
  Se  Se154  1  0.07639576  0.59894969  0.95042846  1
  Se  Se155  1  0.07252633  0.91459584  0.43082983  1
  Se  Se156  1  0.07537957  0.91849577  0.93526247  1
  Se  Se157  1  0.41575807  0.25107441  0.44074174  1
  Se  Se158  1  0.42200938  0.24614432  0.94096451  1
  Se  Se159  1  0.41922801  0.58942061  0.45191070  1
  Se  Se160  1  0.41724650  0.58157545  0.94025110  1
  Se  Se161  1  0.40550938  0.92349032  0.44306393  1
  Se  Se162  1  0.40747300  0.91812890  0.94277158  1
  Se  Se163  1  0.74288214  0.25360172  0.44731877  1
  Se  Se164  1  0.75094508  0.24343979  0.94930622  1
  Se  Se165  1  0.76854330  0.57586659  0.44646909  1
  Se  Se166  1  0.75989797  0.57147788  0.94905747  1
  Se  Se167  1  0.75693163  0.92154277  0.43677163  1
  Se  Se168  1  0.75316395  0.91256122  0.95144295  1
  Se  Se169  1  0.24003463  0.08334393  0.44510920  1
  Se  Se170  1  0.24751102  0.08833301  0.94490482  1
  Se  Se171  1  0.25971137  0.40632369  0.43672456  1
  Se  Se172  1  0.25327870  0.41619523  0.94452009  1
  Se  Se173  1  0.25787431  0.74301458  0.45208807  1
  Se  Se174  1  0.25157182  0.74661092  0.93956591  1
  Se  Se175  1  0.58682730  0.08125621  0.44253433  1
  Se  Se176  1  0.58471576  0.07745817  0.95318099  1
  Se  Se177  1  0.59603133  0.41546404  0.43453817  1
  Se  Se178  1  0.58240627  0.41551328  0.94038597  1
  Se  Se179  1  0.59963736  0.73704819  0.44593640  1
  Se  Se180  1  0.59754633  0.73216682  0.94811312  1
  Se  Se181  1  0.91376962  0.07118389  0.43083643  1
  Se  Se182  1  0.91643994  0.07747042  0.94988319  1
  Se  Se183  1  0.92783265  0.40345141  0.44459522  1
  Se  Se184  1  0.92539350  0.40120421  0.95413304  1
  Se  Se185  1  0.92141405  0.75786322  0.43051339  1
  Se  Se186  1  0.90512278  0.75729346  0.94523590  1
  Se  Se187  1  0.24503413  0.25192138  0.30838260  1
  Se  Se188  1  0.24548464  0.25310945  0.80609339  1
  Se  Se189  1  0.24255953  0.57627929  0.30952413  1
  Se  Se190  1  0.24965436  0.58311256  0.80464803  1
  Se  Se191  1  0.25312020  0.92098915  0.29901057  1
  Se  Se192  1  0.24687045  0.91912660  0.80198411  1
  Se  Se193  1  0.57333842  0.24362112  0.31168779  1
  Se  Se194  1  0.58570064  0.24874468  0.80420953  1
  Se  Se195  1  0.58668766  0.58059723  0.30049084  1
  Se  Se196  1  0.58898843  0.58638684  0.80514132  1
  Se  Se197  1  0.58766188  0.91761495  0.30506778  1
  Se  Se198  1  0.57859560  0.90852507  0.82057572  1
  Se  Se199  1  0.91693789  0.24445578  0.30483077  1
  Se  Se200  1  0.90487740  0.24321632  0.82109341  1
  Se  Se201  1  0.91964641  0.59182984  0.30073706  1
  Se  Se202  1  0.92173774  0.58430146  0.81154433  1
  Se  Se203  1  0.94190793  0.93957873  0.29621916  1
  Se  Se204  1  0.91370943  0.91744605  0.80148702  1
  Se  Se205  1  0.08584782  0.08834760  0.30060270  1
  Se  Se206  1  0.07622002  0.08350919  0.80706604  1
  Se  Se207  1  0.07927289  0.42407702  0.31064216  1
  Se  Se208  1  0.08769057  0.42695382  0.82250800  1
  Se  Se209  1  0.09366936  0.74763064  0.29663296  1
  Se  Se210  1  0.07912965  0.74806088  0.80092659  1
  Se  Se211  1  0.41535787  0.08151131  0.30245864  1
  Se  Se212  1  0.41419614  0.08220703  0.80437274  1
  Se  Se213  1  0.41595526  0.42455013  0.29312029  1
  Se  Se214  1  0.41597256  0.41549504  0.80068324  1
  Se  Se215  1  0.42573387  0.75891549  0.31483984  1
  Se  Se216  1  0.41740856  0.74755450  0.80474673  1
  Se  Se217  1  0.74681404  0.08984864  0.29217336  1
  Se  Se218  1  0.75174782  0.08739504  0.81673809  1
  Se  Se219  1  0.76209858  0.41596182  0.30410556  1
  Se  Se220  1  0.75134217  0.41830021  0.80646311  1
  Se  Se221  1  0.74761773  0.75106855  0.30082796  1
  Se  Se222  1  0.74888919  0.74495507  0.80362141  1
  Se  Se223  1  0.25658129  0.08092802  0.19484704  1
  Se  Se224  1  0.24504221  0.08304264  0.69843270  1
  Se  Se225  1  0.22852787  0.42400766  0.18473392  1
  Se  Se226  1  0.24769790  0.41102948  0.70234639  1
  Se  Se227  1  0.24570480  0.75339256  0.18244823  1
  Se  Se228  1  0.24793534  0.74897219  0.70219769  1
  Se  Se229  1  0.59125032  0.08087139  0.19333348  1
  Se  Se230  1  0.57753252  0.09185080  0.68916899  1
  Se  Se231  1  0.58834602  0.42676395  0.18228535  1
  Se  Se232  1  0.58549569  0.42478681  0.69429939  1
  Se  Se233  1  0.57811688  0.74624703  0.19872460  1
  Se  Se234  1  0.58796528  0.75468673  0.70021623  1
  Se  Se235  1  0.92529756  0.09028545  0.18671552  1
  Se  Se236  1  0.91479459  0.08378374  0.70300185  1
  Se  Se237  1  0.90118238  0.43031247  0.18952881  1
  Se  Se238  1  0.91806850  0.42026497  0.70125223  1
  Se  Se239  1  0.91861696  0.73441847  0.20796391  1
  Se  Se240  1  0.91633625  0.74605007  0.69592026  1
  Se  Se241  1  0.09298070  0.24430405  0.18326870  1
  Se  Se242  1  0.08294215  0.24360300  0.69298633  1
  Se  Se243  1  0.07362839  0.59064432  0.19437631  1
  Se  Se244  1  0.08184565  0.57857504  0.69776873  1
  Se  Se245  1  0.08416021  0.91694873  0.19414929  1
  Se  Se246  1  0.07843075  0.91587779  0.69306413  1
  Se  Se247  1  0.43145905  0.24053970  0.18479482  1
  Se  Se248  1  0.41533169  0.25214695  0.69908149  1
  Se  Se249  1  0.41586670  0.58262713  0.18356607  1
  Se  Se250  1  0.41744537  0.58657180  0.70350135  1
  Se  Se251  1  0.41732373  0.92214692  0.19937222  1
  Se  Se252  1  0.41772214  0.92084545  0.70470101  1
  Se  Se253  1  0.76047989  0.24994709  0.18196452  1
  Se  Se254  1  0.74830800  0.25465334  0.70521057  1
  Se  Se255  1  0.73265301  0.58173487  0.18232492  1
  Se  Se256  1  0.75504812  0.58636226  0.69767029  1
  Se  Se257  1  0.76587778  0.92087448  0.20515637  1
  Se  Se258  1  0.75262415  0.91505405  0.69313690  1
