# generated using pymatgen
data_In86Cu29Se144
_symmetry_space_group_name_H-M   'P 1'
_cell_length_a   17.56579070
_cell_length_b   17.56537854
_cell_length_c   23.42389580
_cell_angle_alpha   89.98622762
_cell_angle_beta   89.98911404
_cell_angle_gamma   89.98648351
_symmetry_Int_Tables_number   1
_chemical_formula_structural   In86Cu29Se144
_chemical_formula_sum   'In86 Cu29 Se144'
_cell_volume   7227.43695628
_cell_formula_units_Z   1
loop_
 _symmetry_equiv_pos_site_id
 _symmetry_equiv_pos_as_xyz
  1  'x, y, z'
loop_
 _atom_site_type_symbol
 _atom_site_label
 _atom_site_symmetry_multiplicity
 _atom_site_fract_x
 _atom_site_fract_y
 _atom_site_fract_z
 _atom_site_occupancy
  In  In0  1  -0.02454045  0.18387377  0.15301145  1
  In  In1  1  -0.01327504  0.18134369  0.63671888  1
  In  In2  1  -0.00596190  0.50246963  0.12912430  1
  In  In3  1  -0.02543023  0.48832487  0.61895335  1
  In  In4  1  -0.00969121  0.84168855  0.13042934  1
  In  In5  1  0.00494205  0.84488987  0.62435267  1
  In  In6  1  0.31905552  0.17333971  0.14583812  1
  In  In7  1  0.33881350  0.16359161  0.62473782  1
  In  In8  1  0.33465672  0.50149525  0.13798820  1
  In  In9  1  0.33636009  0.48292204  0.61828942  1
  In  In10  1  0.33321253  0.83368385  0.13376546  1
  In  In11  1  0.35136461  0.83819777  0.62235255  1
  In  In12  1  0.69147980  0.17041999  0.12762786  1
  In  In13  1  0.66566865  0.16383173  0.61916288  1
  In  In14  1  0.66587296  0.48686277  0.12686590  1
  In  In15  1  0.67621610  0.50624480  0.62465400  1
  In  In16  1  0.66205661  0.83139365  0.10557130  1
  In  In17  1  0.65720337  0.84089106  0.63329115  1
  In  In18  1  0.17621908  0.01377386  0.35130112  1
  In  In19  1  0.17289357  0.00673875  0.87220675  1
  In  In20  1  0.17177308  0.32690399  0.36538847  1
  In  In21  1  0.15779226  0.32084989  0.86916516  1
  In  In22  1  0.17183976  0.67698205  0.35564508  1
  In  In23  1  0.16455678  0.66918399  0.88097636  1
  In  In24  1  0.49440709  0.01036759  0.38868332  1
  In  In25  1  0.49095742  -0.00933378  0.87023593  1
  In  In26  1  0.50005737  0.33110708  0.38287832  1
  In  In27  1  0.49449219  0.34118341  0.86630959  1
  In  In28  1  0.49444591  0.67287406  0.38431415  1
  In  In29  1  0.52251959  0.67025394  0.87553236  1
  In  In30  1  0.84550001  0.00876682  0.36874951  1
  In  In31  1  0.83237758  -0.00235796  0.86958451  1
  In  In32  1  0.83600400  0.33181947  0.37504844  1
  In  In33  1  0.84079359  0.32221243  0.88047894  1
  In  In34  1  0.83333046  0.65517486  0.37274865  1
  In  In35  1  0.81160682  0.67188715  0.89123629  1
  In  In36  1  -0.00704619  0.16264567  0.36327324  1
  In  In37  1  -0.02036970  0.15280539  0.85672916  1
  In  In38  1  -0.00639384  0.48794055  0.36711191  1
  In  In39  1  -0.01474473  0.47770550  0.86764071  1
  In  In40  1  0.01620662  0.84632187  0.35336131  1
  In  In41  1  -0.01371611  0.83269999  0.87934547  1
  In  In42  1  0.34718878  0.17365429  0.36508848  1
  In  In43  1  0.33718988  0.16856223  0.86574375  1
  In  In44  1  0.33900763  0.50161138  0.37602674  1
  In  In45  1  0.34562969  0.49581957  0.87102176  1
  In  In46  1  0.34066307  0.84497642  0.36538589  1
  In  In47  1  0.33414857  0.85148421  0.87848537  1
  In  In48  1  0.66246307  0.17154419  0.38143197  1
  In  In49  1  0.69314635  0.16589564  0.86934669  1
  In  In50  1  0.68097745  0.49165918  0.38523781  1
  In  In51  1  0.66714995  0.50861060  0.87006633  1
  In  In52  1  0.66234427  0.82176953  0.37650384  1
  In  In53  1  0.66463330  0.83350004  0.87610297  1
  In  In54  1  0.15224754  0.01127184  0.14873710  1
  In  In55  1  0.16159512  0.01221792  0.63090265  1
  In  In56  1  0.15645926  0.33158085  0.14190790  1
  In  In57  1  0.16874469  0.32763213  0.62527031  1
  In  In58  1  0.16368328  0.67899171  0.14352590  1
  In  In59  1  0.15829587  0.67335645  0.62257867  1
  In  In60  1  0.49956984  -0.00689842  0.12649593  1
  In  In61  1  0.50187894  -0.00200451  0.62417585  1
  In  In62  1  0.50051614  0.34002966  0.13752563  1
  In  In63  1  0.48937740  0.32149637  0.60998722  1
  In  In64  1  0.49117960  0.67027963  0.12890800  1
  In  In65  1  0.51308779  0.67601760  0.61905459  1
  In  In66  1  0.83822746  0.00280199  0.11474933  1
  In  In67  1  0.81942399  0.01568875  0.64283751  1
  In  In68  1  0.83056459  0.33264736  0.12919496  1
  In  In69  1  0.83889172  0.34136418  0.62567521  1
  In  In70  1  0.83226697  0.67255758  0.11057819  1
  In  In71  1  0.82419209  0.64698045  0.62753730  1
  In  In72  1  0.16611543  0.49843165  0.48396779  1
  In  In73  1  0.16909242  0.83996029  0.48255516  1
  In  In74  1  0.16298774  0.83853923  0.01651650  1
  In  In75  1  0.66871745  0.00547681  0.24938711  1
  In  In76  1  0.15664800  0.16499845  0.01366765  1
  In  In77  1  0.83110865  0.83403344  0.49575068  1
  In  In78  1  0.33188869  0.66636289  0.74957952  1
  In  In79  1  0.66307321  0.33033231  0.74565018  1
  In  In80  1  0.51333087  0.50745960  -0.00023833  1
  In  In81  1  0.66636380  0.66144642  0.24539260  1
  In  In82  1  0.16710853  0.50317573  0.00947088  1
  In  In83  1  0.50839972  0.16250866  0.00173208  1
  In  In84  1  0.16958230  0.16687653  0.48953056  1
  In  In85  1  -0.00738185  0.66904466  0.75338191  1
  Cu  Cu86  1  -0.00877949  0.65589740  0.00029601  1
  Cu  Cu87  1  0.34164206  0.67723659  0.00860072  1
  Cu  Cu88  1  0.33829926  0.65793939  0.50114077  1
  Cu  Cu89  1  0.49456876  0.49530296  0.74393396  1
  Cu  Cu90  1  0.50103275  0.16912634  0.25708932  1
  Cu  Cu91  1  0.50342833  0.49808948  0.26102407  1
  Cu  Cu92  1  0.67025718  0.33385142  0.50123584  1
  Cu  Cu93  1  0.50179579  0.16189769  0.74179092  1
  Cu  Cu94  1  0.67007130  -0.00005143  -0.00652444  1
  Cu  Cu95  1  -0.00677683  0.01288540  0.49749027  1
  Cu  Cu96  1  0.33657796  -0.00782227  0.50092285  1
  Cu  Cu97  1  0.49820606  0.83917714  0.25310801  1
  Cu  Cu98  1  -0.01128510  0.32285880  0.00278811  1
  Cu  Cu99  1  0.67105639  -0.00179739  0.50672828  1
  Cu  Cu100  1  0.16976042  0.84879049  0.75046756  1
  Cu  Cu101  1  -0.00907991  -0.00073077  -0.00138003  1
  Cu  Cu102  1  0.67494268  0.33063038  0.00282690  1
  Cu  Cu103  1  0.83173374  0.83116973  0.75689442  1
  Cu  Cu104  1  0.50310929  0.83370423  0.74815202  1
  Cu  Cu105  1  0.33738810  0.00372404  0.00443198  1
  Cu  Cu106  1  0.17375925  0.17320764  0.74773457  1
  Cu  Cu107  1  0.16220779  0.49736713  0.74184030  1
  Cu  Cu108  1  0.83909449  0.49229645  0.25167545  1
  Cu  Cu109  1  0.33259440  0.33863354  -0.00028828  1
  Cu  Cu110  1  0.17391613  0.49662445  0.25253237  1
  Cu  Cu111  1  -0.00780662  0.66661748  0.49162148  1
  Cu  Cu112  1  0.66562474  0.66412686  0.50092144  1
  Cu  Cu113  1  -0.00920331  0.33622130  0.49795020  1
  Cu  Cu114  1  0.83442777  0.83422409  0.23795716  1
  Se  Se115  1  0.06553304  0.07249549  0.06784159  1
  Se  Se116  1  0.07714029  0.08928653  0.55727329  1
  Se  Se117  1  0.07646391  0.40200787  0.05983150  1
  Se  Se118  1  0.07962844  0.41379772  0.55443959  1
  Se  Se119  1  0.07214324  0.73566815  0.06187892  1
  Se  Se120  1  0.07438022  0.75125304  0.54720775  1
  Se  Se121  1  0.40856729  0.09043325  0.06673896  1
  Se  Se122  1  0.41663914  0.07863429  0.55479118  1
  Se  Se123  1  0.41555603  0.41883318  0.05881603  1
  Se  Se124  1  0.41887181  0.41704857  0.54389587  1
  Se  Se125  1  0.42202286  0.76334940  0.05965372  1
  Se  Se126  1  0.41839394  0.74799940  0.55158479  1
  Se  Se127  1  0.74905727  0.08418507  0.04923653  1
  Se  Se128  1  0.75836916  0.08124232  0.55534646  1
  Se  Se129  1  0.75417562  0.41732734  0.05540895  1
  Se  Se130  1  0.75227772  0.41792994  0.55543820  1
  Se  Se131  1  0.74892510  0.75092578  0.04244222  1
  Se  Se132  1  0.74488880  0.74778251  0.56227288  1
  Se  Se133  1  0.25434144  0.26086881  0.06343458  1
  Se  Se134  1  0.25754515  0.25370855  0.55304552  1
  Se  Se135  1  0.25898795  0.59589661  0.06609096  1
  Se  Se136  1  0.24641687  0.58732695  0.55717275  1
  Se  Se137  1  0.25230459  0.93481013  0.06916084  1
  Se  Se138  1  0.24757760  0.92077984  0.56040673  1
  Se  Se139  1  0.58772241  0.25940538  0.06410395  1
  Se  Se140  1  0.58606326  0.24531409  0.54875610  1
  Se  Se141  1  0.59426186  0.59559280  0.06618630  1
  Se  Se142  1  0.58432227  0.57865394  0.55506364  1
  Se  Se143  1  0.57881875  0.92636566  0.04757513  1
  Se  Se144  1  0.58407535  0.91330358  0.55419970  1
  Se  Se145  1  0.91190736  0.24086109  0.06283017  1
  Se  Se146  1  0.91420330  0.25077342  0.55572170  1
  Se  Se147  1  0.91091724  0.57036805  0.05348481  1
  Se  Se148  1  0.91352098  0.58719421  0.55020800  1
  Se  Se149  1  0.91273547  0.90752573  0.04969967  1
  Se  Se150  1  0.91767596  0.92638846  0.55633757  1
  Se  Se151  1  0.07248991  0.25880190  0.43757278  1
  Se  Se152  1  0.07200858  0.24493948  0.94283783  1
  Se  Se153  1  0.07777075  0.59441925  0.42940208  1
  Se  Se154  1  0.07410984  0.57920180  0.93917340  1
  Se  Se155  1  0.07637416  0.93831676  0.43368191  1
  Se  Se156  1  0.08147147  0.92338374  0.94268332  1
  Se  Se157  1  0.42227576  0.23617661  0.44603293  1
  Se  Se158  1  0.41503794  0.25694722  0.94293972  1
  Se  Se159  1  0.42337077  0.57550380  0.44949330  1
  Se  Se160  1  0.41244696  0.59360749  0.94217203  1
  Se  Se161  1  0.41905379  0.90776105  0.44704064  1
  Se  Se162  1  0.41965737  0.91916573  0.95267679  1
  Se  Se163  1  0.75349689  0.25153488  0.44619389  1
  Se  Se164  1  0.75492042  0.24401648  0.95063097  1
  Se  Se165  1  0.75606344  0.58606762  0.45097440  1
  Se  Se166  1  0.73931057  0.57243980  0.95167336  1
  Se  Se167  1  0.74315285  0.92723396  0.43410942  1
  Se  Se168  1  0.75419146  0.91573295  0.94170702  1
  Se  Se169  1  0.25992931  0.07029254  0.43578604  1
  Se  Se170  1  0.25733611  0.08772950  0.94623129  1
  Se  Se171  1  0.26036682  0.39959701  0.44010160  1
  Se  Se172  1  0.25119798  0.41569751  0.93875345  1
  Se  Se173  1  0.26108749  0.73882813  0.43715042  1
  Se  Se174  1  0.25483286  0.75248493  0.94819843  1
  Se  Se175  1  0.58863420  0.08336787  0.45238780  1
  Se  Se176  1  0.59131645  0.08068404  0.93134014  1
  Se  Se177  1  0.58584579  0.41720334  0.44877814  1
  Se  Se178  1  0.59007908  0.40313714  0.93994388  1
  Se  Se179  1  0.58261754  0.75238229  0.45241885  1
  Se  Se180  1  0.58164508  0.75720808  0.94953751  1
  Se  Se181  1  0.91134495  0.09601982  0.44338353  1
  Se  Se182  1  0.91450674  0.08294933  0.94053823  1
  Se  Se183  1  0.91116954  0.42420886  0.44561655  1
  Se  Se184  1  0.91223836  0.41448329  0.95124701  1
  Se  Se185  1  0.92310373  0.75467204  0.42935806  1
  Se  Se186  1  0.91432100  0.74688830  0.94974114  1
  Se  Se187  1  0.24371286  0.23248294  0.30124507  1
  Se  Se188  1  0.25678101  0.25797651  0.80153590  1
  Se  Se189  1  0.25900753  0.58081622  0.30267109  1
  Se  Se190  1  0.23802669  0.57537722  0.80805095  1
  Se  Se191  1  0.22399300  0.88784996  0.30769875  1
  Se  Se192  1  0.25820137  0.92666778  0.80303620  1
  Se  Se193  1  0.58363961  0.25223296  0.30954629  1
  Se  Se194  1  0.57694012  0.23747660  0.81035699  1
  Se  Se195  1  0.58531613  0.58106029  0.31757081  1
  Se  Se196  1  0.57559476  0.57709950  0.79956230  1
  Se  Se197  1  0.58069889  0.91597060  0.31302849  1
  Se  Se198  1  0.58453943  0.91710122  0.80454370  1
  Se  Se199  1  0.92918603  0.26766706  0.30296233  1
  Se  Se200  1  0.92456253  0.26486823  0.80031646  1
  Se  Se201  1  0.91855539  0.58270725  0.30102109  1
  Se  Se202  1  0.90485150  0.58606143  0.81764354  1
  Se  Se203  1  0.91106902  0.91822147  0.29667387  1
  Se  Se204  1  0.92203858  0.91468323  0.80235678  1
  Se  Se205  1  0.06593628  0.07239324  0.29537497  1
  Se  Se206  1  0.09206230  0.08824274  0.80291688  1
  Se  Se207  1  0.08663961  0.41288942  0.30151087  1
  Se  Se208  1  0.08457111  0.41449859  0.80182825  1
  Se  Se209  1  0.06432329  0.73276282  0.29490860  1
  Se  Se210  1  0.09279536  0.76095809  0.80898623  1
  Se  Se211  1  0.42370892  0.07383772  0.30411276  1
  Se  Se212  1  0.41835531  0.08207888  0.80100525  1
  Se  Se213  1  0.41790849  0.41192518  0.30975192  1
  Se  Se214  1  0.40812403  0.41142087  0.79341784  1
  Se  Se215  1  0.42207859  0.74858957  0.30618046  1
  Se  Se216  1  0.41967706  0.75660938  0.81184457  1
  Se  Se217  1  0.75573133  0.09830519  0.30655038  1
  Se  Se218  1  0.76273196  0.08499398  0.79567042  1
  Se  Se219  1  0.75052399  0.41665859  0.30639497  1
  Se  Se220  1  0.75116321  0.41162556  0.81278323  1
  Se  Se221  1  0.75814057  0.75672081  0.30309065  1
  Se  Se222  1  0.74806094  0.74683880  0.80806972  1
  Se  Se223  1  0.26278800  0.06681680  0.20746020  1
  Se  Se224  1  0.25502149  0.08560437  0.69619532  1
  Se  Se225  1  0.25569365  0.40887795  0.20090938  1
  Se  Se226  1  0.24989320  0.41553084  0.69210291  1
  Se  Se227  1  0.27145945  0.73615541  0.20218150  1
  Se  Se228  1  0.24354448  0.76208530  0.68958000  1
  Se  Se229  1  0.57841799  0.09595237  0.18754397  1
  Se  Se230  1  0.58806637  0.08081746  0.69111115  1
  Se  Se231  1  0.58770554  0.41902202  0.20540448  1
  Se  Se232  1  0.57355388  0.41581458  0.68256057  1
  Se  Se233  1  0.58183463  0.76483276  0.19255134  1
  Se  Se234  1  0.58576446  0.74465362  0.70019115  1
  Se  Se235  1  0.90377626  0.07147138  0.19794680  1
  Se  Se236  1  0.94055652  0.06395304  0.69239902  1
  Se  Se237  1  0.92295892  0.40958983  0.19729118  1
  Se  Se238  1  0.90834423  0.42350021  0.70213087  1
  Se  Se239  1  0.91190634  0.74149316  0.18867085  1
  Se  Se240  1  0.90766739  0.75794712  0.68573579  1
  Se  Se241  1  0.10085076  0.22229287  0.20068411  1
  Se  Se242  1  0.08465234  0.25599076  0.69822195  1
  Se  Se243  1  0.08722224  0.57494158  0.19669842  1
  Se  Se244  1  0.07872483  0.57836795  0.68589134  1
  Se  Se245  1  0.09684558  0.89129820  0.19566556  1
  Se  Se246  1  0.08050734  0.92462995  0.69773248  1
  Se  Se247  1  0.41743348  0.25385783  0.20294235  1
  Se  Se248  1  0.42021163  0.25024521  0.69266576  1
  Se  Se249  1  0.42519240  0.58175640  0.20229798  1
  Se  Se250  1  0.41812310  0.58127307  0.68407755  1
  Se  Se251  1  0.41513705  0.92293106  0.20012603  1
  Se  Se252  1  0.41889465  0.91928458  0.69833893  1
  Se  Se253  1  0.73837298  0.26587190  0.20112817  1
  Se  Se254  1  0.75698716  0.24282561  0.68929768  1
  Se  Se255  1  0.76179157  0.57414412  0.18922613  1
  Se  Se256  1  0.74827015  0.57721633  0.70474784  1
  Se  Se257  1  0.74550071  0.90967308  0.18294551  1
  Se  Se258  1  0.74735920  0.91427445  0.70197288  1
