# generated using pymatgen
data_In86Cu29Se144
_symmetry_space_group_name_H-M   'P 1'
_cell_length_a   17.57601068
_cell_length_b   17.57680297
_cell_length_c   23.43146469
_cell_angle_alpha   89.99655960
_cell_angle_beta   89.99193043
_cell_angle_gamma   90.00902672
_symmetry_Int_Tables_number   1
_chemical_formula_structural   In86Cu29Se144
_chemical_formula_sum   'In86 Cu29 Se144'
_cell_volume   7238.68401077
_cell_formula_units_Z   1
loop_
 _symmetry_equiv_pos_site_id
 _symmetry_equiv_pos_as_xyz
  1  'x, y, z'
loop_
 _atom_site_type_symbol
 _atom_site_label
 _atom_site_symmetry_multiplicity
 _atom_site_fract_x
 _atom_site_fract_y
 _atom_site_fract_z
 _atom_site_occupancy
  In  In0  1  0.01426443  0.15686385  0.12125242  1
  In  In1  1  0.01125414  0.15293236  0.63488297  1
  In  In2  1  -0.00276964  0.51990522  0.12127589  1
  In  In3  1  -0.00446884  0.49527667  0.63186907  1
  In  In4  1  -0.01843409  0.82944580  0.11607385  1
  In  In5  1  0.01227830  0.83738877  0.61864149  1
  In  In6  1  0.32836186  0.16100186  0.12047745  1
  In  In7  1  0.33407528  0.15785833  0.61661535  1
  In  In8  1  0.33364550  0.49957674  0.12164313  1
  In  In9  1  0.36491845  0.47058891  0.66178963  1
  In  In10  1  0.36887113  0.83558235  0.11779462  1
  In  In11  1  0.32417964  0.84819894  0.63045124  1
  In  In12  1  0.65781277  0.16565279  0.13679476  1
  In  In13  1  0.65978556  0.17274265  0.62871028  1
  In  In14  1  0.67744248  0.49462277  0.12541264  1
  In  In15  1  0.65208175  0.50297980  0.63947762  1
  In  In16  1  0.66374909  0.82769898  0.12820928  1
  In  In17  1  0.67431136  0.82506362  0.62754479  1
  In  In18  1  0.18180093  -0.00898079  0.39030481  1
  In  In19  1  0.17998336  0.01232567  0.86742163  1
  In  In20  1  0.16731931  0.31963186  0.38392458  1
  In  In21  1  0.16019684  0.33641008  0.86220765  1
  In  In22  1  0.16925075  0.68080257  0.37464803  1
  In  In23  1  0.16828106  0.65585681  0.87165196  1
  In  In24  1  0.49809663  0.00003122  0.37081220  1
  In  In25  1  0.49116525  -0.00848441  0.86632731  1
  In  In26  1  0.50381076  0.33110058  0.38308256  1
  In  In27  1  0.50454261  0.34884881  0.85010280  1
  In  In28  1  0.49623992  0.65885345  0.37718005  1
  In  In29  1  0.50579540  0.67138128  0.86661308  1
  In  In30  1  0.81499350  -0.00098762  0.37590147  1
  In  In31  1  0.82301758  -0.01193725  0.87170716  1
  In  In32  1  0.82382029  0.34393721  0.37807370  1
  In  In33  1  0.84206649  0.34195830  0.87206440  1
  In  In34  1  0.83582519  0.67460130  0.36901349  1
  In  In35  1  0.82507545  0.68211652  0.88935251  1
  In  In36  1  0.01244061  0.16437794  0.38137445  1
  In  In37  1  0.01377714  0.17810691  0.86798434  1
  In  In38  1  -0.01545859  0.50414843  0.37771045  1
  In  In39  1  0.00345463  0.49230249  0.87689913  1
  In  In40  1  0.00652869  0.83097455  0.37649413  1
  In  In41  1  -0.01832176  0.82769304  0.87893786  1
  In  In42  1  0.35874274  0.14196429  0.40801471  1
  In  In43  1  0.33012840  0.16563801  0.86712107  1
  In  In44  1  0.34013864  0.51437318  0.38186575  1
  In  In45  1  0.34268710  0.50854931  0.84574596  1
  In  In46  1  0.32283084  0.83208341  0.37642659  1
  In  In47  1  0.33898025  0.83975730  0.87012218  1
  In  In48  1  0.63575919  0.14949464  0.35314304  1
  In  In49  1  0.66356122  0.16012797  0.86596324  1
  In  In50  1  0.65962446  0.49213690  0.36870893  1
  In  In51  1  0.67007624  0.51285714  0.86421142  1
  In  In52  1  0.66848192  0.84553132  0.36955231  1
  In  In53  1  0.66415680  0.83177617  0.87577987  1
  In  In54  1  0.16594226  0.00914007  0.11968064  1
  In  In55  1  0.17003833  -0.00525485  0.62133926  1
  In  In56  1  0.18086406  0.32164693  0.11891814  1
  In  In57  1  0.19031138  0.31630920  0.64815890  1
  In  In58  1  0.16723880  0.66118140  0.12791233  1
  In  In59  1  0.17600322  0.68206733  0.62477036  1
  In  In60  1  0.52053133  -0.02323488  0.15156334  1
  In  In61  1  0.48826436  0.01312670  0.62534423  1
  In  In62  1  0.50486150  0.34141333  0.12552625  1
  In  In63  1  0.50427752  0.32587963  0.62203244  1
  In  In64  1  0.51012399  0.69706398  0.11559442  1
  In  In65  1  0.50584705  0.65795212  0.63397394  1
  In  In66  1  0.82818216  -0.01076948  0.12249071  1
  In  In67  1  0.84166616  -0.00913504  0.63026679  1
  In  In68  1  0.82184801  0.33566172  0.12133771  1
  In  In69  1  0.82865791  0.33405112  0.63824593  1
  In  In70  1  0.82866221  0.66664860  0.12209821  1
  In  In71  1  0.82203104  0.66301057  0.62726473  1
  In  In72  1  0.33916780  0.32884212  0.25240382  1
  In  In73  1  0.49947355  0.50636265  -0.01439734  1
  In  In74  1  -0.00548747  0.33677316  0.25797560  1
  In  In75  1  0.50064532  0.83600148  0.50032345  1
  In  In76  1  0.82860472  0.16705851  0.49724003  1
  In  In77  1  0.16618940  0.49546995  -0.01054166  1
  In  In78  1  0.83841783  0.16437865  0.00226322  1
  In  In79  1  0.16479183  0.83364785  -0.00502901  1
  In  In80  1  0.82720337  0.50155882  0.50872285  1
  In  In81  1  0.17148964  0.50385583  0.51494777  1
  In  In82  1  -0.00523060  -0.00302104  0.24348254  1
  In  In83  1  -0.00334608  0.66977909  0.75773119  1
  In  In84  1  0.34009633  0.67565535  0.24752567  1
  In  In85  1  0.49218219  0.16194324  -0.00216965  1
  Cu  Cu86  1  0.66888953  0.66525142  0.50516630  1
  Cu  Cu87  1  0.65842178  0.33072287  0.49926157  1
  Cu  Cu88  1  0.67216545  0.33360723  -0.00274195  1
  Cu  Cu89  1  0.83028969  0.50022656  0.75325583  1
  Cu  Cu90  1  0.33241794  0.32930794  -0.01192857  1
  Cu  Cu91  1  0.16920051  0.84263450  0.74835739  1
  Cu  Cu92  1  0.00745458  0.33419795  -0.00629851  1
  Cu  Cu93  1  0.82537425  0.17215853  0.25092465  1
  Cu  Cu94  1  0.16639735  0.16250065  0.74558482  1
  Cu  Cu95  1  0.34042564  -0.00298772  -0.00373231  1
  Cu  Cu96  1  0.33310169  0.34173472  0.51452133  1
  Cu  Cu97  1  0.00425353  0.00629573  -0.00508694  1
  Cu  Cu98  1  0.17118191  0.16315390  0.25134897  1
  Cu  Cu99  1  0.83511464  0.16035142  0.75220642  1
  Cu  Cu100  1  0.50735829  0.50724719  0.24821907  1
  Cu  Cu101  1  0.82900410  0.83062478  0.75299239  1
  Cu  Cu102  1  0.00079662  -0.00740093  0.50651108  1
  Cu  Cu103  1  0.00446951  0.67389577  0.49574567  1
  Cu  Cu104  1  0.83165449  0.51062980  0.24842032  1
  Cu  Cu105  1  0.50718400  0.83524260  0.74590214  1
  Cu  Cu106  1  0.66217635  -0.01143749  0.00225688  1
  Cu  Cu107  1  0.34026182  0.66574655  0.50616154  1
  Cu  Cu108  1  0.66500844  0.66832594  -0.00085529  1
  Cu  Cu109  1  0.82672750  0.82997030  0.24561272  1
  Cu  Cu110  1  0.49709591  0.16368644  0.74477525  1
  Cu  Cu111  1  0.66484710  0.00043589  0.49692591  1
  Cu  Cu112  1  0.00105532  0.32525513  0.51340391  1
  Cu  Cu113  1  0.16510158  0.83445400  0.25112487  1
  Cu  Cu114  1  0.15901699  0.50212392  0.24923229  1
  Se  Se115  1  0.09210450  0.08882372  0.04322915  1
  Se  Se116  1  0.08239041  0.08077176  0.55528902  1
  Se  Se117  1  0.08314572  0.41092459  0.06274117  1
  Se  Se118  1  0.08316490  0.40629657  0.56915327  1
  Se  Se119  1  0.07912854  0.74276679  0.05768637  1
  Se  Se120  1  0.09154735  0.75162940  0.54973774  1
  Se  Se121  1  0.42032243  0.06714314  0.06431973  1
  Se  Se122  1  0.41652157  0.08072374  0.54424991  1
  Se  Se123  1  0.41123762  0.40891146  0.04939376  1
  Se  Se124  1  0.41905477  0.42410230  0.56498708  1
  Se  Se125  1  0.40363038  0.73241356  0.04573972  1
  Se  Se126  1  0.41747961  0.74866115  0.56732075  1
  Se  Se127  1  0.73638324  0.08030316  0.05869263  1
  Se  Se128  1  0.74617834  0.07571212  0.56118866  1
  Se  Se129  1  0.75345827  0.42079393  0.04704842  1
  Se  Se130  1  0.73848665  0.40670366  0.56332506  1
  Se  Se131  1  0.74627600  0.75303301  0.05424808  1
  Se  Se132  1  0.75573720  0.74964445  0.55234206  1
  Se  Se133  1  0.25579618  0.24394055  0.04447010  1
  Se  Se134  1  0.24671956  0.25381643  0.55845142  1
  Se  Se135  1  0.25505359  0.58717737  0.05291083  1
  Se  Se136  1  0.26808169  0.58598353  0.57138571  1
  Se  Se137  1  0.25739967  0.91837608  0.05786194  1
  Se  Se138  1  0.25012020  0.91376230  0.55019634  1
  Se  Se139  1  0.58949101  0.25401115  0.05488531  1
  Se  Se140  1  0.58047614  0.23956772  0.54963407  1
  Se  Se141  1  0.58488639  0.58483388  0.05846103  1
  Se  Se142  1  0.58711365  0.58213415  0.55898103  1
  Se  Se143  1  0.57769057  0.91396453  0.06103757  1
  Se  Se144  1  0.58968223  0.92291929  0.56323167  1
  Se  Se145  1  0.93002410  0.25797935  0.06095413  1
  Se  Se146  1  0.91444489  0.24714622  0.56809820  1
  Se  Se147  1  0.90432908  0.57933273  0.05163641  1
  Se  Se148  1  0.92789089  0.59340297  0.55858577  1
  Se  Se149  1  0.91741656  0.92673542  0.04772870  1
  Se  Se150  1  0.91324704  0.90944130  0.55437335  1
  Se  Se151  1  0.08267783  0.24675318  0.45653176  1
  Se  Se152  1  0.09374641  0.25457377  0.94221032  1
  Se  Se153  1  0.08263610  0.58426014  0.44141716  1
  Se  Se154  1  0.07077685  0.59499139  0.94504152  1
  Se  Se155  1  0.08418975  0.91213802  0.44849715  1
  Se  Se156  1  0.08091497  0.92599045  0.93222997  1
  Se  Se157  1  0.41533209  0.26231331  0.45559956  1
  Se  Se158  1  0.42326427  0.25975068  0.92917434  1
  Se  Se159  1  0.42527906  0.58192255  0.45597238  1
  Se  Se160  1  0.40240960  0.59001656  0.93052946  1
  Se  Se161  1  0.40637039  0.92231026  0.44324181  1
  Se  Se162  1  0.42308235  0.91216081  0.94533663  1
  Se  Se163  1  0.73592743  0.25139772  0.43634793  1
  Se  Se164  1  0.74718128  0.24772194  0.93797435  1
  Se  Se165  1  0.74646414  0.58644432  0.43938139  1
  Se  Se166  1  0.74373389  0.58136324  0.94500983  1
  Se  Se167  1  0.74856680  0.91187771  0.44973107  1
  Se  Se168  1  0.74944488  0.91053465  0.94838458  1
  Se  Se169  1  0.22592871  0.10838536  0.44601174  1
  Se  Se170  1  0.25932255  0.08402810  0.94475780  1
  Se  Se171  1  0.25672438  0.41505280  0.44439002  1
  Se  Se172  1  0.26209577  0.41630458  0.92725149  1
  Se  Se173  1  0.25509936  0.74426165  0.45052481  1
  Se  Se174  1  0.25492725  0.74468971  0.93615321  1
  Se  Se175  1  0.58172449  0.08147182  0.44244544  1
  Se  Se176  1  0.58746431  0.07287593  0.94079161  1
  Se  Se177  1  0.58229419  0.42430791  0.44841573  1
  Se  Se178  1  0.59019641  0.40827896  0.93481458  1
  Se  Se179  1  0.59131132  0.74463646  0.44163438  1
  Se  Se180  1  0.57962878  0.74808830  0.94426242  1
  Se  Se181  1  0.92239199  0.07076564  0.44131858  1
  Se  Se182  1  0.92147272  0.08255693  0.93283791  1
  Se  Se183  1  0.92289677  0.40577571  0.45270183  1
  Se  Se184  1  0.91788461  0.41771499  0.94898638  1
  Se  Se185  1  0.91630701  0.75120599  0.44258149  1
  Se  Se186  1  0.91650225  0.75216471  0.95801921  1
  Se  Se187  1  0.24997291  0.24108337  0.31251999  1
  Se  Se188  1  0.24762042  0.24941769  0.79906853  1
  Se  Se189  1  0.24628004  0.58098127  0.30653679  1
  Se  Se190  1  0.23793970  0.58397901  0.79305407  1
  Se  Se191  1  0.24547617  0.91774318  0.30601112  1
  Se  Se192  1  0.25763454  0.92305796  0.80074850  1
  Se  Se193  1  0.58644360  0.27061330  0.30479442  1
  Se  Se194  1  0.58282899  0.24462113  0.79808450  1
  Se  Se195  1  0.58583451  0.58986145  0.30544897  1
  Se  Se196  1  0.55963632  0.56315340  0.80278922  1
  Se  Se197  1  0.58099675  0.92044303  0.30202389  1
  Se  Se198  1  0.58848671  0.91735829  0.80368207  1
  Se  Se199  1  0.90794273  0.23988597  0.31644834  1
  Se  Se200  1  0.91517245  0.24920962  0.80483696  1
  Se  Se201  1  0.91950587  0.58771721  0.30213784  1
  Se  Se202  1  0.90496968  0.58175092  0.81717532  1
  Se  Se203  1  0.90620935  0.91157404  0.30779389  1
  Se  Se204  1  0.91574785  0.91330641  0.80373711  1
  Se  Se205  1  0.08710491  0.08027320  0.30669368  1
  Se  Se206  1  0.08284266  0.08148485  0.80131449  1
  Se  Se207  1  0.09086207  0.42332804  0.31748047  1
  Se  Se208  1  0.08027128  0.42672760  0.79873662  1
  Se  Se209  1  0.08133477  0.74960678  0.30161282  1
  Se  Se210  1  0.09095615  0.76442555  0.81253160  1
  Se  Se211  1  0.41295935  0.09542309  0.31381905  1
  Se  Se212  1  0.41399054  0.08182859  0.80045169  1
  Se  Se213  1  0.42160463  0.43104159  0.30857562  1
  Se  Se214  1  0.39903129  0.40041396  0.78392763  1
  Se  Se215  1  0.42672986  0.76212604  0.31180178  1
  Se  Se216  1  0.42075367  0.75656210  0.80113959  1
  Se  Se217  1  0.74687563  0.08083287  0.30011037  1
  Se  Se218  1  0.74872185  0.07567600  0.80153718  1
  Se  Se219  1  0.75314853  0.41995140  0.30038528  1
  Se  Se220  1  0.74767419  0.41318973  0.80490969  1
  Se  Se221  1  0.74425203  0.75114101  0.30381492  1
  Se  Se222  1  0.74833036  0.74577149  0.80756561  1
  Se  Se223  1  0.24936509  0.08111241  0.19371628  1
  Se  Se224  1  0.25026975  0.08101728  0.69028273  1
  Se  Se225  1  0.24209389  0.42161480  0.19334833  1
  Se  Se226  1  0.22795081  0.44207353  0.69542410  1
  Se  Se227  1  0.24818967  0.76211414  0.18595399  1
  Se  Se228  1  0.25440220  0.75550911  0.70115086  1
  Se  Se229  1  0.57673129  0.08973602  0.20682599  1
  Se  Se230  1  0.58389672  0.07965992  0.69454370  1
  Se  Se231  1  0.58686503  0.41928040  0.19502436  1
  Se  Se232  1  0.59067941  0.39543902  0.69656302  1
  Se  Se233  1  0.57877214  0.75296826  0.20078577  1
  Se  Se234  1  0.59060421  0.74643357  0.69771883  1
  Se  Se235  1  0.90640809  0.09622621  0.18728091  1
  Se  Se236  1  0.91908761  0.07648054  0.70002222  1
  Se  Se237  1  0.91183172  0.42320144  0.19060221  1
  Se  Se238  1  0.91610468  0.41632842  0.70352085  1
  Se  Se239  1  0.91325008  0.74955886  0.19292842  1
  Se  Se240  1  0.91231960  0.75536259  0.68948185  1
  Se  Se241  1  0.08932824  0.24799233  0.19584724  1
  Se  Se242  1  0.07734763  0.25182986  0.70134947  1
  Se  Se243  1  0.07888201  0.58836661  0.19839993  1
  Se  Se244  1  0.08245502  0.59181292  0.68788718  1
  Se  Se245  1  0.08596731  0.90740335  0.18336246  1
  Se  Se246  1  0.08159009  0.91982313  0.69423849  1
  Se  Se247  1  0.42427821  0.24305877  0.18630768  1
  Se  Se248  1  0.41444805  0.24221938  0.68676710  1
  Se  Se249  1  0.42506227  0.58115548  0.18571832  1
  Se  Se250  1  0.41872325  0.59147213  0.70870979  1
  Se  Se251  1  0.39896673  0.92431767  0.19979769  1
  Se  Se252  1  0.42060597  0.91965115  0.69574837  1
  Se  Se253  1  0.74722587  0.25595199  0.19490801  1
  Se  Se254  1  0.74855694  0.24326899  0.70096089  1
  Se  Se255  1  0.74441054  0.58896615  0.19470477  1
  Se  Se256  1  0.74684275  0.58430525  0.70086500  1
  Se  Se257  1  0.74556482  0.91863454  0.19564477  1
  Se  Se258  1  0.74960669  0.91469751  0.69659685  1
