# generated using pymatgen
data_In86Cu29Se144
_symmetry_space_group_name_H-M   'P 1'
_cell_length_a   17.57774569
_cell_length_b   17.58180487
_cell_length_c   23.43545095
_cell_angle_alpha   89.97714896
_cell_angle_beta   89.98680565
_cell_angle_gamma   89.99425580
_symmetry_Int_Tables_number   1
_chemical_formula_structural   In86Cu29Se144
_chemical_formula_sum   'In86 Cu29 Se144'
_cell_volume   7242.69003775
_cell_formula_units_Z   1
loop_
 _symmetry_equiv_pos_site_id
 _symmetry_equiv_pos_as_xyz
  1  'x, y, z'
loop_
 _atom_site_type_symbol
 _atom_site_label
 _atom_site_symmetry_multiplicity
 _atom_site_fract_x
 _atom_site_fract_y
 _atom_site_fract_z
 _atom_site_occupancy
  In  In0  1  0.00578586  0.15227770  0.11914089  1
  In  In1  1  0.00439509  0.17378181  0.62838607  1
  In  In2  1  0.00559298  0.50686416  0.11982457  1
  In  In3  1  0.01567784  0.50891843  0.62247647  1
  In  In4  1  -0.00673003  0.84675873  0.12013233  1
  In  In5  1  0.00410233  0.80022197  0.63153982  1
  In  In6  1  0.34334859  0.16699660  0.11792589  1
  In  In7  1  0.34700806  0.16941092  0.63929404  1
  In  In8  1  0.32790557  0.49176782  0.11430243  1
  In  In9  1  0.33815092  0.49656932  0.63103525  1
  In  In10  1  0.34607099  0.83828770  0.12293780  1
  In  In11  1  0.32246766  0.84000341  0.62913459  1
  In  In12  1  0.65218872  0.17703532  0.12618689  1
  In  In13  1  0.62476472  0.19322628  0.65965311  1
  In  In14  1  0.66314239  0.49775108  0.11809111  1
  In  In15  1  0.65609834  0.51276394  0.62604505  1
  In  In16  1  0.67003972  0.82593121  0.12644844  1
  In  In17  1  0.66977265  0.83460611  0.63764795  1
  In  In18  1  0.17336855  -0.00591538  0.38125342  1
  In  In19  1  0.18059516  0.01304084  0.86958944  1
  In  In20  1  0.19487108  0.32978661  0.37982564  1
  In  In21  1  0.18506431  0.32047517  0.88254582  1
  In  In22  1  0.17448819  0.65190356  0.39717790  1
  In  In23  1  0.15715295  0.66235793  0.86758064  1
  In  In24  1  0.50834287  0.00948629  0.37139233  1
  In  In25  1  0.49107625  0.00886351  0.87435357  1
  In  In26  1  0.49601052  0.33136725  0.37515285  1
  In  In27  1  0.50164100  0.33370402  0.86830170  1
  In  In28  1  0.50510847  0.65644187  0.37637225  1
  In  In29  1  0.49105666  0.65643652  0.86481602  1
  In  In30  1  0.82546255  0.00449588  0.37434891  1
  In  In31  1  0.81399259  0.00230755  0.88206251  1
  In  In32  1  0.81796374  0.35079490  0.37363648  1
  In  In33  1  0.83296145  0.34491180  0.87668311  1
  In  In34  1  0.82926127  0.67177525  0.37596488  1
  In  In35  1  0.83019264  0.66554651  0.87009388  1
  In  In36  1  0.00130946  0.15963746  0.37296408  1
  In  In37  1  0.01349773  0.17900365  0.87613576  1
  In  In38  1  0.01335876  0.51241227  0.37896192  1
  In  In39  1  -0.00806416  0.50568188  0.88033926  1
  In  In40  1  0.00677108  0.83189700  0.38166052  1
  In  In41  1  -0.00312209  0.81904196  0.87143127  1
  In  In42  1  0.35159819  0.18377320  0.36135558  1
  In  In43  1  0.33477838  0.17150607  0.86596143  1
  In  In44  1  0.35157499  0.48119440  0.39638870  1
  In  In45  1  0.33327754  0.49827454  0.87482551  1
  In  In46  1  0.32399132  0.83329007  0.37763278  1
  In  In47  1  0.33961634  0.84026615  0.86306574  1
  In  In48  1  0.64974570  0.16072144  0.37023059  1
  In  In49  1  0.64115633  0.15723005  0.86201263  1
  In  In50  1  0.65607750  0.49148957  0.36813830  1
  In  In51  1  0.66636486  0.50094762  0.86984666  1
  In  In52  1  0.66558428  0.83365291  0.36937893  1
  In  In53  1  0.67540186  0.83723197  0.86606508  1
  In  In54  1  0.17404563  0.01351788  0.11574579  1
  In  In55  1  0.19171435  0.00164162  0.63085167  1
  In  In56  1  0.18408547  0.33867804  0.12003740  1
  In  In57  1  0.17420756  0.34292974  0.63001510  1
  In  In58  1  0.18075664  0.65914610  0.12367019  1
  In  In59  1  0.16736337  0.66626013  0.62978865  1
  In  In60  1  0.48704383  0.01505238  0.12974748  1
  In  In61  1  0.49044429  0.01045498  0.64118005  1
  In  In62  1  0.49931413  0.33494315  0.11856036  1
  In  In63  1  0.50068841  0.34384981  0.62405089  1
  In  In64  1  0.51454489  0.66973963  0.12038383  1
  In  In65  1  0.51113331  0.64944915  0.62889149  1
  In  In66  1  0.83466771  -0.01390514  0.11692110  1
  In  In67  1  0.81690556  -0.01025948  0.62981117  1
  In  In68  1  0.81387269  0.33273133  0.11907444  1
  In  In69  1  0.82488684  0.32172762  0.62809414  1
  In  In70  1  0.82268107  0.65552501  0.11339619  1
  In  In71  1  0.82912011  0.67863757  0.63964506  1
  In  In72  1  0.34175962  0.66442086  0.25703485  1
  In  In73  1  -0.00493363  -0.00398208  0.75218044  1
  In  In74  1  0.50576073  0.83705147  -0.01116627  1
  In  In75  1  0.83308085  0.50400393  0.50603933  1
  In  In76  1  0.00599537  0.34314418  0.74769494  1
  In  In77  1  0.82833658  0.17308885  -0.00143917  1
  In  In78  1  -0.00569445  0.33131699  0.25140947  1
  In  In79  1  0.50022180  0.82777951  0.50300463  1
  In  In80  1  -0.00386215  -0.00090530  0.25140401  1
  In  In81  1  -0.00332987  0.67072675  0.25640775  1
  In  In82  1  0.83378186  0.82962966  0.50888644  1
  In  In83  1  0.15907262  0.82226710  -0.00287542  1
  In  In84  1  0.18491537  0.17144628  0.51164169  1
  In  In85  1  0.82476024  0.15585201  0.50054334  1
  Cu  Cu86  1  0.49772890  0.82917168  0.74864024  1
  Cu  Cu87  1  -0.00687084  0.66292579  -0.00494691  1
  Cu  Cu88  1  0.49793383  0.16968994  0.24576026  1
  Cu  Cu89  1  0.17962504  0.17033143  0.24040359  1
  Cu  Cu90  1  0.17147867  0.49914396  0.75289093  1
  Cu  Cu91  1  0.65743030  0.00315940  0.50623592  1
  Cu  Cu92  1  0.01209861  -0.01233218  0.50684339  1
  Cu  Cu93  1  0.81626887  0.16553396  0.25046117  1
  Cu  Cu94  1  0.33840070  0.33130714  -0.00485710  1
  Cu  Cu95  1  0.81925998  0.49916145  0.24259852  1
  Cu  Cu96  1  0.00769019  0.33256631  0.49793680  1
  Cu  Cu97  1  0.50541566  0.84377539  0.24665298  1
  Cu  Cu98  1  0.50089133  0.49637840  0.74920348  1
  Cu  Cu99  1  0.33005929  0.66281881  0.50945781  1
  Cu  Cu100  1  0.65820814  -0.00183043  -0.00221346  1
  Cu  Cu101  1  0.17591643  0.49476497  0.25363800  1
  Cu  Cu102  1  0.17171694  0.83698021  0.25446748  1
  Cu  Cu103  1  0.00088269  -0.00323837  -0.00727165  1
  Cu  Cu104  1  0.66146420  0.33416194  -0.00695153  1
  Cu  Cu105  1  0.82386771  0.82724517  0.24494698  1
  Cu  Cu106  1  0.49674911  0.49669384  0.24721471  1
  Cu  Cu107  1  0.00954960  0.33821081  0.00056454  1
  Cu  Cu108  1  0.67110375  0.66050777  -0.00552621  1
  Cu  Cu109  1  0.65483571  0.32684482  0.50113998  1
  Cu  Cu110  1  0.82862861  0.16574848  0.75461277  1
  Cu  Cu111  1  0.83320910  0.50024196  0.75259730  1
  Cu  Cu112  1  0.16376395  0.83357513  0.75061361  1
  Cu  Cu113  1  0.33225436  0.66217224  -0.00838059  1
  Cu  Cu114  1  0.34280913  0.00644019  0.50603603  1
  Se  Se115  1  0.08493997  0.08081968  0.04319659  1
  Se  Se116  1  0.08406109  0.07885681  0.56331524  1
  Se  Se117  1  0.09089566  0.41983497  0.05773110  1
  Se  Se118  1  0.08524042  0.41205108  0.55754387  1
  Se  Se119  1  0.07119179  0.73595514  0.06455837  1
  Se  Se120  1  0.09607634  0.75387970  0.55646148  1
  Se  Se121  1  0.41797101  0.07958119  0.04750056  1
  Se  Se122  1  0.42175326  0.08808327  0.56236914  1
  Se  Se123  1  0.41962415  0.41841095  0.04748786  1
  Se  Se124  1  0.42877580  0.43473118  0.55649354  1
  Se  Se125  1  0.41304490  0.74294928  0.05075371  1
  Se  Se126  1  0.41161348  0.74419554  0.56787907  1
  Se  Se127  1  0.74198577  0.07914323  0.05873094  1
  Se  Se128  1  0.73414298  0.08389430  0.56840802  1
  Se  Se129  1  0.74630341  0.41734092  0.04530974  1
  Se  Se130  1  0.74197128  0.40523934  0.55844439  1
  Se  Se131  1  0.74671014  0.75061597  0.04967840  1
  Se  Se132  1  0.73662604  0.74141376  0.56132934  1
  Se  Se133  1  0.25458889  0.24853233  0.05041162  1
  Se  Se134  1  0.27326662  0.26528873  0.56636227  1
  Se  Se135  1  0.24821850  0.58108776  0.04643655  1
  Se  Se136  1  0.24957133  0.57870792  0.56346344  1
  Se  Se137  1  0.25180405  0.91265796  0.05375426  1
  Se  Se138  1  0.25406203  0.92095127  0.55073707  1
  Se  Se139  1  0.58066009  0.25028311  0.04764539  1
  Se  Se140  1  0.57966281  0.24430747  0.56111442  1
  Se  Se141  1  0.58237180  0.58315476  0.04768510  1
  Se  Se142  1  0.58032353  0.57912836  0.54701560  1
  Se  Se143  1  0.58208549  0.92076542  0.06343401  1
  Se  Se144  1  0.58299275  0.91899783  0.56624767  1
  Se  Se145  1  0.92556453  0.25737099  0.06058925  1
  Se  Se146  1  0.92204341  0.25299919  0.55330821  1
  Se  Se147  1  0.91412949  0.57573094  0.05038684  1
  Se  Se148  1  0.91752618  0.59653891  0.56656966  1
  Se  Se149  1  0.91467550  0.91299219  0.04109478  1
  Se  Se150  1  0.92510249  0.91856862  0.56881434  1
  Se  Se151  1  0.08558646  0.24668577  0.44141552  1
  Se  Se152  1  0.09106836  0.24973865  0.95234927  1
  Se  Se153  1  0.06965582  0.59249965  0.45916941  1
  Se  Se154  1  0.08454657  0.58467565  0.94533223  1
  Se  Se155  1  0.09325310  0.90902683  0.44981297  1
  Se  Se156  1  0.08197360  0.91922998  0.93165153  1
  Se  Se157  1  0.40955007  0.25438624  0.44533217  1
  Se  Se158  1  0.41958994  0.25103963  0.93841861  1
  Se  Se159  1  0.41661845  0.59172797  0.45005079  1
  Se  Se160  1  0.42062520  0.57955503  0.94377942  1
  Se  Se161  1  0.41591865  0.92381392  0.44165664  1
  Se  Se162  1  0.40116099  0.92437238  0.94402329  1
  Se  Se163  1  0.74232298  0.25409089  0.43976550  1
  Se  Se164  1  0.73738519  0.24968275  0.93130844  1
  Se  Se165  1  0.74273216  0.58199793  0.43882181  1
  Se  Se166  1  0.75406548  0.57776874  0.94052833  1
  Se  Se167  1  0.74162539  0.92355808  0.44802913  1
  Se  Se168  1  0.74204134  0.91122001  0.95024456  1
  Se  Se169  1  0.26354929  0.08518790  0.44095205  1
  Se  Se170  1  0.24848808  0.09774148  0.94086000  1
  Se  Se171  1  0.23180145  0.43418110  0.45000152  1
  Se  Se172  1  0.25150855  0.41915993  0.94811079  1
  Se  Se173  1  0.25517734  0.75133755  0.45296284  1
  Se  Se174  1  0.25593994  0.74650040  0.93308707  1
  Se  Se175  1  0.57853239  0.08708339  0.45026618  1
  Se  Se176  1  0.57814964  0.08403458  0.94619501  1
  Se  Se177  1  0.58074687  0.41482530  0.44461389  1
  Se  Se178  1  0.58130517  0.41859093  0.93861492  1
  Se  Se179  1  0.59488086  0.74384557  0.44293070  1
  Se  Se180  1  0.58874593  0.73853157  0.93261482  1
  Se  Se181  1  0.92852739  0.06645068  0.44670756  1
  Se  Se182  1  0.92154713  0.08439206  0.93722573  1
  Se  Se183  1  0.92445365  0.41274354  0.44073953  1
  Se  Se184  1  0.91873291  0.41417065  0.94951187  1
  Se  Se185  1  0.92427069  0.73914828  0.44697997  1
  Se  Se186  1  0.91161392  0.74803070  0.94367804  1
  Se  Se187  1  0.25594586  0.25703700  0.29566345  1
  Se  Se188  1  0.25201381  0.25845582  0.79852211  1
  Se  Se189  1  0.24902200  0.57799103  0.31638968  1
  Se  Se190  1  0.25286640  0.58571818  0.80555663  1
  Se  Se191  1  0.25473202  0.92247383  0.30520331  1
  Se  Se192  1  0.24700885  0.91978126  0.79997192  1
  Se  Se193  1  0.57905171  0.25314118  0.30216741  1
  Se  Se194  1  0.56644047  0.24393048  0.79116475  1
  Se  Se195  1  0.57987924  0.58202975  0.29906326  1
  Se  Se196  1  0.58537649  0.58289088  0.79872924  1
  Se  Se197  1  0.58873679  0.92265268  0.30358625  1
  Se  Se198  1  0.56933840  0.91075680  0.81253829  1
  Se  Se199  1  0.90019018  0.24078836  0.31221990  1
  Se  Se200  1  0.91412492  0.24812753  0.80748045  1
  Se  Se201  1  0.90471318  0.56958532  0.30721510  1
  Se  Se202  1  0.91967336  0.58243859  0.80331535  1
  Se  Se203  1  0.90639465  0.90192565  0.31027868  1
  Se  Se204  1  0.90476985  0.91559122  0.81648666  1
  Se  Se205  1  0.09799838  0.09032133  0.30306580  1
  Se  Se206  1  0.08690534  0.09446168  0.80154527  1
  Se  Se207  1  0.08994486  0.41696679  0.31152670  1
  Se  Se208  1  0.09120986  0.42153622  0.81712265  1
  Se  Se209  1  0.09871777  0.75116632  0.31435985  1
  Se  Se210  1  0.07847989  0.74723056  0.79735026  1
  Se  Se211  1  0.41891285  0.08134736  0.30015398  1
  Se  Se212  1  0.41002140  0.07837878  0.79910936  1
  Se  Se213  1  0.41410904  0.42114469  0.30754353  1
  Se  Se214  1  0.41436580  0.41791124  0.80315615  1
  Se  Se215  1  0.42970630  0.76319963  0.31268389  1
  Se  Se216  1  0.41116861  0.74494222  0.79831072  1
  Se  Se217  1  0.73978799  0.07800800  0.30488691  1
  Se  Se218  1  0.74525335  0.08213063  0.80581144  1
  Se  Se219  1  0.73811829  0.41201145  0.29447787  1
  Se  Se220  1  0.75025509  0.41364970  0.80177791  1
  Se  Se221  1  0.74584730  0.74415750  0.30287776  1
  Se  Se222  1  0.74451546  0.74210115  0.80068858  1
  Se  Se223  1  0.25820991  0.08253397  0.18891782  1
  Se  Se224  1  0.25445053  0.09032853  0.70265364  1
  Se  Se225  1  0.25811023  0.41827379  0.19569848  1
  Se  Se226  1  0.25663310  0.41459707  0.70400760  1
  Se  Se227  1  0.25039902  0.75635114  0.19355254  1
  Se  Se228  1  0.24981506  0.75004970  0.69895713  1
  Se  Se229  1  0.58383764  0.08421637  0.19613788  1
  Se  Se230  1  0.60976430  0.05606919  0.69581900  1
  Se  Se231  1  0.58030735  0.41761150  0.18928429  1
  Se  Se232  1  0.58976493  0.41859305  0.69577033  1
  Se  Se233  1  0.58165129  0.75147741  0.19698030  1
  Se  Se234  1  0.58123871  0.74563057  0.69677104  1
  Se  Se235  1  0.90382015  0.09006097  0.19055541  1
  Se  Se236  1  0.90685303  0.09158186  0.69035908  1
  Se  Se237  1  0.90952878  0.42223039  0.18613482  1
  Se  Se238  1  0.91116066  0.42528005  0.68480239  1
  Se  Se239  1  0.91146710  0.75289946  0.18616093  1
  Se  Se240  1  0.90381338  0.76872680  0.70607451  1
  Se  Se241  1  0.08579042  0.24534632  0.18686554  1
  Se  Se242  1  0.09710514  0.24436349  0.69663103  1
  Se  Se243  1  0.09420453  0.57963317  0.19809925  1
  Se  Se244  1  0.08529876  0.58274009  0.70185567  1
  Se  Se245  1  0.09255268  0.91393128  0.18963108  1
  Se  Se246  1  0.08695928  0.91411161  0.68644537  1
  Se  Se247  1  0.41733535  0.25334528  0.18997842  1
  Se  Se248  1  0.44837089  0.24339566  0.70010684  1
  Se  Se249  1  0.42041351  0.58083767  0.18519770  1
  Se  Se250  1  0.41694159  0.58456220  0.69985208  1
  Se  Se251  1  0.41385261  0.92056061  0.19766211  1
  Se  Se252  1  0.41116398  0.91409976  0.69950055  1
  Se  Se253  1  0.74252876  0.25355488  0.19486785  1
  Se  Se254  1  0.74679522  0.25481547  0.70557997  1
  Se  Se255  1  0.74111492  0.58595220  0.18933347  1
  Se  Se256  1  0.74943562  0.58063448  0.69647198  1
  Se  Se257  1  0.75000828  0.91865423  0.19190734  1
  Se  Se258  1  0.75008481  0.91456843  0.70822275  1
