# generated using pymatgen
data_In86Cu29Se144
_symmetry_space_group_name_H-M   'P 1'
_cell_length_a   17.58407717
_cell_length_b   17.58127430
_cell_length_c   23.44513620
_cell_angle_alpha   89.99236238
_cell_angle_beta   90.00998399
_cell_angle_gamma   89.99349128
_symmetry_Int_Tables_number   1
_chemical_formula_structural   In86Cu29Se144
_chemical_formula_sum   'In86 Cu29 Se144'
_cell_volume   7248.07498434
_cell_formula_units_Z   1
loop_
 _symmetry_equiv_pos_site_id
 _symmetry_equiv_pos_as_xyz
  1  'x, y, z'
loop_
 _atom_site_type_symbol
 _atom_site_label
 _atom_site_symmetry_multiplicity
 _atom_site_fract_x
 _atom_site_fract_y
 _atom_site_fract_z
 _atom_site_occupancy
  In  In0  1  0.01323134  0.15554824  0.12674346  1
  In  In1  1  -0.00693857  0.17495116  0.62840961  1
  In  In2  1  -0.00947033  0.49142848  0.11588794  1
  In  In3  1  0.00130778  0.50734283  0.63977796  1
  In  In4  1  -0.00124757  0.86858328  0.11244743  1
  In  In5  1  0.00178366  0.83424624  0.63616750  1
  In  In6  1  0.33150947  0.16367947  0.12956946  1
  In  In7  1  0.33163755  0.17180916  0.63292975  1
  In  In8  1  0.31819725  0.49732132  0.11500513  1
  In  In9  1  0.32040820  0.49459010  0.63280842  1
  In  In10  1  0.34726636  0.83710043  0.11729577  1
  In  In11  1  0.34549700  0.84831736  0.62086340  1
  In  In12  1  0.65852645  0.16967393  0.12298568  1
  In  In13  1  0.66864418  0.14369883  0.62124909  1
  In  In14  1  0.67010107  0.48796089  0.12145310  1
  In  In15  1  0.68040911  0.50282341  0.62888309  1
  In  In16  1  0.68360574  0.85393251  0.10668671  1
  In  In17  1  0.66982244  0.84308979  0.63446535  1
  In  In18  1  0.16253469  -0.00105390  0.36914662  1
  In  In19  1  0.16979747  0.01062914  0.87111835  1
  In  In20  1  0.15023535  0.31162075  0.34751180  1
  In  In21  1  0.16498076  0.32722899  0.88062740  1
  In  In22  1  0.17530715  0.66868199  0.37915695  1
  In  In23  1  0.15070776  0.66112923  0.87170241  1
  In  In24  1  0.50047022  -0.00246501  0.37237779  1
  In  In25  1  0.50051869  0.00290255  0.88569885  1
  In  In26  1  0.49051512  0.31816460  0.36393144  1
  In  In27  1  0.48764942  0.32603470  0.88083871  1
  In  In28  1  0.50679884  0.68374248  0.37857364  1
  In  In29  1  0.52325535  0.67357914  0.86868507  1
  In  In30  1  0.84229293  0.01307751  0.36724328  1
  In  In31  1  0.82417777  -0.00974378  0.86639366  1
  In  In32  1  0.82172175  0.32210420  0.36290504  1
  In  In33  1  0.85424533  0.33118729  0.87792228  1
  In  In34  1  0.82569288  0.66782855  0.37985319  1
  In  In35  1  0.83240686  0.66944739  0.87523961  1
  In  In36  1  -0.00892684  0.15679454  0.36022023  1
  In  In37  1  0.00753489  0.17769908  0.86743344  1
  In  In38  1  0.01307937  0.49611825  0.37454542  1
  In  In39  1  0.00564964  0.49386933  0.88223040  1
  In  In40  1  -0.00613587  0.85260537  0.37714648  1
  In  In41  1  -0.01415318  0.83087646  0.86079374  1
  In  In42  1  0.32615501  0.15914604  0.35668437  1
  In  In43  1  0.32868002  0.16229272  0.88307984  1
  In  In44  1  0.33364725  0.48953297  0.37322239  1
  In  In45  1  0.33425985  0.47914040  0.87428339  1
  In  In46  1  0.33094089  0.84247317  0.38195425  1
  In  In47  1  0.33137414  0.85485503  0.87592329  1
  In  In48  1  0.66922268  0.16480783  0.36809937  1
  In  In49  1  0.66717368  0.13491143  0.88463342  1
  In  In50  1  0.67257759  0.49753013  0.37573151  1
  In  In51  1  0.67029061  0.51922040  0.87092092  1
  In  In52  1  0.65480911  0.83353943  0.38432627  1
  In  In53  1  0.67291895  0.83737297  0.87830369  1
  In  In54  1  0.15625049  0.01999708  0.13854199  1
  In  In55  1  0.17757281  -0.00323614  0.63047239  1
  In  In56  1  0.16289029  0.32693050  0.12709139  1
  In  In57  1  0.16339595  0.34339895  0.63902058  1
  In  In58  1  0.17569705  0.66421825  0.11562800  1
  In  In59  1  0.15188896  0.67075120  0.63239406  1
  In  In60  1  0.50035818  -0.00193279  0.12636149  1
  In  In61  1  0.51842823  -0.01516111  0.63988352  1
  In  In62  1  0.51153064  0.32222010  0.12798858  1
  In  In63  1  0.48966061  0.32054163  0.62648490  1
  In  In64  1  0.49923057  0.68420365  0.12145729  1
  In  In65  1  0.50445154  0.68823143  0.62547064  1
  In  In66  1  0.83887058  -0.00170489  0.12008307  1
  In  In67  1  0.82547545  0.00770095  0.63693998  1
  In  In68  1  0.82682536  0.33600283  0.12399478  1
  In  In69  1  0.84267828  0.33612982  0.62352514  1
  In  In70  1  0.83476303  0.67132475  0.11832058  1
  In  In71  1  0.82389596  0.68914886  0.65439373  1
  In  In72  1  0.16332965  0.50158091  0.51042980  1
  In  In73  1  0.49913744  0.16089599  0.49592670  1
  In  In74  1  0.66476715  0.66613005  0.25981757  1
  In  In75  1  0.16477668  0.16493816  0.49071620  1
  In  In76  1  0.50393283  0.50208446  -0.00223082  1
  In  In77  1  0.66105943  0.32934243  0.75161289  1
  In  In78  1  0.49892602  0.50683948  0.49907176  1
  In  In79  1  0.33339287  0.66100789  0.24399347  1
  In  In80  1  0.16070653  0.83510169  -0.00680378  1
  In  In81  1  0.82990387  0.84177682  0.51373956  1
  In  In82  1  -0.00622679  0.66792065  0.25064353  1
  In  In83  1  0.33285409  0.66473300  0.75116188  1
  In  In84  1  0.83937656  0.50615100  0.50288935  1
  In  In85  1  0.83859374  0.15921222  -0.00280130  1
  Cu  Cu86  1  0.83196068  0.16804372  0.75235149  1
  Cu  Cu87  1  0.49790453  0.49911396  0.75370441  1
  Cu  Cu88  1  0.32701070  0.32581313  0.00380935  1
  Cu  Cu89  1  -0.00420623  0.66808661  -0.00468568  1
  Cu  Cu90  1  0.00756916  0.00311671  0.49639563  1
  Cu  Cu91  1  0.00960228  0.32980621  -0.00062214  1
  Cu  Cu92  1  -0.00584545  0.67789578  0.51385872  1
  Cu  Cu93  1  0.49513173  0.49085935  0.24546093  1
  Cu  Cu94  1  0.67413236  0.33483257  -0.00360452  1
  Cu  Cu95  1  0.32955743  0.00215183  0.00506039  1
  Cu  Cu96  1  -0.01255258  0.32742005  0.50030168  1
  Cu  Cu97  1  0.34408768  -0.00274739  0.50457258  1
  Cu  Cu98  1  0.16856477  0.16916695  0.75342580  1
  Cu  Cu99  1  0.15901446  0.49079036  0.23956286  1
  Cu  Cu100  1  0.49482840  0.16163103  0.75758309  1
  Cu  Cu101  1  0.33326891  0.68248975  0.50102019  1
  Cu  Cu102  1  0.66813886  0.32369372  0.48979564  1
  Cu  Cu103  1  0.67261501  0.67291359  -0.00412709  1
  Cu  Cu104  1  0.16965453  0.84126056  0.75267695  1
  Cu  Cu105  1  0.84113801  0.49951329  0.75821566  1
  Cu  Cu106  1  0.33345342  0.66000293  -0.01194993  1
  Cu  Cu107  1  0.50488835  0.84074174  0.24831916  1
  Cu  Cu108  1  0.16488205  0.83723765  0.25056751  1
  Cu  Cu109  1  0.32077687  0.33505085  0.49737672  1
  Cu  Cu110  1  0.83749893  0.84653669  0.24572145  1
  Cu  Cu111  1  0.82880112  0.16726219  0.24014865  1
  Cu  Cu112  1  0.50299386  0.16202884  0.24675211  1
  Cu  Cu113  1  0.50316910  0.84208516  0.75442958  1
  Cu  Cu114  1  0.83038087  0.49167837  0.24688400  1
  Se  Se115  1  0.07396570  0.06341519  0.05350576  1
  Se  Se116  1  0.08302449  0.08270333  0.56125259  1
  Se  Se117  1  0.08859132  0.41619993  0.05499911  1
  Se  Se118  1  0.06706605  0.40704793  0.56192619  1
  Se  Se119  1  0.07183028  0.74850770  0.06071376  1
  Se  Se120  1  0.08460679  0.75935298  0.55974728  1
  Se  Se121  1  0.41520764  0.08263544  0.05922955  1
  Se  Se122  1  0.41551389  0.08090429  0.56669755  1
  Se  Se123  1  0.41618289  0.40982224  0.05736447  1
  Se  Se124  1  0.40617688  0.41151589  0.55611316  1
  Se  Se125  1  0.41058560  0.74278511  0.04578046  1
  Se  Se126  1  0.42293120  0.76056553  0.55146175  1
  Se  Se127  1  0.74018257  0.07840143  0.05597312  1
  Se  Se128  1  0.75279965  0.06816036  0.55335032  1
  Se  Se129  1  0.75565662  0.41998062  0.04759612  1
  Se  Se130  1  0.74162425  0.40715462  0.55252370  1
  Se  Se131  1  0.75873507  0.75496699  0.04715146  1
  Se  Se132  1  0.74592330  0.74056416  0.56627921  1
  Se  Se133  1  0.24606264  0.24276595  0.05867580  1
  Se  Se134  1  0.24447692  0.25617678  0.56061330  1
  Se  Se135  1  0.24717740  0.58139067  0.04141175  1
  Se  Se136  1  0.25938262  0.59692246  0.56206738  1
  Se  Se137  1  0.24543729  0.91884139  0.06133994  1
  Se  Se138  1  0.25049852  0.91910938  0.55287719  1
  Se  Se139  1  0.58715403  0.25468961  0.04794797  1
  Se  Se140  1  0.59013546  0.25292469  0.55833871  1
  Se  Se141  1  0.59330919  0.59414825  0.05979598  1
  Se  Se142  1  0.58870853  0.58787947  0.56441480  1
  Se  Se143  1  0.55832903  0.89317735  0.06022542  1
  Se  Se144  1  0.59403646  0.92230559  0.56041312  1
  Se  Se145  1  0.92288754  0.25218637  0.05955247  1
  Se  Se146  1  0.90660217  0.24255649  0.55217981  1
  Se  Se147  1  0.91416704  0.58440786  0.05151872  1
  Se  Se148  1  0.91543173  0.59550678  0.57200227  1
  Se  Se149  1  0.90003829  0.91452382  0.04020344  1
  Se  Se150  1  0.92981895  0.92984414  0.56356616  1
  Se  Se151  1  0.07251928  0.25809983  0.43610502  1
  Se  Se152  1  0.08659855  0.23821366  0.94981187  1
  Se  Se153  1  0.07229947  0.59547581  0.44961323  1
  Se  Se154  1  0.08502755  0.58358100  0.95126091  1
  Se  Se155  1  0.08975931  0.91803977  0.44536665  1
  Se  Se156  1  0.07380308  0.91947453  0.92883954  1
  Se  Se157  1  0.39984126  0.24977642  0.44027488  1
  Se  Se158  1  0.41425645  0.24411992  0.95334393  1
  Se  Se159  1  0.40292569  0.59446578  0.43818266  1
  Se  Se160  1  0.41979813  0.58687432  0.92909988  1
  Se  Se161  1  0.42600316  0.91586621  0.44748354  1
  Se  Se162  1  0.41367678  0.91730988  0.95350985  1
  Se  Se163  1  0.75468119  0.24178998  0.44093853  1
  Se  Se164  1  0.74786071  0.25121750  0.93479231  1
  Se  Se165  1  0.73482830  0.59251264  0.44999718  1
  Se  Se166  1  0.75316353  0.58259462  0.94772275  1
  Se  Se167  1  0.75759802  0.92109294  0.43591591  1
  Se  Se168  1  0.74876598  0.92545432  0.94778226  1
  Se  Se169  1  0.26549859  0.07544363  0.44064919  1
  Se  Se170  1  0.24237678  0.08142513  0.95211718  1
  Se  Se171  1  0.23799406  0.41239197  0.43842864  1
  Se  Se172  1  0.24977103  0.41293877  0.94949051  1
  Se  Se173  1  0.24411462  0.75909159  0.44826631  1
  Se  Se174  1  0.25344298  0.74520734  0.93198680  1
  Se  Se175  1  0.59522643  0.07428731  0.44136870  1
  Se  Se176  1  0.56898019  0.09296342  0.95818088  1
  Se  Se177  1  0.58077992  0.40588786  0.43766546  1
  Se  Se178  1  0.59261752  0.41432550  0.93472643  1
  Se  Se179  1  0.59013417  0.74298114  0.45538555  1
  Se  Se180  1  0.58369797  0.75474254  0.94771380  1
  Se  Se181  1  0.92465057  0.08582962  0.44290037  1
  Se  Se182  1  0.92084508  0.07898808  0.92716060  1
  Se  Se183  1  0.91705155  0.41239178  0.43645200  1
  Se  Se184  1  0.91967428  0.41492324  0.95412956  1
  Se  Se185  1  0.91903025  0.74999582  0.44532710  1
  Se  Se186  1  0.91802443  0.75411154  0.94196663  1
  Se  Se187  1  0.26986626  0.26777553  0.29714215  1
  Se  Se188  1  0.25178780  0.24742009  0.81142337  1
  Se  Se189  1  0.23737095  0.57089295  0.30353449  1
  Se  Se190  1  0.24768363  0.57369515  0.81204204  1
  Se  Se191  1  0.25157094  0.91452511  0.30575105  1
  Se  Se192  1  0.25315864  0.92756614  0.80096567  1
  Se  Se193  1  0.58599068  0.24784881  0.29963574  1
  Se  Se194  1  0.58076964  0.23933159  0.81749423  1
  Se  Se195  1  0.56576709  0.57255867  0.31215565  1
  Se  Se196  1  0.58722208  0.58521513  0.79412508  1
  Se  Se197  1  0.59051761  0.91564987  0.30622573  1
  Se  Se198  1  0.58227054  0.92165942  0.81369159  1
  Se  Se199  1  0.91332881  0.24912917  0.29567951  1
  Se  Se200  1  0.91852183  0.25408091  0.79749616  1
  Se  Se201  1  0.90456556  0.57325708  0.31170000  1
  Se  Se202  1  0.92136364  0.57974355  0.81449236  1
  Se  Se203  1  0.92486914  0.92707925  0.29814626  1
  Se  Se204  1  0.89518527  0.90488711  0.79212848  1
  Se  Se205  1  0.10738326  0.10602586  0.30620511  1
  Se  Se206  1  0.08124823  0.08389446  0.80036034  1
  Se  Se207  1  0.07079999  0.41464504  0.29422732  1
  Se  Se208  1  0.07083954  0.39858495  0.81388669  1
  Se  Se209  1  0.08805789  0.75467440  0.31211534  1
  Se  Se210  1  0.08685871  0.75429657  0.80169933  1
  Se  Se211  1  0.42148648  0.07674803  0.29987331  1
  Se  Se212  1  0.41449096  0.08036633  0.81403757  1
  Se  Se213  1  0.41083594  0.41140344  0.30038734  1
  Se  Se214  1  0.42185530  0.40883706  0.80281189  1
  Se  Se215  1  0.42052119  0.75576295  0.30418381  1
  Se  Se216  1  0.42021472  0.75830197  0.81170779  1
  Se  Se217  1  0.74987278  0.08275802  0.29747059  1
  Se  Se218  1  0.74585025  0.08329588  0.80017482  1
  Se  Se219  1  0.74100683  0.41555459  0.30038265  1
  Se  Se220  1  0.75546163  0.41608133  0.81288385  1
  Se  Se221  1  0.76154101  0.76459984  0.30857955  1
  Se  Se222  1  0.73281947  0.73606151  0.81077844  1
  Se  Se223  1  0.26089356  0.07571806  0.20165791  1
  Se  Se224  1  0.25279489  0.08538790  0.69981044  1
  Se  Se225  1  0.25254240  0.41484742  0.19110801  1
  Se  Se226  1  0.25924870  0.40777097  0.70628289  1
  Se  Se227  1  0.24385632  0.75835959  0.18884251  1
  Se  Se228  1  0.25060871  0.76108928  0.69022984  1
  Se  Se229  1  0.58708868  0.08001721  0.19385878  1
  Se  Se230  1  0.58470677  0.08795747  0.70212605  1
  Se  Se231  1  0.58687876  0.41589933  0.19425779  1
  Se  Se232  1  0.57445225  0.42078501  0.68655707  1
  Se  Se233  1  0.58812082  0.75774774  0.19236116  1
  Se  Se234  1  0.58553446  0.75649564  0.70168734  1
  Se  Se235  1  0.91519932  0.08317690  0.19088450  1
  Se  Se236  1  0.91888317  0.08665196  0.69886206  1
  Se  Se237  1  0.91618897  0.41422736  0.19259687  1
  Se  Se238  1  0.91532240  0.41526897  0.69842572  1
  Se  Se239  1  0.91601096  0.76259202  0.18667379  1
  Se  Se240  1  0.94666215  0.72920577  0.70290364  1
  Se  Se241  1  0.08043599  0.24776613  0.19684573  1
  Se  Se242  1  0.08319357  0.24816987  0.69760415  1
  Se  Se243  1  0.08541489  0.58345088  0.18575958  1
  Se  Se244  1  0.10610891  0.56757669  0.70121158  1
  Se  Se245  1  0.07913201  0.91809349  0.19717215  1
  Se  Se246  1  0.08487814  0.92487875  0.69900091  1
  Se  Se247  1  0.42065528  0.24861713  0.19482167  1
  Se  Se248  1  0.41560375  0.24988416  0.70465856  1
  Se  Se249  1  0.42463049  0.57458142  0.18128266  1
  Se  Se250  1  0.42562678  0.58001892  0.68656165  1
  Se  Se251  1  0.41316490  0.91566253  0.19642296  1
  Se  Se252  1  0.41396776  0.92073223  0.70235103  1
  Se  Se253  1  0.74396178  0.25203433  0.19059626  1
  Se  Se254  1  0.75102991  0.24536328  0.68742097  1
  Se  Se255  1  0.75442571  0.58254737  0.19169363  1
  Se  Se256  1  0.75163100  0.57908350  0.70591331  1
  Se  Se257  1  0.74957792  0.92199010  0.19098825  1
  Se  Se258  1  0.77686093  0.89628191  0.70089540  1
