# generated using pymatgen
data_In86Cu29Se144
_symmetry_space_group_name_H-M   'P 1'
_cell_length_a   17.59685252
_cell_length_b   17.59226203
_cell_length_c   23.45742302
_cell_angle_alpha   90.00184005
_cell_angle_beta   89.98673978
_cell_angle_gamma   89.98117242
_symmetry_Int_Tables_number   1
_chemical_formula_structural   In86Cu29Se144
_chemical_formula_sum   'In86 Cu29 Se144'
_cell_volume   7261.67727045
_cell_formula_units_Z   1
loop_
 _symmetry_equiv_pos_site_id
 _symmetry_equiv_pos_as_xyz
  1  'x, y, z'
loop_
 _atom_site_type_symbol
 _atom_site_label
 _atom_site_symmetry_multiplicity
 _atom_site_fract_x
 _atom_site_fract_y
 _atom_site_fract_z
 _atom_site_occupancy
  In  In0  1  -0.00721126  0.17300121  0.13183520  1
  In  In1  1  -0.01056654  0.17580826  0.62509547  1
  In  In2  1  -0.00065661  0.50071865  0.13418992  1
  In  In3  1  0.00715049  0.49371161  0.62734178  1
  In  In4  1  -0.00745188  0.84064039  0.13865501  1
  In  In5  1  -0.01559004  0.83609713  0.61913058  1
  In  In6  1  0.33248672  0.17039470  0.13695813  1
  In  In7  1  0.33739667  0.15832840  0.63792812  1
  In  In8  1  0.33777839  0.48008852  0.12424821  1
  In  In9  1  0.31790095  0.49626456  0.62328170  1
  In  In10  1  0.33533782  0.85186066  0.12808162  1
  In  In11  1  0.35235903  0.83728356  0.61907675  1
  In  In12  1  0.67133195  0.16155239  0.13121642  1
  In  In13  1  0.66701276  0.16367071  0.61833485  1
  In  In14  1  0.66388351  0.50115649  0.12900047  1
  In  In15  1  0.67259268  0.49706927  0.63372489  1
  In  In16  1  0.66735385  0.83333769  0.13399808  1
  In  In17  1  0.66369288  0.83487826  0.62469725  1
  In  In18  1  0.17476950  0.01841900  0.35960052  1
  In  In19  1  0.16870476  -0.00629934  0.86923754  1
  In  In20  1  0.17350107  0.33401534  0.36689015  1
  In  In21  1  0.16785369  0.32825531  0.86367681  1
  In  In22  1  0.14112308  0.66423529  0.38424322  1
  In  In23  1  0.16197609  0.67622871  0.86745423  1
  In  In24  1  0.50983346  0.00490612  0.38300136  1
  In  In25  1  0.50152784  -0.00301697  0.86867311  1
  In  In26  1  0.49303646  0.32208122  0.37073962  1
  In  In27  1  0.50280750  0.33715798  0.87128304  1
  In  In28  1  0.51836201  0.66793657  0.37699201  1
  In  In29  1  0.49850403  0.64924460  0.87357911  1
  In  In30  1  0.82849120  -0.00046095  0.38005471  1
  In  In31  1  0.83264435  0.02116265  0.87476722  1
  In  In32  1  0.82235474  0.32538445  0.36914174  1
  In  In33  1  0.82206051  0.31943263  0.86751281  1
  In  In34  1  0.84541799  0.67998452  0.37413872  1
  In  In35  1  0.83350401  0.66608679  0.86345561  1
  In  In36  1  -0.00742091  0.15842429  0.36186910  1
  In  In37  1  -0.02136074  0.16693227  0.87572749  1
  In  In38  1  0.00759585  0.50712812  0.37512405  1
  In  In39  1  0.00141108  0.49988495  0.86951464  1
  In  In40  1  -0.01350105  0.82892494  0.37470419  1
  In  In41  1  0.00877189  0.83419334  0.86800975  1
  In  In42  1  0.34258258  0.17807951  0.36883176  1
  In  In43  1  0.33970736  0.17086204  0.86309922  1
  In  In44  1  0.32874389  0.48117603  0.37327601  1
  In  In45  1  0.34837388  0.49156408  0.87955618  1
  In  In46  1  0.33772752  0.85128287  0.37798192  1
  In  In47  1  0.32584138  0.83835868  0.86813149  1
  In  In48  1  0.66540457  0.16118677  0.38046526  1
  In  In49  1  0.67863687  0.18077573  0.86942537  1
  In  In50  1  0.67333330  0.50593403  0.36488783  1
  In  In51  1  0.65484283  0.48495571  0.86423833  1
  In  In52  1  0.67326909  0.83869293  0.38206292  1
  In  In53  1  0.66819700  0.83485188  0.86544043  1
  In  In54  1  0.15181766  0.02656318  0.15217605  1
  In  In55  1  0.17420473  0.01926698  0.62769640  1
  In  In56  1  0.16905456  0.32380125  0.13882363  1
  In  In57  1  0.15446667  0.33047384  0.63494688  1
  In  In58  1  0.15690998  0.65905558  0.12905536  1
  In  In59  1  0.16825975  0.65160726  0.61980637  1
  In  In60  1  0.49906823  0.00784263  0.13799065  1
  In  In61  1  0.50360446  0.00086351  0.62280590  1
  In  In62  1  0.49824714  0.33828332  0.12766278  1
  In  In63  1  0.51141789  0.32072748  0.63051658  1
  In  In64  1  0.51491665  0.66210783  0.12726866  1
  In  In65  1  0.50376021  0.68128068  0.62128396  1
  In  In66  1  0.82955521  0.00418182  0.13004529  1
  In  In67  1  0.80773733  -0.01807439  0.59581255  1
  In  In68  1  0.83608426  0.32776158  0.13070597  1
  In  In69  1  0.83605182  0.32979278  0.62551962  1
  In  In70  1  0.83235903  0.66809358  0.13520509  1
  In  In71  1  0.82850860  0.67169774  0.63103545  1
  In  In72  1  -0.00570762  0.00783513  0.74489593  1
  In  In73  1  0.16693781  0.83691538  -0.00642644  1
  In  In74  1  0.82919009  0.49436723  -0.00279095  1
  In  In75  1  0.16412664  0.49497347  -0.00308555  1
  In  In76  1  0.83811233  0.50191534  0.50316444  1
  In  In77  1  0.83068293  0.83679958  0.00976307  1
  In  In78  1  0.16444484  0.83614052  0.49355497  1
  In  In79  1  0.16643648  0.17308507  0.49824122  1
  In  In80  1  0.33560609  0.66613392  0.74780864  1
  In  In81  1  0.50116786  0.83110528  0.00512521  1
  In  In82  1  0.49767063  0.49733671  0.49787849  1
  In  In83  1  0.50391541  0.17271118  -0.00256365  1
  In  In84  1  0.16682284  0.16865489  0.00840499  1
  In  In85  1  0.32676495  0.66927213  0.25001898  1
  Cu  Cu86  1  0.83269155  0.49649519  0.25084466  1
  Cu  Cu87  1  0.83064456  0.16532766  0.25316217  1
  Cu  Cu88  1  0.67157511  0.67338297  0.50272301  1
  Cu  Cu89  1  0.34292845  0.00439873  0.50253512  1
  Cu  Cu90  1  0.16539513  0.49729446  0.74877743  1
  Cu  Cu91  1  0.83056813  0.83558558  0.25662118  1
  Cu  Cu92  1  0.49982719  0.49599248  0.25308887  1
  Cu  Cu93  1  0.16124774  0.83311436  0.26036315  1
  Cu  Cu94  1  0.50970047  0.16381527  0.25443198  1
  Cu  Cu95  1  0.66027991  0.65494201  -0.00191874  1
  Cu  Cu96  1  0.82808399  0.83880578  0.74201232  1
  Cu  Cu97  1  -0.00327777  0.32857589  0.00387337  1
  Cu  Cu98  1  0.16727511  0.83482092  0.74324054  1
  Cu  Cu99  1  0.33020890  0.33027434  0.49801935  1
  Cu  Cu100  1  -0.00680474  0.67539514  0.00253912  1
  Cu  Cu101  1  0.50169946  0.16302580  0.74820079  1
  Cu  Cu102  1  0.32822891  0.00417329  0.00285367  1
  Cu  Cu103  1  0.50029269  0.49742214  0.74922461  1
  Cu  Cu104  1  0.00149404  0.33484749  0.50134352  1
  Cu  Cu105  1  0.50634790  0.83879979  0.74343602  1
  Cu  Cu106  1  0.15973051  0.50272142  0.25206223  1
  Cu  Cu107  1  0.84221163  0.50012547  0.74745209  1
  Cu  Cu108  1  0.50873964  0.83407030  0.25727264  1
  Cu  Cu109  1  0.34084413  0.65799927  0.00195813  1
  Cu  Cu110  1  -0.00086875  0.00287891  0.48875734  1
  Cu  Cu111  1  0.82711894  0.16528688  0.74173245  1
  Cu  Cu112  1  0.67160085  0.00711405  0.00279312  1
  Cu  Cu113  1  0.33286067  0.66431546  0.49972898  1
  Cu  Cu114  1  0.66057516  0.32642654  0.49492917  1
  Se  Se115  1  0.07601398  0.07653576  0.06316914  1
  Se  Se116  1  0.07472746  0.07892629  0.55488468  1
  Se  Se117  1  0.07803760  0.40770786  0.06321209  1
  Se  Se118  1  0.08745926  0.41176757  0.55630145  1
  Se  Se119  1  0.07681730  0.75175978  0.06077350  1
  Se  Se120  1  0.08207472  0.74862608  0.55932304  1
  Se  Se121  1  0.41428069  0.08074636  0.05964860  1
  Se  Se122  1  0.41643981  0.09058382  0.55984331  1
  Se  Se123  1  0.42065985  0.41256146  0.05134796  1
  Se  Se124  1  0.41176933  0.40816980  0.56079218  1
  Se  Se125  1  0.40783626  0.74324732  0.06619541  1
  Se  Se126  1  0.41940258  0.74906876  0.54597425  1
  Se  Se127  1  0.75412660  0.08684766  0.05684114  1
  Se  Se128  1  0.76111510  0.10198887  0.54587255  1
  Se  Se129  1  0.74461107  0.40870450  0.06108177  1
  Se  Se130  1  0.73906747  0.40968611  0.55458876  1
  Se  Se131  1  0.73755531  0.73694073  0.05897471  1
  Se  Se132  1  0.75405367  0.75342845  0.55795665  1
  Se  Se133  1  0.26148795  0.25991395  0.06148252  1
  Se  Se134  1  0.25510161  0.25358520  0.56505700  1
  Se  Se135  1  0.25256370  0.58637323  0.06060097  1
  Se  Se136  1  0.24950636  0.57709409  0.54617512  1
  Se  Se137  1  0.24333463  0.92906160  0.06107103  1
  Se  Se138  1  0.25370545  0.92596647  0.55761183  1
  Se  Se139  1  0.59223879  0.25393361  0.06223740  1
  Se  Se140  1  0.57781482  0.24604349  0.55007790  1
  Se  Se141  1  0.57959847  0.57406665  0.05337346  1
  Se  Se142  1  0.59199747  0.58472550  0.55838916  1
  Se  Se143  1  0.58947589  0.92657083  0.06145296  1
  Se  Se144  1  0.57363147  0.90690334  0.55610833  1
  Se  Se145  1  0.91334452  0.24719424  0.05656014  1
  Se  Se146  1  0.91352193  0.25252834  0.54980018  1
  Se  Se147  1  0.91835159  0.58834014  0.05946501  1
  Se  Se148  1  0.92385831  0.59051231  0.56442720  1
  Se  Se149  1  0.92732027  0.92590042  0.06036531  1
  Se  Se150  1  0.91873584  0.91567016  0.54082810  1
  Se  Se151  1  0.07436307  0.25457879  0.43503280  1
  Se  Se152  1  0.07939459  0.25375158  0.94124279  1
  Se  Se153  1  0.08060244  0.57407237  0.45638000  1
  Se  Se154  1  0.07576534  0.59668748  0.94289542  1
  Se  Se155  1  0.08613262  0.93091719  0.42930273  1
  Se  Se156  1  0.07047594  0.92961508  0.94184638  1
  Se  Se157  1  0.41759757  0.24871791  0.44866499  1
  Se  Se158  1  0.40744159  0.25643617  0.94006201  1
  Se  Se159  1  0.41039213  0.58632399  0.43420725  1
  Se  Se160  1  0.42420738  0.57559256  0.95097769  1
  Se  Se161  1  0.42364241  0.91818730  0.45083180  1
  Se  Se162  1  0.40797398  0.92092225  0.94413387  1
  Se  Se163  1  0.75255913  0.24785374  0.44663724  1
  Se  Se164  1  0.75565534  0.24672905  0.94796181  1
  Se  Se165  1  0.74619654  0.58954279  0.44218287  1
  Se  Se166  1  0.74465295  0.58608687  0.93441426  1
  Se  Se167  1  0.75967614  0.91190407  0.45281442  1
  Se  Se168  1  0.74409533  0.92031308  0.94191354  1
  Se  Se169  1  0.25934711  0.08129987  0.44185081  1
  Se  Se170  1  0.25319410  0.08199506  0.93872260  1
  Se  Se171  1  0.24412664  0.41178766  0.44716195  1
  Se  Se172  1  0.25343831  0.40434320  0.94034681  1
  Se  Se173  1  0.25644263  0.74358516  0.43492096  1
  Se  Se174  1  0.26251558  0.73822440  0.94129474  1
  Se  Se175  1  0.57898284  0.09310150  0.45450750  1
  Se  Se176  1  0.58986025  0.07806236  0.93797077  1
  Se  Se177  1  0.59000154  0.41470758  0.43497610  1
  Se  Se178  1  0.58704125  0.41180057  0.94287042  1
  Se  Se179  1  0.58567992  0.75386521  0.44977654  1
  Se  Se180  1  0.58785628  0.74449657  0.93943484  1
  Se  Se181  1  0.91605741  0.09120585  0.44134639  1
  Se  Se182  1  0.91593282  0.08247772  0.95100968  1
  Se  Se183  1  0.91810984  0.40947202  0.43844985  1
  Se  Se184  1  0.92338047  0.40803186  0.93836604  1
  Se  Se185  1  0.92629930  0.74403107  0.45179969  1
  Se  Se186  1  0.91697173  0.75148524  0.93877096  1
  Se  Se187  1  0.25053444  0.24613903  0.30062786  1
  Se  Se188  1  0.24849932  0.24453399  0.79792090  1
  Se  Se189  1  0.24087428  0.58121646  0.31409707  1
  Se  Se190  1  0.24730789  0.57546816  0.81148876  1
  Se  Se191  1  0.25267945  0.91673479  0.30319686  1
  Se  Se192  1  0.25065854  0.91858297  0.79550362  1
  Se  Se193  1  0.59026609  0.24942165  0.30810131  1
  Se  Se194  1  0.58127479  0.24896994  0.80368337  1
  Se  Se195  1  0.58293142  0.58540969  0.29964942  1
  Se  Se196  1  0.58418747  0.58394124  0.79908478  1
  Se  Se197  1  0.58782115  0.91846447  0.31212171  1
  Se  Se198  1  0.58832127  0.92133780  0.79911104  1
  Se  Se199  1  0.91506350  0.25460441  0.30040112  1
  Se  Se200  1  0.91216720  0.24660467  0.79697862  1
  Se  Se201  1  0.91216467  0.57926150  0.30904626  1
  Se  Se202  1  0.92422990  0.58589795  0.80040733  1
  Se  Se203  1  0.91419373  0.92120483  0.30779308  1
  Se  Se204  1  0.90635874  0.91486413  0.80869573  1
  Se  Se205  1  0.08956652  0.09558897  0.29263869  1
  Se  Se206  1  0.08126818  0.08926869  0.81234147  1
  Se  Se207  1  0.07993090  0.41654143  0.30543112  1
  Se  Se208  1  0.08049520  0.41450356  0.80174805  1
  Se  Se209  1  0.07629185  0.74791196  0.30781339  1
  Se  Se210  1  0.08186556  0.75156749  0.79415855  1
  Se  Se211  1  0.42562924  0.08301957  0.31035879  1
  Se  Se212  1  0.41802204  0.07754888  0.80073820  1
  Se  Se213  1  0.41470045  0.41055878  0.30173776  1
  Se  Se214  1  0.41474013  0.41446514  0.80053183  1
  Se  Se215  1  0.42110114  0.75326807  0.31200489  1
  Se  Se216  1  0.42800247  0.75776291  0.80828956  1
  Se  Se217  1  0.74894779  0.08250676  0.30853294  1
  Se  Se218  1  0.74577316  0.08446055  0.79992359  1
  Se  Se219  1  0.74569770  0.41259216  0.29939121  1
  Se  Se220  1  0.75642986  0.41833243  0.80116006  1
  Se  Se221  1  0.74816469  0.75064510  0.30961694  1
  Se  Se222  1  0.75022769  0.75157501  0.79835450  1
  Se  Se223  1  0.27756802  0.06269213  0.19821135  1
  Se  Se224  1  0.24447534  0.08879069  0.70661335  1
  Se  Se225  1  0.24619860  0.42196297  0.19873760  1
  Se  Se226  1  0.24858583  0.41296528  0.69726308  1
  Se  Se227  1  0.23791382  0.76266462  0.18940578  1
  Se  Se228  1  0.24931247  0.75536841  0.68313778  1
  Se  Se229  1  0.59335713  0.07828817  0.20316521  1
  Se  Se230  1  0.58611124  0.08443386  0.69182110  1
  Se  Se231  1  0.58414929  0.41554985  0.19784618  1
  Se  Se232  1  0.58538829  0.41379450  0.69717221  1
  Se  Se233  1  0.58436379  0.74825044  0.20002728  1
  Se  Se234  1  0.58702206  0.74694894  0.69708044  1
  Se  Se235  1  0.91492375  0.08266410  0.19912788  1
  Se  Se236  1  0.89738427  0.07864902  0.67900291  1
  Se  Se237  1  0.91772884  0.41405192  0.19811664  1
  Se  Se238  1  0.92005135  0.41243499  0.69323493  1
  Se  Se239  1  0.91447082  0.75006766  0.20294799  1
  Se  Se240  1  0.91780929  0.75502875  0.69663795  1
  Se  Se241  1  0.09012090  0.23513714  0.20103534  1
  Se  Se242  1  0.08346120  0.23182210  0.69648521  1
  Se  Se243  1  0.07492211  0.58963837  0.20341149  1
  Se  Se244  1  0.08570954  0.58409213  0.69591408  1
  Se  Se245  1  0.07986578  0.91884774  0.20582379  1
  Se  Se246  1  0.08671313  0.91619391  0.68366586  1
  Se  Se247  1  0.42696442  0.24749544  0.19857268  1
  Se  Se248  1  0.41843616  0.25197440  0.69965185  1
  Se  Se249  1  0.41872565  0.57788683  0.19230894  1
  Se  Se250  1  0.42317831  0.57697782  0.68466378  1
  Se  Se251  1  0.42327244  0.91376193  0.20244969  1
  Se  Se252  1  0.41717260  0.92027795  0.69505297  1
  Se  Se253  1  0.74873089  0.25006258  0.19944199  1
  Se  Se254  1  0.74395729  0.25186875  0.68989341  1
  Se  Se255  1  0.74857639  0.58161285  0.19811479  1
  Se  Se256  1  0.75248878  0.58336293  0.69975205  1
  Se  Se257  1  0.75045593  0.91738610  0.19852099  1
  Se  Se258  1  0.74950114  0.92450902  0.68808095  1
