# generated using pymatgen
data_In86Cu29Se144
_symmetry_space_group_name_H-M   'P 1'
_cell_length_a   17.58132350
_cell_length_b   17.58241412
_cell_length_c   23.44677876
_cell_angle_alpha   89.99037130
_cell_angle_beta   90.00708247
_cell_angle_gamma   89.99272070
_symmetry_Int_Tables_number   1
_chemical_formula_structural   In86Cu29Se144
_chemical_formula_sum   'In86 Cu29 Se144'
_cell_volume   7247.91752147
_cell_formula_units_Z   1
loop_
 _symmetry_equiv_pos_site_id
 _symmetry_equiv_pos_as_xyz
  1  'x, y, z'
loop_
 _atom_site_type_symbol
 _atom_site_label
 _atom_site_symmetry_multiplicity
 _atom_site_fract_x
 _atom_site_fract_y
 _atom_site_fract_z
 _atom_site_occupancy
  In  In0  1  -0.01697259  0.16156028  0.13617369  1
  In  In1  1  0.01009415  0.18110350  0.60189036  1
  In  In2  1  0.01201780  0.51115077  0.11756465  1
  In  In3  1  -0.00256790  0.49559214  0.63121522  1
  In  In4  1  -0.00326168  0.83102483  0.12791284  1
  In  In5  1  0.00057626  0.84411556  0.62536938  1
  In  In6  1  0.34395948  0.17253811  0.12966672  1
  In  In7  1  0.33214097  0.17060405  0.62188707  1
  In  In8  1  0.33007417  0.50341757  0.12584146  1
  In  In9  1  0.34877088  0.46492117  0.64550545  1
  In  In10  1  0.31372023  0.80505245  0.09858490  1
  In  In11  1  0.34709064  0.83237199  0.63606844  1
  In  In12  1  0.67538697  0.16525526  0.14460218  1
  In  In13  1  0.67916352  0.17644424  0.61191562  1
  In  In14  1  0.67752461  0.48979060  0.13065941  1
  In  In15  1  0.65181542  0.50972422  0.63220310  1
  In  In16  1  0.66437829  0.82628720  0.12494362  1
  In  In17  1  0.67380861  0.82099921  0.62526819  1
  In  In18  1  0.16695304  0.01463803  0.37243543  1
  In  In19  1  0.17228120  -0.01506818  0.87522938  1
  In  In20  1  0.16421714  0.31781428  0.37861262  1
  In  In21  1  0.18296540  0.35754790  0.85417732  1
  In  In22  1  0.16747807  0.66614993  0.36439051  1
  In  In23  1  0.17010966  0.67156727  0.88875104  1
  In  In24  1  0.51294247  0.00481290  0.37211764  1
  In  In25  1  0.48880018  0.00481696  0.87283054  1
  In  In26  1  0.49938404  0.33582095  0.37893034  1
  In  In27  1  0.49294464  0.34500117  0.86062318  1
  In  In28  1  0.49761253  0.66040739  0.36522420  1
  In  In29  1  0.51327638  0.65497274  0.87730288  1
  In  In30  1  0.82817068  0.00155790  0.37064720  1
  In  In31  1  0.82605292  -0.00698916  0.87993456  1
  In  In32  1  0.82655039  0.33353365  0.37810907  1
  In  In33  1  0.84310287  0.34223512  0.86694149  1
  In  In34  1  0.83776960  0.67705153  0.36536375  1
  In  In35  1  0.82725273  0.66740716  0.88371016  1
  In  In36  1  0.01014883  0.16198668  0.38098071  1
  In  In37  1  -0.00794959  0.17657622  0.87204278  1
  In  In38  1  -0.00841012  0.50282610  0.37386271  1
  In  In39  1  0.00594389  0.49232853  0.88292593  1
  In  In40  1  -0.01001647  0.82448662  0.36485092  1
  In  In41  1  0.00418047  0.82594557  0.88822690  1
  In  In42  1  0.32042932  0.17968879  0.38373590  1
  In  In43  1  0.33427264  0.17527456  0.86447634  1
  In  In44  1  0.34202259  0.50701935  0.36883339  1
  In  In45  1  0.32908320  0.49140338  0.87722000  1
  In  In46  1  0.34256152  0.82585041  0.37036179  1
  In  In47  1  0.32599693  0.84022646  0.88539978  1
  In  In48  1  0.66692582  0.16610556  0.37927378  1
  In  In49  1  0.65473265  0.17288014  0.87002409  1
  In  In50  1  0.65805283  0.48851598  0.36711464  1
  In  In51  1  0.66504082  0.50711610  0.86799983  1
  In  In52  1  0.67415092  0.84780127  0.36197381  1
  In  In53  1  0.67824809  0.82079139  0.88619934  1
  In  In54  1  0.16603749  -0.01576450  0.12798016  1
  In  In55  1  0.16199437  0.01014591  0.62744484  1
  In  In56  1  0.17342402  0.34734150  0.11947954  1
  In  In57  1  0.17190480  0.32985255  0.63163289  1
  In  In58  1  0.16440380  0.66342899  0.12344477  1
  In  In59  1  0.17640981  0.65990784  0.62922353  1
  In  In60  1  0.51150154  -0.00711169  0.13116939  1
  In  In61  1  0.48731239  0.00376893  0.62451726  1
  In  In62  1  0.50283655  0.33593771  0.13221750  1
  In  In63  1  0.50521941  0.33504398  0.62233951  1
  In  In64  1  0.48903377  0.67201415  0.12681744  1
  In  In65  1  0.51397948  0.67509371  0.62397906  1
  In  In66  1  0.84137167  -0.00888908  0.13881425  1
  In  In67  1  0.83781099  -0.00039938  0.61475329  1
  In  In68  1  0.82328027  0.32861887  0.12694398  1
  In  In69  1  0.83445075  0.32790504  0.62760742  1
  In  In70  1  0.83333396  0.66501558  0.12622627  1
  In  In71  1  0.82353301  0.66090092  0.62129482  1
  In  In72  1  0.33802814  -0.00559094  0.24847243  1
  In  In73  1  0.50952163  0.84037653  0.49455921  1
  In  In74  1  0.16433640  0.16877994  0.00219764  1
  In  In75  1  0.00040747  0.33524025  0.25222982  1
  In  In76  1  0.16590401  0.83654653  0.50451215  1
  In  In77  1  0.66717644  0.00539216  0.74834050  1
  In  In78  1  0.82856422  0.49487328  0.49337525  1
  In  In79  1  0.17345862  0.49534282  0.51138533  1
  In  In80  1  0.33669368  0.66688542  0.76155020  1
  In  In81  1  0.49516868  0.50212089  -0.00103317  1
  In  In82  1  0.50014172  0.16928902  -0.00497610  1
  In  In83  1  0.83052232  0.16447646  0.00494069  1
  In  In84  1  0.00000318  0.66696912  0.76273263  1
  In  In85  1  0.00251784  0.00482223  0.74938688  1
  Cu  Cu86  1  -0.00019581  0.66791646  0.49231121  1
  Cu  Cu87  1  0.50576470  0.49536719  0.24766567  1
  Cu  Cu88  1  0.82120536  0.49815871  0.74871688  1
  Cu  Cu89  1  0.66235161  0.33530446  0.49828016  1
  Cu  Cu90  1  -0.00694027  0.66873356  0.00547457  1
  Cu  Cu91  1  0.16289554  0.83082877  0.24194646  1
  Cu  Cu92  1  0.66892554  0.66080121  0.00396466  1
  Cu  Cu93  1  0.66843026  -0.01204895  0.00587073  1
  Cu  Cu94  1  -0.00741479  -0.00654421  0.49430850  1
  Cu  Cu95  1  0.49275310  0.82460170  0.24330873  1
  Cu  Cu96  1  0.16896248  0.16694369  0.74389122  1
  Cu  Cu97  1  0.17230552  0.50156656  0.24457504  1
  Cu  Cu98  1  0.33929867  0.66042518  0.49579003  1
  Cu  Cu99  1  0.67022571  0.66998073  0.49717670  1
  Cu  Cu100  1  -0.00004701  -0.00681497  0.00726257  1
  Cu  Cu101  1  0.33017389  0.00775347  0.50156419  1
  Cu  Cu102  1  0.50715390  0.83617202  0.75373568  1
  Cu  Cu103  1  0.83851671  0.50659481  0.24893258  1
  Cu  Cu104  1  0.16498703  0.16929220  0.25369997  1
  Cu  Cu105  1  0.66948389  0.00040708  0.49296125  1
  Cu  Cu106  1  0.82759425  0.83353234  0.24536552  1
  Cu  Cu107  1  0.33612917  0.33556949  0.50335582  1
  Cu  Cu108  1  0.00231940  0.34157724  -0.00466369  1
  Cu  Cu109  1  0.83385771  0.82491465  0.75606119  1
  Cu  Cu110  1  0.66638496  0.33243192  0.00247130  1
  Cu  Cu111  1  0.33592438  -0.00292052  -0.00136593  1
  Cu  Cu112  1  0.83344424  0.17412032  0.74081363  1
  Cu  Cu113  1  0.49718178  0.17593486  0.74367344  1
  Cu  Cu114  1  0.50028065  0.17489260  0.25754525  1
  Se  Se115  1  0.07384078  0.08031369  0.06540401  1
  Se  Se116  1  0.08107760  0.07220909  0.54858054  1
  Se  Se117  1  0.08791080  0.42130488  0.04917453  1
  Se  Se118  1  0.07334273  0.40725304  0.56055573  1
  Se  Se119  1  0.07937578  0.75083610  0.05765709  1
  Se  Se120  1  0.07850574  0.73809202  0.56136522  1
  Se  Se121  1  0.41522699  0.07610381  0.05954653  1
  Se  Se122  1  0.41777567  0.08908127  0.55166602  1
  Se  Se123  1  0.41327780  0.40601578  0.05895486  1
  Se  Se124  1  0.41887023  0.42121185  0.55454426  1
  Se  Se125  1  0.42686539  0.74788800  0.04500530  1
  Se  Se126  1  0.41449146  0.75086884  0.55351142  1
  Se  Se127  1  0.74188266  0.07571658  0.06547130  1
  Se  Se128  1  0.75411352  0.08188431  0.54796665  1
  Se  Se129  1  0.75321984  0.41367257  0.05300256  1
  Se  Se130  1  0.73951680  0.41706490  0.56164816  1
  Se  Se131  1  0.75078908  0.74734448  0.05589045  1
  Se  Se132  1  0.75575328  0.75151671  0.54904909  1
  Se  Se133  1  0.26291011  0.25483930  0.05682867  1
  Se  Se134  1  0.24738812  0.25470273  0.55431366  1
  Se  Se135  1  0.24635423  0.57882042  0.05625547  1
  Se  Se136  1  0.27159418  0.58323748  0.56488977  1
  Se  Se137  1  0.24522356  0.91964014  0.04945664  1
  Se  Se138  1  0.26235198  0.92016714  0.56406733  1
  Se  Se139  1  0.59274641  0.24786156  0.06310442  1
  Se  Se140  1  0.57972561  0.24893030  0.55022188  1
  Se  Se141  1  0.58861267  0.58095427  0.06450319  1
  Se  Se142  1  0.58572641  0.58992230  0.55142016  1
  Se  Se143  1  0.57875587  0.90942122  0.05548953  1
  Se  Se144  1  0.59485267  0.92529253  0.56322687  1
  Se  Se145  1  0.92784007  0.25800845  0.05776569  1
  Se  Se146  1  0.89552504  0.24082023  0.55172412  1
  Se  Se147  1  0.91142869  0.57974467  0.05450840  1
  Se  Se148  1  0.92353976  0.58492878  0.55435008  1
  Se  Se149  1  0.91158902  0.91576012  0.05966941  1
  Se  Se150  1  0.91538339  0.90711442  0.54938395  1
  Se  Se151  1  0.08362947  0.24795137  0.45216406  1
  Se  Se152  1  0.08132295  0.25825557  0.93764419  1
  Se  Se153  1  0.08634093  0.58497876  0.44211468  1
  Se  Se154  1  0.07649304  0.58871368  0.94817296  1
  Se  Se155  1  0.07976613  0.91681088  0.43531034  1
  Se  Se156  1  0.08576060  0.91827832  0.94991541  1
  Se  Se157  1  0.41693530  0.25095053  0.44819621  1
  Se  Se158  1  0.41204370  0.26205935  0.93779613  1
  Se  Se159  1  0.42490406  0.58166389  0.44262052  1
  Se  Se160  1  0.40437853  0.59238256  0.94124713  1
  Se  Se161  1  0.40787461  0.92743068  0.43929782  1
  Se  Se162  1  0.42424163  0.91813075  0.94713219  1
  Se  Se163  1  0.74856815  0.25141823  0.44904218  1
  Se  Se164  1  0.74533857  0.25282916  0.93909336  1
  Se  Se165  1  0.74514979  0.58913192  0.43277763  1
  Se  Se166  1  0.74520054  0.57512459  0.94621364  1
  Se  Se167  1  0.75055347  0.91296306  0.44281210  1
  Se  Se168  1  0.75708539  0.90979420  0.95375951  1
  Se  Se169  1  0.24285744  0.08720265  0.44948388  1
  Se  Se170  1  0.25902405  0.08396075  0.93998979  1
  Se  Se171  1  0.25655706  0.41427486  0.43950679  1
  Se  Se172  1  0.24279775  0.41303215  0.94454814  1
  Se  Se173  1  0.25504447  0.74325160  0.44264302  1
  Se  Se174  1  0.25028499  0.75599702  0.95518516  1
  Se  Se175  1  0.57933467  0.08507715  0.44967119  1
  Se  Se176  1  0.59548918  0.07212709  0.94280876  1
  Se  Se177  1  0.58112444  0.42291753  0.44769743  1
  Se  Se178  1  0.58542482  0.40829978  0.94013955  1
  Se  Se179  1  0.59114921  0.74750275  0.43274700  1
  Se  Se180  1  0.58519580  0.74225087  0.94925344  1
  Se  Se181  1  0.91484821  0.08010266  0.44077235  1
  Se  Se182  1  0.92531870  0.07543116  0.94363501  1
  Se  Se183  1  0.92954904  0.40494712  0.44482903  1
  Se  Se184  1  0.90822342  0.41889390  0.94780644  1
  Se  Se185  1  0.91454154  0.75091687  0.44331851  1
  Se  Se186  1  0.90964290  0.75193685  0.95136396  1
  Se  Se187  1  0.25060150  0.25343818  0.30261646  1
  Se  Se188  1  0.25214906  0.25438626  0.79418926  1
  Se  Se189  1  0.25502765  0.58524484  0.29995800  1
  Se  Se190  1  0.23574110  0.58103046  0.81262072  1
  Se  Se191  1  0.24095248  0.90734086  0.30907233  1
  Se  Se192  1  0.26557452  0.92301180  0.80584698  1
  Se  Se193  1  0.58579559  0.25434885  0.31142409  1
  Se  Se194  1  0.58039484  0.25611397  0.79943520  1
  Se  Se195  1  0.58770146  0.58246459  0.29917115  1
  Se  Se196  1  0.57315525  0.57508558  0.79818750  1
  Se  Se197  1  0.57045570  0.91207896  0.29794644  1
  Se  Se198  1  0.58872724  0.91458338  0.81552553  1
  Se  Se199  1  0.91570372  0.24552840  0.31391213  1
  Se  Se200  1  0.91795624  0.25354557  0.79684102  1
  Se  Se201  1  0.92314365  0.58867958  0.30136554  1
  Se  Se202  1  0.90446183  0.57335974  0.81258827  1
  Se  Se203  1  0.91071915  0.91571356  0.30159164  1
  Se  Se204  1  0.91499161  0.90955149  0.81134086  1
  Se  Se205  1  0.07925005  0.08354656  0.30037499  1
  Se  Se206  1  0.09365968  0.09240451  0.81262035  1
  Se  Se207  1  0.09454479  0.42516944  0.31140462  1
  Se  Se208  1  0.06255786  0.40662360  0.80441484  1
  Se  Se209  1  0.08174028  0.74773783  0.29907178  1
  Se  Se210  1  0.09475092  0.76117494  0.81235787  1
  Se  Se211  1  0.41417417  0.09194007  0.31299574  1
  Se  Se212  1  0.41958569  0.08998921  0.79967696  1
  Se  Se213  1  0.42047484  0.41586624  0.30440797  1
  Se  Se214  1  0.41034422  0.43145315  0.79734824  1
  Se  Se215  1  0.41011422  0.74122769  0.29701750  1
  Se  Se216  1  0.42864002  0.75916175  0.81755824  1
  Se  Se217  1  0.72412180  0.06686985  0.30943808  1
  Se  Se218  1  0.76203626  0.09438452  0.80867340  1
  Se  Se219  1  0.75999528  0.42036249  0.30408028  1
  Se  Se220  1  0.74308486  0.41206934  0.80416381  1
  Se  Se221  1  0.74403944  0.74841276  0.29814105  1
  Se  Se222  1  0.74828154  0.74362361  0.80730911  1
  Se  Se223  1  0.24418838  0.08853834  0.19082462  1
  Se  Se224  1  0.25403676  0.08324624  0.69317146  1
  Se  Se225  1  0.25486324  0.41329132  0.19684341  1
  Se  Se226  1  0.22849253  0.43058104  0.69996920  1
  Se  Se227  1  0.25013873  0.75092651  0.18982439  1
  Se  Se228  1  0.24560538  0.75706319  0.69693702  1
  Se  Se229  1  0.57542881  0.08666622  0.20150890  1
  Se  Se230  1  0.58011526  0.09364164  0.68591291  1
  Se  Se231  1  0.59292176  0.40944233  0.20003827  1
  Se  Se232  1  0.57690046  0.41903694  0.69635279  1
  Se  Se233  1  0.58268424  0.74282152  0.19493530  1
  Se  Se234  1  0.58892383  0.75307893  0.69994275  1
  Se  Se235  1  0.89935207  0.09165201  0.20686849  1
  Se  Se236  1  0.91451758  0.08996270  0.68549541  1
  Se  Se237  1  0.91682251  0.42443610  0.18698062  1
  Se  Se238  1  0.90865027  0.41809941  0.69654933  1
  Se  Se239  1  0.91433236  0.74820206  0.19682075  1
  Se  Se240  1  0.91475961  0.75144900  0.69118333  1
  Se  Se241  1  0.09040852  0.24814422  0.18688798  1
  Se  Se242  1  0.07850520  0.24107968  0.68925377  1
  Se  Se243  1  0.08288321  0.58428019  0.19747511  1
  Se  Se244  1  0.08728192  0.57918058  0.69691530  1
  Se  Se245  1  0.07534293  0.91903297  0.19907215  1
  Se  Se246  1  0.09567688  0.90820114  0.69737399  1
  Se  Se247  1  0.41753584  0.25526137  0.20146781  1
  Se  Se248  1  0.41249240  0.25690030  0.68983369  1
  Se  Se249  1  0.41963964  0.57744686  0.19508599  1
  Se  Se250  1  0.41792867  0.59026211  0.68649975  1
  Se  Se251  1  0.41021403  0.90121282  0.18093054  1
  Se  Se252  1  0.42343321  0.92077556  0.70327864  1
  Se  Se253  1  0.75871466  0.25250521  0.20610128  1
  Se  Se254  1  0.74030608  0.25327641  0.69478046  1
  Se  Se255  1  0.74926614  0.58466087  0.19690047  1
  Se  Se256  1  0.74568858  0.58902649  0.69649475  1
  Se  Se257  1  0.73904000  0.91577387  0.19586563  1
  Se  Se258  1  0.76231477  0.91190488  0.69369445  1
