# generated using pymatgen
data_In86Cu29Se144
_symmetry_space_group_name_H-M   'P 1'
_cell_length_a   17.57356738
_cell_length_b   17.57990465
_cell_length_c   23.43653934
_cell_angle_alpha   89.97606187
_cell_angle_beta   90.03262366
_cell_angle_gamma   89.99417151
_symmetry_Int_Tables_number   1
_chemical_formula_structural   In86Cu29Se144
_chemical_formula_sum   'In86 Cu29 Se144'
_cell_volume   7240.52103213
_cell_formula_units_Z   1
loop_
 _symmetry_equiv_pos_site_id
 _symmetry_equiv_pos_as_xyz
  1  'x, y, z'
loop_
 _atom_site_type_symbol
 _atom_site_label
 _atom_site_symmetry_multiplicity
 _atom_site_fract_x
 _atom_site_fract_y
 _atom_site_fract_z
 _atom_site_occupancy
  In  In0  1  -0.00454205  0.15593851  0.11473645  1
  In  In1  1  0.01515405  0.17325710  0.61869988  1
  In  In2  1  0.02026945  0.49600377  0.12855806  1
  In  In3  1  0.01297443  0.48674848  0.62628000  1
  In  In4  1  0.00449392  0.83738660  0.12950036  1
  In  In5  1  0.00376939  0.83593854  0.62000665  1
  In  In6  1  0.32987640  0.18198834  0.12429100  1
  In  In7  1  0.32610840  0.17474122  0.63795584  1
  In  In8  1  0.32673388  0.50710794  0.13036401  1
  In  In9  1  0.32699982  0.49987830  0.62692318  1
  In  In10  1  0.32170315  0.82427199  0.11759288  1
  In  In11  1  0.32474871  0.83389803  0.63108877  1
  In  In12  1  0.67045808  0.15133119  0.12626643  1
  In  In13  1  0.66332786  0.16198810  0.63995916  1
  In  In14  1  0.66504635  0.48836863  0.12160553  1
  In  In15  1  0.65291572  0.50025305  0.62331467  1
  In  In16  1  0.68215819  0.84802591  0.11548362  1
  In  In17  1  0.67193838  0.83851667  0.62346323  1
  In  In18  1  0.15528142  0.01284707  0.38145980  1
  In  In19  1  0.17656160  -0.00792651  0.87851281  1
  In  In20  1  0.17125375  0.31801596  0.38388242  1
  In  In21  1  0.16886562  0.33578444  0.87421559  1
  In  In22  1  0.17068459  0.67011695  0.37992372  1
  In  In23  1  0.17287138  0.66274797  0.87849737  1
  In  In24  1  0.51009490  -0.00755621  0.37284542  1
  In  In25  1  0.48404101  -0.00466200  0.85968297  1
  In  In26  1  0.49621365  0.35116592  0.38219305  1
  In  In27  1  0.49077880  0.31547359  0.85985108  1
  In  In28  1  0.47675795  0.66532329  0.37996222  1
  In  In29  1  0.49194474  0.68221744  0.87633099  1
  In  In30  1  0.82075507  -0.01071140  0.36530740  1
  In  In31  1  0.83281976  0.00519644  0.88032746  1
  In  In32  1  0.83857409  0.32950009  0.37598705  1
  In  In33  1  0.82246967  0.31573327  0.86658218  1
  In  In34  1  0.85385226  0.67083064  0.37034833  1
  In  In35  1  0.84462947  0.67531602  0.88008514  1
  In  In36  1  0.00989350  0.16601692  0.37180825  1
  In  In37  1  -0.00549632  0.17155259  0.87972702  1
  In  In38  1  0.00134528  0.51297435  0.37315839  1
  In  In39  1  0.01949665  0.49804793  0.87885072  1
  In  In40  1  0.00300623  0.83463586  0.37668696  1
  In  In41  1  0.00463569  0.82944723  0.88399198  1
  In  In42  1  0.31427785  0.16778992  0.37518454  1
  In  In43  1  0.32683245  0.16215786  0.87032043  1
  In  In44  1  0.33028855  0.49969024  0.37981558  1
  In  In45  1  0.31965938  0.48636027  0.86690567  1
  In  In46  1  0.32785514  0.81555761  0.37470020  1
  In  In47  1  0.32843574  0.83653098  0.87103332  1
  In  In48  1  0.67428609  0.15392676  0.37574257  1
  In  In49  1  0.66636552  0.16257421  0.86631688  1
  In  In50  1  0.65831425  0.49126353  0.38240263  1
  In  In51  1  0.66558109  0.48717707  0.87285064  1
  In  In52  1  0.67141194  0.85441321  0.37364058  1
  In  In53  1  0.65831489  0.84356024  0.87885833  1
  In  In54  1  0.15841291  -0.01087045  0.11700436  1
  In  In55  1  0.16945296  0.00025034  0.62326651  1
  In  In56  1  0.17806476  0.34170338  0.11032535  1
  In  In57  1  0.16943119  0.33698432  0.62564361  1
  In  In58  1  0.16937130  0.66966278  0.12947996  1
  In  In59  1  0.18458788  0.67722598  0.60761405  1
  In  In60  1  0.51504321  0.00085833  0.12491227  1
  In  In61  1  0.50090626  -0.00042015  0.63713096  1
  In  In62  1  0.48986918  0.32342232  0.12474896  1
  In  In63  1  0.48212424  0.33761991  0.64492457  1
  In  In64  1  0.48111344  0.66742094  0.12653633  1
  In  In65  1  0.49086989  0.65130777  0.61884955  1
  In  In66  1  0.84163918  0.00304957  0.12752559  1
  In  In67  1  0.82792070  -0.00812489  0.62431397  1
  In  In68  1  0.84256125  0.32571119  0.11879645  1
  In  In69  1  0.84222980  0.32717431  0.63279916  1
  In  In70  1  0.83571484  0.68580624  0.12780870  1
  In  In71  1  0.82627220  0.67570190  0.61934713  1
  In  In72  1  0.33236513  -0.00133113  0.25029709  1
  In  In73  1  0.00551888  0.32746136  0.25059881  1
  In  In74  1  0.49439386  0.16102764  -0.01028354  1
  In  In75  1  0.83842855  0.16260733  0.50484326  1
  In  In76  1  0.66422554  0.66983138  0.24706595  1
  In  In77  1  0.84039253  0.50394121  -0.00354752  1
  In  In78  1  0.66063098  0.66695175  0.74372002  1
  In  In79  1  0.00332496  0.00029081  0.74197287  1
  In  In80  1  0.65981185  0.32830339  0.24520840  1
  In  In81  1  0.83596756  0.50668934  0.49348628  1
  In  In82  1  0.49574615  0.50301069  0.00364093  1
  In  In83  1  0.49628875  0.17000529  0.51078429  1
  In  In84  1  0.49418691  0.83250581  0.50286119  1
  In  In85  1  0.00779903  0.66325020  0.75665045  1
  Cu  Cu86  1  0.67217918  -0.00375128  -0.00029130  1
  Cu  Cu87  1  0.66561834  0.67620858  -0.00105079  1
  Cu  Cu88  1  0.83678987  0.16543845  0.75456054  1
  Cu  Cu89  1  0.66463330  0.33492156  0.50820392  1
  Cu  Cu90  1  0.16417084  0.16985940  0.24781118  1
  Cu  Cu91  1  0.32678440  -0.00207987  0.50266784  1
  Cu  Cu92  1  0.83274880  0.83596122  0.75062542  1
  Cu  Cu93  1  0.00329577  -0.00188403  0.00112301  1
  Cu  Cu94  1  0.00359631  0.32964646  -0.00306627  1
  Cu  Cu95  1  0.16105418  0.17048733  0.75032136  1
  Cu  Cu96  1  0.17242964  0.50256683  0.25261587  1
  Cu  Cu97  1  0.66613040  0.67978982  0.49853387  1
  Cu  Cu98  1  0.00203160  0.66957328  0.49712230  1
  Cu  Cu99  1  0.48956622  0.83265464  0.74967221  1
  Cu  Cu100  1  -0.00138716  -0.00490945  0.49986974  1
  Cu  Cu101  1  0.17151406  0.49724798  0.74875841  1
  Cu  Cu102  1  0.32906370  0.67015612  -0.00023446  1
  Cu  Cu103  1  0.49549956  0.49985050  0.74833391  1
  Cu  Cu104  1  0.66413219  0.31962297  -0.01079718  1
  Cu  Cu105  1  0.50223419  0.83339031  0.24969319  1
  Cu  Cu106  1  0.00279622  0.67539342  0.00674651  1
  Cu  Cu107  1  0.16393668  0.83231225  0.25139798  1
  Cu  Cu108  1  0.49738740  0.17190141  0.25020663  1
  Cu  Cu109  1  0.33728174  -0.00103816  -0.00605728  1
  Cu  Cu110  1  0.83479539  0.50305236  0.25300284  1
  Cu  Cu111  1  0.84129373  0.83909406  0.24824634  1
  Cu  Cu112  1  0.83600837  0.49210463  0.74996446  1
  Cu  Cu113  1  0.33254014  0.33433675  0.50882791  1
  Cu  Cu114  1  0.48504720  0.50470188  0.25655490  1
  Se  Se115  1  0.09038455  0.08447411  0.04858625  1
  Se  Se116  1  0.08336144  0.07812701  0.55257159  1
  Se  Se117  1  0.08252034  0.42005876  0.04722114  1
  Se  Se118  1  0.09532104  0.42103246  0.55132581  1
  Se  Se119  1  0.08881196  0.75536385  0.06047445  1
  Se  Se120  1  0.08399185  0.75413566  0.55023797  1
  Se  Se121  1  0.41157738  0.07672885  0.06163140  1
  Se  Se122  1  0.40585002  0.07477596  0.56520463  1
  Se  Se123  1  0.40535257  0.41075464  0.05932627  1
  Se  Se124  1  0.41796702  0.41345600  0.56327138  1
  Se  Se125  1  0.41738764  0.75213472  0.05011952  1
  Se  Se126  1  0.40290867  0.74052310  0.55652087  1
  Se  Se127  1  0.75421303  0.07962624  0.05387145  1
  Se  Se128  1  0.73822033  0.08077859  0.55999748  1
  Se  Se129  1  0.74386931  0.40417833  0.04863095  1
  Se  Se130  1  0.75334328  0.41582803  0.56145712  1
  Se  Se131  1  0.75596299  0.75283559  0.05015629  1
  Se  Se132  1  0.75163110  0.76099612  0.54913858  1
  Se  Se133  1  0.24898070  0.24418822  0.04683077  1
  Se  Se134  1  0.25106404  0.24619034  0.55932877  1
  Se  Se135  1  0.24957528  0.58706104  0.05714237  1
  Se  Se136  1  0.22826785  0.55633716  0.55527105  1
  Se  Se137  1  0.25227745  0.91746168  0.04949726  1
  Se  Se138  1  0.24719678  0.91116544  0.55522288  1
  Se  Se139  1  0.58696841  0.24795837  0.05767139  1
  Se  Se140  1  0.58641002  0.25867931  0.57098836  1
  Se  Se141  1  0.59191527  0.59356279  0.06150455  1
  Se  Se142  1  0.58864659  0.58941998  0.54943777  1
  Se  Se143  1  0.58238909  0.91571270  0.04994750  1
  Se  Se144  1  0.58394434  0.92653407  0.55742186  1
  Se  Se145  1  0.91672729  0.24609956  0.04625288  1
  Se  Se146  1  0.92752702  0.26378012  0.55294054  1
  Se  Se147  1  0.92421643  0.58848659  0.06486878  1
  Se  Se148  1  0.92414769  0.59016936  0.56126748  1
  Se  Se149  1  0.92071986  0.91681079  0.05834362  1
  Se  Se150  1  0.91384183  0.91566052  0.55497263  1
  Se  Se151  1  0.07705626  0.24462554  0.44816132  1
  Se  Se152  1  0.08828478  0.24835062  0.94342132  1
  Se  Se153  1  0.08433279  0.58393418  0.44645538  1
  Se  Se154  1  0.08162001  0.59183440  0.94979716  1
  Se  Se155  1  0.08682601  0.91527439  0.44736106  1
  Se  Se156  1  0.08810678  0.91614054  0.94778603  1
  Se  Se157  1  0.40874798  0.25385493  0.44344844  1
  Se  Se158  1  0.40410945  0.26024474  0.94186541  1
  Se  Se159  1  0.42553292  0.56691119  0.44948605  1
  Se  Se160  1  0.40718505  0.58736551  0.93882001  1
  Se  Se161  1  0.40682169  0.92415718  0.43811214  1
  Se  Se162  1  0.41878615  0.91626207  0.93963422  1
  Se  Se163  1  0.74151391  0.25724303  0.44575699  1
  Se  Se164  1  0.75065602  0.23537633  0.94247085  1
  Se  Se165  1  0.74350057  0.59842318  0.43419339  1
  Se  Se166  1  0.74024852  0.59079614  0.93835621  1
  Se  Se167  1  0.75097963  0.92373728  0.44881407  1
  Se  Se168  1  0.75517042  0.91229960  0.94524283  1
  Se  Se169  1  0.24603332  0.08650553  0.45123561  1
  Se  Se170  1  0.25157220  0.08460456  0.94583251  1
  Se  Se171  1  0.25046554  0.40991734  0.44723715  1
  Se  Se172  1  0.23714381  0.42809065  0.94542455  1
  Se  Se173  1  0.25400906  0.74649836  0.45230048  1
  Se  Se174  1  0.24927593  0.75521865  0.94435616  1
  Se  Se175  1  0.58438994  0.07935424  0.44777481  1
  Se  Se176  1  0.58709625  0.06888193  0.93595778  1
  Se  Se177  1  0.57946314  0.41983702  0.45853217  1
  Se  Se178  1  0.57756488  0.40530189  0.94066796  1
  Se  Se179  1  0.58473966  0.75128771  0.43300966  1
  Se  Se180  1  0.57914745  0.75506337  0.94608183  1
  Se  Se181  1  0.92019892  0.07554649  0.43771274  1
  Se  Se182  1  0.91929378  0.08246297  0.94850137  1
  Se  Se183  1  0.92809267  0.41140998  0.44069215  1
  Se  Se184  1  0.91927692  0.40746081  0.93499911  1
  Se  Se185  1  0.91594387  0.75427161  0.44750940  1
  Se  Se186  1  0.91556896  0.75604095  0.95463446  1
  Se  Se187  1  0.24695975  0.25350822  0.30078497  1
  Se  Se188  1  0.24785914  0.25138990  0.80337261  1
  Se  Se189  1  0.25188715  0.58545822  0.30958314  1
  Se  Se190  1  0.24940060  0.58569553  0.80285684  1
  Se  Se191  1  0.24239094  0.91414725  0.31379965  1
  Se  Se192  1  0.26323610  0.93329139  0.80194531  1
  Se  Se193  1  0.57563732  0.24721857  0.31704003  1
  Se  Se194  1  0.60487432  0.26668401  0.80348312  1
  Se  Se195  1  0.57778608  0.57879583  0.31069016  1
  Se  Se196  1  0.57513508  0.57924271  0.81101172  1
  Se  Se197  1  0.58751835  0.92006384  0.29602515  1
  Se  Se198  1  0.57970591  0.91198983  0.80061030  1
  Se  Se199  1  0.90716871  0.23867679  0.30430572  1
  Se  Se200  1  0.92387567  0.25064480  0.80157053  1
  Se  Se201  1  0.92411347  0.58713666  0.29629109  1
  Se  Se202  1  0.91034741  0.57289527  0.81282947  1
  Se  Se203  1  0.92333847  0.91916872  0.30548322  1
  Se  Se204  1  0.91847674  0.91130552  0.80943253  1
  Se  Se205  1  0.08420189  0.08232824  0.29902659  1
  Se  Se206  1  0.08532217  0.08574989  0.81074110  1
  Se  Se207  1  0.09129602  0.41963916  0.31171115  1
  Se  Se208  1  0.08441293  0.41649576  0.80151535  1
  Se  Se209  1  0.08475429  0.74852920  0.30886572  1
  Se  Se210  1  0.09472465  0.76073740  0.80984097  1
  Se  Se211  1  0.42098127  0.09022957  0.31345618  1
  Se  Se212  1  0.43424752  0.11168527  0.80311888  1
  Se  Se213  1  0.40893199  0.41321356  0.30709068  1
  Se  Se214  1  0.41335638  0.41353475  0.80048250  1
  Se  Se215  1  0.41789042  0.75107959  0.30097201  1
  Se  Se216  1  0.40764451  0.74708006  0.80097302  1
  Se  Se217  1  0.74922659  0.08460199  0.29948673  1
  Se  Se218  1  0.75504253  0.07639070  0.80283451  1
  Se  Se219  1  0.75284385  0.42115111  0.30798110  1
  Se  Se220  1  0.74905986  0.41264301  0.80207448  1
  Se  Se221  1  0.75682798  0.75748239  0.30724658  1
  Se  Se222  1  0.75287371  0.75130614  0.80841441  1
  Se  Se223  1  0.24429242  0.08682729  0.18784525  1
  Se  Se224  1  0.24186081  0.08256895  0.69827530  1
  Se  Se225  1  0.24490695  0.41541832  0.19339018  1
  Se  Se226  1  0.25565208  0.40983249  0.69895774  1
  Se  Se227  1  0.25283390  0.75291799  0.19945954  1
  Se  Se228  1  0.25104692  0.73669301  0.69397808  1
  Se  Se229  1  0.58142135  0.08663938  0.20045147  1
  Se  Se230  1  0.59207508  0.06921607  0.70516935  1
  Se  Se231  1  0.56531695  0.42722675  0.19335065  1
  Se  Se232  1  0.58504275  0.41854323  0.69905706  1
  Se  Se233  1  0.58042801  0.75869908  0.18276308  1
  Se  Se234  1  0.56905800  0.75652749  0.68431656  1
  Se  Se235  1  0.92473069  0.08716837  0.19455780  1
  Se  Se236  1  0.91229633  0.09323348  0.68426256  1
  Se  Se237  1  0.91121874  0.42108340  0.19082465  1
  Se  Se238  1  0.92443014  0.41559400  0.69714400  1
  Se  Se239  1  0.92410047  0.75087772  0.20024596  1
  Se  Se240  1  0.91324324  0.75264213  0.69395784  1
  Se  Se241  1  0.09045417  0.24812589  0.18080057  1
  Se  Se242  1  0.08171438  0.25508612  0.69512295  1
  Se  Se243  1  0.08719154  0.58512039  0.19990524  1
  Se  Se244  1  0.09404393  0.58222975  0.68930454  1
  Se  Se245  1  0.08641284  0.92162019  0.19929591  1
  Se  Se246  1  0.09540466  0.90237278  0.69412696  1
  Se  Se247  1  0.41037981  0.25374786  0.20138740  1
  Se  Se248  1  0.43279207  0.22455795  0.70524876  1
  Se  Se249  1  0.40693952  0.59010525  0.20154735  1
  Se  Se250  1  0.41199899  0.58356512  0.69633455  1
  Se  Se251  1  0.42068563  0.91152546  0.18695842  1
  Se  Se252  1  0.40725816  0.91922649  0.69822625  1
  Se  Se253  1  0.75837517  0.24405524  0.19068837  1
  Se  Se254  1  0.75416545  0.24918208  0.69894532  1
  Se  Se255  1  0.75404478  0.57496274  0.18706227  1
  Se  Se256  1  0.75897594  0.57503768  0.68959179  1
  Se  Se257  1  0.75369763  0.91918371  0.19526554  1
  Se  Se258  1  0.74698907  0.91735387  0.69916840  1
