# generated using pymatgen
data_In86Cu29Se144
_symmetry_space_group_name_H-M   'P 1'
_cell_length_a   17.58225193
_cell_length_b   17.58185204
_cell_length_c   23.43509620
_cell_angle_alpha   89.96949787
_cell_angle_beta   89.97826426
_cell_angle_gamma   89.99508243
_symmetry_Int_Tables_number   1
_chemical_formula_structural   In86Cu29Se144
_chemical_formula_sum   'In86 Cu29 Se144'
_cell_volume   7244.45577653
_cell_formula_units_Z   1
loop_
 _symmetry_equiv_pos_site_id
 _symmetry_equiv_pos_as_xyz
  1  'x, y, z'
loop_
 _atom_site_type_symbol
 _atom_site_label
 _atom_site_symmetry_multiplicity
 _atom_site_fract_x
 _atom_site_fract_y
 _atom_site_fract_z
 _atom_site_occupancy
  In  In0  1  0.00945792  0.16630879  0.13306837  1
  In  In1  1  -0.01047827  0.15381769  0.61430086  1
  In  In2  1  0.00260247  0.49178993  0.12883767  1
  In  In3  1  0.00074348  0.50409960  0.61945420  1
  In  In4  1  0.00096231  0.83091474  0.11153380  1
  In  In5  1  0.01230204  0.84267015  0.61507511  1
  In  In6  1  0.35055963  0.15962228  0.14634839  1
  In  In7  1  0.32293025  0.15797420  0.61149144  1
  In  In8  1  0.33547541  0.50098848  0.13288311  1
  In  In9  1  0.32604415  0.50623938  0.62322221  1
  In  In10  1  0.31785720  0.83991883  0.13621554  1
  In  In11  1  0.34000453  0.84796092  0.62160286  1
  In  In12  1  0.64935490  0.16964763  0.13339010  1
  In  In13  1  0.65399244  0.14704656  0.60209715  1
  In  In14  1  0.67136737  0.51392699  0.13076703  1
  In  In15  1  0.67338476  0.49812667  0.62325986  1
  In  In16  1  0.67152624  0.82977699  0.12951307  1
  In  In17  1  0.67099381  0.83037321  0.62635609  1
  In  In18  1  0.17832519  -0.00856586  0.37761285  1
  In  In19  1  0.16052205  -0.00548437  0.86351848  1
  In  In20  1  0.16663836  0.33407422  0.37548943  1
  In  In21  1  0.17588900  0.33537341  0.87805680  1
  In  In22  1  0.16442010  0.66732937  0.37723834  1
  In  In23  1  0.16371866  0.66517681  0.89122603  1
  In  In24  1  0.50956617  0.01557746  0.35977103  1
  In  In25  1  0.50367829  0.00739866  0.87131148  1
  In  In26  1  0.47130410  0.31972747  0.35408036  1
  In  In27  1  0.49198868  0.33581956  0.88873902  1
  In  In28  1  0.49642255  0.65526667  0.35380141  1
  In  In29  1  0.49644483  0.65622805  0.88026541  1
  In  In30  1  0.81175806  0.00913798  0.39527161  1
  In  In31  1  0.82591152  -0.01033929  0.86364342  1
  In  In32  1  0.84751102  0.32061008  0.37834946  1
  In  In33  1  0.83031676  0.33047330  0.87445425  1
  In  In34  1  0.82187767  0.67734451  0.38394195  1
  In  In35  1  0.83941413  0.68494371  0.87386317  1
  In  In36  1  -0.01020063  0.17914549  0.37756219  1
  In  In37  1  0.01236937  0.15989303  0.86991189  1
  In  In38  1  0.00974016  0.49009572  0.38133852  1
  In  In39  1  0.00780488  0.51199333  0.87893548  1
  In  In40  1  -0.00087082  0.83216999  0.38438407  1
  In  In41  1  -0.00642496  0.83464199  0.88023122  1
  In  In42  1  0.33238433  0.16079798  0.37445406  1
  In  In43  1  0.34280872  0.16770649  0.87436438  1
  In  In44  1  0.32620706  0.49074092  0.36170898  1
  In  In45  1  0.32922936  0.50686831  0.89065432  1
  In  In46  1  0.32365932  0.83291666  0.36175254  1
  In  In47  1  0.32326677  0.83766808  0.87727067  1
  In  In48  1  0.67383933  0.15084905  0.38265551  1
  In  In49  1  0.66436461  0.15339049  0.87305009  1
  In  In50  1  0.65957104  0.51205512  0.37288443  1
  In  In51  1  0.65203823  0.49952498  0.87903819  1
  In  In52  1  0.67096541  0.84087181  0.37126175  1
  In  In53  1  0.67494047  0.84211041  0.86925783  1
  In  In54  1  0.17331159  -0.00290003  0.12759738  1
  In  In55  1  0.16838370  -0.00291622  0.62097371  1
  In  In56  1  0.16620536  0.34174531  0.13577236  1
  In  In57  1  0.17145256  0.33650282  0.61806331  1
  In  In58  1  0.17979095  0.68320421  0.11717693  1
  In  In59  1  0.16285746  0.66277730  0.61649270  1
  In  In60  1  0.49456954  0.01174560  0.13570172  1
  In  In61  1  0.49413782  0.00544766  0.62694347  1
  In  In62  1  0.48918693  0.32355377  0.12926844  1
  In  In63  1  0.51337174  0.32722945  0.61978057  1
  In  In64  1  0.50666813  0.65398457  0.13666291  1
  In  In65  1  0.50184934  0.68056337  0.62693942  1
  In  In66  1  0.83694595  -0.01306283  0.12549211  1
  In  In67  1  0.83280593  -0.00173902  0.61913977  1
  In  In68  1  0.83654769  0.34217092  0.13578288  1
  In  In69  1  0.83142489  0.33206031  0.61187927  1
  In  In70  1  0.82588295  0.67411882  0.12551753  1
  In  In71  1  0.82539527  0.66134443  0.61724990  1
  In  In72  1  0.67127463  0.33330899  0.25497296  1
  In  In73  1  0.17447001  0.16518761  0.00708824  1
  In  In74  1  0.83603921  0.50772505  0.00563329  1
  In  In75  1  0.50198954  0.83930456  0.49123380  1
  In  In76  1  0.00520658  0.66805271  0.25471622  1
  In  In77  1  0.49646218  0.49138990  0.48936655  1
  In  In78  1  0.00117020  0.67323514  0.74691123  1
  In  In79  1  -0.00242316  0.00320304  0.25548925  1
  In  In80  1  0.00062810  0.32768629  0.75337615  1
  In  In81  1  0.33344763  0.32940788  0.74727005  1
  In  In82  1  0.33134439  0.67311301  0.76187252  1
  In  In83  1  0.49881958  0.83081591  0.00744674  1
  In  In84  1  0.82921020  0.16482633  -0.00101161  1
  In  In85  1  0.66855730  0.32594758  0.74676358  1
  Cu  Cu86  1  0.65245540  0.33396633  0.00807944  1
  Cu  Cu87  1  0.84251071  0.50298847  0.25449843  1
  Cu  Cu88  1  0.66716907  0.67056037  0.00529936  1
  Cu  Cu89  1  0.33264762  -0.00037726  0.49556765  1
  Cu  Cu90  1  0.17053325  0.83421855  0.74708858  1
  Cu  Cu91  1  0.00502071  0.00124569  0.49802669  1
  Cu  Cu92  1  -0.00120092  -0.00931838  -0.00673739  1
  Cu  Cu93  1  0.33692977  0.66297529  0.00931691  1
  Cu  Cu94  1  0.49838603  0.83301324  0.24667324  1
  Cu  Cu95  1  0.00627029  0.33742940  0.49833706  1
  Cu  Cu96  1  0.16983625  0.50109093  0.25349530  1
  Cu  Cu97  1  0.83034513  0.50461310  0.74180761  1
  Cu  Cu98  1  0.16504174  0.15544347  0.73829365  1
  Cu  Cu99  1  0.51079309  0.84038075  0.74832442  1
  Cu  Cu100  1  0.16820613  0.17575143  0.25549686  1
  Cu  Cu101  1  0.33255138  0.00086632  0.00939578  1
  Cu  Cu102  1  0.50141868  0.16176955  0.74727840  1
  Cu  Cu103  1  0.33087732  0.33287519  0.49049856  1
  Cu  Cu104  1  0.32453233  0.66741081  0.49258780  1
  Cu  Cu105  1  0.66053278  0.66597506  0.49679304  1
  Cu  Cu106  1  0.00183008  0.33619765  0.00712966  1
  Cu  Cu107  1  0.66403572  0.00009983  -0.00396297  1
  Cu  Cu108  1  0.83094830  0.83619851  0.25595260  1
  Cu  Cu109  1  0.82979573  0.15448342  0.73850925  1
  Cu  Cu110  1  0.83477995  0.83763808  0.74569684  1
  Cu  Cu111  1  0.49816156  0.50701856  0.75811234  1
  Cu  Cu112  1  0.66624021  0.33046195  0.49184395  1
  Cu  Cu113  1  -0.00421451  0.66338765  0.49850964  1
  Cu  Cu114  1  0.33251914  0.33538987  0.00952189  1
  Se  Se115  1  0.07323349  0.07280498  0.05652196  1
  Se  Se116  1  0.08968704  0.08399033  0.55175722  1
  Se  Se117  1  0.08830124  0.41572993  0.05809080  1
  Se  Se118  1  0.08659031  0.42187198  0.55346831  1
  Se  Se119  1  0.08685175  0.74943273  0.04804469  1
  Se  Se120  1  0.08395756  0.74751259  0.54881101  1
  Se  Se121  1  0.41312056  0.08661218  0.06129780  1
  Se  Se122  1  0.41881458  0.08096934  0.54938881  1
  Se  Se123  1  0.41769786  0.41758280  0.06173873  1
  Se  Se124  1  0.40820671  0.40744047  0.55953295  1
  Se  Se125  1  0.41182257  0.74557428  0.07143346  1
  Se  Se126  1  0.40908027  0.74437455  0.55186344  1
  Se  Se127  1  0.74224680  0.07788472  0.06154756  1
  Se  Se128  1  0.76895897  0.09424508  0.54904262  1
  Se  Se129  1  0.74439864  0.41020913  0.06060240  1
  Se  Se130  1  0.74354072  0.41639031  0.54836428  1
  Se  Se131  1  0.75193737  0.75721765  0.05215114  1
  Se  Se132  1  0.74319017  0.74823612  0.55119950  1
  Se  Se133  1  0.25854331  0.25181924  0.07158695  1
  Se  Se134  1  0.24748818  0.25173706  0.54766358  1
  Se  Se135  1  0.25136156  0.57837540  0.05980727  1
  Se  Se136  1  0.24809092  0.58052835  0.54871589  1
  Se  Se137  1  0.24672320  0.91355223  0.05426184  1
  Se  Se138  1  0.25112623  0.91431173  0.54971276  1
  Se  Se139  1  0.57359752  0.24430644  0.05714362  1
  Se  Se140  1  0.57884552  0.24766298  0.54240229  1
  Se  Se141  1  0.58634123  0.58491258  0.05698713  1
  Se  Se142  1  0.57856227  0.58558658  0.55688510  1
  Se  Se143  1  0.58694358  0.92583732  0.06292102  1
  Se  Se144  1  0.58624377  0.92111601  0.55957842  1
  Se  Se145  1  0.92000986  0.25355059  0.06217311  1
  Se  Se146  1  0.92128849  0.25178055  0.54896876  1
  Se  Se147  1  0.92712720  0.59371999  0.06512893  1
  Se  Se148  1  0.91188892  0.57891634  0.55159102  1
  Se  Se149  1  0.91123863  0.91352612  0.04746660  1
  Se  Se150  1  0.91897165  0.91671327  0.54993010  1
  Se  Se151  1  0.08503268  0.25034172  0.44476453  1
  Se  Se152  1  0.07804326  0.25355221  0.94554352  1
  Se  Se153  1  0.08460463  0.58335380  0.44691221  1
  Se  Se154  1  0.08896309  0.57265804  0.95574954  1
  Se  Se155  1  0.08833214  0.91618569  0.44680362  1
  Se  Se156  1  0.09001792  0.91556638  0.94062601  1
  Se  Se157  1  0.41655209  0.24900960  0.44172534  1
  Se  Se158  1  0.40936194  0.24796072  0.95261218  1
  Se  Se159  1  0.40958128  0.58960270  0.43514631  1
  Se  Se160  1  0.42227786  0.58072121  0.95673953  1
  Se  Se161  1  0.41019760  0.92300012  0.43049708  1
  Se  Se162  1  0.41323607  0.92387152  0.94545757  1
  Se  Se163  1  0.75381886  0.24612559  0.44433262  1
  Se  Se164  1  0.73351391  0.25969373  0.94309106  1
  Se  Se165  1  0.74563378  0.58005212  0.44750559  1
  Se  Se166  1  0.74530151  0.59088704  0.94035789  1
  Se  Se167  1  0.74811467  0.90144039  0.45275379  1
  Se  Se168  1  0.75158267  0.91990377  0.94458939  1
  Se  Se169  1  0.24656966  0.08583028  0.44721712  1
  Se  Se170  1  0.25497605  0.07548096  0.94022794  1
  Se  Se171  1  0.25026892  0.42247516  0.44216940  1
  Se  Se172  1  0.24824911  0.41394688  0.95281443  1
  Se  Se173  1  0.24852917  0.75741625  0.44062031  1
  Se  Se174  1  0.25997189  0.74651424  0.94970286  1
  Se  Se175  1  0.57925406  0.07417539  0.44579916  1
  Se  Se176  1  0.57878788  0.08615051  0.94766258  1
  Se  Se177  1  0.58307215  0.40207275  0.42826262  1
  Se  Se178  1  0.57630253  0.42198316  0.95336499  1
  Se  Se179  1  0.57912301  0.73739019  0.43208571  1
  Se  Se180  1  0.58918239  0.74885148  0.94097363  1
  Se  Se181  1  0.92031140  0.08416939  0.44620340  1
  Se  Se182  1  0.92143117  0.07783566  0.93644391  1
  Se  Se183  1  0.91540236  0.41632681  0.44726406  1
  Se  Se184  1  0.92013721  0.40950204  0.94291554  1
  Se  Se185  1  0.91255280  0.75196627  0.45144830  1
  Se  Se186  1  0.93109958  0.73665273  0.94804145  1
  Se  Se187  1  0.25536341  0.25547466  0.30797023  1
  Se  Se188  1  0.23822326  0.23640956  0.80436015  1
  Se  Se189  1  0.24745776  0.59084594  0.30458231  1
  Se  Se190  1  0.24154736  0.57733627  0.81421480  1
  Se  Se191  1  0.24978575  0.92646269  0.29556886  1
  Se  Se192  1  0.25561839  0.91773729  0.79936192  1
  Se  Se193  1  0.58489830  0.23947673  0.31235378  1
  Se  Se194  1  0.57074112  0.24823885  0.81105635  1
  Se  Se195  1  0.59337909  0.58288597  0.29131569  1
  Se  Se196  1  0.58579510  0.58958396  0.80627053  1
  Se  Se197  1  0.58323873  0.91387414  0.30089817  1
  Se  Se198  1  0.58895120  0.92564290  0.80427073  1
  Se  Se199  1  0.91915478  0.25160096  0.29778437  1
  Se  Se200  1  0.90273926  0.23319997  0.80614641  1
  Se  Se201  1  0.91503789  0.58445078  0.31912042  1
  Se  Se202  1  0.91050704  0.57789608  0.80640562  1
  Se  Se203  1  0.90883099  0.91495579  0.31731066  1
  Se  Se204  1  0.92296115  0.91304898  0.80218365  1
  Se  Se205  1  0.08919682  0.09173962  0.31525428  1
  Se  Se206  1  0.07869745  0.07783345  0.79408341  1
  Se  Se207  1  0.08430765  0.41638660  0.30374640  1
  Se  Se208  1  0.08991054  0.42124733  0.80944339  1
  Se  Se209  1  0.09044125  0.76628886  0.30840013  1
  Se  Se210  1  0.09540321  0.75374621  0.81059506  1
  Se  Se211  1  0.40097734  0.07410635  0.30063289  1
  Se  Se212  1  0.41420929  0.08297814  0.80147063  1
  Se  Se213  1  0.44313285  0.44589333  0.30378960  1
  Se  Se214  1  0.41616403  0.42381850  0.81302745  1
  Se  Se215  1  0.41234145  0.74985542  0.29694381  1
  Se  Se216  1  0.43057033  0.76399488  0.81378567  1
  Se  Se217  1  0.75427127  0.07638848  0.30834880  1
  Se  Se218  1  0.74522700  0.08055436  0.79922203  1
  Se  Se219  1  0.76121981  0.42375781  0.31515072  1
  Se  Se220  1  0.75406873  0.42465906  0.80669652  1
  Se  Se221  1  0.74714722  0.74741814  0.30414989  1
  Se  Se222  1  0.75326940  0.75342911  0.80082778  1
  Se  Se223  1  0.24120406  0.08741898  0.19819740  1
  Se  Se224  1  0.25697884  0.07736742  0.69000810  1
  Se  Se225  1  0.25624721  0.41508468  0.20416860  1
  Se  Se226  1  0.24153916  0.42536565  0.69586659  1
  Se  Se227  1  0.24226270  0.74895976  0.20226192  1
  Se  Se228  1  0.24933698  0.75279367  0.68673920  1
  Se  Se229  1  0.59319399  0.07343067  0.20342351  1
  Se  Se230  1  0.58802532  0.08612808  0.69063802  1
  Se  Se231  1  0.58588704  0.41686877  0.18782085  1
  Se  Se232  1  0.57359930  0.42491055  0.69519916  1
  Se  Se233  1  0.58663099  0.74940459  0.19726388  1
  Se  Se234  1  0.58806559  0.74949048  0.69848856  1
  Se  Se235  1  0.90723082  0.08937243  0.19163009  1
  Se  Se236  1  0.92094797  0.07433568  0.69190914  1
  Se  Se237  1  0.92428793  0.41643345  0.20463922  1
  Se  Se238  1  0.91059817  0.41738849  0.68979810  1
  Se  Se239  1  0.91482741  0.76036169  0.19423946  1
  Se  Se240  1  0.91223264  0.75714084  0.68279503  1
  Se  Se241  1  0.08189006  0.25467869  0.20130941  1
  Se  Se242  1  0.08593627  0.24417647  0.68478302  1
  Se  Se243  1  0.09178473  0.58108009  0.19103593  1
  Se  Se244  1  0.09132260  0.57630647  0.69419368  1
  Se  Se245  1  0.07854765  0.91201273  0.18914454  1
  Se  Se246  1  0.08618942  0.91580844  0.69333772  1
  Se  Se247  1  0.42228719  0.25321113  0.21181088  1
  Se  Se248  1  0.42313441  0.24206141  0.68548236  1
  Se  Se249  1  0.41106153  0.58782760  0.20274221  1
  Se  Se250  1  0.41915095  0.58328740  0.69425685  1
  Se  Se251  1  0.41330598  0.91859373  0.19703422  1
  Se  Se252  1  0.41948406  0.91766767  0.69792621  1
  Se  Se253  1  0.75859083  0.24059516  0.19314328  1
  Se  Se254  1  0.75257329  0.24000625  0.68139738  1
  Se  Se255  1  0.76059644  0.58632102  0.20024675  1
  Se  Se256  1  0.74395743  0.58771672  0.69363187  1
  Se  Se257  1  0.75022480  0.91743639  0.19834671  1
  Se  Se258  1  0.75024638  0.91951819  0.69237542  1
