# generated using pymatgen
data_In86Cu29Se144
_symmetry_space_group_name_H-M   'P 1'
_cell_length_a   17.57812971
_cell_length_b   17.57867408
_cell_length_c   23.43830093
_cell_angle_alpha   90.00411248
_cell_angle_beta   89.99739416
_cell_angle_gamma   89.97581850
_symmetry_Int_Tables_number   1
_chemical_formula_structural   In86Cu29Se144
_chemical_formula_sum   'In86 Cu29 Se144'
_cell_volume   7242.43931022
_cell_formula_units_Z   1
loop_
 _symmetry_equiv_pos_site_id
 _symmetry_equiv_pos_as_xyz
  1  'x, y, z'
loop_
 _atom_site_type_symbol
 _atom_site_label
 _atom_site_symmetry_multiplicity
 _atom_site_fract_x
 _atom_site_fract_y
 _atom_site_fract_z
 _atom_site_occupancy
  In  In0  1  -0.00777543  0.17833144  0.12733316  1
  In  In1  1  0.00426414  0.16557887  0.62830655  1
  In  In2  1  0.00218905  0.50064904  0.13274813  1
  In  In3  1  -0.00906655  0.50674065  0.62429761  1
  In  In4  1  0.00732802  0.81800299  0.12899257  1
  In  In5  1  0.00632888  0.82951496  0.62697974  1
  In  In6  1  0.33595461  0.14978825  0.12465630  1
  In  In7  1  0.31991213  0.16390595  0.62747578  1
  In  In8  1  0.34282446  0.52442597  0.13317753  1
  In  In9  1  0.34876155  0.50503192  0.61709534  1
  In  In10  1  0.33286284  0.83021570  0.11601568  1
  In  In11  1  0.33342972  0.82746944  0.62327641  1
  In  In12  1  0.67802395  0.17157072  0.11414908  1
  In  In13  1  0.67261557  0.15431251  0.64058357  1
  In  In14  1  0.65255537  0.48849869  0.13079628  1
  In  In15  1  0.66916108  0.50032191  0.62683465  1
  In  In16  1  0.66779725  0.84574161  0.11919216  1
  In  In17  1  0.65459019  0.84164887  0.63193260  1
  In  In18  1  0.16390655  -0.01529579  0.38908612  1
  In  In19  1  0.15887658  -0.01247592  0.86861349  1
  In  In20  1  0.14858531  0.34054179  0.37673699  1
  In  In21  1  0.16288416  0.34137948  0.86942589  1
  In  In22  1  0.17406314  0.68588180  0.36422780  1
  In  In23  1  0.17740762  0.67747898  0.86212880  1
  In  In24  1  0.49013896  -0.00885630  0.37998362  1
  In  In25  1  0.49826346  0.00156119  0.86303777  1
  In  In26  1  0.51774582  0.33577339  0.37275531  1
  In  In27  1  0.50653727  0.31510238  0.87130219  1
  In  In28  1  0.49122512  0.67326376  0.38992043  1
  In  In29  1  0.50657151  0.67790282  0.86571621  1
  In  In30  1  0.84872910  0.00726984  0.38569002  1
  In  In31  1  0.83865823  0.00607181  0.86886170  1
  In  In32  1  0.83289128  0.33333498  0.37983845  1
  In  In33  1  0.81709443  0.31667385  0.86442698  1
  In  In34  1  0.82405611  0.65243097  0.37513355  1
  In  In35  1  0.83580767  0.67229291  0.86211191  1
  In  In36  1  -0.01463334  0.17132407  0.38918174  1
  In  In37  1  -0.01094582  0.15734008  0.86884442  1
  In  In38  1  -0.00885297  0.49287378  0.37207741  1
  In  In39  1  -0.00070400  0.49944271  0.86240851  1
  In  In40  1  0.00973867  0.83173669  0.37555548  1
  In  In41  1  0.00750370  0.84133810  0.86803613  1
  In  In42  1  0.32807979  0.15192589  0.38069817  1
  In  In43  1  0.36256770  0.15841923  0.87125198  1
  In  In44  1  0.33265307  0.52311787  0.38177237  1
  In  In45  1  0.32221392  0.50507221  0.86934261  1
  In  In46  1  0.33356469  0.82227580  0.38665944  1
  In  In47  1  0.33324696  0.83415476  0.86993244  1
  In  In48  1  0.66893005  0.18260765  0.37563314  1
  In  In49  1  0.66120156  0.16479977  0.86731917  1
  In  In50  1  0.67647264  0.49378247  0.38621876  1
  In  In51  1  0.66512180  0.49928813  0.86515604  1
  In  In52  1  0.66560107  0.82079336  0.37922558  1
  In  In53  1  0.66166249  0.83053126  0.86736073  1
  In  In54  1  0.17670791  -0.00694960  0.12258245  1
  In  In55  1  0.16416899  0.00080931  0.62945505  1
  In  In56  1  0.15570641  0.32586228  0.13149888  1
  In  In57  1  0.16717063  0.31324946  0.62252731  1
  In  In58  1  0.16807611  0.67908486  0.13403014  1
  In  In59  1  0.16063754  0.67596786  0.62319585  1
  In  In60  1  0.50915558  -0.00378218  0.10746520  1
  In  In61  1  0.50796293  -0.00630777  0.63785109  1
  In  In62  1  0.51950610  0.34061802  0.12960544  1
  In  In63  1  0.50165808  0.34605063  0.62590337  1
  In  In64  1  0.47992909  0.67044550  0.12802171  1
  In  In65  1  0.49626960  0.66859768  0.62536638  1
  In  In66  1  0.82591097  0.00791855  0.12025236  1
  In  In67  1  0.82948278  0.00871774  0.63018221  1
  In  In68  1  0.83808857  0.32623696  0.12826813  1
  In  In69  1  0.83510697  0.33285682  0.62484805  1
  In  In70  1  0.84909679  0.67459180  0.13060243  1
  In  In71  1  0.84153815  0.66020531  0.62604682  1
  In  In72  1  0.16791921  0.15762342  -0.00204501  1
  In  In73  1  0.16407236  0.49959454  0.00263878  1
  In  In74  1  0.83390418  0.49591794  -0.00231992  1
  In  In75  1  0.00529969  -0.00863264  0.25503153  1
  In  In76  1  0.66549526  0.65908368  0.25159440  1
  In  In77  1  0.49809968  0.50264787  0.00603353  1
  In  In78  1  0.33056860  0.33447854  0.74919174  1
  In  In79  1  0.83242009  0.83713902  0.50754353  1
  In  In80  1  0.67208172  0.00154615  0.23983544  1
  In  In81  1  0.16466344  0.50579250  0.49888097  1
  In  In82  1  0.50056386  0.16574634  0.50487668  1
  In  In83  1  0.83341406  0.84135835  -0.00595884  1
  In  In84  1  0.33301110  -0.00627169  0.25302071  1
  In  In85  1  0.32978673  0.34395756  0.25409313  1
  Cu  Cu86  1  -0.00494367  0.32978480  0.50152452  1
  Cu  Cu87  1  -0.01374667  0.32234853  -0.00366332  1
  Cu  Cu88  1  0.67359351  0.33268092  0.50411166  1
  Cu  Cu89  1  0.32806007  -0.00908208  0.50583200  1
  Cu  Cu90  1  0.66511053  0.00443147  0.50997891  1
  Cu  Cu91  1  0.49990594  0.83200862  0.25251140  1
  Cu  Cu92  1  0.50301679  0.17551894  0.24539961  1
  Cu  Cu93  1  0.83208513  0.17275361  0.25413610  1
  Cu  Cu94  1  0.66450592  0.32355734  -0.00478697  1
  Cu  Cu95  1  0.83561580  0.50014233  0.74487855  1
  Cu  Cu96  1  0.16493329  0.16176867  0.75110008  1
  Cu  Cu97  1  0.82915998  0.83652491  0.74415563  1
  Cu  Cu98  1  0.15366108  0.17053798  0.25884954  1
  Cu  Cu99  1  0.01242989  0.67033057  -0.00171576  1
  Cu  Cu100  1  -0.00014682  -0.00233850  -0.00573925  1
  Cu  Cu101  1  0.34109013  -0.00563931  -0.00791579  1
  Cu  Cu102  1  0.66711638  0.66984476  -0.00461263  1
  Cu  Cu103  1  0.16344882  0.50270455  0.74037389  1
  Cu  Cu104  1  0.16679947  0.83284449  0.74608285  1
  Cu  Cu105  1  0.16322333  0.50710410  0.25615685  1
  Cu  Cu106  1  0.65779562  0.66461239  0.50461989  1
  Cu  Cu107  1  0.34080359  0.32722660  0.00355407  1
  Cu  Cu108  1  0.33632196  0.33281233  0.50175371  1
  Cu  Cu109  1  0.33607458  0.67723768  -0.00620701  1
  Cu  Cu110  1  0.82982616  0.49123908  0.25374005  1
  Cu  Cu111  1  -0.00198641  0.66563795  0.49970955  1
  Cu  Cu112  1  0.50209050  0.50362909  0.74650583  1
  Cu  Cu113  1  0.49270228  0.82736169  0.74858428  1
  Cu  Cu114  1  0.83886315  0.17241913  0.74925841  1
  Se  Se115  1  0.07382675  0.07626982  0.06304482  1
  Se  Se116  1  0.10584227  0.10354781  0.56276202  1
  Se  Se117  1  0.06835451  0.40310695  0.05568975  1
  Se  Se118  1  0.08046596  0.40964314  0.55977816  1
  Se  Se119  1  0.09355493  0.75123604  0.05386491  1
  Se  Se120  1  0.07981813  0.75209666  0.54916477  1
  Se  Se121  1  0.41631469  0.08213551  0.04874412  1
  Se  Se122  1  0.41076830  0.07440328  0.56273633  1
  Se  Se123  1  0.40718581  0.41295782  0.06800738  1
  Se  Se124  1  0.42329834  0.41658645  0.54790986  1
  Se  Se125  1  0.42434683  0.75439489  0.04776323  1
  Se  Se126  1  0.42436995  0.75608019  0.55412535  1
  Se  Se127  1  0.73615883  0.06867423  0.04886656  1
  Se  Se128  1  0.74836832  0.08969676  0.55820465  1
  Se  Se129  1  0.73973079  0.40893585  0.05684694  1
  Se  Se130  1  0.75414711  0.41975092  0.55677221  1
  Se  Se131  1  0.75275496  0.74189224  0.05740519  1
  Se  Se132  1  0.73995281  0.74611849  0.56440801  1
  Se  Se133  1  0.25368499  0.25273632  0.06200595  1
  Se  Se134  1  0.25339551  0.24483757  0.54849698  1
  Se  Se135  1  0.25837615  0.59334202  0.05462207  1
  Se  Se136  1  0.25610706  0.59392766  0.55661122  1
  Se  Se137  1  0.25340028  0.91782916  0.04797970  1
  Se  Se138  1  0.24243338  0.91190591  0.56018078  1
  Se  Se139  1  0.57837015  0.25048203  0.05495199  1
  Se  Se140  1  0.59215898  0.25269069  0.56442132  1
  Se  Se141  1  0.59119104  0.59480667  0.06262203  1
  Se  Se142  1  0.57937181  0.57878491  0.55940637  1
  Se  Se143  1  0.58759502  0.90917996  0.04236432  1
  Se  Se144  1  0.57819414  0.92023122  0.55662099  1
  Se  Se145  1  0.90481098  0.24109883  0.05133857  1
  Se  Se146  1  0.91730725  0.24587148  0.55851281  1
  Se  Se147  1  0.92856291  0.58898905  0.05448740  1
  Se  Se148  1  0.91277715  0.58102998  0.54801975  1
  Se  Se149  1  0.92683362  0.91919301  0.06287888  1
  Se  Se150  1  0.92340290  0.92702726  0.56344825  1
  Se  Se151  1  0.08405268  0.25113214  0.44886194  1
  Se  Se152  1  0.08001453  0.25249002  0.93963171  1
  Se  Se153  1  0.07670512  0.58967443  0.43398551  1
  Se  Se154  1  0.08280350  0.58645505  0.93453079  1
  Se  Se155  1  0.06426213  0.91953708  0.45233161  1
  Se  Se156  1  0.08477690  0.91237045  0.94687002  1
  Se  Se157  1  0.41476044  0.25334103  0.43712731  1
  Se  Se158  1  0.42243930  0.24799790  0.94778721  1
  Se  Se159  1  0.41685724  0.58364105  0.45805210  1
  Se  Se160  1  0.41217910  0.58740648  0.93784466  1
  Se  Se161  1  0.41554932  0.91197194  0.45225458  1
  Se  Se162  1  0.42242967  0.91398270  0.93571601  1
  Se  Se163  1  0.75419882  0.24668038  0.45086963  1
  Se  Se164  1  0.74740682  0.24088195  0.94263474  1
  Se  Se165  1  0.74926857  0.58492825  0.45534251  1
  Se  Se166  1  0.74759904  0.59014323  0.93738447  1
  Se  Se167  1  0.74080831  0.92478375  0.44321108  1
  Se  Se168  1  0.74165386  0.92567121  0.93446352  1
  Se  Se169  1  0.24731108  0.07591021  0.45145221  1
  Se  Se170  1  0.25854137  0.07634739  0.93329031  1
  Se  Se171  1  0.25531012  0.41140790  0.43932089  1
  Se  Se172  1  0.25969069  0.40687526  0.94484873  1
  Se  Se173  1  0.23512647  0.75216690  0.44960150  1
  Se  Se174  1  0.24684242  0.75380936  0.94097919  1
  Se  Se175  1  0.58942375  0.07794512  0.43909744  1
  Se  Se176  1  0.56130748  0.09919311  0.93211988  1
  Se  Se177  1  0.58576266  0.41256475  0.45170636  1
  Se  Se178  1  0.58684271  0.41479320  0.94196371  1
  Se  Se179  1  0.58112385  0.75644502  0.45428922  1
  Se  Se180  1  0.58359528  0.75118465  0.94254766  1
  Se  Se181  1  0.91608752  0.08496692  0.46167801  1
  Se  Se182  1  0.91493525  0.08263665  0.94678525  1
  Se  Se183  1  0.91522642  0.41791377  0.44898457  1
  Se  Se184  1  0.91829962  0.40814310  0.93298245  1
  Se  Se185  1  0.91237835  0.74457178  0.44046049  1
  Se  Se186  1  0.92438090  0.74394011  0.93938224  1
  Se  Se187  1  0.24479749  0.24536142  0.31379687  1
  Se  Se188  1  0.24731141  0.24017794  0.81379619  1
  Se  Se189  1  0.25242275  0.58884339  0.30319907  1
  Se  Se190  1  0.24918537  0.58297515  0.79447064  1
  Se  Se191  1  0.24483384  0.90601011  0.31256145  1
  Se  Se192  1  0.25035009  0.91633885  0.80003000  1
  Se  Se193  1  0.58984390  0.25314165  0.29831409  1
  Se  Se194  1  0.59750770  0.26240699  0.79702857  1
  Se  Se195  1  0.58289918  0.58375994  0.32401304  1
  Se  Se196  1  0.58552070  0.58767388  0.80017263  1
  Se  Se197  1  0.58299372  0.91450409  0.30814286  1
  Se  Se198  1  0.58039589  0.91201156  0.79727126  1
  Se  Se199  1  0.91745212  0.25031105  0.31032065  1
  Se  Se200  1  0.92416209  0.25633273  0.80212896  1
  Se  Se201  1  0.91062175  0.57986760  0.30360086  1
  Se  Se202  1  0.91897731  0.58665107  0.79692190  1
  Se  Se203  1  0.90551961  0.91021442  0.31237009  1
  Se  Se204  1  0.91423771  0.91505536  0.80195725  1
  Se  Se205  1  0.08430771  0.08477993  0.32033871  1
  Se  Se206  1  0.07960615  0.07859603  0.80410774  1
  Se  Se207  1  0.07821924  0.41767928  0.29962349  1
  Se  Se208  1  0.08476703  0.41661029  0.79553288  1
  Se  Se209  1  0.07234202  0.74679659  0.29902696  1
  Se  Se210  1  0.07965020  0.74957045  0.79901578  1
  Se  Se211  1  0.42803056  0.09197174  0.30608602  1
  Se  Se212  1  0.41715297  0.08085416  0.78899005  1
  Se  Se213  1  0.41834846  0.42546960  0.31840146  1
  Se  Se214  1  0.42406692  0.42303842  0.81100289  1
  Se  Se215  1  0.42074874  0.75364187  0.31178369  1
  Se  Se216  1  0.40742294  0.74309853  0.80000731  1
  Se  Se217  1  0.75551639  0.08590500  0.31168572  1
  Se  Se218  1  0.75401189  0.08686447  0.80077871  1
  Se  Se219  1  0.74666451  0.41225655  0.30927404  1
  Se  Se220  1  0.75249162  0.41876325  0.80050063  1
  Se  Se221  1  0.75686595  0.75501036  0.30576650  1
  Se  Se222  1  0.74692411  0.75106661  0.79764088  1
  Se  Se223  1  0.23625441  0.09130850  0.19934032  1
  Se  Se224  1  0.25138989  0.07900202  0.70170046  1
  Se  Se225  1  0.23945088  0.43044349  0.18759104  1
  Se  Se226  1  0.24626254  0.42215060  0.68101120  1
  Se  Se227  1  0.27664407  0.74060155  0.19207411  1
  Se  Se228  1  0.24937134  0.74673801  0.69491863  1
  Se  Se229  1  0.57571174  0.08993077  0.18482193  1
  Se  Se230  1  0.57063564  0.09250313  0.70431476  1
  Se  Se231  1  0.57631096  0.42254336  0.20966494  1
  Se  Se232  1  0.58682272  0.41740785  0.69848804  1
  Se  Se233  1  0.58257144  0.75758041  0.18940255  1
  Se  Se234  1  0.58152010  0.74647435  0.69699308  1
  Se  Se235  1  0.91086926  0.08605565  0.19669967  1
  Se  Se236  1  0.91986568  0.08451189  0.69807822  1
  Se  Se237  1  0.91597136  0.41447738  0.19529692  1
  Se  Se238  1  0.92032486  0.41555978  0.69384893  1
  Se  Se239  1  0.92459843  0.75057960  0.20374204  1
  Se  Se240  1  0.91508834  0.75223100  0.69349791  1
  Se  Se241  1  0.07216483  0.25176709  0.20332376  1
  Se  Se242  1  0.08493148  0.25084262  0.70090122  1
  Se  Se243  1  0.08395901  0.58863488  0.19605133  1
  Se  Se244  1  0.07929489  0.58793198  0.68972831  1
  Se  Se245  1  0.10002095  0.90715441  0.19427352  1
  Se  Se246  1  0.07966475  0.91755214  0.69806653  1
  Se  Se247  1  0.41286625  0.24904703  0.18935047  1
  Se  Se248  1  0.41976217  0.24765994  0.68792750  1
  Se  Se249  1  0.43874393  0.57588628  0.20541285  1
  Se  Se250  1  0.41373718  0.58393874  0.69647229  1
  Se  Se251  1  0.42851742  0.91605301  0.18808779  1
  Se  Se252  1  0.41108466  0.91250844  0.69557595  1
  Se  Se253  1  0.74744442  0.24772533  0.19436256  1
  Se  Se254  1  0.75229506  0.25373515  0.69727573  1
  Se  Se255  1  0.75874999  0.57274520  0.18600476  1
  Se  Se256  1  0.75125124  0.58624353  0.69501975  1
  Se  Se257  1  0.76731216  0.90446967  0.19193235  1
  Se  Se258  1  0.74501072  0.92327051  0.69582498  1
