# generated using pymatgen
data_In86Cu29Se144
_symmetry_space_group_name_H-M   'P 1'
_cell_length_a   17.56468597
_cell_length_b   17.56791337
_cell_length_c   23.41919847
_cell_angle_alpha   90.01079198
_cell_angle_beta   90.00652884
_cell_angle_gamma   89.99413205
_symmetry_Int_Tables_number   1
_chemical_formula_structural   In86Cu29Se144
_chemical_formula_sum   'In86 Cu29 Se144'
_cell_volume   7226.57617624
_cell_formula_units_Z   1
loop_
 _symmetry_equiv_pos_site_id
 _symmetry_equiv_pos_as_xyz
  1  'x, y, z'
loop_
 _atom_site_type_symbol
 _atom_site_label
 _atom_site_symmetry_multiplicity
 _atom_site_fract_x
 _atom_site_fract_y
 _atom_site_fract_z
 _atom_site_occupancy
  In  In0  1  -0.00894712  0.16528814  0.12666524  1
  In  In1  1  0.01980678  0.15400213  0.64561823  1
  In  In2  1  0.00791085  0.51155856  0.12020228  1
  In  In3  1  0.00319835  0.49575017  0.62444680  1
  In  In4  1  0.00245297  0.83259969  0.12355542  1
  In  In5  1  0.01552879  0.83067538  0.62342941  1
  In  In6  1  0.33501554  0.15405740  0.12034126  1
  In  In7  1  0.32590947  0.16294718  0.63277251  1
  In  In8  1  0.32944764  0.50932629  0.12283836  1
  In  In9  1  0.32784107  0.50145238  0.62147605  1
  In  In10  1  0.32844503  0.84335857  0.12222320  1
  In  In11  1  0.33302294  0.83940269  0.62380660  1
  In  In12  1  0.66074298  0.17430720  0.12982184  1
  In  In13  1  0.65185784  0.15837413  0.62362865  1
  In  In14  1  0.66329348  0.49261541  0.12542648  1
  In  In15  1  0.66233724  0.50602509  0.60963884  1
  In  In16  1  0.67996312  0.82491306  0.12807034  1
  In  In17  1  0.65836093  0.84888870  0.62467931  1
  In  In18  1  0.16773639  -0.00051981  0.38742905  1
  In  In19  1  0.16070056  -0.01165808  0.86201192  1
  In  In20  1  0.17218834  0.32452309  0.38670728  1
  In  In21  1  0.17721155  0.34385629  0.85893565  1
  In  In22  1  0.16642315  0.67746161  0.38970610  1
  In  In23  1  0.17349536  0.66171775  0.87419839  1
  In  In24  1  0.51109559  -0.00937281  0.39310136  1
  In  In25  1  0.51118572  -0.00410288  0.86591031  1
  In  In26  1  0.50555107  0.32635931  0.38094945  1
  In  In27  1  0.48257724  0.33007174  0.86881427  1
  In  In28  1  0.49978243  0.67617648  0.39739200  1
  In  In29  1  0.49326692  0.67966072  0.86828597  1
  In  In30  1  0.83466138  -0.00193280  0.36466764  1
  In  In31  1  0.82990775  -0.00153396  0.87110893  1
  In  In32  1  0.83105100  0.34923370  0.37295222  1
  In  In33  1  0.84564250  0.33480457  0.87453157  1
  In  In34  1  0.83273990  0.64847012  0.37365522  1
  In  In35  1  0.82841231  0.66961748  0.89318562  1
  In  In36  1  0.01322318  0.15965716  0.37753709  1
  In  In37  1  0.01272315  0.16844844  0.85682460  1
  In  In38  1  -0.00710777  0.50049517  0.37885546  1
  In  In39  1  0.00348841  0.50218246  0.87754468  1
  In  In40  1  0.00788345  0.83869460  0.37103637  1
  In  In41  1  -0.00302298  0.83884351  0.87902891  1
  In  In42  1  0.34344987  0.14635572  0.40307517  1
  In  In43  1  0.33796016  0.17283840  0.86485822  1
  In  In44  1  0.33204822  0.51296436  0.39627832  1
  In  In45  1  0.32535167  0.49458023  0.86253478  1
  In  In46  1  0.33928882  0.83628466  0.39237806  1
  In  In47  1  0.33271245  0.82070227  0.85962526  1
  In  In48  1  0.65663737  0.15601971  0.36516953  1
  In  In49  1  0.66393356  0.14953447  0.87446619  1
  In  In50  1  0.67454026  0.50196091  0.38278889  1
  In  In51  1  0.67067179  0.51096483  0.87785525  1
  In  In52  1  0.65054567  0.84062294  0.37071090  1
  In  In53  1  0.66862082  0.84292683  0.87953499  1
  In  In54  1  0.16977430  -0.01594176  0.12338898  1
  In  In55  1  0.16840327  0.00226244  0.62939313  1
  In  In56  1  0.15393428  0.33711815  0.12374120  1
  In  In57  1  0.16512910  0.33232185  0.63024788  1
  In  In58  1  0.16078100  0.65865521  0.11977346  1
  In  In59  1  0.19429092  0.68579756  0.59962192  1
  In  In60  1  0.49013806  0.00980945  0.12673657  1
  In  In61  1  0.48929210  0.00126209  0.62689056  1
  In  In62  1  0.51090838  0.33404260  0.12591776  1
  In  In63  1  0.48261590  0.31540249  0.61810862  1
  In  In64  1  0.50419120  0.66279305  0.12846574  1
  In  In65  1  0.48223149  0.65933030  0.60575789  1
  In  In66  1  0.84193357  -0.01122324  0.13174361  1
  In  In67  1  0.83367575  -0.00102884  0.63418690  1
  In  In68  1  0.82203090  0.32612510  0.12326960  1
  In  In69  1  0.84071627  0.34719887  0.62537053  1
  In  In70  1  0.84173221  0.68383245  0.11249125  1
  In  In71  1  0.84071767  0.65925418  0.62207714  1
  In  In72  1  -0.00651167  0.32842382  0.25086899  1
  In  In73  1  0.65567811  0.67694539  0.74577288  1
  In  In74  1  0.83872359  0.17457194  0.49692443  1
  In  In75  1  0.83233760  0.16448469  -0.00316345  1
  In  In76  1  0.66999248  0.66801077  0.25235219  1
  In  In77  1  0.16832300  0.16854746  -0.01457430  1
  In  In78  1  0.82497873  0.82592336  0.49491681  1
  In  In79  1  0.33204146  0.32991281  0.26637283  1
  In  In80  1  0.49931662  0.49981898  0.00181762  1
  In  In81  1  0.00477832  0.66056432  0.74718992  1
  In  In82  1  0.33999657  -0.00765879  0.26501387  1
  In  In83  1  0.33231068  0.67362277  0.27030633  1
  In  In84  1  0.50456238  0.83164469  -0.00162225  1
  In  In85  1  0.66342881  0.33066271  0.73655569  1
  Cu  Cu86  1  0.49024070  0.50050202  0.74057848  1
  Cu  Cu87  1  0.66061005  0.33090083  0.00224461  1
  Cu  Cu88  1  0.17131811  0.50959164  0.74244433  1
  Cu  Cu89  1  0.00585979  -0.00719063  0.50545115  1
  Cu  Cu90  1  0.49915369  0.15903435  0.74543510  1
  Cu  Cu91  1  0.00612659  0.67311487  -0.00037196  1
  Cu  Cu92  1  0.66705680  -0.00017675  -0.00027123  1
  Cu  Cu93  1  0.83376364  0.50260345  0.24946565  1
  Cu  Cu94  1  0.65625296  0.00609573  0.50144581  1
  Cu  Cu95  1  0.00287398  0.35000566  -0.00535145  1
  Cu  Cu96  1  0.00336858  0.00221866  -0.00122096  1
  Cu  Cu97  1  0.17068763  0.83310329  0.74166945  1
  Cu  Cu98  1  0.00380264  0.32923169  0.50387919  1
  Cu  Cu99  1  0.32836029  0.33130518  -0.01058568  1
  Cu  Cu100  1  0.82950582  0.16191074  0.24755881  1
  Cu  Cu101  1  0.50351658  0.50189933  0.25655583  1
  Cu  Cu102  1  0.50328919  0.17352049  0.25013782  1
  Cu  Cu103  1  0.83444937  0.83891479  0.75391184  1
  Cu  Cu104  1  0.83217613  0.50115266  0.75107639  1
  Cu  Cu105  1  0.33629575  -0.00385689  -0.00267262  1
  Cu  Cu106  1  0.83865900  0.83092194  0.24606931  1
  Cu  Cu107  1  0.16718342  0.15122444  0.25909926  1
  Cu  Cu108  1  0.16247165  0.49636071  0.24932438  1
  Cu  Cu109  1  0.32681772  0.66645481  -0.00503395  1
  Cu  Cu110  1  0.66820473  0.33534992  0.50047666  1
  Cu  Cu111  1  0.83441329  0.16421499  0.75224449  1
  Cu  Cu112  1  -0.00020198  0.65686396  0.50089816  1
  Cu  Cu113  1  0.16145524  0.82444933  0.24941534  1
  Cu  Cu114  1  0.33069624  0.33532104  0.50827823  1
  Se  Se115  1  0.08282776  0.08492691  0.05824351  1
  Se  Se116  1  0.07964861  0.08346177  0.55946004  1
  Se  Se117  1  0.08925344  0.42540549  0.05105038  1
  Se  Se118  1  0.08668025  0.41489819  0.55539104  1
  Se  Se119  1  0.09057336  0.75505615  0.05412729  1
  Se  Se120  1  0.08121525  0.75017984  0.54578693  1
  Se  Se121  1  0.41845841  0.08361454  0.04654280  1
  Se  Se122  1  0.42879528  0.10700356  0.56459062  1
  Se  Se123  1  0.40554788  0.40634609  0.05857129  1
  Se  Se124  1  0.41957502  0.41968100  0.55571354  1
  Se  Se125  1  0.40928979  0.74001093  0.05878172  1
  Se  Se126  1  0.39452196  0.74865469  0.54517874  1
  Se  Se127  1  0.74740065  0.07843038  0.06283451  1
  Se  Se128  1  0.75041320  0.07860816  0.55671338  1
  Se  Se129  1  0.74559815  0.41279029  0.05415934  1
  Se  Se130  1  0.75390951  0.41667320  0.55254035  1
  Se  Se131  1  0.74524503  0.75328471  0.04765507  1
  Se  Se132  1  0.74291826  0.74582870  0.56569148  1
  Se  Se133  1  0.25203824  0.25470358  0.05810079  1
  Se  Se134  1  0.24819241  0.25005022  0.56096886  1
  Se  Se135  1  0.24719108  0.57992968  0.04925665  1
  Se  Se136  1  0.23368873  0.56260128  0.54869210  1
  Se  Se137  1  0.24852692  0.91348569  0.04596497  1
  Se  Se138  1  0.23837411  0.91395888  0.55866820  1
  Se  Se139  1  0.57844619  0.24527386  0.05313271  1
  Se  Se140  1  0.58653139  0.25151974  0.55405865  1
  Se  Se141  1  0.59300243  0.59281233  0.05567366  1
  Se  Se142  1  0.58707598  0.59483750  0.54433099  1
  Se  Se143  1  0.58735891  0.92250563  0.06385825  1
  Se  Se144  1  0.57274131  0.92132746  0.55228809  1
  Se  Se145  1  0.92664779  0.26166006  0.05248248  1
  Se  Se146  1  0.92706007  0.24912564  0.56682218  1
  Se  Se147  1  0.92099460  0.58786669  0.05157754  1
  Se  Se148  1  0.91650958  0.57406876  0.55305103  1
  Se  Se149  1  0.92113902  0.91990935  0.05422798  1
  Se  Se150  1  0.91539606  0.91514901  0.55913694  1
  Se  Se151  1  0.08401461  0.24222182  0.45152862  1
  Se  Se152  1  0.07706709  0.26491633  0.93304925  1
  Se  Se153  1  0.08436058  0.57732949  0.44520438  1
  Se  Se154  1  0.08567549  0.58767344  0.94414193  1
  Se  Se155  1  0.08523929  0.90695579  0.45060833  1
  Se  Se156  1  0.08741411  0.92063773  0.94411089  1
  Se  Se157  1  0.41626235  0.25605348  0.45236146  1
  Se  Se158  1  0.41543905  0.24525819  0.94427936  1
  Se  Se159  1  0.43566040  0.57356481  0.45837295  1
  Se  Se160  1  0.41130444  0.58675044  0.93696099  1
  Se  Se161  1  0.38742750  0.95473764  0.44527950  1
  Se  Se162  1  0.41335181  0.91426592  0.93533881  1
  Se  Se163  1  0.74279679  0.25493496  0.43538061  1
  Se  Se164  1  0.74075940  0.25560884  0.93661349  1
  Se  Se165  1  0.75314381  0.58663777  0.45159905  1
  Se  Se166  1  0.75300758  0.57386389  0.95367823  1
  Se  Se167  1  0.74354884  0.93095382  0.44147547  1
  Se  Se168  1  0.75577312  0.92079774  0.94818964  1
  Se  Se169  1  0.23550934  0.08654380  0.46004397  1
  Se  Se170  1  0.25799397  0.07284956  0.93290494  1
  Se  Se171  1  0.24782552  0.41596260  0.45206370  1
  Se  Se172  1  0.24823877  0.41921858  0.93922440  1
  Se  Se173  1  0.27435762  0.73269313  0.45399502  1
  Se  Se174  1  0.25214796  0.75484107  0.93930251  1
  Se  Se175  1  0.58065728  0.09836066  0.44980629  1
  Se  Se176  1  0.57887190  0.07709886  0.94620570  1
  Se  Se177  1  0.58515068  0.41743676  0.44561800  1
  Se  Se178  1  0.58346191  0.40798822  0.93627809  1
  Se  Se179  1  0.59384771  0.76290480  0.45226493  1
  Se  Se180  1  0.59298534  0.73692941  0.94082175  1
  Se  Se181  1  0.92310394  0.06954832  0.44373486  1
  Se  Se182  1  0.93105424  0.08566649  0.93565351  1
  Se  Se183  1  0.91913156  0.41048264  0.44875643  1
  Se  Se184  1  0.91055276  0.42697153  0.94535374  1
  Se  Se185  1  0.92347802  0.74096229  0.43833865  1
  Se  Se186  1  0.91874375  0.75702968  0.95070099  1
  Se  Se187  1  0.24914093  0.22726478  0.31935422  1
  Se  Se188  1  0.24584355  0.24467093  0.79791823  1
  Se  Se189  1  0.24009137  0.57256135  0.31549869  1
  Se  Se190  1  0.25493268  0.59230645  0.79731492  1
  Se  Se191  1  0.24150818  0.90022815  0.31471838  1
  Se  Se192  1  0.25497258  0.91500619  0.79601668  1
  Se  Se193  1  0.58618766  0.25806697  0.30259811  1
  Se  Se194  1  0.58001112  0.24369087  0.80546333  1
  Se  Se195  1  0.57698278  0.58736609  0.31693052  1
  Se  Se196  1  0.57316311  0.57327201  0.80447116  1
  Se  Se197  1  0.57657939  0.93149980  0.30581393  1
  Se  Se198  1  0.58165709  0.89751279  0.80295780  1
  Se  Se199  1  0.90714269  0.23815098  0.31439204  1
  Se  Se200  1  0.91668135  0.25308859  0.80020644  1
  Se  Se201  1  0.92258416  0.58088857  0.30112888  1
  Se  Se202  1  0.90512406  0.58678673  0.81172756  1
  Se  Se203  1  0.92154636  0.91460490  0.30078686  1
  Se  Se204  1  0.92147232  0.92037220  0.80540059  1
  Se  Se205  1  0.08304113  0.06699748  0.30900657  1
  Se  Se206  1  0.10773533  0.09391262  0.79405703  1
  Se  Se207  1  0.08992395  0.41079209  0.31120606  1
  Se  Se208  1  0.08557890  0.43291466  0.80092013  1
  Se  Se209  1  0.08575983  0.74130697  0.30918328  1
  Se  Se210  1  0.08876453  0.75706727  0.80655994  1
  Se  Se211  1  0.42364473  0.09654040  0.31377989  1
  Se  Se212  1  0.41895786  0.07809498  0.80363776  1
  Se  Se213  1  0.41861903  0.42996113  0.31866133  1
  Se  Se214  1  0.41200361  0.41342680  0.79507832  1
  Se  Se215  1  0.43144826  0.76425403  0.31806192  1
  Se  Se216  1  0.42134229  0.74825061  0.78994601  1
  Se  Se217  1  0.74559650  0.07722660  0.29915722  1
  Se  Se218  1  0.74753396  0.08006163  0.80077737  1
  Se  Se219  1  0.74573077  0.42417275  0.30218795  1
  Se  Se220  1  0.74839515  0.41787845  0.80627368  1
  Se  Se221  1  0.75949330  0.75879891  0.31373893  1
  Se  Se222  1  0.75841942  0.75052922  0.81001860  1
  Se  Se223  1  0.24933877  0.07883633  0.19543052  1
  Se  Se224  1  0.23011768  0.09600227  0.70369494  1
  Se  Se225  1  0.24798876  0.41709954  0.19400881  1
  Se  Se226  1  0.25310015  0.41772207  0.69567901  1
  Se  Se227  1  0.25022230  0.74976953  0.19216386  1
  Se  Se228  1  0.25185058  0.74597780  0.69034941  1
  Se  Se229  1  0.57919184  0.08505153  0.19491763  1
  Se  Se230  1  0.58574467  0.07362725  0.69784129  1
  Se  Se231  1  0.58156478  0.41869685  0.19977997  1
  Se  Se232  1  0.57395810  0.42348505  0.68042137  1
  Se  Se233  1  0.57490501  0.75872030  0.19582003  1
  Se  Se234  1  0.56664811  0.75218647  0.67803483  1
  Se  Se235  1  0.91958783  0.08135365  0.19835371  1
  Se  Se236  1  0.91907883  0.07661329  0.70323831  1
  Se  Se237  1  0.91159806  0.42091607  0.18690263  1
  Se  Se238  1  0.92050716  0.42182411  0.70035005  1
  Se  Se239  1  0.92077743  0.74676092  0.19315840  1
  Se  Se240  1  0.91116656  0.75727606  0.69177252  1
  Se  Se241  1  0.09369157  0.23621691  0.19696760  1
  Se  Se242  1  0.06314019  0.27398540  0.69847983  1
  Se  Se243  1  0.08451605  0.58479296  0.19777104  1
  Se  Se244  1  0.09850222  0.59157834  0.67853661  1
  Se  Se245  1  0.08459751  0.91436860  0.19613512  1
  Se  Se246  1  0.07996716  0.91748445  0.69735042  1
  Se  Se247  1  0.41446331  0.24711590  0.19149307  1
  Se  Se248  1  0.41338899  0.24852024  0.70116333  1
  Se  Se249  1  0.41761815  0.58029508  0.20038542  1
  Se  Se250  1  0.41203622  0.58818575  0.68825574  1
  Se  Se251  1  0.42277682  0.90654277  0.19493737  1
  Se  Se252  1  0.40522785  0.92416103  0.69727617  1
  Se  Se253  1  0.74769704  0.25211192  0.20001313  1
  Se  Se254  1  0.75965436  0.23872057  0.68370433  1
  Se  Se255  1  0.75681140  0.58329164  0.18605213  1
  Se  Se256  1  0.74924229  0.57840468  0.69180072  1
  Se  Se257  1  0.74940449  0.91474368  0.19891796  1
  Se  Se258  1  0.74653680  0.91576512  0.69897465  1
