# generated using pymatgen
data_In86Cu29Se144
_symmetry_space_group_name_H-M   'P 1'
_cell_length_a   17.57926131
_cell_length_b   17.57562639
_cell_length_c   23.44346561
_cell_angle_alpha   90.01239413
_cell_angle_beta   90.00951675
_cell_angle_gamma   90.01737173
_symmetry_Int_Tables_number   1
_chemical_formula_structural   In86Cu29Se144
_chemical_formula_sum   'In86 Cu29 Se144'
_cell_volume   7243.24559686
_cell_formula_units_Z   1
loop_
 _symmetry_equiv_pos_site_id
 _symmetry_equiv_pos_as_xyz
  1  'x, y, z'
loop_
 _atom_site_type_symbol
 _atom_site_label
 _atom_site_symmetry_multiplicity
 _atom_site_fract_x
 _atom_site_fract_y
 _atom_site_fract_z
 _atom_site_occupancy
  In  In0  1  0.00349417  0.15214426  0.12072192  1
  In  In1  1  -0.00996306  0.17239376  0.62792733  1
  In  In2  1  0.00550783  0.52741636  0.11926324  1
  In  In3  1  0.00246702  0.50140621  0.61593938  1
  In  In4  1  0.00898990  0.80843019  0.12624341  1
  In  In5  1  -0.00905740  0.84333209  0.62781096  1
  In  In6  1  0.33838840  0.16544859  0.12122596  1
  In  In7  1  0.32653875  0.15333248  0.62963312  1
  In  In8  1  0.33575542  0.48680817  0.13566574  1
  In  In9  1  0.33605278  0.51238321  0.62232354  1
  In  In10  1  0.32545409  0.84212868  0.12768495  1
  In  In11  1  0.33675153  0.83538905  0.62563517  1
  In  In12  1  0.65237178  0.17679290  0.13331259  1
  In  In13  1  0.67610821  0.15816779  0.63274736  1
  In  In14  1  0.66485219  0.49949080  0.12702150  1
  In  In15  1  0.66658631  0.49175921  0.62537728  1
  In  In16  1  0.66566046  0.83308940  0.13640467  1
  In  In17  1  0.68112087  0.84913166  0.60644255  1
  In  In18  1  0.17473669  -0.01050208  0.37417115  1
  In  In19  1  0.16708512  -0.00079883  0.87017258  1
  In  In20  1  0.18240517  0.33712030  0.36640925  1
  In  In21  1  0.15743135  0.33073333  0.87941064  1
  In  In22  1  0.15606914  0.65657155  0.35894895  1
  In  In23  1  0.18733737  0.65747513  0.87552564  1
  In  In24  1  0.48677754  -0.01776420  0.37308740  1
  In  In25  1  0.50695984  0.01108569  0.86937109  1
  In  In26  1  0.50058425  0.33397520  0.36599593  1
  In  In27  1  0.50770398  0.32708213  0.88216085  1
  In  In28  1  0.50899300  0.67913714  0.36917209  1
  In  In29  1  0.48960937  0.67265150  0.87792570  1
  In  In30  1  0.82208163  0.01155231  0.38689339  1
  In  In31  1  0.83751724  -0.00411494  0.85899714  1
  In  In32  1  0.82314790  0.34264820  0.38035582  1
  In  In33  1  0.83703114  0.34794302  0.87723515  1
  In  In34  1  0.82677132  0.66513644  0.38073706  1
  In  In35  1  0.82710888  0.66394902  0.87805251  1
  In  In36  1  -0.00292681  0.15386098  0.37792577  1
  In  In37  1  0.01147084  0.15854179  0.87795287  1
  In  In38  1  -0.00866851  0.50812862  0.37914979  1
  In  In39  1  -0.00011729  0.49114971  0.87841715  1
  In  In40  1  0.00149244  0.81841119  0.37668700  1
  In  In41  1  -0.00170414  0.84629122  0.87056397  1
  In  In42  1  0.33418625  0.16374833  0.36679241  1
  In  In43  1  0.33655352  0.16426796  0.87884527  1
  In  In44  1  0.32476433  0.49785701  0.36343760  1
  In  In45  1  0.33208371  0.52010254  0.87623211  1
  In  In46  1  0.34060016  0.83595589  0.36909757  1
  In  In47  1  0.32618103  0.82250650  0.86996854  1
  In  In48  1  0.66779994  0.17276466  0.37163320  1
  In  In49  1  0.66286877  0.16074443  0.87075898  1
  In  In50  1  0.67871044  0.51136419  0.36657712  1
  In  In51  1  0.67232633  0.49197576  0.88151395  1
  In  In52  1  0.66064108  0.83071949  0.38129496  1
  In  In53  1  0.66037344  0.83893347  0.87104689  1
  In  In54  1  0.18142464  0.00804842  0.11258517  1
  In  In55  1  0.17202861  -0.00208708  0.64148146  1
  In  In56  1  0.18596533  0.33600318  0.12621629  1
  In  In57  1  0.15743009  0.33311954  0.62422268  1
  In  In58  1  0.15702967  0.67266485  0.13460256  1
  In  In59  1  0.17908306  0.66397988  0.62474276  1
  In  In60  1  0.49107638  0.00778690  0.12847896  1
  In  In61  1  0.50401749  -0.00291966  0.62809055  1
  In  In62  1  0.49918051  0.33364146  0.12514715  1
  In  In63  1  0.50622929  0.35051909  0.62862582  1
  In  In64  1  0.51089157  0.65715049  0.13353092  1
  In  In65  1  0.48660863  0.67335866  0.62164657  1
  In  In66  1  0.83166550  -0.01411484  0.12780789  1
  In  In67  1  0.82581788  -0.00066831  0.62440690  1
  In  In68  1  0.81639768  0.33914339  0.13182267  1
  In  In69  1  0.83086790  0.32526216  0.61811821  1
  In  In70  1  0.84126527  0.65668112  0.13586412  1
  In  In71  1  0.83309886  0.67177173  0.61041396  1
  In  In72  1  0.50754597  0.51165174  0.49196464  1
  In  In73  1  0.16277108  0.82898139  0.50502928  1
  In  In74  1  0.50479344  0.16499327  0.50762980  1
  In  In75  1  0.83199178  0.16807508  -0.00005090  1
  In  In76  1  0.49951252  0.83436029  -0.00064236  1
  In  In77  1  0.17062981  0.49957689  0.00290171  1
  In  In78  1  0.16178970  0.16834606  0.50133155  1
  In  In79  1  0.00090531  -0.01077970  0.25187856  1
  In  In80  1  0.00414246  0.67052760  0.74068417  1
  In  In81  1  -0.00158378  0.33665304  0.25003688  1
  In  In82  1  0.33634926  0.33426410  0.75459301  1
  In  In83  1  0.83893357  0.82987892  -0.00237760  1
  In  In84  1  0.66391590  0.67713618  0.74562614  1
  In  In85  1  0.00055412  0.32863467  0.75683502  1
  Cu  Cu86  1  0.66176609  0.33792469  0.00610429  1
  Cu  Cu87  1  -0.00230226  0.33304393  0.00057298  1
  Cu  Cu88  1  0.17128857  0.82997392  0.75010976  1
  Cu  Cu89  1  0.82513235  0.83178426  0.25767528  1
  Cu  Cu90  1  0.32637271  0.66843645  0.49608347  1
  Cu  Cu91  1  0.34014483  0.33013497  0.00318340  1
  Cu  Cu92  1  0.50098047  0.16150716  0.24855685  1
  Cu  Cu93  1  0.67533590  0.33416947  0.49835328  1
  Cu  Cu94  1  0.00063511  0.33738515  0.49749338  1
  Cu  Cu95  1  0.33786228  0.66360060  0.00513565  1
  Cu  Cu96  1  0.66478094  0.00703771  -0.00116263  1
  Cu  Cu97  1  0.17219057  0.83491653  0.24819471  1
  Cu  Cu98  1  0.17588818  0.16482172  0.24280222  1
  Cu  Cu99  1  0.50117609  0.83059437  0.25061284  1
  Cu  Cu100  1  0.82747091  0.16580882  0.74574274  1
  Cu  Cu101  1  0.50451440  0.50448642  0.75023052  1
  Cu  Cu102  1  0.01234706  -0.00605042  -0.00380704  1
  Cu  Cu103  1  0.33145636  -0.00081141  -0.00304209  1
  Cu  Cu104  1  0.50066554  0.17093195  0.75443851  1
  Cu  Cu105  1  0.82507603  0.16434198  0.25576821  1
  Cu  Cu106  1  -0.00789886  0.00062566  0.50622767  1
  Cu  Cu107  1  -0.00393329  0.66191555  0.49542317  1
  Cu  Cu108  1  0.83336266  0.49755660  0.74968949  1
  Cu  Cu109  1  0.49630436  0.84097263  0.74956089  1
  Cu  Cu110  1  0.83014358  0.50331387  0.25452409  1
  Cu  Cu111  1  0.67313595  0.65735460  0.00699795  1
  Cu  Cu112  1  0.49821493  0.49506275  0.24944314  1
  Cu  Cu113  1  0.33222321  0.33723653  0.49262989  1
  Cu  Cu114  1  0.66128686  -0.00047332  0.50132354  1
  Se  Se115  1  0.08880981  0.08541507  0.04693792  1
  Se  Se116  1  0.07875464  0.07537987  0.56491368  1
  Se  Se117  1  0.07814169  0.41044901  0.06419754  1
  Se  Se118  1  0.08795684  0.41667842  0.55002121  1
  Se  Se119  1  0.09001949  0.74160852  0.05098765  1
  Se  Se120  1  0.07036238  0.73877607  0.56436451  1
  Se  Se121  1  0.41798686  0.08066750  0.04968378  1
  Se  Se122  1  0.40676897  0.07447025  0.55664279  1
  Se  Se123  1  0.41581087  0.41900727  0.05714063  1
  Se  Se124  1  0.41550761  0.41617021  0.55208319  1
  Se  Se125  1  0.41722633  0.74581692  0.06509976  1
  Se  Se126  1  0.40808574  0.75315817  0.54898750  1
  Se  Se127  1  0.74579067  0.07960733  0.06424612  1
  Se  Se128  1  0.74625045  0.08490621  0.55288165  1
  Se  Se129  1  0.75008893  0.42003030  0.05483607  1
  Se  Se130  1  0.75377320  0.41973359  0.55403339  1
  Se  Se131  1  0.74660025  0.74827151  0.06266184  1
  Se  Se132  1  0.74172011  0.74444008  0.54506144  1
  Se  Se133  1  0.25170774  0.24816519  0.05268999  1
  Se  Se134  1  0.26026527  0.25672047  0.55841436  1
  Se  Se135  1  0.25718665  0.58621090  0.06681320  1
  Se  Se136  1  0.24797836  0.58037672  0.54859446  1
  Se  Se137  1  0.25040761  0.91008720  0.04677321  1
  Se  Se138  1  0.24880480  0.92624876  0.55939328  1
  Se  Se139  1  0.57980802  0.24833351  0.05383695  1
  Se  Se140  1  0.59337887  0.26145873  0.56287282  1
  Se  Se141  1  0.58086468  0.57940677  0.05529858  1
  Se  Se142  1  0.58968475  0.59279669  0.56254205  1
  Se  Se143  1  0.59128702  0.92170223  0.05999270  1
  Se  Se144  1  0.57253042  0.91741012  0.55015766  1
  Se  Se145  1  0.91864220  0.25630427  0.06510255  1
  Se  Se146  1  0.92073051  0.24977674  0.54976061  1
  Se  Se147  1  0.91283681  0.59488288  0.05202205  1
  Se  Se148  1  0.91354429  0.57786803  0.54934642  1
  Se  Se149  1  0.93146914  0.91873733  0.06004177  1
  Se  Se150  1  0.90762170  0.91386060  0.55378422  1
  Se  Se151  1  0.07980757  0.25888815  0.43414577  1
  Se  Se152  1  0.08069652  0.24775096  0.95042020  1
  Se  Se153  1  0.08667748  0.58686713  0.44236503  1
  Se  Se154  1  0.08222287  0.58717473  0.94000688  1
  Se  Se155  1  0.07315181  0.92425661  0.44372249  1
  Se  Se156  1  0.09130120  0.90989602  0.94170000  1
  Se  Se157  1  0.41512769  0.25240612  0.44080039  1
  Se  Se158  1  0.41997554  0.24605941  0.94747534  1
  Se  Se159  1  0.40789552  0.59120889  0.43384050  1
  Se  Se160  1  0.42207424  0.58341158  0.95078546  1
  Se  Se161  1  0.40510437  0.91454449  0.44853292  1
  Se  Se162  1  0.41353304  0.92146701  0.93513714  1
  Se  Se163  1  0.75260664  0.24439688  0.44581587  1
  Se  Se164  1  0.74242762  0.26037945  0.94173701  1
  Se  Se165  1  0.74918473  0.57581494  0.44823999  1
  Se  Se166  1  0.75478265  0.57808082  0.94870104  1
  Se  Se167  1  0.74655037  0.91593038  0.44889908  1
  Se  Se168  1  0.74640142  0.92578974  0.94108884  1
  Se  Se169  1  0.25430377  0.08020931  0.44249322  1
  Se  Se170  1  0.24728595  0.08171760  0.94282478  1
  Se  Se171  1  0.24953250  0.42151475  0.44207465  1
  Se  Se172  1  0.26106781  0.41039494  0.93983253  1
  Se  Se173  1  0.24432753  0.74652763  0.43438210  1
  Se  Se174  1  0.25626323  0.74517334  0.94890855  1
  Se  Se175  1  0.58297901  0.07829419  0.43783304  1
  Se  Se176  1  0.58104975  0.08915937  0.94654078  1
  Se  Se177  1  0.59131690  0.40967573  0.43809137  1
  Se  Se178  1  0.57961924  0.42077716  0.94978169  1
  Se  Se179  1  0.57500750  0.75093115  0.44996212  1
  Se  Se180  1  0.59690052  0.74119376  0.94486213  1
  Se  Se181  1  0.91344537  0.08882411  0.45375323  1
  Se  Se182  1  0.91689058  0.06887068  0.94305473  1
  Se  Se183  1  0.91375028  0.41903637  0.44628392  1
  Se  Se184  1  0.91559705  0.42127463  0.95312142  1
  Se  Se185  1  0.91337558  0.75085525  0.44823418  1
  Se  Se186  1  0.92916353  0.74208811  0.93749287  1
  Se  Se187  1  0.25620287  0.24935876  0.29734460  1
  Se  Se188  1  0.24159165  0.24621608  0.81081113  1
  Se  Se189  1  0.26041720  0.59623232  0.29756257  1
  Se  Se190  1  0.25568955  0.58354236  0.79620011  1
  Se  Se191  1  0.25538204  0.91949496  0.29950760  1
  Se  Se192  1  0.25391239  0.91536691  0.80305228  1
  Se  Se193  1  0.58328847  0.24869569  0.30025959  1
  Se  Se194  1  0.58572512  0.25408560  0.80517837  1
  Se  Se195  1  0.57870725  0.58009343  0.30404683  1
  Se  Se196  1  0.58296786  0.58547654  0.81235677  1
  Se  Se197  1  0.58294212  0.91338849  0.30694232  1
  Se  Se198  1  0.58405712  0.92182268  0.80103028  1
  Se  Se199  1  0.91152246  0.24309312  0.31166187  1
  Se  Se200  1  0.90611903  0.23877563  0.81459499  1
  Se  Se201  1  0.91231357  0.58833012  0.30734762  1
  Se  Se202  1  0.91546053  0.57859530  0.80690679  1
  Se  Se203  1  0.90736665  0.91230413  0.31757906  1
  Se  Se204  1  0.91813021  0.91137410  0.79384717  1
  Se  Se205  1  0.09451896  0.08792911  0.30539017  1
  Se  Se206  1  0.07105296  0.07119618  0.80409919  1
  Se  Se207  1  0.08552972  0.42564222  0.31030888  1
  Se  Se208  1  0.09565768  0.42740598  0.80525980  1
  Se  Se209  1  0.08042134  0.75544171  0.29691850  1
  Se  Se210  1  0.09245777  0.74896627  0.81108788  1
  Se  Se211  1  0.41880439  0.07830058  0.30343310  1
  Se  Se212  1  0.41444261  0.08712777  0.80346648  1
  Se  Se213  1  0.41180105  0.41153668  0.30007458  1
  Se  Se214  1  0.42560356  0.42630161  0.81404567  1
  Se  Se215  1  0.41419576  0.74670042  0.29986822  1
  Se  Se216  1  0.41853704  0.74967211  0.80089346  1
  Se  Se217  1  0.74442519  0.07721901  0.30666686  1
  Se  Se218  1  0.74602911  0.08162770  0.80073289  1
  Se  Se219  1  0.74738286  0.41194001  0.30067641  1
  Se  Se220  1  0.74991126  0.41684791  0.80430578  1
  Se  Se221  1  0.74371744  0.74755047  0.31111863  1
  Se  Se222  1  0.75931541  0.76030083  0.80808958  1
  Se  Se223  1  0.25727856  0.07855547  0.19106891  1
  Se  Se224  1  0.24545368  0.09097315  0.70631235  1
  Se  Se225  1  0.24053893  0.42023817  0.20434684  1
  Se  Se226  1  0.25034189  0.41913958  0.68761069  1
  Se  Se227  1  0.25437784  0.74919784  0.19619203  1
  Se  Se228  1  0.25452829  0.74962384  0.69397333  1
  Se  Se229  1  0.58564935  0.07602841  0.19743034  1
  Se  Se230  1  0.57978181  0.08644655  0.69666133  1
  Se  Se231  1  0.58375059  0.41354764  0.19518940  1
  Se  Se232  1  0.59007626  0.41844316  0.70358806  1
  Se  Se233  1  0.58760478  0.74476021  0.20241507  1
  Se  Se234  1  0.57485665  0.76433328  0.68509245  1
  Se  Se235  1  0.90869565  0.08713165  0.19575579  1
  Se  Se236  1  0.91156048  0.08360584  0.69285854  1
  Se  Se237  1  0.91181567  0.42877561  0.18940100  1
  Se  Se238  1  0.91660361  0.41874895  0.69035068  1
  Se  Se239  1  0.91183788  0.75592307  0.19979888  1
  Se  Se240  1  0.90038168  0.75471159  0.69145796  1
  Se  Se241  1  0.08607276  0.24161768  0.18873578  1
  Se  Se242  1  0.09185202  0.23912442  0.69685224  1
  Se  Se243  1  0.08030337  0.58373949  0.20192347  1
  Se  Se244  1  0.09326727  0.57141922  0.69044655  1
  Se  Se245  1  0.09274109  0.91442555  0.18383354  1
  Se  Se246  1  0.08242505  0.90947028  0.69898989  1
  Se  Se247  1  0.41869390  0.24590989  0.19328994  1
  Se  Se248  1  0.42460951  0.24724717  0.68758667  1
  Se  Se249  1  0.41658424  0.58119904  0.19749259  1
  Se  Se250  1  0.42036772  0.58432524  0.69572186  1
  Se  Se251  1  0.41902406  0.91404073  0.19501249  1
  Se  Se252  1  0.41131430  0.92341680  0.69624664  1
  Se  Se253  1  0.74575936  0.24950439  0.20094735  1
  Se  Se254  1  0.74963259  0.25717509  0.69573018  1
  Se  Se255  1  0.74447657  0.58387367  0.19876771  1
  Se  Se256  1  0.75716059  0.58219978  0.69045925  1
  Se  Se257  1  0.74808121  0.91948428  0.20305434  1
  Se  Se258  1  0.73941612  0.91842257  0.69157222  1
