# generated using pymatgen
data_In86Cu29Se144
_symmetry_space_group_name_H-M   'P 1'
_cell_length_a   17.57308472
_cell_length_b   17.58124786
_cell_length_c   23.44477520
_cell_angle_alpha   90.02302234
_cell_angle_beta   90.00181882
_cell_angle_gamma   90.01099073
_symmetry_Int_Tables_number   1
_chemical_formula_structural   In86Cu29Se144
_chemical_formula_sum   'In86 Cu29 Se144'
_cell_volume   7243.42101974
_cell_formula_units_Z   1
loop_
 _symmetry_equiv_pos_site_id
 _symmetry_equiv_pos_as_xyz
  1  'x, y, z'
loop_
 _atom_site_type_symbol
 _atom_site_label
 _atom_site_symmetry_multiplicity
 _atom_site_fract_x
 _atom_site_fract_y
 _atom_site_fract_z
 _atom_site_occupancy
  In  In0  1  -0.00131891  0.17173514  0.11626336  1
  In  In1  1  -0.00007271  0.16406274  0.62452492  1
  In  In2  1  0.01185001  0.49542350  0.13197014  1
  In  In3  1  0.01128903  0.51159127  0.62646537  1
  In  In4  1  -0.00349692  0.83922501  0.12767000  1
  In  In5  1  0.00243265  0.82932508  0.63188046  1
  In  In6  1  0.32308110  0.16276642  0.11735786  1
  In  In7  1  0.32581088  0.17584100  0.62695436  1
  In  In8  1  0.33103526  0.50595396  0.12485394  1
  In  In9  1  0.32009488  0.51995573  0.63525600  1
  In  In10  1  0.33120443  0.82002266  0.12565015  1
  In  In11  1  0.31774600  0.81453233  0.61404005  1
  In  In12  1  0.66754029  0.16573415  0.11389486  1
  In  In13  1  0.66291650  0.15693694  0.63243642  1
  In  In14  1  0.66026107  0.51130922  0.12232072  1
  In  In15  1  0.67514914  0.48736695  0.62626104  1
  In  In16  1  0.67339757  0.83936957  0.11449173  1
  In  In17  1  0.67467035  0.84315254  0.62280948  1
  In  In18  1  0.15319193  0.00862601  0.38716870  1
  In  In19  1  0.16428804  0.00598188  0.87231237  1
  In  In20  1  0.14420754  0.34539933  0.39235812  1
  In  In21  1  0.14998964  0.34484545  0.89019237  1
  In  In22  1  0.16643892  0.66642756  0.37635383  1
  In  In23  1  0.15447892  0.64873102  0.85116008  1
  In  In24  1  0.48749168  -0.00248891  0.37540065  1
  In  In25  1  0.50488130  -0.01221542  0.88101997  1
  In  In26  1  0.48487966  0.33663708  0.37237288  1
  In  In27  1  0.49818836  0.33407468  0.88900168  1
  In  In28  1  0.50406962  0.67178438  0.37319101  1
  In  In29  1  0.49165503  0.67668445  0.87969612  1
  In  In30  1  0.84254509  -0.01733995  0.38181876  1
  In  In31  1  0.83834374  -0.00420836  0.86823100  1
  In  In32  1  0.86694977  0.32453995  0.37879759  1
  In  In33  1  0.84017331  0.32316056  0.87843679  1
  In  In34  1  0.84383191  0.65462955  0.38790470  1
  In  In35  1  0.84809075  0.67224312  0.87294400  1
  In  In36  1  0.02324858  0.17272681  0.35665923  1
  In  In37  1  0.00260864  0.16786940  0.87414024  1
  In  In38  1  0.00079400  0.50668121  0.37692061  1
  In  In39  1  0.01201358  0.49689940  0.87054790  1
  In  In40  1  0.00167834  0.83190182  0.37904409  1
  In  In41  1  -0.00258891  0.82186133  0.85717525  1
  In  In42  1  0.32206899  0.15763345  0.37278017  1
  In  In43  1  0.32104425  0.17452123  0.88826741  1
  In  In44  1  0.31336138  0.49086105  0.37241056  1
  In  In45  1  0.31795600  0.51329587  0.88082489  1
  In  In46  1  0.34217825  0.82626405  0.37963156  1
  In  In47  1  0.33380116  0.83291512  0.87287720  1
  In  In48  1  0.66294344  0.16525187  0.36749044  1
  In  In49  1  0.68090477  0.15004013  0.88543180  1
  In  In50  1  0.67183085  0.51422089  0.37407505  1
  In  In51  1  0.66787033  0.48727978  0.87763328  1
  In  In52  1  0.67038639  0.82470291  0.38704094  1
  In  In53  1  0.66162691  0.83668989  0.87330017  1
  In  In54  1  0.15066957  0.00794573  0.12965193  1
  In  In55  1  0.14743545  -0.01678793  0.61907628  1
  In  In56  1  0.13872274  0.32424598  0.10249946  1
  In  In57  1  0.15219075  0.32934476  0.61343396  1
  In  In58  1  0.17682431  0.66384208  0.13325255  1
  In  In59  1  0.16453437  0.67261573  0.62975297  1
  In  In60  1  0.50323695  0.00290036  0.11529555  1
  In  In61  1  0.51517763  -0.00510692  0.63485371  1
  In  In62  1  0.50094899  0.34003904  0.11810196  1
  In  In63  1  0.49886941  0.32691544  0.62642326  1
  In  In64  1  0.48455762  0.65991943  0.11364031  1
  In  In65  1  0.48161426  0.66949663  0.62756086  1
  In  In66  1  0.84425912  0.00974840  0.11241057  1
  In  In67  1  0.86131032  -0.03585538  0.65788881  1
  In  In68  1  0.86186191  0.33457550  0.11878503  1
  In  In69  1  0.85004033  0.35225786  0.61374210  1
  In  In70  1  0.83266751  0.67801551  0.12289754  1
  In  In71  1  0.85468685  0.69076548  0.61647162  1
  In  In72  1  0.67927431  0.34291436  0.23543628  1
  In  In73  1  0.49783442  0.15724523  0.50881024  1
  In  In74  1  0.67663983  0.32426839  0.75280390  1
  In  In75  1  0.32110005  -0.00396966  0.24163560  1
  In  In76  1  0.83399532  0.50486633  -0.00173892  1
  In  In77  1  0.83614221  0.15789302  0.50810126  1
  In  In78  1  0.17038072  0.83512542  -0.00073703  1
  In  In79  1  0.67265063  0.66858508  0.74997030  1
  In  In80  1  0.32794784  -0.00512840  0.75075560  1
  In  In81  1  0.66992244  0.67024337  0.24913706  1
  In  In82  1  0.67694071  -0.00379110  0.25379206  1
  In  In83  1  0.32488101  0.33618848  0.74710630  1
  In  In84  1  0.31938378  0.34087667  0.25051044  1
  In  In85  1  0.49497057  0.50257686  0.50159566  1
  Cu  Cu86  1  0.83507297  0.16861460  0.75412734  1
  Cu  Cu87  1  0.32482806  0.33322545  0.50311403  1
  Cu  Cu88  1  0.32531121  0.66771477  0.50143486  1
  Cu  Cu89  1  0.00711028  0.66808161  -0.00672486  1
  Cu  Cu90  1  0.33181795  -0.00706246  0.49923579  1
  Cu  Cu91  1  0.32880118  0.66696555  -0.00257918  1
  Cu  Cu92  1  0.00461923  0.67141639  0.50304746  1
  Cu  Cu93  1  0.16616098  0.83132843  0.25631769  1
  Cu  Cu94  1  0.85051935  0.16124913  0.24256389  1
  Cu  Cu95  1  0.49691732  0.83312014  0.75339053  1
  Cu  Cu96  1  -0.00642162  -0.00145785  -0.00359178  1
  Cu  Cu97  1  0.83926671  0.49680148  0.25838028  1
  Cu  Cu98  1  0.50228706  0.15888072  0.76712159  1
  Cu  Cu99  1  0.66459193  -0.00174686  -0.00728850  1
  Cu  Cu100  1  0.50430016  0.82753310  0.24861622  1
  Cu  Cu101  1  0.84694330  0.50384512  0.74352013  1
  Cu  Cu102  1  0.49713051  0.49829387  0.75833206  1
  Cu  Cu103  1  0.66486953  0.66676236  0.50467771  1
  Cu  Cu104  1  0.33365910  0.33895418  0.00398945  1
  Cu  Cu105  1  0.66337866  0.33555544  0.00213053  1
  Cu  Cu106  1  -0.00531842  -0.00519168  0.50725286  1
  Cu  Cu107  1  0.66271374  0.67345600  -0.00025262  1
  Cu  Cu108  1  0.16356033  0.50193486  0.25107618  1
  Cu  Cu109  1  0.33630406  -0.00178065  -0.00118686  1
  Cu  Cu110  1  0.15992588  0.16543688  0.74801147  1
  Cu  Cu111  1  0.67878955  0.33608825  0.49487770  1
  Cu  Cu112  1  0.84510074  0.83216876  0.25141242  1
  Cu  Cu113  1  0.50038923  0.17586365  0.24182037  1
  Cu  Cu114  1  0.66999731  -0.00686926  0.50655648  1
  Se  Se115  1  0.08003280  0.07925512  0.04988196  1
  Se  Se116  1  0.08069327  0.08254311  0.55359038  1
  Se  Se117  1  0.07683885  0.43308718  0.04604185  1
  Se  Se118  1  0.08729160  0.43109348  0.55201979  1
  Se  Se119  1  0.08285948  0.74474934  0.06100382  1
  Se  Se120  1  0.08546145  0.75578548  0.55736640  1
  Se  Se121  1  0.41566779  0.08633977  0.05234125  1
  Se  Se122  1  0.40637486  0.06921415  0.56902668  1
  Se  Se123  1  0.41562475  0.42529718  0.05469975  1
  Se  Se124  1  0.40620141  0.41323309  0.56586920  1
  Se  Se125  1  0.41201926  0.75469150  0.04711670  1
  Se  Se126  1  0.41820648  0.74864118  0.54763603  1
  Se  Se127  1  0.74853719  0.08102301  0.04727427  1
  Se  Se128  1  0.74960312  0.06894263  0.56921404  1
  Se  Se129  1  0.74618387  0.41309476  0.06295141  1
  Se  Se130  1  0.75582746  0.42441905  0.54701703  1
  Se  Se131  1  0.75453726  0.75257994  0.04760676  1
  Se  Se132  1  0.74867413  0.75306052  0.55456081  1
  Se  Se133  1  0.24688373  0.25081722  0.04933654  1
  Se  Se134  1  0.24424209  0.24360119  0.55182039  1
  Se  Se135  1  0.24667132  0.58682636  0.05455746  1
  Se  Se136  1  0.24373334  0.58674273  0.55646088  1
  Se  Se137  1  0.25454252  0.92598966  0.06552202  1
  Se  Se138  1  0.24539975  0.91407308  0.55343466  1
  Se  Se139  1  0.57843314  0.24974550  0.05215563  1
  Se  Se140  1  0.59703800  0.25671196  0.55647474  1
  Se  Se141  1  0.58105807  0.58566022  0.04893686  1
  Se  Se142  1  0.58646796  0.58653044  0.56773639  1
  Se  Se143  1  0.58246967  0.91582267  0.04898435  1
  Se  Se144  1  0.57767152  0.91369267  0.55502039  1
  Se  Se145  1  0.90636167  0.23903407  0.04456203  1
  Se  Se146  1  0.93111681  0.25954199  0.55000053  1
  Se  Se147  1  0.92491975  0.59297748  0.05793546  1
  Se  Se148  1  0.91965856  0.58698415  0.55583032  1
  Se  Se149  1  0.91647824  0.90958156  0.05041368  1
  Se  Se150  1  0.91336311  0.91205421  0.56249338  1
  Se  Se151  1  0.07950987  0.23517722  0.44587688  1
  Se  Se152  1  0.09540426  0.23246181  0.94623684  1
  Se  Se153  1  0.08450717  0.58630224  0.44771554  1
  Se  Se154  1  0.08899860  0.58693543  0.93894413  1
  Se  Se155  1  0.08118506  0.91369477  0.45211430  1
  Se  Se156  1  0.07532329  0.91639730  0.93741423  1
  Se  Se157  1  0.40922449  0.25142497  0.44612897  1
  Se  Se158  1  0.41497842  0.24849713  0.95389051  1
  Se  Se159  1  0.40488994  0.58663640  0.43753566  1
  Se  Se160  1  0.41633829  0.58392063  0.94557885  1
  Se  Se161  1  0.42145663  0.91382198  0.44974728  1
  Se  Se162  1  0.41303778  0.90992606  0.94620515  1
  Se  Se163  1  0.74937020  0.24673491  0.43713042  1
  Se  Se164  1  0.74588910  0.25551414  0.94611423  1
  Se  Se165  1  0.74711215  0.58216844  0.45302887  1
  Se  Se166  1  0.74278945  0.59496321  0.93656581  1
  Se  Se167  1  0.75337114  0.91124971  0.45164620  1
  Se  Se168  1  0.74979394  0.91836800  0.93851205  1
  Se  Se169  1  0.25120188  0.08238551  0.45071020  1
  Se  Se170  1  0.24516881  0.07597208  0.94900060  1
  Se  Se171  1  0.24331395  0.42126641  0.45355823  1
  Se  Se172  1  0.24948765  0.42013853  0.94982245  1
  Se  Se173  1  0.24751995  0.75337114  0.44503787  1
  Se  Se174  1  0.24528315  0.73966566  0.93369255  1
  Se  Se175  1  0.59225231  0.07414831  0.44276952  1
  Se  Se176  1  0.57584746  0.08443800  0.94633718  1
  Se  Se177  1  0.58557287  0.41069171  0.43934972  1
  Se  Se178  1  0.58155566  0.42388888  0.95277035  1
  Se  Se179  1  0.57823551  0.74610703  0.45069325  1
  Se  Se180  1  0.58053016  0.75660961  0.94476785  1
  Se  Se181  1  0.92578959  0.07914403  0.44042289  1
  Se  Se182  1  0.91414762  0.08282338  0.93952180  1
  Se  Se183  1  0.90878254  0.43091379  0.44466393  1
  Se  Se184  1  0.92485024  0.41331369  0.94271851  1
  Se  Se185  1  0.91628658  0.75256205  0.44988264  1
  Se  Se186  1  0.92618757  0.75634450  0.94286291  1
  Se  Se187  1  0.23743695  0.25424517  0.31692516  1
  Se  Se188  1  0.24119596  0.24328783  0.80828860  1
  Se  Se189  1  0.24815314  0.58478031  0.30337335  1
  Se  Se190  1  0.25727755  0.57625953  0.79378081  1
  Se  Se191  1  0.24754700  0.91322802  0.31574300  1
  Se  Se192  1  0.23453784  0.90396684  0.80567473  1
  Se  Se193  1  0.57953855  0.25609230  0.30149565  1
  Se  Se194  1  0.58353360  0.24658985  0.81941681  1
  Se  Se195  1  0.57519195  0.57573257  0.30210572  1
  Se  Se196  1  0.58271866  0.57816003  0.81296420  1
  Se  Se197  1  0.57950281  0.90845922  0.31121522  1
  Se  Se198  1  0.58115758  0.91879776  0.80167050  1
  Se  Se199  1  0.92758960  0.25111336  0.29464719  1
  Se  Se200  1  0.92038727  0.25297572  0.80317209  1
  Se  Se201  1  0.91747743  0.58958339  0.30585143  1
  Se  Se202  1  0.92189737  0.58077846  0.80721704  1
  Se  Se203  1  0.92469288  0.91743470  0.30511016  1
  Se  Se204  1  0.92985651  0.92653780  0.79823122  1
  Se  Se205  1  0.08799209  0.06648011  0.29975214  1
  Se  Se206  1  0.07913092  0.08115518  0.80180891  1
  Se  Se207  1  0.08312113  0.41991867  0.30854358  1
  Se  Se208  1  0.08867663  0.40774261  0.80326452  1
  Se  Se209  1  0.08139609  0.74845509  0.30832042  1
  Se  Se210  1  0.07793489  0.73924816  0.78709141  1
  Se  Se211  1  0.42058667  0.09055896  0.29990775  1
  Se  Se212  1  0.41034862  0.08437379  0.81933158  1
  Se  Se213  1  0.41978767  0.43221400  0.30276461  1
  Se  Se214  1  0.41725967  0.41580218  0.81506038  1
  Se  Se215  1  0.41911059  0.74899318  0.30315818  1
  Se  Se216  1  0.41312000  0.74801897  0.80270105  1
  Se  Se217  1  0.76899950  0.09029912  0.30873310  1
  Se  Se218  1  0.74993352  0.08347730  0.80271177  1
  Se  Se219  1  0.75762088  0.41547834  0.31534992  1
  Se  Se220  1  0.76642883  0.42437994  0.80545150  1
  Se  Se221  1  0.76097231  0.75509057  0.31265710  1
  Se  Se222  1  0.76118703  0.76074374  0.80713217  1
  Se  Se223  1  0.23454622  0.10131784  0.19666038  1
  Se  Se224  1  0.23997895  0.08441839  0.68838389  1
  Se  Se225  1  0.23114839  0.41999093  0.18317917  1
  Se  Se226  1  0.23322644  0.42132736  0.68805177  1
  Se  Se227  1  0.25341085  0.75142592  0.20347277  1
  Se  Se228  1  0.26366525  0.73949659  0.69699564  1
  Se  Se229  1  0.58404870  0.08724893  0.19214452  1
  Se  Se230  1  0.58457742  0.08239401  0.70791172  1
  Se  Se231  1  0.57229412  0.43056003  0.19296029  1
  Se  Se232  1  0.57658254  0.41720346  0.69856762  1
  Se  Se233  1  0.58370199  0.75523691  0.18300834  1
  Se  Se234  1  0.57690226  0.75438863  0.69004145  1
  Se  Se235  1  0.92851065  0.07609949  0.18796872  1
  Se  Se236  1  0.91827084  0.08850769  0.69841644  1
  Se  Se237  1  0.91988673  0.41818825  0.19832922  1
  Se  Se238  1  0.92863099  0.41796378  0.69206445  1
  Se  Se239  1  0.92106144  0.74600835  0.19513300  1
  Se  Se240  1  0.91054096  0.75741462  0.70263313  1
  Se  Se241  1  0.07821280  0.25501010  0.18686440  1
  Se  Se242  1  0.08199237  0.25080556  0.69184225  1
  Se  Se243  1  0.08212536  0.59013553  0.19931386  1
  Se  Se244  1  0.07125762  0.60528546  0.70115084  1
  Se  Se245  1  0.08679636  0.91139618  0.19775301  1
  Se  Se246  1  0.07488288  0.92276361  0.70127165  1
  Se  Se247  1  0.41277546  0.25156983  0.18666079  1
  Se  Se248  1  0.42694999  0.23639202  0.70092889  1
  Se  Se249  1  0.41157437  0.59231531  0.19252465  1
  Se  Se250  1  0.41827828  0.58273565  0.70340014  1
  Se  Se251  1  0.42723722  0.91208978  0.18884044  1
  Se  Se252  1  0.41589446  0.90659572  0.68801211  1
  Se  Se253  1  0.76337509  0.23899190  0.18466483  1
  Se  Se254  1  0.76549427  0.24788432  0.68236518  1
  Se  Se255  1  0.76227137  0.57400725  0.19292150  1
  Se  Se256  1  0.75983736  0.57977931  0.68692997  1
  Se  Se257  1  0.76408830  0.91130577  0.18928586  1
  Se  Se258  1  0.73169001  0.92782325  0.70084906  1
