# generated using pymatgen
data_In86Cu29Se144
_symmetry_space_group_name_H-M   'P 1'
_cell_length_a   17.58764855
_cell_length_b   17.58752025
_cell_length_c   23.44789718
_cell_angle_alpha   89.99098180
_cell_angle_beta   90.01559186
_cell_angle_gamma   89.99185230
_symmetry_Int_Tables_number   1
_chemical_formula_structural   In86Cu29Se144
_chemical_formula_sum   'In86 Cu29 Se144'
_cell_volume   7252.97639660
_cell_formula_units_Z   1
loop_
 _symmetry_equiv_pos_site_id
 _symmetry_equiv_pos_as_xyz
  1  'x, y, z'
loop_
 _atom_site_type_symbol
 _atom_site_label
 _atom_site_symmetry_multiplicity
 _atom_site_fract_x
 _atom_site_fract_y
 _atom_site_fract_z
 _atom_site_occupancy
  In  In0  1  0.01527869  0.15638044  0.12628875  1
  In  In1  1  -0.00190494  0.15676876  0.61101573  1
  In  In2  1  0.01049693  0.51090139  0.14563790  1
  In  In3  1  0.01304680  0.49744592  0.62228287  1
  In  In4  1  -0.00490953  0.82791703  0.12029712  1
  In  In5  1  0.01095284  0.82079552  0.63176824  1
  In  In6  1  0.33316046  0.16501123  0.12956269  1
  In  In7  1  0.33063549  0.17745213  0.62665841  1
  In  In8  1  0.31885006  0.50760684  0.14067968  1
  In  In9  1  0.32627328  0.50575079  0.62633046  1
  In  In10  1  0.33546212  0.84253626  0.12475094  1
  In  In11  1  0.33270598  0.82667912  0.61893369  1
  In  In12  1  0.64735254  0.16440361  0.12273708  1
  In  In13  1  0.66717058  0.15502577  0.61815323  1
  In  In14  1  0.66798108  0.51146776  0.12528131  1
  In  In15  1  0.67390888  0.51391244  0.62049521  1
  In  In16  1  0.65969904  0.83259701  0.13090766  1
  In  In17  1  0.65656490  0.82884582  0.61791045  1
  In  In18  1  0.16660914  -0.01073936  0.39085918  1
  In  In19  1  0.16846150  -0.00138164  0.87644186  1
  In  In20  1  0.16513748  0.32931073  0.37403419  1
  In  In21  1  0.17141415  0.32307966  0.87751436  1
  In  In22  1  0.16988392  0.67251311  0.37223240  1
  In  In23  1  0.17659901  0.68163959  0.86759619  1
  In  In24  1  0.49112780  -0.02523453  0.35050708  1
  In  In25  1  0.50079472  -0.00720792  0.88440840  1
  In  In26  1  0.49678494  0.34423254  0.37496178  1
  In  In27  1  0.47929036  0.33673647  0.87690794  1
  In  In28  1  0.49466013  0.67564459  0.35919727  1
  In  In29  1  0.49785073  0.67601175  0.86952945  1
  In  In30  1  0.83920859  0.00863533  0.37015267  1
  In  In31  1  0.82879742  -0.01434736  0.87587052  1
  In  In32  1  0.84038835  0.31115405  0.38180895  1
  In  In33  1  0.83941340  0.34167130  0.87387458  1
  In  In34  1  0.83404054  0.67248493  0.36272032  1
  In  In35  1  0.84252588  0.68016345  0.87028277  1
  In  In36  1  -0.01003658  0.16271199  0.38189406  1
  In  In37  1  0.02192764  0.16769257  0.87685929  1
  In  In38  1  0.02642044  0.51494841  0.36123209  1
  In  In39  1  -0.01231660  0.50700980  0.87723280  1
  In  In40  1  0.01036918  0.84523312  0.37455743  1
  In  In41  1  0.00034869  0.83389212  0.87518601  1
  In  In42  1  0.32548130  0.15400396  0.37168006  1
  In  In43  1  0.32490313  0.17120642  0.87972249  1
  In  In44  1  0.31226924  0.49279141  0.35354676  1
  In  In45  1  0.33254298  0.50237461  0.86852911  1
  In  In46  1  0.33233174  0.83241578  0.37006334  1
  In  In47  1  0.34043649  0.81733334  0.89559974  1
  In  In48  1  0.68075903  0.15979281  0.38068732  1
  In  In49  1  0.66382441  0.14623532  0.87732471  1
  In  In50  1  0.65907933  0.50210511  0.37478213  1
  In  In51  1  0.64981335  0.51976273  0.87846296  1
  In  In52  1  0.65435650  0.81773234  0.35843580  1
  In  In53  1  0.67018658  0.83295000  0.88101450  1
  In  In54  1  0.17737109  0.01153270  0.11873711  1
  In  In55  1  0.15539183  -0.01786824  0.60833719  1
  In  In56  1  0.17808537  0.32399505  0.13921171  1
  In  In57  1  0.16738760  0.33788127  0.61502368  1
  In  In58  1  0.16312562  0.67313792  0.12920650  1
  In  In59  1  0.16981317  0.66568735  0.62155390  1
  In  In60  1  0.49381001  -0.00560004  0.13379076  1
  In  In61  1  0.51056877  -0.00995785  0.62143463  1
  In  In62  1  0.49554984  0.31862101  0.12372817  1
  In  In63  1  0.49045648  0.32540534  0.62816569  1
  In  In64  1  0.47409776  0.70939893  0.15600127  1
  In  In65  1  0.49065018  0.67694005  0.63340906  1
  In  In66  1  0.83046611  -0.03457209  0.13449660  1
  In  In67  1  0.83395333  0.01319002  0.61850768  1
  In  In68  1  0.84085159  0.34663409  0.13081432  1
  In  In69  1  0.84674392  0.33307179  0.61900998  1
  In  In70  1  0.81552911  0.69223630  0.15060934  1
  In  In71  1  0.82810848  0.67558444  0.63083203  1
  In  In72  1  0.83016627  0.15530724  0.00198079  1
  In  In73  1  0.83824714  0.84354371  0.48939942  1
  In  In74  1  0.32990143  -0.00508916  0.74571512  1
  In  In75  1  0.84042669  0.49393626  0.49943672  1
  In  In76  1  0.00883075  0.34084480  0.74566134  1
  In  In77  1  0.49593689  0.50315475  0.00420889  1
  In  In78  1  0.66667950  -0.00838546  0.75336614  1
  In  In79  1  -0.00081547  -0.00331040  0.25332961  1
  In  In80  1  0.65982198  0.33705541  0.74759890  1
  In  In81  1  0.16626228  0.50620680  0.01232878  1
  In  In82  1  0.50188294  0.15980090  0.49944451  1
  In  In83  1  0.83542666  0.50842980  0.01118251  1
  In  In84  1  0.66587131  0.32920451  0.25447948  1
  In  In85  1  0.49356314  0.50843653  0.48679154  1
  Cu  Cu86  1  0.00849378  0.66349920  0.49859597  1
  Cu  Cu87  1  0.84365109  0.17177575  0.74090420  1
  Cu  Cu88  1  0.49436964  0.50611345  0.75119908  1
  Cu  Cu89  1  0.65794945  -0.00342054  0.00789012  1
  Cu  Cu90  1  0.83466053  0.16784421  0.24819999  1
  Cu  Cu91  1  0.16602356  0.83313650  0.74763939  1
  Cu  Cu92  1  0.33467828  0.00309230  0.00373802  1
  Cu  Cu93  1  0.17105483  0.16614140  0.75094761  1
  Cu  Cu94  1  0.49281384  0.16693905  0.25070677  1
  Cu  Cu95  1  0.66135173  -0.00433408  0.49166149  1
  Cu  Cu96  1  0.16868881  0.83852982  0.25096651  1
  Cu  Cu97  1  0.00424080  -0.00460611  0.00189168  1
  Cu  Cu98  1  0.84454280  0.49148591  0.25734872  1
  Cu  Cu99  1  0.16784184  0.50272270  0.74478854  1
  Cu  Cu100  1  0.00847067  0.32777966  0.01067404  1
  Cu  Cu101  1  0.32975201  0.32960865  0.00673700  1
  Cu  Cu102  1  0.83710380  0.83890753  0.74967498  1
  Cu  Cu103  1  0.00308144  0.33214906  0.49355841  1
  Cu  Cu104  1  0.33039337  0.33769210  0.49571627  1
  Cu  Cu105  1  0.33267916  0.66682666  0.49726895  1
  Cu  Cu106  1  0.66334631  0.32310502  -0.00145117  1
  Cu  Cu107  1  0.49387253  0.16884107  0.75433521  1
  Cu  Cu108  1  0.66667917  0.67649535  0.00672882  1
  Cu  Cu109  1  0.66135338  0.67044360  0.48977323  1
  Cu  Cu110  1  0.33990461  -0.00646300  0.49257865  1
  Cu  Cu111  1  0.50007149  0.49933071  0.25010499  1
  Cu  Cu112  1  0.16826941  0.16636866  0.25193348  1
  Cu  Cu113  1  0.82509791  0.51339885  0.75248098  1
  Cu  Cu114  1  -0.00213307  0.67065355  0.00284419  1
  Se  Se115  1  0.08733317  0.08481343  0.04735714  1
  Se  Se116  1  0.10691205  0.09929955  0.55295025  1
  Se  Se117  1  0.07977087  0.41234237  0.07156269  1
  Se  Se118  1  0.08331293  0.41943834  0.54577150  1
  Se  Se119  1  0.08610696  0.75125413  0.05381727  1
  Se  Se120  1  0.08690242  0.75051712  0.55268470  1
  Se  Se121  1  0.41745341  0.08193218  0.06187724  1
  Se  Se122  1  0.40919700  0.07311290  0.56228796  1
  Se  Se123  1  0.40471476  0.41546311  0.06641999  1
  Se  Se124  1  0.41401678  0.41456211  0.55440499  1
  Se  Se125  1  0.42701367  0.76072582  0.06092297  1
  Se  Se126  1  0.41982056  0.74524671  0.55059892  1
  Se  Se127  1  0.74436448  0.07138583  0.06800861  1
  Se  Se128  1  0.74505890  0.07905969  0.54420398  1
  Se  Se129  1  0.73885981  0.40672344  0.05774631  1
  Se  Se130  1  0.74352740  0.40917294  0.55855103  1
  Se  Se131  1  0.75336413  0.75437170  0.06241636  1
  Se  Se132  1  0.74907363  0.74610339  0.54800996  1
  Se  Se133  1  0.24662973  0.24635046  0.05978723  1
  Se  Se134  1  0.25296331  0.25099883  0.55022839  1
  Se  Se135  1  0.26416943  0.59747331  0.06031454  1
  Se  Se136  1  0.25138479  0.58215730  0.55037580  1
  Se  Se137  1  0.24901555  0.91751675  0.05246158  1
  Se  Se138  1  0.25581547  0.91028113  0.54771966  1
  Se  Se139  1  0.57431460  0.24427727  0.04769098  1
  Se  Se140  1  0.58741125  0.25636329  0.55936572  1
  Se  Se141  1  0.58211706  0.59692977  0.06223301  1
  Se  Se142  1  0.58274047  0.59291625  0.55253288  1
  Se  Se143  1  0.57640694  0.91352547  0.06151532  1
  Se  Se144  1  0.58068978  0.91084786  0.54498958  1
  Se  Se145  1  0.91731684  0.25015593  0.06307372  1
  Se  Se146  1  0.91784589  0.24991907  0.54694046  1
  Se  Se147  1  0.92835957  0.59131337  0.07063577  1
  Se  Se148  1  0.92073038  0.59301551  0.56017712  1
  Se  Se149  1  0.91534051  0.91653635  0.05246773  1
  Se  Se150  1  0.92052063  0.91345451  0.56523392  1
  Se  Se151  1  0.08368121  0.24470664  0.44319742  1
  Se  Se152  1  0.09034313  0.25019113  0.95277306  1
  Se  Se153  1  0.09367926  0.58410531  0.44450941  1
  Se  Se154  1  0.07670346  0.58719947  0.94427337  1
  Se  Se155  1  0.06700159  0.92392207  0.45556862  1
  Se  Se156  1  0.08539409  0.91461751  0.94410315  1
  Se  Se157  1  0.41294068  0.25374943  0.44010603  1
  Se  Se158  1  0.41286341  0.24933300  0.94988772  1
  Se  Se159  1  0.40047700  0.59055755  0.42532370  1
  Se  Se160  1  0.40965336  0.58860383  0.93998268  1
  Se  Se161  1  0.42281117  0.91386050  0.43763902  1
  Se  Se162  1  0.41814042  0.91504981  0.95460974  1
  Se  Se163  1  0.74479695  0.25104546  0.45086787  1
  Se  Se164  1  0.74798638  0.25239667  0.93649844  1
  Se  Se165  1  0.75039281  0.58846076  0.43997738  1
  Se  Se166  1  0.74638699  0.59391247  0.94498090  1
  Se  Se167  1  0.73800637  0.91668261  0.42798067  1
  Se  Se168  1  0.74613963  0.91987061  0.95190343  1
  Se  Se169  1  0.25261370  0.08206451  0.45078212  1
  Se  Se170  1  0.24991896  0.08158695  0.94650477  1
  Se  Se171  1  0.25138278  0.41912653  0.43817596  1
  Se  Se172  1  0.25453413  0.41526504  0.94603363  1
  Se  Se173  1  0.25156175  0.75377762  0.44307305  1
  Se  Se174  1  0.23648217  0.74793136  0.95367302  1
  Se  Se175  1  0.57649489  0.06993043  0.43037858  1
  Se  Se176  1  0.57917068  0.08206376  0.95236658  1
  Se  Se177  1  0.59407117  0.40727141  0.44755926  1
  Se  Se178  1  0.58620251  0.41014639  0.94087149  1
  Se  Se179  1  0.57543638  0.74857243  0.43628475  1
  Se  Se180  1  0.58269998  0.74778266  0.94399283  1
  Se  Se181  1  0.91514340  0.07258932  0.44953334  1
  Se  Se182  1  0.92597659  0.07708604  0.93775217  1
  Se  Se183  1  0.92867035  0.41648450  0.43155778  1
  Se  Se184  1  0.92607740  0.40838814  0.95282967  1
  Se  Se185  1  0.92548448  0.74091150  0.43823821  1
  Se  Se186  1  0.91568608  0.75444938  0.94783143  1
  Se  Se187  1  0.25336867  0.24815785  0.30540275  1
  Se  Se188  1  0.25340993  0.25204215  0.80226143  1
  Se  Se189  1  0.24009114  0.59242993  0.29304197  1
  Se  Se190  1  0.24790712  0.58505960  0.80239723  1
  Se  Se191  1  0.24344069  0.92357238  0.30985662  1
  Se  Se192  1  0.24952165  0.90492889  0.81068627  1
  Se  Se193  1  0.57601498  0.23985901  0.31496192  1
  Se  Se194  1  0.57991840  0.24390736  0.81443264  1
  Se  Se195  1  0.58426406  0.58199646  0.30252693  1
  Se  Se196  1  0.58006580  0.59111490  0.79941227  1
  Se  Se197  1  0.60638281  0.92665628  0.29232361  1
  Se  Se198  1  0.57159916  0.90526121  0.80905648  1
  Se  Se199  1  0.92007233  0.24455115  0.30366982  1
  Se  Se200  1  0.91802545  0.24852711  0.80727497  1
  Se  Se201  1  0.92296431  0.58625409  0.30256059  1
  Se  Se202  1  0.91794586  0.58881530  0.80254583  1
  Se  Se203  1  0.90409889  0.90291163  0.30466793  1
  Se  Se204  1  0.91906050  0.92066590  0.80451050  1
  Se  Se205  1  0.08869484  0.08465172  0.31381493  1
  Se  Se206  1  0.08819188  0.08164190  0.80312433  1
  Se  Se207  1  0.07975077  0.40409810  0.30276773  1
  Se  Se208  1  0.09206696  0.42705575  0.81470770  1
  Se  Se209  1  0.08356867  0.75772668  0.30521408  1
  Se  Se210  1  0.08015637  0.75154193  0.80214471  1
  Se  Se211  1  0.41107574  0.07952382  0.30039098  1
  Se  Se212  1  0.41884648  0.08212939  0.81271998  1
  Se  Se213  1  0.41659069  0.41348541  0.29998312  1
  Se  Se214  1  0.41298512  0.41670134  0.79975900  1
  Se  Se215  1  0.42463024  0.77267561  0.29294273  1
  Se  Se216  1  0.40219282  0.75369086  0.80879970  1
  Se  Se217  1  0.75101919  0.08564271  0.30121107  1
  Se  Se218  1  0.76258186  0.09139229  0.80263771  1
  Se  Se219  1  0.75839013  0.41593959  0.31573709  1
  Se  Se220  1  0.74802625  0.42846087  0.81177285  1
  Se  Se221  1  0.74335960  0.73794490  0.29309348  1
  Se  Se222  1  0.75168281  0.75924233  0.80554445  1
  Se  Se223  1  0.25065291  0.08061337  0.19941786  1
  Se  Se224  1  0.24164994  0.08402555  0.68577574  1
  Se  Se225  1  0.25072464  0.41335732  0.20611987  1
  Se  Se226  1  0.24486000  0.41485927  0.69071351  1
  Se  Se227  1  0.24901383  0.75935113  0.19286583  1
  Se  Se228  1  0.24910100  0.75205229  0.69155280  1
  Se  Se229  1  0.57884791  0.08522348  0.19880568  1
  Se  Se230  1  0.57514852  0.09002787  0.69544330  1
  Se  Se231  1  0.57951597  0.41791423  0.18897878  1
  Se  Se232  1  0.57390303  0.43017048  0.68573222  1
  Se  Se233  1  0.60930077  0.72319965  0.19634502  1
  Se  Se234  1  0.59359257  0.74548719  0.69302749  1
  Se  Se235  1  0.90688317  0.08229554  0.18577337  1
  Se  Se236  1  0.92219166  0.08398849  0.68997900  1
  Se  Se237  1  0.92868707  0.41182190  0.20303887  1
  Se  Se238  1  0.90679338  0.43160696  0.69334223  1
  Se  Se239  1  0.93724014  0.74154510  0.19841902  1
  Se  Se240  1  0.91733281  0.74916983  0.69903711  1
  Se  Se241  1  0.07942642  0.24460078  0.19958846  1
  Se  Se242  1  0.08926187  0.24368077  0.68706485  1
  Se  Se243  1  0.11605131  0.57446980  0.20598305  1
  Se  Se244  1  0.08324752  0.58525399  0.69289536  1
  Se  Se245  1  0.09003403  0.91784499  0.18631142  1
  Se  Se246  1  0.08618763  0.91992170  0.69437506  1
  Se  Se247  1  0.41183569  0.25400577  0.19969153  1
  Se  Se248  1  0.41087402  0.25226981  0.70236468  1
  Se  Se249  1  0.41716078  0.58524705  0.20022007  1
  Se  Se250  1  0.40992884  0.58552281  0.69557363  1
  Se  Se251  1  0.42359061  0.90326796  0.20465087  1
  Se  Se252  1  0.42562658  0.90725476  0.68980406  1
  Se  Se253  1  0.75308576  0.24482825  0.18632461  1
  Se  Se254  1  0.75345577  0.24661735  0.68743454  1
  Se  Se255  1  0.76330655  0.56747804  0.19661476  1
  Se  Se256  1  0.74160788  0.59308675  0.69746510  1
  Se  Se257  1  0.72865984  0.92394928  0.20504668  1
  Se  Se258  1  0.75613521  0.91258365  0.68468015  1
