# generated using pymatgen
data_In86Cu29Se144
_symmetry_space_group_name_H-M   'P 1'
_cell_length_a   17.57544247
_cell_length_b   17.58182268
_cell_length_c   23.44246069
_cell_angle_alpha   89.98175434
_cell_angle_beta   90.00049292
_cell_angle_gamma   90.00093945
_symmetry_Int_Tables_number   1
_chemical_formula_structural   In86Cu29Se144
_chemical_formula_sum   'In86 Cu29 Se144'
_cell_volume   7243.91486092
_cell_formula_units_Z   1
loop_
 _symmetry_equiv_pos_site_id
 _symmetry_equiv_pos_as_xyz
  1  'x, y, z'
loop_
 _atom_site_type_symbol
 _atom_site_label
 _atom_site_symmetry_multiplicity
 _atom_site_fract_x
 _atom_site_fract_y
 _atom_site_fract_z
 _atom_site_occupancy
  In  In0  1  -0.00130771  0.16521137  0.12604011  1
  In  In1  1  0.00016092  0.16686984  0.62436769  1
  In  In2  1  -0.00263857  0.49471605  0.12811887  1
  In  In3  1  -0.02044446  0.49760739  0.62172440  1
  In  In4  1  -0.00295873  0.83474371  0.13569931  1
  In  In5  1  0.00415232  0.84970327  0.62488092  1
  In  In6  1  0.32655712  0.18106491  0.13152431  1
  In  In7  1  0.32613923  0.15119670  0.61958532  1
  In  In8  1  0.31393496  0.51607611  0.13317609  1
  In  In9  1  0.32719625  0.50224306  0.62469900  1
  In  In10  1  0.31254701  0.82434218  0.12111130  1
  In  In11  1  0.35022783  0.84745025  0.62595469  1
  In  In12  1  0.67255451  0.15356421  0.12615966  1
  In  In13  1  0.66076117  0.16615883  0.61106674  1
  In  In14  1  0.69113381  0.49609688  0.12269403  1
  In  In15  1  0.68547387  0.49381795  0.62601248  1
  In  In16  1  0.69842460  0.83565345  0.13080818  1
  In  In17  1  0.67390875  0.82374979  0.63692474  1
  In  In18  1  0.16046875  0.00956354  0.37630410  1
  In  In19  1  0.16395867  0.00483090  0.87922625  1
  In  In20  1  0.15746856  0.32077792  0.36469135  1
  In  In21  1  0.15506702  0.34384453  0.88545378  1
  In  In22  1  0.14942748  0.66420571  0.35193479  1
  In  In23  1  0.16709708  0.67190408  0.89671864  1
  In  In24  1  0.51207894  0.00061954  0.37472615  1
  In  In25  1  0.50185132  -0.00411451  0.85794309  1
  In  In26  1  0.48782841  0.32555812  0.37383545  1
  In  In27  1  0.49779449  0.33948654  0.87266117  1
  In  In28  1  0.49584809  0.67385869  0.36929079  1
  In  In29  1  0.50872762  0.66303722  0.87391116  1
  In  In30  1  0.83761203  0.00348501  0.37260288  1
  In  In31  1  0.84097212  -0.00333668  0.87379190  1
  In  In32  1  0.84125478  0.32839992  0.37941647  1
  In  In33  1  0.84153009  0.31189453  0.89000425  1
  In  In34  1  0.83876415  0.66566611  0.37650092  1
  In  In35  1  0.82784537  0.67419322  0.88496975  1
  In  In36  1  -0.00040928  0.16801110  0.37439511  1
  In  In37  1  -0.00104936  0.16426113  0.87599285  1
  In  In38  1  -0.01421716  0.49196005  0.35469804  1
  In  In39  1  0.00470918  0.49095018  0.88365126  1
  In  In40  1  -0.02324805  0.81835935  0.34466005  1
  In  In41  1  -0.00277888  0.83729442  0.88362193  1
  In  In42  1  0.31892534  0.16750934  0.38038323  1
  In  In43  1  0.33828279  0.15727650  0.87703738  1
  In  In44  1  0.32708655  0.49284882  0.36188757  1
  In  In45  1  0.32676258  0.50197983  0.88422961  1
  In  In46  1  0.33392895  0.82474925  0.36711797  1
  In  In47  1  0.32073272  0.83488299  0.88295284  1
  In  In48  1  0.68694229  0.15964699  0.39423956  1
  In  In49  1  0.68388296  0.15636380  0.87464313  1
  In  In50  1  0.67981280  0.50412725  0.37817309  1
  In  In51  1  0.66464091  0.50571643  0.87616438  1
  In  In52  1  0.66633772  0.85108853  0.36940101  1
  In  In53  1  0.67932369  0.84673984  0.86218945  1
  In  In54  1  0.13726887  -0.02188856  0.11352510  1
  In  In55  1  0.15308420  0.01207813  0.63463827  1
  In  In56  1  0.16146808  0.33350008  0.12408982  1
  In  In57  1  0.16881391  0.31373256  0.62653787  1
  In  In58  1  0.16616139  0.66526137  0.12521427  1
  In  In59  1  0.16900938  0.66300373  0.62641505  1
  In  In60  1  0.50818974  0.00640015  0.12637008  1
  In  In61  1  0.49589893  0.00229494  0.63555883  1
  In  In62  1  0.49834831  0.32322082  0.13161749  1
  In  In63  1  0.52130080  0.32233361  0.62039597  1
  In  In64  1  0.49456838  0.65682370  0.12646833  1
  In  In65  1  0.51125420  0.68961606  0.62352283  1
  In  In66  1  0.83409647  -0.00200029  0.13040863  1
  In  In67  1  0.83651629  -0.00019865  0.62351651  1
  In  In68  1  0.85104795  0.34685398  0.11287395  1
  In  In69  1  0.83651623  0.34115598  0.61579462  1
  In  In70  1  0.84339823  0.67108761  0.12573457  1
  In  In71  1  0.82511686  0.66123146  0.62072435  1
  In  In72  1  0.67249767  0.32728801  0.25524316  1
  In  In73  1  0.50163403  0.83435443  -0.00176279  1
  In  In74  1  0.50447248  0.49561176  0.50241473  1
  In  In75  1  0.67549384  0.32829167  0.75092075  1
  In  In76  1  0.49819918  0.49931033  -0.00199084  1
  In  In77  1  0.15028332  0.48598752  0.47664473  1
  In  In78  1  0.50449485  0.16755471  -0.00399377  1
  In  In79  1  0.50527521  0.83963340  0.49992592  1
  In  In80  1  0.66316120  0.66792911  0.24502156  1
  In  In81  1  0.33144927  0.32954069  0.75552453  1
  In  In82  1  0.33315175  0.67645759  0.76199703  1
  In  In83  1  0.15998588  0.84130981  0.49321229  1
  In  In84  1  -0.00456339  0.67238785  0.76209337  1
  In  In85  1  0.32325098  -0.00164620  0.24517748  1
  Cu  Cu86  1  0.83484595  0.49465710  0.75040627  1
  Cu  Cu87  1  0.33305848  0.00207562  0.50313743  1
  Cu  Cu88  1  0.49734672  0.49227491  0.24718257  1
  Cu  Cu89  1  0.50331434  0.51564444  0.74622538  1
  Cu  Cu90  1  0.15121616  0.49719796  0.75746679  1
  Cu  Cu91  1  0.84093429  0.16188692  0.74960697  1
  Cu  Cu92  1  0.15947300  0.16467088  0.75210265  1
  Cu  Cu93  1  0.50174353  0.16732056  0.74330576  1
  Cu  Cu94  1  0.67816221  0.67033824  0.50038419  1
  Cu  Cu95  1  0.84025949  0.83315155  0.75252376  1
  Cu  Cu96  1  0.16439968  0.16554980  0.24643332  1
  Cu  Cu97  1  0.16950512  0.49716111  0.24262391  1
  Cu  Cu98  1  0.32724089  0.34280324  0.00815710  1
  Cu  Cu99  1  0.00457908  0.33205100  0.49446019  1
  Cu  Cu100  1  0.83605764  0.16677200  0.25342739  1
  Cu  Cu101  1  -0.00434087  0.00256047  0.00098533  1
  Cu  Cu102  1  0.17308463  0.84461746  0.75462811  1
  Cu  Cu103  1  -0.01092954  0.67625318  0.49486758  1
  Cu  Cu104  1  -0.00100204  0.32816768  0.00374689  1
  Cu  Cu105  1  0.50005019  0.16278764  0.25466692  1
  Cu  Cu106  1  -0.00470311  0.00327228  0.49680743  1
  Cu  Cu107  1  0.33756437  0.31649267  0.50133445  1
  Cu  Cu108  1  0.32789396  0.00424439  0.00212863  1
  Cu  Cu109  1  0.67368617  -0.00014462  0.50065471  1
  Cu  Cu110  1  0.49141967  0.83080542  0.24571505  1
  Cu  Cu111  1  0.67741544  -0.00653773  -0.00144293  1
  Cu  Cu112  1  -0.00083956  0.66466349  0.01039147  1
  Cu  Cu113  1  0.67442667  0.66775712  0.00126336  1
  Cu  Cu114  1  0.32325306  0.65917231  0.49231116  1
  Se  Se115  1  0.08179907  0.08733662  0.05232673  1
  Se  Se116  1  0.08129788  0.08143383  0.55347527  1
  Se  Se117  1  0.08033596  0.41644398  0.05442122  1
  Se  Se118  1  0.08150345  0.41179234  0.56094124  1
  Se  Se119  1  0.07766799  0.75254727  0.06296628  1
  Se  Se120  1  0.07767474  0.74286043  0.55779023  1
  Se  Se121  1  0.41070142  0.08397919  0.06115183  1
  Se  Se122  1  0.42389009  0.07812109  0.55601050  1
  Se  Se123  1  0.41358213  0.41585473  0.06735914  1
  Se  Se124  1  0.40886423  0.40515144  0.56229371  1
  Se  Se125  1  0.41314570  0.74459327  0.05807005  1
  Se  Se126  1  0.40483855  0.74350451  0.55084812  1
  Se  Se127  1  0.75537173  0.07902244  0.05387121  1
  Se  Se128  1  0.75686863  0.08432624  0.55284624  1
  Se  Se129  1  0.74662871  0.40659255  0.04876790  1
  Se  Se130  1  0.74516778  0.41401365  0.54766590  1
  Se  Se131  1  0.75878793  0.75029248  0.05383266  1
  Se  Se132  1  0.75258461  0.75848652  0.55600292  1
  Se  Se133  1  0.24726213  0.25042258  0.05449795  1
  Se  Se134  1  0.24667606  0.23917241  0.55198251  1
  Se  Se135  1  0.24755977  0.58559675  0.05262947  1
  Se  Se136  1  0.24113997  0.57668461  0.54824712  1
  Se  Se137  1  0.24607279  0.91775957  0.05237608  1
  Se  Se138  1  0.25039197  0.92217615  0.56227668  1
  Se  Se139  1  0.59025274  0.25278092  0.06115559  1
  Se  Se140  1  0.58839514  0.25375872  0.54001928  1
  Se  Se141  1  0.59462472  0.58686184  0.05926266  1
  Se  Se142  1  0.59194112  0.59343229  0.55988904  1
  Se  Se143  1  0.59497042  0.91833561  0.06068356  1
  Se  Se144  1  0.59373232  0.92208071  0.56443341  1
  Se  Se145  1  0.91464512  0.24098163  0.05231184  1
  Se  Se146  1  0.92296317  0.25324793  0.55379949  1
  Se  Se147  1  0.91362786  0.57730227  0.05742879  1
  Se  Se148  1  0.91300509  0.58670743  0.54950189  1
  Se  Se149  1  0.92042336  0.91876487  0.06130512  1
  Se  Se150  1  0.91753675  0.91593612  0.55160330  1
  Se  Se151  1  0.08865981  0.24679272  0.44499534  1
  Se  Se152  1  0.08131186  0.24643539  0.94755949  1
  Se  Se153  1  0.06854479  0.59605343  0.43343824  1
  Se  Se154  1  0.07873561  0.58161268  0.95276032  1
  Se  Se155  1  0.06420207  0.91903121  0.43196965  1
  Se  Se156  1  0.08322045  0.92027318  0.94898167  1
  Se  Se157  1  0.41943170  0.23605396  0.44571724  1
  Se  Se158  1  0.40691594  0.26517467  0.94492686  1
  Se  Se159  1  0.41214252  0.58266810  0.43758576  1
  Se  Se160  1  0.41040524  0.59942270  0.94529996  1
  Se  Se161  1  0.40693679  0.92120006  0.43851341  1
  Se  Se162  1  0.41644048  0.93334203  0.94198835  1
  Se  Se163  1  0.74910745  0.26656839  0.45143713  1
  Se  Se164  1  0.73764294  0.24547678  0.95026923  1
  Se  Se165  1  0.75925545  0.58371058  0.44904876  1
  Se  Se166  1  0.75138983  0.57819268  0.94798518  1
  Se  Se167  1  0.75252244  0.91906444  0.44219932  1
  Se  Se168  1  0.75768946  0.91000570  0.94287703  1
  Se  Se169  1  0.24423098  0.08016904  0.45100436  1
  Se  Se170  1  0.24840775  0.08993271  0.94818018  1
  Se  Se171  1  0.26140423  0.39911080  0.43751580  1
  Se  Se172  1  0.24357983  0.42371967  0.95286773  1
  Se  Se173  1  0.24379191  0.74041958  0.43378113  1
  Se  Se174  1  0.25307251  0.75575783  0.95862240  1
  Se  Se175  1  0.58420741  0.07989909  0.44932807  1
  Se  Se176  1  0.58808552  0.06682229  0.93972575  1
  Se  Se177  1  0.58633536  0.41171447  0.43420160  1
  Se  Se178  1  0.59095048  0.40539602  0.94383727  1
  Se  Se179  1  0.59262458  0.74453172  0.43893016  1
  Se  Se180  1  0.59738021  0.74842995  0.94015810  1
  Se  Se181  1  0.91343744  0.08987179  0.44468284  1
  Se  Se182  1  0.91361988  0.08420067  0.94565005  1
  Se  Se183  1  0.92690391  0.42091813  0.44142515  1
  Se  Se184  1  0.91470264  0.41294360  0.95044587  1
  Se  Se185  1  0.91577822  0.76378695  0.43793027  1
  Se  Se186  1  0.92141887  0.74724569  0.95038853  1
  Se  Se187  1  0.25222996  0.24453063  0.30011782  1
  Se  Se188  1  0.23958355  0.24363538  0.81541660  1
  Se  Se189  1  0.25073498  0.58376755  0.29695667  1
  Se  Se190  1  0.23592299  0.58023393  0.81295880  1
  Se  Se191  1  0.23885923  0.91129887  0.31003207  1
  Se  Se192  1  0.25450669  0.92453799  0.81084076  1
  Se  Se193  1  0.58445150  0.23726972  0.31604936  1
  Se  Se194  1  0.57770059  0.24248329  0.81050277  1
  Se  Se195  1  0.57696400  0.57244195  0.30851614  1
  Se  Se196  1  0.59222791  0.58896029  0.80134850  1
  Se  Se197  1  0.57373355  0.91483101  0.29790733  1
  Se  Se198  1  0.59277005  0.92127703  0.79424249  1
  Se  Se199  1  0.91905559  0.25315002  0.30428409  1
  Se  Se200  1  0.91479129  0.24896802  0.80651045  1
  Se  Se201  1  0.92815843  0.60554682  0.30132546  1
  Se  Se202  1  0.90907847  0.57403731  0.81565467  1
  Se  Se203  1  0.92481085  0.93877221  0.29687986  1
  Se  Se204  1  0.92571676  0.91315799  0.80505357  1
  Se  Se205  1  0.08190780  0.08619353  0.30278010  1
  Se  Se206  1  0.07921924  0.07974929  0.80601883  1
  Se  Se207  1  0.08726095  0.41556164  0.29847648  1
  Se  Se208  1  0.07259099  0.40797869  0.80627762  1
  Se  Se209  1  0.09118740  0.76574514  0.28723207  1
  Se  Se210  1  0.09900422  0.75602961  0.81433636  1
  Se  Se211  1  0.41448899  0.08228275  0.31088455  1
  Se  Se212  1  0.41605791  0.08879917  0.79915820  1
  Se  Se213  1  0.41525452  0.40756949  0.29954008  1
  Se  Se214  1  0.42066442  0.43661092  0.80568321  1
  Se  Se215  1  0.41103418  0.74256843  0.29495816  1
  Se  Se216  1  0.42639545  0.76581378  0.81709191  1
  Se  Se217  1  0.74711963  0.08998189  0.30869498  1
  Se  Se218  1  0.75702691  0.07670439  0.80089601  1
  Se  Se219  1  0.76313253  0.42439791  0.30715960  1
  Se  Se220  1  0.75900556  0.41542587  0.81572479  1
  Se  Se221  1  0.74784230  0.75510989  0.30907038  1
  Se  Se222  1  0.75788482  0.74651412  0.80385387  1
  Se  Se223  1  0.23497661  0.08258012  0.18141251  1
  Se  Se224  1  0.24928643  0.08515466  0.70017770  1
  Se  Se225  1  0.25293977  0.40886517  0.19388524  1
  Se  Se226  1  0.23945968  0.42321165  0.69638812  1
  Se  Se227  1  0.24969672  0.74396280  0.19794454  1
  Se  Se228  1  0.24654208  0.76127821  0.69060660  1
  Se  Se229  1  0.58467901  0.08428893  0.19990458  1
  Se  Se230  1  0.59105895  0.09029576  0.69066176  1
  Se  Se231  1  0.58702973  0.42154585  0.18953611  1
  Se  Se232  1  0.57972718  0.42328310  0.69346265  1
  Se  Se233  1  0.57693057  0.76040061  0.18245938  1
  Se  Se234  1  0.58007903  0.75424373  0.70506897  1
  Se  Se235  1  0.91772117  0.08449245  0.19759320  1
  Se  Se236  1  0.92242187  0.07934819  0.69350602  1
  Se  Se237  1  0.91496043  0.41144925  0.19715010  1
  Se  Se238  1  0.91479838  0.41007539  0.69629866  1
  Se  Se239  1  0.90271875  0.75951653  0.20113408  1
  Se  Se240  1  0.91648274  0.75292243  0.68773484  1
  Se  Se241  1  0.08082136  0.25112293  0.19483182  1
  Se  Se242  1  0.07924207  0.25027368  0.69882330  1
  Se  Se243  1  0.08267942  0.58044518  0.19351005  1
  Se  Se244  1  0.07924519  0.58071237  0.69391238  1
  Se  Se245  1  0.08013387  0.92105939  0.20355681  1
  Se  Se246  1  0.08147607  0.91918773  0.70284513  1
  Se  Se247  1  0.41621021  0.24785684  0.20414659  1
  Se  Se248  1  0.41985500  0.24879132  0.68581773  1
  Se  Se249  1  0.41519437  0.58178534  0.19962223  1
  Se  Se250  1  0.41654014  0.59127090  0.68787512  1
  Se  Se251  1  0.41639894  0.91201371  0.18253403  1
  Se  Se252  1  0.42275081  0.91437293  0.70491349  1
  Se  Se253  1  0.75949875  0.24531658  0.18846962  1
  Se  Se254  1  0.75956479  0.24068507  0.68665996  1
  Se  Se255  1  0.76283480  0.57717754  0.19829675  1
  Se  Se256  1  0.75364719  0.58177807  0.69866643  1
  Se  Se257  1  0.73730941  0.93620366  0.20258874  1
  Se  Se258  1  0.75858624  0.91603443  0.69599130  1
