# generated using pymatgen
data_In86Cu29Se144
_symmetry_space_group_name_H-M   'P 1'
_cell_length_a   17.57864707
_cell_length_b   17.57966755
_cell_length_c   23.43827414
_cell_angle_alpha   90.00190220
_cell_angle_beta   89.99134871
_cell_angle_gamma   90.01654204
_symmetry_Int_Tables_number   1
_chemical_formula_structural   In86Cu29Se144
_chemical_formula_sum   'In86 Cu29 Se144'
_cell_volume   7243.05379784
_cell_formula_units_Z   1
loop_
 _symmetry_equiv_pos_site_id
 _symmetry_equiv_pos_as_xyz
  1  'x, y, z'
loop_
 _atom_site_type_symbol
 _atom_site_label
 _atom_site_symmetry_multiplicity
 _atom_site_fract_x
 _atom_site_fract_y
 _atom_site_fract_z
 _atom_site_occupancy
  In  In0  1  0.00167405  0.16553448  0.12951601  1
  In  In1  1  -0.00449966  0.17019269  0.62717294  1
  In  In2  1  -0.00310513  0.49837190  0.12509879  1
  In  In3  1  0.00334465  0.49632777  0.61003490  1
  In  In4  1  0.02250831  0.81790384  0.14687634  1
  In  In5  1  -0.00136290  0.82950122  0.61221551  1
  In  In6  1  0.33444105  0.17010561  0.12341914  1
  In  In7  1  0.33223037  0.14735365  0.62874262  1
  In  In8  1  0.32294801  0.48977497  0.12239338  1
  In  In9  1  0.32985970  0.49180317  0.61624129  1
  In  In10  1  0.32421415  0.85516330  0.13301494  1
  In  In11  1  0.32994572  0.84616845  0.62254532  1
  In  In12  1  0.67861755  0.18382211  0.11349104  1
  In  In13  1  0.66188347  0.19028532  0.63539242  1
  In  In14  1  0.65512994  0.49216438  0.11277932  1
  In  In15  1  0.66603425  0.49734394  0.62436955  1
  In  In16  1  0.68015503  0.82706712  0.12336335  1
  In  In17  1  0.66365236  0.81563907  0.62682544  1
  In  In18  1  0.15730081  -0.01523923  0.35797030  1
  In  In19  1  0.17194416  -0.00063335  0.88097110  1
  In  In20  1  0.16892195  0.33660749  0.36993652  1
  In  In21  1  0.16818881  0.33515821  0.88917407  1
  In  In22  1  0.15381169  0.67677079  0.37365940  1
  In  In23  1  0.16335620  0.66870807  0.89427959  1
  In  In24  1  0.50099421  0.01595655  0.37483770  1
  In  In25  1  0.49295400  0.02989322  0.87049428  1
  In  In26  1  0.50081063  0.33077390  0.37382431  1
  In  In27  1  0.51150962  0.31853346  0.87761435  1
  In  In28  1  0.48915881  0.65622350  0.37634886  1
  In  In29  1  0.50939144  0.65095964  0.87973634  1
  In  In30  1  0.83609143  -0.01080967  0.37822648  1
  In  In31  1  0.84241831  0.00196233  0.87929717  1
  In  In32  1  0.84669204  0.35155561  0.36205810  1
  In  In33  1  0.82849922  0.34025081  0.88012422  1
  In  In34  1  0.84832806  0.65145958  0.37921553  1
  In  In35  1  0.81876901  0.66100791  0.87744392  1
  In  In36  1  0.00742918  0.17393496  0.36527364  1
  In  In37  1  -0.00151230  0.16994156  0.88992995  1
  In  In38  1  -0.00116796  0.49881938  0.37093019  1
  In  In39  1  -0.00074808  0.50338656  0.89518147  1
  In  In40  1  0.00392373  0.82842232  0.36882325  1
  In  In41  1  0.00604011  0.84412207  0.87861891  1
  In  In42  1  0.33764510  0.17308434  0.36655920  1
  In  In43  1  0.33181565  0.16430443  0.87752412  1
  In  In44  1  0.34109579  0.49020627  0.37847229  1
  In  In45  1  0.33462397  0.49990357  0.88736207  1
  In  In46  1  0.31190747  0.83198717  0.36795686  1
  In  In47  1  0.32135647  0.83649503  0.87599766  1
  In  In48  1  0.65260963  0.17266718  0.38075199  1
  In  In49  1  0.65992452  0.17766965  0.87761800  1
  In  In50  1  0.67901144  0.48810758  0.37984282  1
  In  In51  1  0.66842596  0.49295554  0.87469343  1
  In  In52  1  0.67759676  0.84081444  0.38011401  1
  In  In53  1  0.67305885  0.82705727  0.86903849  1
  In  In54  1  0.16413813  0.00132321  0.12604960  1
  In  In55  1  0.17857489  0.00114695  0.61893147  1
  In  In56  1  0.16809835  0.33185444  0.12965539  1
  In  In57  1  0.15912727  0.33816545  0.62449806  1
  In  In58  1  0.14841102  0.65951924  0.11449785  1
  In  In59  1  0.15977761  0.66247865  0.61670269  1
  In  In60  1  0.48803438  0.00851392  0.12421844  1
  In  In61  1  0.48424531  -0.00177509  0.62500566  1
  In  In62  1  0.49994216  0.33400624  0.12330966  1
  In  In63  1  0.50482890  0.34130255  0.61947568  1
  In  In64  1  0.50512273  0.64898323  0.11839514  1
  In  In65  1  0.51219724  0.66196765  0.62798802  1
  In  In66  1  0.83638028  0.01363335  0.12255162  1
  In  In67  1  0.84479095  0.00052006  0.62056548  1
  In  In68  1  0.83398868  0.33327517  0.12812430  1
  In  In69  1  0.82195877  0.33237705  0.62390640  1
  In  In70  1  0.85230761  0.66418643  0.11811915  1
  In  In71  1  0.82618012  0.65285727  0.61715764  1
  In  In72  1  0.49542097  0.83559196  0.00029220  1
  In  In73  1  0.00224913  0.00368278  0.74903270  1
  In  In74  1  0.17227656  0.16934817  0.49112613  1
  In  In75  1  0.66629125  0.00845426  0.25494966  1
  In  In76  1  0.66430371  0.00160440  0.75381233  1
  In  In77  1  0.33565294  0.66555083  0.75319992  1
  In  In78  1  0.67037447  0.66146395  0.24625288  1
  In  In79  1  -0.00215222  0.33140885  0.75336267  1
  In  In80  1  0.49554799  0.82760946  0.50274221  1
  In  In81  1  0.32233435  0.66567188  0.24543119  1
  In  In82  1  0.83182675  0.17258213  0.50526222  1
  In  In83  1  -0.00251189  0.66519542  0.75967299  1
  In  In84  1  0.33859505  0.32461522  0.75794709  1
  In  In85  1  0.84261709  0.83121377  0.00042859  1
  Cu  Cu86  1  0.82349715  0.49419701  0.74878333  1
  Cu  Cu87  1  0.66652155  0.00270488  0.50040279  1
  Cu  Cu88  1  0.83161277  0.17040729  0.24657360  1
  Cu  Cu89  1  0.17310020  0.84079604  0.75017206  1
  Cu  Cu90  1  0.83983215  0.83371891  0.25331525  1
  Cu  Cu91  1  0.00480897  0.00028417  0.00660716  1
  Cu  Cu92  1  0.33894888  0.32557345  0.49617427  1
  Cu  Cu93  1  0.00060840  0.66956733  0.49172717  1
  Cu  Cu94  1  0.66107024  0.00538702  -0.00034762  1
  Cu  Cu95  1  0.16401815  0.49738488  0.24764048  1
  Cu  Cu96  1  0.17050760  0.16574747  0.24513015  1
  Cu  Cu97  1  0.66851402  0.66350485  0.50294677  1
  Cu  Cu98  1  0.83467892  0.49850158  0.24746722  1
  Cu  Cu99  1  0.00018780  0.32990836  0.01130428  1
  Cu  Cu100  1  0.66575625  0.33439409  -0.00118941  1
  Cu  Cu101  1  0.00470731  -0.00271353  0.49284685  1
  Cu  Cu102  1  0.82839153  0.82354015  0.74489061  1
  Cu  Cu103  1  0.32744811  0.65922610  0.49636173  1
  Cu  Cu104  1  0.49660611  0.83451056  0.24567643  1
  Cu  Cu105  1  0.49745068  0.83341311  0.74729720  1
  Cu  Cu106  1  0.32993941  0.00931529  0.00300914  1
  Cu  Cu107  1  0.50137654  0.17373646  0.24762922  1
  Cu  Cu108  1  0.33464270  0.67296378  0.00535493  1
  Cu  Cu109  1  0.33364868  0.33810617  0.00485956  1
  Cu  Cu110  1  0.33072353  -0.00260299  0.49552667  1
  Cu  Cu111  1  0.66691351  0.33931092  0.49945914  1
  Cu  Cu112  1  0.50991861  0.49529507  0.75085899  1
  Cu  Cu113  1  0.16511952  0.50032172  0.75426225  1
  Cu  Cu114  1  0.50129366  0.48807472  0.25012548  1
  Se  Se115  1  0.08610666  0.08907887  0.05657064  1
  Se  Se116  1  0.07714447  0.08163993  0.55539630  1
  Se  Se117  1  0.08637262  0.41479532  0.06010578  1
  Se  Se118  1  0.09720193  0.42087207  0.54843035  1
  Se  Se119  1  0.07705447  0.76120626  0.05485622  1
  Se  Se120  1  0.08659457  0.75042877  0.54665124  1
  Se  Se121  1  0.41950176  0.09196370  0.04996794  1
  Se  Se122  1  0.41282433  0.08019407  0.54969663  1
  Se  Se123  1  0.41993228  0.42235554  0.05520791  1
  Se  Se124  1  0.41799799  0.41550994  0.54869208  1
  Se  Se125  1  0.41021190  0.75191825  0.06949351  1
  Se  Se126  1  0.40517285  0.73657339  0.56352363  1
  Se  Se127  1  0.75051484  0.08471935  0.05053343  1
  Se  Se128  1  0.74005193  0.08318469  0.56577612  1
  Se  Se129  1  0.75230100  0.41217596  0.05447382  1
  Se  Se130  1  0.75234594  0.42064212  0.55258076  1
  Se  Se131  1  0.74707220  0.73597012  0.05195258  1
  Se  Se132  1  0.75135755  0.75033284  0.55311376  1
  Se  Se133  1  0.24958830  0.25295908  0.05613219  1
  Se  Se134  1  0.25802556  0.25187686  0.56168369  1
  Se  Se135  1  0.25244496  0.58644592  0.05711114  1
  Se  Se136  1  0.24492449  0.57751137  0.55252478  1
  Se  Se137  1  0.24842890  0.92158903  0.05313718  1
  Se  Se138  1  0.24634889  0.91246575  0.54593457  1
  Se  Se139  1  0.57810400  0.25093768  0.05005987  1
  Se  Se140  1  0.58652957  0.25211270  0.55247925  1
  Se  Se141  1  0.58940720  0.58733756  0.04368206  1
  Se  Se142  1  0.58228259  0.58018870  0.55345356  1
  Se  Se143  1  0.59076865  0.92204219  0.06300755  1
  Se  Se144  1  0.58783094  0.91929670  0.56197258  1
  Se  Se145  1  0.91394690  0.24487061  0.06047122  1
  Se  Se146  1  0.92841864  0.26539054  0.55720810  1
  Se  Se147  1  0.92520316  0.57964514  0.04828092  1
  Se  Se148  1  0.92014178  0.58584299  0.54844086  1
  Se  Se149  1  0.92541230  0.91790499  0.06624789  1
  Se  Se150  1  0.91727202  0.91821640  0.54740997  1
  Se  Se151  1  0.07443861  0.26069824  0.44261382  1
  Se  Se152  1  0.08553787  0.25005806  0.95575321  1
  Se  Se153  1  0.08284730  0.58283802  0.44039948  1
  Se  Se154  1  0.08633849  0.58216789  0.95979775  1
  Se  Se155  1  0.08649491  0.91369156  0.43933508  1
  Se  Se156  1  0.08742796  0.91810387  0.95083088  1
  Se  Se157  1  0.42072537  0.24216956  0.44269792  1
  Se  Se158  1  0.40894367  0.25653855  0.94313838  1
  Se  Se159  1  0.41738255  0.57654862  0.45073606  1
  Se  Se160  1  0.41657680  0.58905330  0.95162767  1
  Se  Se161  1  0.41358891  0.91609117  0.43580779  1
  Se  Se162  1  0.41098702  0.92995526  0.93976828  1
  Se  Se163  1  0.74946116  0.26023307  0.43851802  1
  Se  Se164  1  0.75032547  0.24933204  0.94729777  1
  Se  Se165  1  0.75077008  0.58324028  0.44534089  1
  Se  Se166  1  0.75698800  0.56645630  0.94528901  1
  Se  Se167  1  0.75384905  0.91832275  0.45428362  1
  Se  Se168  1  0.74218834  0.92114293  0.94276320  1
  Se  Se169  1  0.25280276  0.07355426  0.43053650  1
  Se  Se170  1  0.24502087  0.09094284  0.94935985  1
  Se  Se171  1  0.25319879  0.40839043  0.44443977  1
  Se  Se172  1  0.24666214  0.42391927  0.95528440  1
  Se  Se173  1  0.24856702  0.74670250  0.44399868  1
  Se  Se174  1  0.25203239  0.75789883  0.95308337  1
  Se  Se175  1  0.57981968  0.08567283  0.45236252  1
  Se  Se176  1  0.57995529  0.08994567  0.94683389  1
  Se  Se177  1  0.58032675  0.41766717  0.44357442  1
  Se  Se178  1  0.58003200  0.41486740  0.94425081  1
  Se  Se179  1  0.58901009  0.74193153  0.43904247  1
  Se  Se180  1  0.59124304  0.74798835  0.94390426  1
  Se  Se181  1  0.92371616  0.08583962  0.44004259  1
  Se  Se182  1  0.91618179  0.08002083  0.95422826  1
  Se  Se183  1  0.90876308  0.42702267  0.44207677  1
  Se  Se184  1  0.91731245  0.40914408  0.95299304  1
  Se  Se185  1  0.91549636  0.75486984  0.44085677  1
  Se  Se186  1  0.92526798  0.74148614  0.93451235  1
  Se  Se187  1  0.24953752  0.25198600  0.30081397  1
  Se  Se188  1  0.23359982  0.24753904  0.81167435  1
  Se  Se189  1  0.24405832  0.57473139  0.31225726  1
  Se  Se190  1  0.24170778  0.58155623  0.81540424  1
  Se  Se191  1  0.25806742  0.92138305  0.29254213  1
  Se  Se192  1  0.25254060  0.92483288  0.80393243  1
  Se  Se193  1  0.58706879  0.25257659  0.30235171  1
  Se  Se194  1  0.57873004  0.24199612  0.79927506  1
  Se  Se195  1  0.57887580  0.57424636  0.30852947  1
  Se  Se196  1  0.58993294  0.58200884  0.80368311  1
  Se  Se197  1  0.57729514  0.90855764  0.31057497  1
  Se  Se198  1  0.57077134  0.91302218  0.81418133  1
  Se  Se199  1  0.91807065  0.25264615  0.29945968  1
  Se  Se200  1  0.91120167  0.24237069  0.81443713  1
  Se  Se201  1  0.91985547  0.58350423  0.29801995  1
  Se  Se202  1  0.90950859  0.56613920  0.81161428  1
  Se  Se203  1  0.92020408  0.92076289  0.30451875  1
  Se  Se204  1  0.90793403  0.90564298  0.80389277  1
  Se  Se205  1  0.08351986  0.08526693  0.29826684  1
  Se  Se206  1  0.08406434  0.09021882  0.81508447  1
  Se  Se207  1  0.08057338  0.41404269  0.30181851  1
  Se  Se208  1  0.08411156  0.42425788  0.81612370  1
  Se  Se209  1  0.08827822  0.75515591  0.29594372  1
  Se  Se210  1  0.09683781  0.75803301  0.81071258  1
  Se  Se211  1  0.42037153  0.08569054  0.29930426  1
  Se  Se212  1  0.40720067  0.09475841  0.79778071  1
  Se  Se213  1  0.41412361  0.40959227  0.30340501  1
  Se  Se214  1  0.42287518  0.42522989  0.81311659  1
  Se  Se215  1  0.42056274  0.75264564  0.30635555  1
  Se  Se216  1  0.42416303  0.75430176  0.81528522  1
  Se  Se217  1  0.75820740  0.09483832  0.31673902  1
  Se  Se218  1  0.75617310  0.08708487  0.81373534  1
  Se  Se219  1  0.74501907  0.41672452  0.29664443  1
  Se  Se220  1  0.74578500  0.40733594  0.80258055  1
  Se  Se221  1  0.75638328  0.75209863  0.31054288  1
  Se  Se222  1  0.74798101  0.74062714  0.79943540  1
  Se  Se223  1  0.25459154  0.08351227  0.19198379  1
  Se  Se224  1  0.23840334  0.08234307  0.69703162  1
  Se  Se225  1  0.25273547  0.41370026  0.20066603  1
  Se  Se226  1  0.24695479  0.42024324  0.69743227  1
  Se  Se227  1  0.23670473  0.75389203  0.18468281  1
  Se  Se228  1  0.24363429  0.75121513  0.68984485  1
  Se  Se229  1  0.58416133  0.09403474  0.18707865  1
  Se  Se230  1  0.57601349  0.08528598  0.68902920  1
  Se  Se231  1  0.58787523  0.41439667  0.19247579  1
  Se  Se232  1  0.58810580  0.41104443  0.69502982  1
  Se  Se233  1  0.57610453  0.75422496  0.18792025  1
  Se  Se234  1  0.58254839  0.74535306  0.70273033  1
  Se  Se235  1  0.91534412  0.08301128  0.19942542  1
  Se  Se236  1  0.90321693  0.09480950  0.69701465  1
  Se  Se237  1  0.91985743  0.41340639  0.19691637  1
  Se  Se238  1  0.91597653  0.42582896  0.68941243  1
  Se  Se239  1  0.91388362  0.74454243  0.19855277  1
  Se  Se240  1  0.91515780  0.74823514  0.68774835  1
  Se  Se241  1  0.08244942  0.25107063  0.19826740  1
  Se  Se242  1  0.09271167  0.24094092  0.69536463  1
  Se  Se243  1  0.08197386  0.58177532  0.19478709  1
  Se  Se244  1  0.08342910  0.57645120  0.69367024  1
  Se  Se245  1  0.07209707  0.93558604  0.19820927  1
  Se  Se246  1  0.08527139  0.90802413  0.68738620  1
  Se  Se247  1  0.41587860  0.25423722  0.19364417  1
  Se  Se248  1  0.42029746  0.24651644  0.68515509  1
  Se  Se249  1  0.42179991  0.57454008  0.19372594  1
  Se  Se250  1  0.42027698  0.57008733  0.69236435  1
  Se  Se251  1  0.41774884  0.92670833  0.19996218  1
  Se  Se252  1  0.41054948  0.91598581  0.69898042  1
  Se  Se253  1  0.74515806  0.25269170  0.19710237  1
  Se  Se254  1  0.76182229  0.24927606  0.70113372  1
  Se  Se255  1  0.75679892  0.57554582  0.18244390  1
  Se  Se256  1  0.74719068  0.58308571  0.69442926  1
  Se  Se257  1  0.75612316  0.91391782  0.19572975  1
  Se  Se258  1  0.75422351  0.91259502  0.68806799  1
