# generated using pymatgen
data_In86Cu29Se144
_symmetry_space_group_name_H-M   'P 1'
_cell_length_a   17.57491662
_cell_length_b   17.57380943
_cell_length_c   23.42582566
_cell_angle_alpha   90.01771573
_cell_angle_beta   90.01084330
_cell_angle_gamma   90.03276152
_symmetry_Int_Tables_number   1
_chemical_formula_structural   In86Cu29Se144
_chemical_formula_sum   'In86 Cu29 Se144'
_cell_volume   7235.25751978
_cell_formula_units_Z   1
loop_
 _symmetry_equiv_pos_site_id
 _symmetry_equiv_pos_as_xyz
  1  'x, y, z'
loop_
 _atom_site_type_symbol
 _atom_site_label
 _atom_site_symmetry_multiplicity
 _atom_site_fract_x
 _atom_site_fract_y
 _atom_site_fract_z
 _atom_site_occupancy
  In  In0  1  0.01141641  0.17605287  0.11808764  1
  In  In1  1  -0.00226066  0.17136479  0.64485858  1
  In  In2  1  -0.00354522  0.50112956  0.12167026  1
  In  In3  1  -0.00584577  0.48750766  0.62888725  1
  In  In4  1  -0.00453862  0.83061806  0.11981861  1
  In  In5  1  0.01344104  0.83887564  0.61524695  1
  In  In6  1  0.32395919  0.16301075  0.10317121  1
  In  In7  1  0.33143707  0.16184201  0.64239442  1
  In  In8  1  0.32676717  0.48982649  0.10167818  1
  In  In9  1  0.33323286  0.50187723  0.64106566  1
  In  In10  1  0.33538099  0.83815045  0.12099268  1
  In  In11  1  0.31859478  0.84014453  0.63737214  1
  In  In12  1  0.67516335  0.17853688  0.10253791  1
  In  In13  1  0.68091481  0.16333345  0.63140006  1
  In  In14  1  0.67362744  0.50150452  0.11080228  1
  In  In15  1  0.65968265  0.49925636  0.63117605  1
  In  In16  1  0.65723717  0.82283736  0.12020239  1
  In  In17  1  0.67054456  0.82543606  0.62348833  1
  In  In18  1  0.17120150  -0.00975684  0.37494695  1
  In  In19  1  0.16196432  0.00303978  0.87079082  1
  In  In20  1  0.16626070  0.34619643  0.37334851  1
  In  In21  1  0.16996205  0.33070337  0.87311273  1
  In  In22  1  0.16448798  0.69529804  0.37194973  1
  In  In23  1  0.17917263  0.65461917  0.88507702  1
  In  In24  1  0.48429668  0.00232321  0.36879009  1
  In  In25  1  0.48175278  0.01204197  0.88359938  1
  In  In26  1  0.50087699  0.33822968  0.37158946  1
  In  In27  1  0.49158479  0.33240138  0.88108004  1
  In  In28  1  0.50071103  0.65718244  0.36663948  1
  In  In29  1  0.49504189  0.67341652  0.88098486  1
  In  In30  1  0.83947020  0.00192197  0.38336675  1
  In  In31  1  0.84130212  -0.00093202  0.87721316  1
  In  In32  1  0.84373572  0.32467117  0.37754912  1
  In  In33  1  0.83586201  0.32941855  0.88061982  1
  In  In34  1  0.84725534  0.67571675  0.36025871  1
  In  In35  1  0.82839454  0.66450699  0.88229514  1
  In  In36  1  -0.00232758  0.16667103  0.37483494  1
  In  In37  1  0.00583511  0.16374705  0.87258945  1
  In  In38  1  -0.00587294  0.49834607  0.36621844  1
  In  In39  1  0.01412923  0.48641775  0.88652812  1
  In  In40  1  0.00871047  0.82718674  0.37797214  1
  In  In41  1  -0.00813424  0.84025708  0.88165552  1
  In  In42  1  0.34424274  0.16556893  0.37004345  1
  In  In43  1  0.32381621  0.16916538  0.87102292  1
  In  In44  1  0.34224563  0.50247303  0.37365692  1
  In  In45  1  0.33059866  0.49987871  0.88025480  1
  In  In46  1  0.31734599  0.84031245  0.38027565  1
  In  In47  1  0.32977819  0.83157320  0.87739056  1
  In  In48  1  0.67364184  0.18045379  0.37572319  1
  In  In49  1  0.64590118  0.19392736  0.89650440  1
  In  In50  1  0.65707851  0.50491386  0.36537079  1
  In  In51  1  0.67639739  0.47357262  0.89887396  1
  In  In52  1  0.68111407  0.83773958  0.36928094  1
  In  In53  1  0.67150557  0.83047073  0.88170444  1
  In  In54  1  0.17360023  0.00698175  0.11989647  1
  In  In55  1  0.17113115  -0.00655663  0.64229166  1
  In  In56  1  0.16139835  0.32740108  0.11007317  1
  In  In57  1  0.16248609  0.33120907  0.64324278  1
  In  In58  1  0.15732711  0.66595533  0.11912933  1
  In  In59  1  0.17000109  0.67806505  0.62590197  1
  In  In60  1  0.49012224  -0.00950904  0.11525310  1
  In  In61  1  0.48480742  -0.00481636  0.63128147  1
  In  In62  1  0.50487987  0.33558057  0.08969834  1
  In  In63  1  0.50011567  0.33426830  0.64275505  1
  In  In64  1  0.50194563  0.67065416  0.12072835  1
  In  In65  1  0.50052408  0.66015921  0.63028502  1
  In  In66  1  0.84190176  0.00231842  0.11672956  1
  In  In67  1  0.83992087  0.00880986  0.61954811  1
  In  In68  1  0.84087404  0.34312789  0.10958004  1
  In  In69  1  0.85300162  0.30950199  0.64929226  1
  In  In70  1  0.83078704  0.66466510  0.12332380  1
  In  In71  1  0.82383317  0.66983531  0.62304994  1
  In  In72  1  0.16428472  0.16212864  0.50535964  1
  In  In73  1  0.83375971  0.50057273  0.49978007  1
  In  In74  1  0.66212941  0.66022616  0.75500730  1
  In  In75  1  0.32912064  0.66572454  0.24880391  1
  In  In76  1  0.66689580  0.00107767  0.24060651  1
  In  In77  1  0.49896359  0.83355167  0.50522685  1
  In  In78  1  0.16420006  0.50547575  0.51190920  1
  In  In79  1  0.00798132  -0.00216940  0.25385724  1
  In  In80  1  0.66708733  0.33897074  0.24126804  1
  In  In81  1  0.00408781  0.66236901  0.75011255  1
  In  In82  1  0.66357411  0.00560646  0.75799568  1
  In  In83  1  0.50272343  0.16005005  0.51453264  1
  In  In84  1  0.32811037  0.32528743  0.22264240  1
  In  In85  1  0.50092323  0.50295478  0.49438291  1
  Cu  Cu86  1  0.67510162  -0.00655071  -0.00182417  1
  Cu  Cu87  1  -0.00754338  0.66847432  0.00098633  1
  Cu  Cu88  1  0.84150438  0.84080720  0.74739583  1
  Cu  Cu89  1  0.17502213  0.17151016  0.23804870  1
  Cu  Cu90  1  0.68447275  0.32998901  0.50688375  1
  Cu  Cu91  1  0.33157349  0.67332350  0.00181665  1
  Cu  Cu92  1  0.67684303  0.67633492  0.49253114  1
  Cu  Cu93  1  0.48842518  0.83883444  0.75895724  1
  Cu  Cu94  1  0.83283077  0.49887226  0.23797569  1
  Cu  Cu95  1  0.00928167  0.00621365  -0.00188459  1
  Cu  Cu96  1  0.49676301  0.83318670  0.24153376  1
  Cu  Cu97  1  0.82699450  0.16878031  0.76097123  1
  Cu  Cu98  1  0.66758488  0.00786778  0.49819219  1
  Cu  Cu99  1  0.00312829  0.66700755  0.49205118  1
  Cu  Cu100  1  0.83844538  0.17017862  0.24923032  1
  Cu  Cu101  1  0.32931207  -0.00539746  -0.00680787  1
  Cu  Cu102  1  0.17107928  0.49650052  0.75935943  1
  Cu  Cu103  1  0.66412115  0.66506998  0.00031845  1
  Cu  Cu104  1  0.83476852  0.82450937  0.24583792  1
  Cu  Cu105  1  0.50000905  0.49570052  0.76352031  1
  Cu  Cu106  1  0.49644615  0.49935072  0.23851133  1
  Cu  Cu107  1  -0.00125993  0.33176184  -0.00499001  1
  Cu  Cu108  1  0.15399293  0.50581319  0.24788663  1
  Cu  Cu109  1  0.49842883  0.17192178  0.76236185  1
  Cu  Cu110  1  0.16607657  0.82739598  0.75711159  1
  Cu  Cu111  1  0.83624996  0.48951047  0.76359836  1
  Cu  Cu112  1  0.33495541  0.33141142  0.50903317  1
  Cu  Cu113  1  0.49773512  0.15993868  0.23636383  1
  Cu  Cu114  1  -0.00198472  0.00211988  0.50361322  1
  Se  Se115  1  0.09260630  0.09061416  0.05107039  1
  Se  Se116  1  0.07634608  0.07665005  0.56906553  1
  Se  Se117  1  0.07761280  0.41915009  0.05021891  1
  Se  Se118  1  0.07929055  0.40119679  0.56139029  1
  Se  Se119  1  0.08039419  0.75293569  0.04921192  1
  Se  Se120  1  0.08740612  0.74574811  0.54919260  1
  Se  Se121  1  0.41669038  0.07777794  0.04468127  1
  Se  Se122  1  0.39734738  0.07513197  0.56035671  1
  Se  Se123  1  0.40749819  0.41221410  0.03150114  1
  Se  Se124  1  0.41861673  0.41517327  0.56426074  1
  Se  Se125  1  0.41865302  0.75434020  0.05397513  1
  Se  Se126  1  0.41232928  0.74836450  0.56930172  1
  Se  Se127  1  0.75857439  0.08130159  0.04743091  1
  Se  Se128  1  0.75160719  0.08945336  0.55225578  1
  Se  Se129  1  0.73058648  0.39482124  0.04891458  1
  Se  Se130  1  0.75337797  0.41487345  0.56952637  1
  Se  Se131  1  0.74918024  0.74894411  0.05370433  1
  Se  Se132  1  0.75742883  0.75810489  0.54913196  1
  Se  Se133  1  0.26740598  0.27390657  0.04564900  1
  Se  Se134  1  0.25356818  0.25399291  0.56726744  1
  Se  Se135  1  0.24298198  0.58853202  0.04877183  1
  Se  Se136  1  0.26562850  0.58992678  0.56352228  1
  Se  Se137  1  0.24780212  0.91529520  0.05209143  1
  Se  Se138  1  0.24371592  0.91851480  0.56384256  1
  Se  Se139  1  0.57551988  0.23220740  0.03304158  1
  Se  Se140  1  0.59171802  0.26055629  0.56547864  1
  Se  Se141  1  0.57741730  0.58263584  0.05161930  1
  Se  Se142  1  0.59665725  0.59505608  0.55365710  1
  Se  Se143  1  0.58687973  0.91544310  0.05253321  1
  Se  Se144  1  0.59094082  0.93057244  0.56287239  1
  Se  Se145  1  0.91779284  0.24502509  0.04959764  1
  Se  Se146  1  0.92173837  0.24475809  0.56696355  1
  Se  Se147  1  0.91048606  0.58117489  0.05272453  1
  Se  Se148  1  0.92778004  0.59218014  0.55996784  1
  Se  Se149  1  0.92400228  0.92040997  0.04883701  1
  Se  Se150  1  0.91502849  0.91495406  0.55408271  1
  Se  Se151  1  0.08364466  0.25756920  0.44160282  1
  Se  Se152  1  0.08456177  0.24920788  0.94355799  1
  Se  Se153  1  0.08308459  0.58451673  0.43532245  1
  Se  Se154  1  0.08002816  0.58679981  0.95023573  1
  Se  Se155  1  0.07880711  0.92313941  0.44467993  1
  Se  Se156  1  0.08632229  0.91738445  0.94477647  1
  Se  Se157  1  0.41842510  0.25673583  0.44654845  1
  Se  Se158  1  0.42050019  0.23123363  0.94086186  1
  Se  Se159  1  0.40718934  0.60053243  0.44551938  1
  Se  Se160  1  0.41266042  0.58831010  0.94784245  1
  Se  Se161  1  0.40986471  0.92647752  0.44734890  1
  Se  Se162  1  0.41866782  0.90877245  0.94721854  1
  Se  Se163  1  0.76121019  0.24642963  0.44960812  1
  Se  Se164  1  0.75809556  0.24801334  0.95349626  1
  Se  Se165  1  0.74840651  0.58813291  0.43286443  1
  Se  Se166  1  0.75137955  0.57974610  0.95254665  1
  Se  Se167  1  0.74801389  0.92009456  0.44601652  1
  Se  Se168  1  0.76025281  0.91180615  0.94534436  1
  Se  Se169  1  0.25836387  0.08362387  0.43941588  1
  Se  Se170  1  0.24683831  0.08126629  0.94238181  1
  Se  Se171  1  0.26209493  0.41510514  0.44744706  1
  Se  Se172  1  0.23250898  0.42795930  0.94231618  1
  Se  Se173  1  0.25734704  0.74277119  0.44775377  1
  Se  Se174  1  0.24510242  0.75567301  0.94988062  1
  Se  Se175  1  0.58507299  0.08225833  0.43555059  1
  Se  Se176  1  0.58963825  0.07261922  0.94417940  1
  Se  Se177  1  0.60059048  0.40588533  0.44386314  1
  Se  Se178  1  0.56062306  0.42356732  0.95398710  1
  Se  Se179  1  0.58621480  0.74872394  0.43562268  1
  Se  Se180  1  0.58372618  0.75231640  0.94837512  1
  Se  Se181  1  0.91971123  0.08904422  0.44911837  1
  Se  Se182  1  0.92101602  0.08583593  0.94561738  1
  Se  Se183  1  0.93016018  0.41143744  0.44636555  1
  Se  Se184  1  0.91203984  0.42091523  0.94971320  1
  Se  Se185  1  0.91457308  0.74916047  0.44212246  1
  Se  Se186  1  0.90957010  0.75246128  0.94732144  1
  Se  Se187  1  0.25101002  0.25158857  0.30548025  1
  Se  Se188  1  0.23292144  0.23844186  0.79844725  1
  Se  Se189  1  0.23943358  0.57576676  0.31172080  1
  Se  Se190  1  0.25432019  0.58560529  0.80553236  1
  Se  Se191  1  0.25125926  0.91730122  0.30174725  1
  Se  Se192  1  0.24933531  0.91463969  0.80687270  1
  Se  Se193  1  0.57382649  0.24148731  0.30032734  1
  Se  Se194  1  0.58364996  0.25870523  0.80928096  1
  Se  Se195  1  0.58021748  0.58294624  0.29139111  1
  Se  Se196  1  0.58521634  0.57320797  0.82314378  1
  Se  Se197  1  0.57581522  0.91373932  0.30495669  1
  Se  Se198  1  0.57600759  0.91254620  0.81655869  1
  Se  Se199  1  0.92362620  0.25191048  0.30168068  1
  Se  Se200  1  0.91750909  0.25111303  0.80825290  1
  Se  Se201  1  0.91684988  0.58017639  0.29481179  1
  Se  Se202  1  0.91631185  0.57726779  0.81607317  1
  Se  Se203  1  0.90718974  0.91120595  0.30802395  1
  Se  Se204  1  0.92224915  0.92071911  0.80325951  1
  Se  Se205  1  0.09956240  0.09645567  0.30690380  1
  Se  Se206  1  0.06726821  0.06859556  0.80099186  1
  Se  Se207  1  0.07923745  0.41317466  0.30014302  1
  Se  Se208  1  0.08061838  0.41418729  0.80473624  1
  Se  Se209  1  0.07423060  0.75099846  0.29795720  1
  Se  Se210  1  0.08605262  0.74719881  0.81833327  1
  Se  Se211  1  0.41290081  0.08328101  0.29310568  1
  Se  Se212  1  0.41083042  0.08262663  0.80334571  1
  Se  Se213  1  0.41638120  0.41542106  0.29663313  1
  Se  Se214  1  0.40952153  0.41341922  0.80946091  1
  Se  Se215  1  0.41921744  0.75821805  0.30922456  1
  Se  Se216  1  0.41120923  0.74576528  0.80698527  1
  Se  Se217  1  0.75664413  0.08872560  0.30673304  1
  Se  Se218  1  0.74496741  0.09357112  0.82313097  1
  Se  Se219  1  0.75946515  0.42081666  0.30860276  1
  Se  Se220  1  0.74572538  0.41119565  0.81284560  1
  Se  Se221  1  0.74474464  0.74511998  0.29802734  1
  Se  Se222  1  0.76015475  0.75723102  0.80408870  1
  Se  Se223  1  0.25977054  0.08977220  0.18743640  1
  Se  Se224  1  0.23773712  0.09127209  0.70743866  1
  Se  Se225  1  0.23622434  0.43055343  0.18362031  1
  Se  Se226  1  0.25522156  0.41212760  0.70516599  1
  Se  Se227  1  0.24318260  0.75444709  0.18759648  1
  Se  Se228  1  0.24956044  0.74330536  0.70509110  1
  Se  Se229  1  0.58569458  0.09034358  0.17552574  1
  Se  Se230  1  0.57131326  0.09306080  0.69347016  1
  Se  Se231  1  0.57067322  0.41496711  0.17747085  1
  Se  Se232  1  0.58725646  0.42012856  0.70588722  1
  Se  Se233  1  0.58185569  0.74580488  0.19664331  1
  Se  Se234  1  0.57461589  0.76193336  0.69856877  1
  Se  Se235  1  0.91982655  0.08843869  0.19107921  1
  Se  Se236  1  0.90384477  0.08340744  0.70193407  1
  Se  Se237  1  0.91566533  0.41129550  0.19006157  1
  Se  Se238  1  0.92438160  0.41316001  0.70819188  1
  Se  Se239  1  0.91842521  0.74562234  0.19110291  1
  Se  Se240  1  0.91418046  0.75264279  0.68842796  1
  Se  Se241  1  0.08861649  0.25683561  0.19166269  1
  Se  Se242  1  0.09868822  0.23492076  0.71138204  1
  Se  Se243  1  0.07508736  0.58829086  0.19181480  1
  Se  Se244  1  0.09524796  0.57062283  0.68922148  1
  Se  Se245  1  0.08985229  0.91432935  0.18594205  1
  Se  Se246  1  0.07926222  0.90494731  0.70060041  1
  Se  Se247  1  0.43126270  0.24506809  0.17037956  1
  Se  Se248  1  0.41262427  0.25259419  0.70615093  1
  Se  Se249  1  0.40799262  0.57333913  0.18111128  1
  Se  Se250  1  0.42559578  0.58237660  0.70428485  1
  Se  Se251  1  0.41366173  0.92021789  0.19451836  1
  Se  Se252  1  0.40573869  0.92214306  0.70536610  1
  Se  Se253  1  0.75743163  0.24512479  0.18615138  1
  Se  Se254  1  0.74134965  0.25113496  0.70785420  1
  Se  Se255  1  0.74305343  0.57877625  0.18960358  1
  Se  Se256  1  0.76311082  0.57226508  0.69861025  1
  Se  Se257  1  0.75997834  0.90958797  0.18566695  1
  Se  Se258  1  0.75021381  0.91508333  0.69193112  1
