# generated using pymatgen
data_In86Cu29Se144
_symmetry_space_group_name_H-M   'P 1'
_cell_length_a   17.59319111
_cell_length_b   17.59582244
_cell_length_c   23.46177144
_cell_angle_alpha   89.98081613
_cell_angle_beta   90.01621931
_cell_angle_gamma   90.01617085
_symmetry_Int_Tables_number   1
_chemical_formula_structural   In86Cu29Se144
_chemical_formula_sum   'In86 Cu29 Se144'
_cell_volume   7262.98139785
_cell_formula_units_Z   1
loop_
 _symmetry_equiv_pos_site_id
 _symmetry_equiv_pos_as_xyz
  1  'x, y, z'
loop_
 _atom_site_type_symbol
 _atom_site_label
 _atom_site_symmetry_multiplicity
 _atom_site_fract_x
 _atom_site_fract_y
 _atom_site_fract_z
 _atom_site_occupancy
  In  In0  1  0.02201765  0.14727668  0.14834775  1
  In  In1  1  0.00247193  0.16145849  0.61647858  1
  In  In2  1  -0.00595564  0.51265934  0.12909896  1
  In  In3  1  0.01474778  0.49664704  0.62418091  1
  In  In4  1  0.00425375  0.82650560  0.13156809  1
  In  In5  1  -0.00119116  0.84296369  0.62696549  1
  In  In6  1  0.31794437  0.16467431  0.12413246  1
  In  In7  1  0.33050105  0.16341534  0.62784364  1
  In  In8  1  0.34790480  0.50115423  0.11852098  1
  In  In9  1  0.33044332  0.50106607  0.62266685  1
  In  In10  1  0.33098753  0.83894198  0.12738924  1
  In  In11  1  0.33923994  0.83508412  0.63164998  1
  In  In12  1  0.67583586  0.16516680  0.13045918  1
  In  In13  1  0.66526182  0.16198970  0.61616975  1
  In  In14  1  0.66338853  0.49836449  0.12087596  1
  In  In15  1  0.65784583  0.51351245  0.62388045  1
  In  In16  1  0.65599680  0.83849226  0.12420810  1
  In  In17  1  0.66426328  0.83208707  0.61593310  1
  In  In18  1  0.17544176  0.00672030  0.37486714  1
  In  In19  1  0.16144228  -0.01042640  0.88057465  1
  In  In20  1  0.16184801  0.33175645  0.37815876  1
  In  In21  1  0.16830452  0.31544851  0.87213076  1
  In  In22  1  0.16740498  0.66663277  0.37079503  1
  In  In23  1  0.18163304  0.68277265  0.86595043  1
  In  In24  1  0.49560519  -0.00261129  0.38295661  1
  In  In25  1  0.48350328  -0.00380974  0.87421538  1
  In  In26  1  0.49739421  0.33364940  0.38515238  1
  In  In27  1  0.48812060  0.34637772  0.87513525  1
  In  In28  1  0.47854488  0.68416273  0.38692795  1
  In  In29  1  0.47911151  0.68088105  0.88891481  1
  In  In30  1  0.84470759  -0.00731087  0.37405805  1
  In  In31  1  0.84741299  -0.01158339  0.87514979  1
  In  In32  1  0.84400596  0.31532847  0.37416735  1
  In  In33  1  0.84774158  0.33530032  0.87736681  1
  In  In34  1  0.84427693  0.66933091  0.37121070  1
  In  In35  1  0.83169981  0.66056490  0.87862194  1
  In  In36  1  0.00224684  0.16264926  0.37395445  1
  In  In37  1  0.01826526  0.15708866  0.88068297  1
  In  In38  1  0.01691911  0.50610321  0.36949747  1
  In  In39  1  -0.01043296  0.50190964  0.88029845  1
  In  In40  1  -0.00915205  0.82974486  0.36354566  1
  In  In41  1  0.01997976  0.84877010  0.86383064  1
  In  In42  1  0.34165509  0.14554085  0.39406991  1
  In  In43  1  0.28298463  0.12530197  0.82967612  1
  In  In44  1  0.32086432  0.50725680  0.38249469  1
  In  In45  1  0.33938278  0.51316109  0.86727362  1
  In  In46  1  0.34898692  0.84632008  0.36142813  1
  In  In47  1  0.33331431  0.83116068  0.87714016  1
  In  In48  1  0.67047055  0.16146154  0.38613105  1
  In  In49  1  0.66486131  0.16425724  0.87119150  1
  In  In50  1  0.65872217  0.49243189  0.37488436  1
  In  In51  1  0.65668375  0.50841228  0.88280661  1
  In  In52  1  0.66297582  0.83489243  0.38056525  1
  In  In53  1  0.66174450  0.82022226  0.87883643  1
  In  In54  1  0.16718842  0.00026331  0.12456090  1
  In  In55  1  0.17012653  0.00889653  0.62983379  1
  In  In56  1  0.16785186  0.31513928  0.12187496  1
  In  In57  1  0.17052049  0.33687478  0.61998746  1
  In  In58  1  0.15494280  0.68114281  0.13207375  1
  In  In59  1  0.17553716  0.66147181  0.63017994  1
  In  In60  1  0.49561191  -0.01589796  0.12566390  1
  In  In61  1  0.47801330  -0.01388714  0.60899192  1
  In  In62  1  0.48756163  0.33326149  0.12193235  1
  In  In63  1  0.48345364  0.31983628  0.61414521  1
  In  In64  1  0.49402948  0.66615533  0.12408680  1
  In  In65  1  0.49324954  0.66813570  0.61942967  1
  In  In66  1  0.85203786  -0.00530668  0.13965478  1
  In  In67  1  0.84186253  0.00463516  0.61394975  1
  In  In68  1  0.83669737  0.34325111  0.12725049  1
  In  In69  1  0.84820861  0.32600314  0.62106256  1
  In  In70  1  0.85178456  0.66789010  0.12714562  1
  In  In71  1  0.83255282  0.68189398  0.62191617  1
  In  In72  1  0.66393184  0.66745231  0.24699236  1
  In  In73  1  0.83303728  0.50069507  0.49739459  1
  In  In74  1  0.00925871  0.33046642  0.74935563  1
  In  In75  1  0.16541735  0.50459489  -0.00303165  1
  In  In76  1  0.67098794  -0.00131773  0.25773885  1
  In  In77  1  0.67197651  0.33501977  0.25019875  1
  In  In78  1  0.83855462  0.16854065  0.00359955  1
  In  In79  1  0.66334590  0.33412955  0.74759645  1
  In  In80  1  0.83397543  0.82935761  0.00960861  1
  In  In81  1  0.66229964  -0.00362482  0.75102890  1
  In  In82  1  0.32441691  0.33155575  0.25154943  1
  In  In83  1  0.17048890  0.83637999  0.50354691  1
  In  In84  1  0.66181303  0.67019027  0.74550703  1
  In  In85  1  0.49060815  0.17320784  -0.00564001  1
  Cu  Cu86  1  0.16657108  0.83597990  0.25010848  1
  Cu  Cu87  1  0.49184088  0.50673300  0.25220785  1
  Cu  Cu88  1  0.66491597  0.33852944  0.00098421  1
  Cu  Cu89  1  0.16941681  0.83392601  0.74772753  1
  Cu  Cu90  1  0.66138611  0.67013663  0.50083832  1
  Cu  Cu91  1  0.16938215  0.15995073  0.25471157  1
  Cu  Cu92  1  0.17171914  0.50168335  0.24899495  1
  Cu  Cu93  1  0.00006931  -0.00438519  0.49788392  1
  Cu  Cu94  1  0.32848840  0.33122313  0.50173199  1
  Cu  Cu95  1  0.83619074  0.50188905  0.75877141  1
  Cu  Cu96  1  0.84344810  0.15836671  0.74271128  1
  Cu  Cu97  1  0.32857180  0.66636229  0.50283589  1
  Cu  Cu98  1  0.84261619  0.83786885  0.74533458  1
  Cu  Cu99  1  0.00100537  0.67401666  0.00209854  1
  Cu  Cu100  1  0.66854422  0.00344544  0.49795143  1
  Cu  Cu101  1  0.66571726  0.33848612  0.49856127  1
  Cu  Cu102  1  0.49272656  0.50297127  0.74519307  1
  Cu  Cu103  1  0.49144923  0.16731522  0.74072790  1
  Cu  Cu104  1  0.00396076  0.32546282  0.49688240  1
  Cu  Cu105  1  0.49967255  0.15998308  0.25951881  1
  Cu  Cu106  1  0.32559639  -0.00134512  -0.00459566  1
  Cu  Cu107  1  0.84776598  0.50090223  0.25117307  1
  Cu  Cu108  1  0.33101173  0.33048653  -0.00579822  1
  Cu  Cu109  1  0.33208765  0.67054876  0.00139349  1
  Cu  Cu110  1  0.66461664  -0.00196908  0.00523014  1
  Cu  Cu111  1  0.16680504  0.50403279  0.74801707  1
  Cu  Cu112  1  -0.00261017  0.33602119  0.00267054  1
  Cu  Cu113  1  0.65947585  0.65661199  0.00211971  1
  Cu  Cu114  1  0.00365279  0.66809809  0.49260808  1
  Se  Se115  1  0.08632791  0.09207074  0.06083614  1
  Se  Se116  1  0.08647482  0.07564806  0.55130563  1
  Se  Se117  1  0.08116002  0.41499424  0.06212788  1
  Se  Se118  1  0.08277172  0.41392512  0.54959293  1
  Se  Se119  1  0.08465731  0.75702537  0.05329235  1
  Se  Se120  1  0.07947788  0.74318628  0.56055992  1
  Se  Se121  1  0.40949351  0.07787672  0.05754189  1
  Se  Se122  1  0.43063352  0.10548738  0.55828235  1
  Se  Se123  1  0.41697570  0.41245194  0.04586778  1
  Se  Se124  1  0.41265975  0.41909638  0.55182593  1
  Se  Se125  1  0.41332750  0.75346065  0.05754442  1
  Se  Se126  1  0.41029536  0.75414568  0.55371668  1
  Se  Se127  1  0.75108802  0.07050365  0.06340021  1
  Se  Se128  1  0.75487900  0.08710585  0.54884032  1
  Se  Se129  1  0.75053777  0.41637301  0.05575362  1
  Se  Se130  1  0.74547108  0.41308244  0.56395022  1
  Se  Se131  1  0.73918654  0.73589506  0.06490521  1
  Se  Se132  1  0.75122218  0.75291631  0.54773384  1
  Se  Se133  1  0.24987688  0.24518311  0.04656109  1
  Se  Se134  1  0.24832386  0.24521890  0.55551710  1
  Se  Se135  1  0.25062079  0.59178671  0.06224748  1
  Se  Se136  1  0.24388930  0.58126990  0.55268261  1
  Se  Se137  1  0.24770170  0.91658314  0.05448693  1
  Se  Se138  1  0.26002490  0.92660406  0.56114053  1
  Se  Se139  1  0.59071582  0.25221157  0.06040918  1
  Se  Se140  1  0.58585939  0.25257034  0.55245170  1
  Se  Se141  1  0.57370117  0.57730957  0.05651495  1
  Se  Se142  1  0.57729863  0.58503004  0.55019386  1
  Se  Se143  1  0.57647070  0.91251932  0.04963446  1
  Se  Se144  1  0.58459764  0.91949407  0.55016992  1
  Se  Se145  1  0.92694450  0.25255352  0.06677245  1
  Se  Se146  1  0.91713677  0.24349827  0.54731720  1
  Se  Se147  1  0.91830880  0.58528200  0.05010339  1
  Se  Se148  1  0.92390468  0.58906096  0.55773269  1
  Se  Se149  1  0.92722487  0.92364351  0.05965235  1
  Se  Se150  1  0.91656776  0.90960817  0.54915844  1
  Se  Se151  1  0.08761788  0.24080886  0.44592762  1
  Se  Se152  1  0.08107604  0.25468487  0.94915733  1
  Se  Se153  1  0.09073420  0.58451144  0.44545790  1
  Se  Se154  1  0.08027494  0.59836124  0.93690022  1
  Se  Se155  1  0.07807778  0.91480954  0.43655516  1
  Se  Se156  1  0.08131984  0.90821176  0.95120259  1
  Se  Se157  1  0.41611462  0.24894555  0.45122134  1
  Se  Se158  1  0.40045809  0.24837683  0.92829455  1
  Se  Se159  1  0.41336824  0.58127947  0.44975401  1
  Se  Se160  1  0.41157256  0.57870757  0.95116378  1
  Se  Se161  1  0.41189103  0.91084339  0.44730289  1
  Se  Se162  1  0.41500643  0.91432425  0.94929704  1
  Se  Se163  1  0.75097303  0.25555873  0.44738430  1
  Se  Se164  1  0.74251496  0.25623480  0.94042138  1
  Se  Se165  1  0.74184400  0.59200839  0.43795482  1
  Se  Se166  1  0.75006080  0.58120958  0.94916841  1
  Se  Se167  1  0.74996927  0.92105933  0.44228678  1
  Se  Se168  1  0.74454783  0.91977018  0.94244315  1
  Se  Se169  1  0.24080889  0.07960060  0.45654741  1
  Se  Se170  1  0.25334125  0.08448439  0.93512978  1
  Se  Se171  1  0.24574604  0.41386276  0.44672284  1
  Se  Se172  1  0.25288355  0.41545107  0.93503021  1
  Se  Se173  1  0.25655176  0.74984098  0.43890075  1
  Se  Se174  1  0.24737453  0.75305892  0.94891384  1
  Se  Se175  1  0.57838683  0.08482822  0.44899854  1
  Se  Se176  1  0.58823600  0.07699475  0.94230894  1
  Se  Se177  1  0.57903883  0.42231385  0.45069827  1
  Se  Se178  1  0.57850196  0.41529472  0.94596181  1
  Se  Se179  1  0.57806205  0.75525486  0.44900115  1
  Se  Se180  1  0.58085362  0.74782936  0.95247932  1
  Se  Se181  1  0.91793390  0.08124223  0.44449577  1
  Se  Se182  1  0.92606993  0.07326945  0.94691071  1
  Se  Se183  1  0.92622663  0.41377633  0.43878075  1
  Se  Se184  1  0.91248385  0.42002539  0.95310787  1
  Se  Se185  1  0.91904512  0.75217185  0.44352453  1
  Se  Se186  1  0.92062497  0.75268037  0.93857835  1
  Se  Se187  1  0.25182315  0.23618187  0.31705987  1
  Se  Se188  1  0.25603598  0.26223439  0.79559846  1
  Se  Se189  1  0.25402784  0.58431008  0.30256265  1
  Se  Se190  1  0.25202294  0.58873624  0.79852696  1
  Se  Se191  1  0.24865628  0.92025066  0.30301417  1
  Se  Se192  1  0.24835258  0.91291961  0.80877552  1
  Se  Se193  1  0.58004475  0.24668094  0.31212498  1
  Se  Se194  1  0.57120266  0.24288970  0.80600743  1
  Se  Se195  1  0.57455225  0.58306207  0.31193569  1
  Se  Se196  1  0.57372560  0.58067205  0.80675885  1
  Se  Se197  1  0.57314700  0.90959489  0.30815682  1
  Se  Se198  1  0.57598080  0.90515532  0.81142425  1
  Se  Se199  1  0.93356303  0.25485130  0.30256099  1
  Se  Se200  1  0.91655082  0.23843953  0.80893186  1
  Se  Se201  1  0.92684916  0.58679613  0.30431149  1
  Se  Se202  1  0.91918074  0.58813021  0.80687244  1
  Se  Se203  1  0.91596490  0.91912591  0.29584216  1
  Se  Se204  1  0.92561936  0.92282132  0.79682705  1
  Se  Se205  1  0.08292248  0.07609924  0.30518000  1
  Se  Se206  1  0.09480388  0.08392727  0.80725182  1
  Se  Se207  1  0.09173420  0.41511909  0.30201510  1
  Se  Se208  1  0.08955056  0.42631013  0.81328813  1
  Se  Se209  1  0.08458082  0.74906954  0.30229476  1
  Se  Se210  1  0.08329164  0.74813153  0.79840369  1
  Se  Se211  1  0.41460019  0.07958172  0.31124133  1
  Se  Se212  1  0.41884062  0.07960146  0.79837341  1
  Se  Se213  1  0.41775234  0.41932881  0.31100880  1
  Se  Se214  1  0.41064158  0.41898340  0.79872798  1
  Se  Se215  1  0.41017782  0.73982010  0.30076639  1
  Se  Se216  1  0.41301047  0.74651661  0.80708481  1
  Se  Se217  1  0.75882865  0.09463346  0.31128692  1
  Se  Se218  1  0.76251553  0.08569765  0.80821273  1
  Se  Se219  1  0.76378130  0.42485849  0.31151268  1
  Se  Se220  1  0.75241834  0.42090153  0.81321517  1
  Se  Se221  1  0.75194022  0.75620327  0.30858472  1
  Se  Se222  1  0.75992662  0.75869816  0.80492190  1
  Se  Se223  1  0.25191829  0.07950905  0.19796911  1
  Se  Se224  1  0.25420350  0.08337963  0.70306582  1
  Se  Se225  1  0.24597662  0.42278969  0.18303039  1
  Se  Se226  1  0.24598889  0.41966976  0.69274645  1
  Se  Se227  1  0.25061603  0.75222207  0.19699184  1
  Se  Se228  1  0.25337363  0.75020079  0.69625271  1
  Se  Se229  1  0.57778331  0.08719321  0.19292633  1
  Se  Se230  1  0.57882584  0.08714100  0.68833847  1
  Se  Se231  1  0.57050763  0.42123562  0.19453201  1
  Se  Se232  1  0.57287173  0.42116636  0.68620765  1
  Se  Se233  1  0.56943005  0.76046474  0.19534185  1
  Se  Se234  1  0.57311824  0.76272250  0.68984447  1
  Se  Se235  1  0.90910092  0.09428381  0.20537956  1
  Se  Se236  1  0.92439060  0.07765071  0.68853623  1
  Se  Se237  1  0.92620200  0.41553317  0.19679975  1
  Se  Se238  1  0.91202214  0.42327544  0.69415131  1
  Se  Se239  1  0.91317286  0.75438884  0.20045204  1
  Se  Se240  1  0.92129147  0.74918975  0.69339519  1
  Se  Se241  1  0.09271803  0.25408893  0.20487532  1
  Se  Se242  1  0.09235515  0.24037055  0.68823127  1
  Se  Se243  1  0.08412070  0.58523597  0.19790065  1
  Se  Se244  1  0.08051287  0.58548559  0.69639707  1
  Se  Se245  1  0.08394536  0.91862675  0.19505641  1
  Se  Se246  1  0.08820474  0.91872602  0.69392021  1
  Se  Se247  1  0.42173178  0.23943252  0.19493319  1
  Se  Se248  1  0.40848127  0.25704607  0.69591670  1
  Se  Se249  1  0.41093811  0.58576541  0.19535363  1
  Se  Se250  1  0.41292973  0.58760025  0.69052154  1
  Se  Se251  1  0.40674355  0.92564427  0.19848528  1
  Se  Se252  1  0.41842881  0.92510752  0.69718080  1
  Se  Se253  1  0.76559221  0.24279508  0.19753212  1
  Se  Se254  1  0.75936982  0.24301926  0.69109868  1
  Se  Se255  1  0.75750083  0.57282461  0.19215916  1
  Se  Se256  1  0.76037912  0.57789965  0.69226310  1
  Se  Se257  1  0.75356160  0.90449525  0.19375914  1
  Se  Se258  1  0.75561061  0.91339447  0.68717515  1
