# generated using pymatgen
data_In86Cu29Se144
_symmetry_space_group_name_H-M   'P 1'
_cell_length_a   17.56659808
_cell_length_b   17.56340923
_cell_length_c   23.41304907
_cell_angle_alpha   90.00097727
_cell_angle_beta   89.99166806
_cell_angle_gamma   89.98493122
_symmetry_Int_Tables_number   1
_chemical_formula_structural   In86Cu29Se144
_chemical_formula_sum   'In86 Cu29 Se144'
_cell_volume   7223.61250570
_cell_formula_units_Z   1
loop_
 _symmetry_equiv_pos_site_id
 _symmetry_equiv_pos_as_xyz
  1  'x, y, z'
loop_
 _atom_site_type_symbol
 _atom_site_label
 _atom_site_symmetry_multiplicity
 _atom_site_fract_x
 _atom_site_fract_y
 _atom_site_fract_z
 _atom_site_occupancy
  In  In0  1  -0.00967203  0.15966747  0.12053226  1
  In  In1  1  -0.00492291  0.16410367  0.63033941  1
  In  In2  1  -0.00659407  0.51134628  0.12810311  1
  In  In3  1  -0.00628127  0.48561388  0.62451566  1
  In  In4  1  0.00764668  0.84607615  0.12000860  1
  In  In5  1  0.03799682  0.83401355  0.63199419  1
  In  In6  1  0.33823312  0.18127427  0.10687564  1
  In  In7  1  0.31783315  0.17276051  0.62870718  1
  In  In8  1  0.34340135  0.49189495  0.12066115  1
  In  In9  1  0.34355812  0.50695958  0.62295812  1
  In  In10  1  0.32167194  0.84146310  0.12264835  1
  In  In11  1  0.30565883  0.85017117  0.65170781  1
  In  In12  1  0.66576936  0.16896939  0.12238354  1
  In  In13  1  0.68245758  0.16499921  0.62692826  1
  In  In14  1  0.66823039  0.50013552  0.11936385  1
  In  In15  1  0.65913888  0.50479549  0.63281104  1
  In  In16  1  0.68239509  0.82284543  0.12506633  1
  In  In17  1  0.65559844  0.82572625  0.62852058  1
  In  In18  1  0.16103583  0.00200576  0.38020238  1
  In  In19  1  0.16606895  -0.00279978  0.86867872  1
  In  In20  1  0.16301973  0.33482315  0.38170123  1
  In  In21  1  0.15176712  0.33322900  0.87124907  1
  In  In22  1  0.16501936  0.66490990  0.38998542  1
  In  In23  1  0.18025936  0.66710970  0.86830084  1
  In  In24  1  0.49930437  -0.00903073  0.36905921  1
  In  In25  1  0.49711749  0.01125019  0.87698417  1
  In  In26  1  0.51636874  0.33978838  0.37283874  1
  In  In27  1  0.51766471  0.31791554  0.89828825  1
  In  In28  1  0.50206418  0.65531903  0.37320242  1
  In  In29  1  0.49697224  0.65629482  0.87745928  1
  In  In30  1  0.84697569  0.00429221  0.36354385  1
  In  In31  1  0.84313551  -0.00552316  0.88230538  1
  In  In32  1  0.81788361  0.33365400  0.37064228  1
  In  In33  1  0.83218538  0.33117273  0.88364016  1
  In  In34  1  0.83260782  0.67448772  0.36888154  1
  In  In35  1  0.81974098  0.66895128  0.88707529  1
  In  In36  1  0.00689067  0.15570934  0.37909746  1
  In  In37  1  -0.00252204  0.16677465  0.87834132  1
  In  In38  1  0.00886025  0.50700980  0.37602171  1
  In  In39  1  0.00149849  0.48777951  0.86934630  1
  In  In40  1  0.00061511  0.84049604  0.37643253  1
  In  In41  1  -0.00424689  0.84116308  0.87367777  1
  In  In42  1  0.32459457  0.15720926  0.37919801  1
  In  In43  1  0.34319984  0.16211381  0.88094063  1
  In  In44  1  0.33588806  0.50681685  0.38603981  1
  In  In45  1  0.33633440  0.50830695  0.87252076  1
  In  In46  1  0.33129566  0.82767315  0.37883771  1
  In  In47  1  0.31947917  0.82543462  0.86475263  1
  In  In48  1  0.67835507  0.17317116  0.36753042  1
  In  In49  1  0.66770836  0.17915364  0.89239103  1
  In  In50  1  0.66382226  0.49238592  0.36687338  1
  In  In51  1  0.66657153  0.49374784  0.88378747  1
  In  In52  1  0.67322809  0.83544249  0.36041716  1
  In  In53  1  0.67776790  0.82570724  0.88103132  1
  In  In54  1  0.15489762  -0.00298264  0.12171459  1
  In  In55  1  0.15865445  0.00430206  0.63245195  1
  In  In56  1  0.18132946  0.32957848  0.12299551  1
  In  In57  1  0.15658245  0.31853628  0.61911652  1
  In  In58  1  0.15312612  0.67526194  0.12696111  1
  In  In59  1  0.17616104  0.67798095  0.61467081  1
  In  In60  1  0.50258943  0.01932398  0.12134909  1
  In  In61  1  0.49681663  -0.01496308  0.63048351  1
  In  In62  1  0.52373055  0.35380784  0.09520153  1
  In  In63  1  0.49962368  0.34851089  0.62786430  1
  In  In64  1  0.52201917  0.66479500  0.11364179  1
  In  In65  1  0.49975109  0.66153309  0.63247949  1
  In  In66  1  0.83720768  -0.00075853  0.12376581  1
  In  In67  1  0.83296679  0.01387531  0.62447383  1
  In  In68  1  0.80020835  0.31898051  0.09389298  1
  In  In69  1  0.84014990  0.32619639  0.63624948  1
  In  In70  1  0.82046349  0.65693679  0.10726224  1
  In  In71  1  0.83406510  0.65434318  0.63132468  1
  In  In72  1  0.00052462  0.66619651  0.74750977  1
  In  In73  1  0.49550801  0.82362999  0.50107930  1
  In  In74  1  0.33523844  0.66829547  0.25369654  1
  In  In75  1  0.16590197  0.50440141  -0.00193650  1
  In  In76  1  0.83775085  0.49350113  0.49937425  1
  In  In77  1  0.33642283  0.33769832  0.75147567  1
  In  In78  1  -0.00801847  0.33437221  0.24918949  1
  In  In79  1  0.49369161  0.17286460  0.50029580  1
  In  In80  1  0.66663173  -0.00055292  0.75860371  1
  In  In81  1  0.33242009  0.00429549  0.24734680  1
  In  In82  1  0.50402064  0.83409079  -0.00615237  1
  In  In83  1  0.84165202  0.83590691  0.49780007  1
  In  In84  1  0.33887490  0.33323147  0.24287143  1
  In  In85  1  -0.00257378  0.67216626  0.25237824  1
  Cu  Cu86  1  0.66688888  0.66207350  0.50275710  1
  Cu  Cu87  1  0.66629389  0.33799893  0.49726698  1
  Cu  Cu88  1  0.00215745  0.67989559  -0.00372030  1
  Cu  Cu89  1  0.33133374  0.33804459  0.50478231  1
  Cu  Cu90  1  0.32094441  -0.00094601  -0.00196325  1
  Cu  Cu91  1  0.33030315  0.67344477  -0.00402036  1
  Cu  Cu92  1  0.66949186  0.00736656  0.49397021  1
  Cu  Cu93  1  0.82232159  0.49852551  0.75614141  1
  Cu  Cu94  1  0.15994831  0.16434496  0.75097411  1
  Cu  Cu95  1  0.51318065  0.83679303  0.24165207  1
  Cu  Cu96  1  0.82968533  0.16528297  0.24011237  1
  Cu  Cu97  1  0.51068796  0.49462475  0.75741836  1
  Cu  Cu98  1  0.33586811  0.67211642  0.50669257  1
  Cu  Cu99  1  -0.00279052  0.32189718  0.50371986  1
  Cu  Cu100  1  0.83171228  0.82947565  0.75515231  1
  Cu  Cu101  1  0.49676751  0.82183556  0.75448471  1
  Cu  Cu102  1  0.00182991  0.00231266  0.50345415  1
  Cu  Cu103  1  0.83315985  0.17157951  0.75662548  1
  Cu  Cu104  1  0.51041397  0.17527888  0.24505337  1
  Cu  Cu105  1  0.50825065  0.49863865  0.24351816  1
  Cu  Cu106  1  0.50639040  0.17006503  0.76088331  1
  Cu  Cu107  1  0.82636286  0.49542316  0.23777105  1
  Cu  Cu108  1  0.16380461  0.16127680  0.24926177  1
  Cu  Cu109  1  0.00030869  0.00463974  -0.00206129  1
  Cu  Cu110  1  0.16587450  0.49732784  0.74675851  1
  Cu  Cu111  1  0.00295837  0.33284423  -0.00087653  1
  Cu  Cu112  1  0.67149211  0.00089485  0.00248279  1
  Cu  Cu113  1  0.31990087  0.00160310  0.50915170  1
  Cu  Cu114  1  0.83341672  0.82813605  0.24073538  1
  Se  Se115  1  0.08345084  0.08780163  0.05236188  1
  Se  Se116  1  0.08155812  0.08716911  0.55940866  1
  Se  Se117  1  0.07853410  0.41495437  0.06274879  1
  Se  Se118  1  0.07884396  0.41053108  0.55330532  1
  Se  Se119  1  0.08798251  0.75772701  0.05067017  1
  Se  Se120  1  0.07625479  0.74622669  0.55130700  1
  Se  Se121  1  0.41174841  0.07925737  0.04741127  1
  Se  Se122  1  0.41143322  0.07660530  0.56391917  1
  Se  Se123  1  0.39116791  0.38829667  0.05382722  1
  Se  Se124  1  0.42108551  0.41980625  0.55191358  1
  Se  Se125  1  0.41173597  0.74854619  0.06032766  1
  Se  Se126  1  0.40601998  0.75448247  0.57312914  1
  Se  Se127  1  0.75379173  0.08436793  0.05662304  1
  Se  Se128  1  0.75271650  0.08724944  0.54881101  1
  Se  Se129  1  0.76983335  0.44869489  0.04622453  1
  Se  Se130  1  0.74604154  0.41196882  0.56390023  1
  Se  Se131  1  0.74975304  0.75380911  0.04310365  1
  Se  Se132  1  0.74771791  0.74472071  0.55937452  1
  Se  Se133  1  0.23591853  0.24572474  0.04422145  1
  Se  Se134  1  0.24885107  0.24683931  0.54928793  1
  Se  Se135  1  0.25483887  0.59355705  0.06268972  1
  Se  Se136  1  0.25358826  0.58047551  0.55384950  1
  Se  Se137  1  0.23935924  0.91540716  0.05098425  1
  Se  Se138  1  0.24278458  0.91592574  0.56471937  1
  Se  Se139  1  0.57729939  0.23443202  0.04742270  1
  Se  Se140  1  0.58966159  0.25606424  0.56086878  1
  Se  Se141  1  0.56542499  0.55634467  0.04786771  1
  Se  Se142  1  0.58206926  0.58456909  0.55841358  1
  Se  Se143  1  0.58817768  0.92078592  0.06124706  1
  Se  Se144  1  0.59183842  0.92313586  0.55306326  1
  Se  Se145  1  0.91751944  0.24991879  0.05102587  1
  Se  Se146  1  0.91026533  0.24596939  0.55921302  1
  Se  Se147  1  0.92709825  0.58846911  0.04888517  1
  Se  Se148  1  0.92442687  0.58896542  0.55667075  1
  Se  Se149  1  0.91732311  0.91834563  0.05067896  1
  Se  Se150  1  0.92467333  0.92053027  0.56591533  1
  Se  Se151  1  0.08412367  0.24480399  0.44647633  1
  Se  Se152  1  0.08507981  0.24871395  0.94673854  1
  Se  Se153  1  0.08545193  0.57423241  0.45310146  1
  Se  Se154  1  0.07672095  0.59322693  0.93437468  1
  Se  Se155  1  0.08231056  0.91578365  0.44977770  1
  Se  Se156  1  0.08170571  0.92030340  0.94245204  1
  Se  Se157  1  0.40788550  0.26314950  0.43530471  1
  Se  Se158  1  0.40754399  0.25423887  0.95169366  1
  Se  Se159  1  0.42148688  0.59093616  0.45202843  1
  Se  Se160  1  0.41168776  0.58216855  0.95061577  1
  Se  Se161  1  0.40672554  0.92767871  0.44756914  1
  Se  Se162  1  0.40513117  0.91930212  0.93831396  1
  Se  Se163  1  0.74862845  0.25106952  0.44676401  1
  Se  Se164  1  0.74646198  0.26469062  0.96058172  1
  Se  Se165  1  0.74823881  0.58706334  0.43939027  1
  Se  Se166  1  0.76075490  0.56565452  0.95301803  1
  Se  Se167  1  0.74719470  0.92211699  0.43666038  1
  Se  Se168  1  0.75135882  0.91626455  0.94792049  1
  Se  Se169  1  0.24192960  0.08508647  0.45169737  1
  Se  Se170  1  0.24508865  0.08311542  0.93969234  1
  Se  Se171  1  0.24905614  0.41852578  0.44701240  1
  Se  Se172  1  0.24930626  0.41424195  0.93493645  1
  Se  Se173  1  0.25162861  0.75381714  0.45227852  1
  Se  Se174  1  0.24447933  0.75337069  0.94485275  1
  Se  Se175  1  0.58152830  0.08243120  0.43706587  1
  Se  Se176  1  0.58478814  0.08024448  0.94870090  1
  Se  Se177  1  0.58448293  0.42561212  0.44738578  1
  Se  Se178  1  0.57121250  0.43157082  0.95705510  1
  Se  Se179  1  0.59588132  0.74676723  0.43823808  1
  Se  Se180  1  0.59358978  0.73342635  0.94663746  1
  Se  Se181  1  0.91500753  0.07822489  0.44534735  1
  Se  Se182  1  0.91188592  0.08933431  0.95005598  1
  Se  Se183  1  0.92496104  0.40228629  0.43617807  1
  Se  Se184  1  0.92269205  0.41862099  0.94619240  1
  Se  Se185  1  0.92709601  0.73689770  0.44169994  1
  Se  Se186  1  0.91391356  0.75685578  0.94257104  1
  Se  Se187  1  0.24493288  0.24461863  0.30661320  1
  Se  Se188  1  0.24581173  0.24466197  0.80859700  1
  Se  Se189  1  0.24531286  0.57978206  0.31343073  1
  Se  Se190  1  0.25232113  0.57847525  0.79752938  1
  Se  Se191  1  0.24811470  0.91335802  0.31012931  1
  Se  Se192  1  0.25302187  0.92066005  0.79866314  1
  Se  Se193  1  0.59117684  0.25668804  0.30172183  1
  Se  Se194  1  0.58851614  0.25187330  0.81431566  1
  Se  Se195  1  0.58686171  0.58443081  0.30005711  1
  Se  Se196  1  0.58998919  0.58091280  0.81160314  1
  Se  Se197  1  0.58890658  0.92435021  0.29760469  1
  Se  Se198  1  0.57535553  0.90462875  0.81593860  1
  Se  Se199  1  0.90815449  0.23867034  0.30941683  1
  Se  Se200  1  0.91647530  0.25470933  0.81034711  1
  Se  Se201  1  0.90589349  0.56909266  0.30423418  1
  Se  Se202  1  0.90848534  0.58191382  0.81151316  1
  Se  Se203  1  0.91715552  0.90584738  0.29921809  1
  Se  Se204  1  0.91276427  0.91989258  0.80171299  1
  Se  Se205  1  0.08317344  0.07764265  0.30347120  1
  Se  Se206  1  0.07601247  0.08384511  0.80618388  1
  Se  Se207  1  0.09044597  0.42105926  0.30476778  1
  Se  Se208  1  0.07998719  0.41244195  0.79415428  1
  Se  Se209  1  0.09389687  0.75370222  0.31288321  1
  Se  Se210  1  0.08895617  0.75630662  0.80675859  1
  Se  Se211  1  0.42634324  0.09830351  0.30581759  1
  Se  Se212  1  0.41567641  0.08468033  0.80244381  1
  Se  Se213  1  0.42307423  0.42777423  0.30757627  1
  Se  Se214  1  0.43044466  0.41301743  0.81736553  1
  Se  Se215  1  0.43226063  0.76347909  0.30761310  1
  Se  Se216  1  0.41398800  0.73885632  0.80832295  1
  Se  Se217  1  0.75187895  0.08135294  0.30012447  1
  Se  Se218  1  0.75283204  0.09160967  0.81842012  1
  Se  Se219  1  0.74558936  0.41285488  0.29525580  1
  Se  Se220  1  0.74719746  0.41135456  0.81242909  1
  Se  Se221  1  0.75005730  0.74411040  0.29428727  1
  Se  Se222  1  0.74934620  0.74419537  0.80545820  1
  Se  Se223  1  0.25041683  0.09555049  0.18357188  1
  Se  Se224  1  0.24966760  0.08495959  0.69974461  1
  Se  Se225  1  0.24373813  0.43004981  0.19433281  1
  Se  Se226  1  0.24506740  0.41659763  0.68414275  1
  Se  Se227  1  0.24255366  0.75906527  0.19669903  1
  Se  Se228  1  0.24990659  0.73228459  0.70060564  1
  Se  Se229  1  0.58924862  0.08391179  0.19634718  1
  Se  Se230  1  0.57832514  0.08764176  0.69248530  1
  Se  Se231  1  0.58410294  0.41298681  0.18604054  1
  Se  Se232  1  0.58998748  0.40965617  0.70192644  1
  Se  Se233  1  0.58927554  0.74554408  0.19120490  1
  Se  Se234  1  0.58491597  0.74319990  0.70196295  1
  Se  Se235  1  0.91983958  0.07944539  0.19705384  1
  Se  Se236  1  0.91083651  0.08392977  0.70182741  1
  Se  Se237  1  0.90433520  0.41225597  0.17993480  1
  Se  Se238  1  0.91190641  0.42082687  0.70291086  1
  Se  Se239  1  0.91245951  0.74765747  0.17947839  1
  Se  Se240  1  0.91310090  0.76103136  0.68670698  1
  Se  Se241  1  0.08754799  0.24641967  0.18979362  1
  Se  Se242  1  0.07847385  0.25076931  0.69804833  1
  Se  Se243  1  0.09221590  0.57607592  0.19887292  1
  Se  Se244  1  0.08667748  0.57651786  0.68445084  1
  Se  Se245  1  0.08852452  0.91304654  0.19710899  1
  Se  Se246  1  0.07490519  0.93074678  0.70660266  1
  Se  Se247  1  0.42957838  0.24866101  0.18214003  1
  Se  Se248  1  0.42687347  0.24263576  0.69198759  1
  Se  Se249  1  0.42564113  0.58267477  0.18812611  1
  Se  Se250  1  0.42273683  0.57349020  0.70239005  1
  Se  Se251  1  0.42586902  0.91377465  0.18684504  1
  Se  Se252  1  0.41806812  0.91496734  0.70631547  1
  Se  Se253  1  0.75228268  0.25552662  0.18808460  1
  Se  Se254  1  0.74618033  0.25067118  0.70265472  1
  Se  Se255  1  0.74776222  0.58747879  0.18912392  1
  Se  Se256  1  0.74490833  0.58570837  0.70161541  1
  Se  Se257  1  0.75086328  0.91792937  0.19286314  1
  Se  Se258  1  0.75165980  0.91074482  0.69124015  1
