# generated using pymatgen
data_In86Cu29Se144
_symmetry_space_group_name_H-M   'P 1'
_cell_length_a   17.57507552
_cell_length_b   17.58127729
_cell_length_c   23.43026291
_cell_angle_alpha   89.98083852
_cell_angle_beta   90.00626439
_cell_angle_gamma   90.01836554
_symmetry_Int_Tables_number   1
_chemical_formula_structural   In86Cu29Se144
_chemical_formula_sum   'In86 Cu29 Se144'
_cell_volume   7239.76944874
_cell_formula_units_Z   1
loop_
 _symmetry_equiv_pos_site_id
 _symmetry_equiv_pos_as_xyz
  1  'x, y, z'
loop_
 _atom_site_type_symbol
 _atom_site_label
 _atom_site_symmetry_multiplicity
 _atom_site_fract_x
 _atom_site_fract_y
 _atom_site_fract_z
 _atom_site_occupancy
  In  In0  1  0.02489031  0.14902740  0.15164564  1
  In  In1  1  -0.00874062  0.17694917  0.62921455  1
  In  In2  1  0.00376394  0.51116732  0.13855757  1
  In  In3  1  0.00862018  0.49648883  0.62864997  1
  In  In4  1  -0.00448895  0.83202922  0.12177531  1
  In  In5  1  -0.00093498  0.83255318  0.62560729  1
  In  In6  1  0.32647897  0.16275230  0.12991600  1
  In  In7  1  0.34215687  0.16360295  0.62090727  1
  In  In8  1  0.32132827  0.50021131  0.14284053  1
  In  In9  1  0.32477451  0.50995398  0.61740177  1
  In  In10  1  0.31742074  0.85088700  0.13952255  1
  In  In11  1  0.31762840  0.82796365  0.61337708  1
  In  In12  1  0.67133963  0.18179872  0.11941173  1
  In  In13  1  0.67172071  0.14712274  0.63201147  1
  In  In14  1  0.67665275  0.49315898  0.12754841  1
  In  In15  1  0.67502021  0.50410441  0.62818477  1
  In  In16  1  0.66711609  0.82279827  0.12164966  1
  In  In17  1  0.67901377  0.82602329  0.63114603  1
  In  In18  1  0.15675353  -0.00340802  0.36684436  1
  In  In19  1  0.15078223  0.01252899  0.88913646  1
  In  In20  1  0.17394747  0.34474216  0.35461827  1
  In  In21  1  0.15117416  0.33349559  0.88032206  1
  In  In22  1  0.16369691  0.67260056  0.37700127  1
  In  In23  1  0.16257558  0.68413399  0.88020836  1
  In  In24  1  0.49805719  0.00905322  0.37181247  1
  In  In25  1  0.51372920  0.00015894  0.88004214  1
  In  In26  1  0.49420016  0.33179844  0.36517901  1
  In  In27  1  0.49120086  0.33052534  0.88065263  1
  In  In28  1  0.49468405  0.66228547  0.36570636  1
  In  In29  1  0.51195616  0.65920042  0.87260560  1
  In  In30  1  0.84397909  -0.00499493  0.38132262  1
  In  In31  1  0.82738036  -0.01050206  0.87347218  1
  In  In32  1  0.83196498  0.33136049  0.37050024  1
  In  In33  1  0.85328435  0.33218849  0.87936964  1
  In  In34  1  0.84717073  0.67304501  0.36907002  1
  In  In35  1  0.84014904  0.67018601  0.87586452  1
  In  In36  1  0.00083242  0.15639811  0.36239000  1
  In  In37  1  0.00273166  0.16891532  0.87300394  1
  In  In38  1  0.02340690  0.51167745  0.35234435  1
  In  In39  1  -0.00736732  0.49038856  0.87345912  1
  In  In40  1  -0.00016430  0.83697583  0.37640236  1
  In  In41  1  0.00069645  0.83451377  0.87475704  1
  In  In42  1  0.31555105  0.15867390  0.35234822  1
  In  In43  1  0.33333646  0.16244428  0.88955757  1
  In  In44  1  0.31808697  0.50319604  0.36632689  1
  In  In45  1  0.33954252  0.49889575  0.87830709  1
  In  In46  1  0.31808370  0.82335592  0.37051606  1
  In  In47  1  0.31469731  0.83273841  0.87998129  1
  In  In48  1  0.66601519  0.17738672  0.37159652  1
  In  In49  1  0.67044879  0.14354703  0.88417766  1
  In  In50  1  0.66287481  0.49977740  0.36709053  1
  In  In51  1  0.67212768  0.52284456  0.86906172  1
  In  In52  1  0.68742861  0.83272861  0.37550157  1
  In  In53  1  0.68134224  0.84405714  0.86812243  1
  In  In54  1  0.15859249  0.00156009  0.12432680  1
  In  In55  1  0.16453519  -0.01888644  0.61790143  1
  In  In56  1  0.17765134  0.31677611  0.14710167  1
  In  In57  1  0.15215786  0.33050293  0.61882656  1
  In  In58  1  0.15159791  0.67935475  0.14189276  1
  In  In59  1  0.15994167  0.65537092  0.61307710  1
  In  In60  1  0.48641994  -0.00449315  0.12388218  1
  In  In61  1  0.50234723  0.00586593  0.62689190  1
  In  In62  1  0.50325496  0.33163906  0.12602653  1
  In  In63  1  0.49723766  0.32937699  0.62247968  1
  In  In64  1  0.50335940  0.66517907  0.13294724  1
  In  In65  1  0.50335693  0.67355516  0.62845566  1
  In  In66  1  0.85363266  -0.00127310  0.11465421  1
  In  In67  1  0.83895735  -0.00157989  0.62734507  1
  In  In68  1  0.83110160  0.33500016  0.12765610  1
  In  In69  1  0.85208499  0.33829005  0.62266075  1
  In  In70  1  0.83740378  0.66577165  0.12418546  1
  In  In71  1  0.82820978  0.67764927  0.62924287  1
  In  In72  1  0.84089823  0.50418669  0.49644813  1
  In  In73  1  0.83978532  0.16452671  0.00246088  1
  In  In74  1  0.33675878  0.66620630  0.75117449  1
  In  In75  1  0.32665715  0.33884009  0.76248523  1
  In  In76  1  0.49805396  0.83767742  0.00068330  1
  In  In77  1  0.49598947  0.83211866  0.49848244  1
  In  In78  1  0.50412622  0.49703213  0.00190631  1
  In  In79  1  0.49762651  0.16501428  0.49837179  1
  In  In80  1  0.66533538  -0.00615932  0.24220991  1
  In  In81  1  0.16107800  0.49986715  0.01265573  1
  In  In82  1  0.66952670  0.33442904  0.75018819  1
  In  In83  1  0.16064693  0.16379730  0.48638262  1
  In  In84  1  0.49219579  0.49914036  0.48734359  1
  In  In85  1  0.33283374  -0.00297599  0.74123942  1
  Cu  Cu86  1  0.00080457  0.33887577  0.49392068  1
  Cu  Cu87  1  0.32306214  0.33168679  0.48533307  1
  Cu  Cu88  1  0.84284440  0.82884884  0.24964265  1
  Cu  Cu89  1  0.00192071  0.32780051  0.00902738  1
  Cu  Cu90  1  0.68050074  -0.00204907  0.50458504  1
  Cu  Cu91  1  -0.00102895  0.00141952  0.50018853  1
  Cu  Cu92  1  0.32517290  0.00429714  0.00870448  1
  Cu  Cu93  1  0.67641804  0.32285676  0.49596796  1
  Cu  Cu94  1  0.16129190  0.83361318  0.25152357  1
  Cu  Cu95  1  0.15702869  0.83362520  0.74982781  1
  Cu  Cu96  1  0.00152577  0.67278261  0.49533742  1
  Cu  Cu97  1  0.16347286  0.50255529  0.74925601  1
  Cu  Cu98  1  0.50632493  0.83190557  0.75143090  1
  Cu  Cu99  1  0.83850358  0.50804938  0.74983691  1
  Cu  Cu100  1  0.68060187  0.67027963  -0.00235020  1
  Cu  Cu101  1  0.66763318  0.66833467  0.50220771  1
  Cu  Cu102  1  0.82677898  0.16143230  0.24355858  1
  Cu  Cu103  1  0.49709798  0.83066864  0.24887336  1
  Cu  Cu104  1  0.83781622  0.83217491  0.75069080  1
  Cu  Cu105  1  0.15814893  0.16243527  0.75054391  1
  Cu  Cu106  1  0.82625556  0.50526258  0.25029946  1
  Cu  Cu107  1  0.49959245  0.17116891  0.24643165  1
  Cu  Cu108  1  0.83792496  0.16400751  0.75560481  1
  Cu  Cu109  1  0.33342143  0.67420951  0.01102154  1
  Cu  Cu110  1  0.32506723  0.32888598  0.01123390  1
  Cu  Cu111  1  0.50437279  0.16337997  0.75489344  1
  Cu  Cu112  1  -0.00271406  0.66615751  0.00298394  1
  Cu  Cu113  1  0.67071745  0.33739947  0.00281242  1
  Cu  Cu114  1  0.50238612  0.50421073  0.24706816  1
  Se  Se115  1  0.07025678  0.08530533  0.06003533  1
  Se  Se116  1  0.07829429  0.08412029  0.56017828  1
  Se  Se117  1  0.07989834  0.40595743  0.07289825  1
  Se  Se118  1  0.08243719  0.42147583  0.54951515  1
  Se  Se119  1  0.08458917  0.74466915  0.05730703  1
  Se  Se120  1  0.08324818  0.75399812  0.55361670  1
  Se  Se121  1  0.41305836  0.08684792  0.05688418  1
  Se  Se122  1  0.40678814  0.06552113  0.55063315  1
  Se  Se123  1  0.40335905  0.41955654  0.06325005  1
  Se  Se124  1  0.40678449  0.40412996  0.55100733  1
  Se  Se125  1  0.41261047  0.75498197  0.06962204  1
  Se  Se126  1  0.40827791  0.73335449  0.55481044  1
  Se  Se127  1  0.74404901  0.07673025  0.05966281  1
  Se  Se128  1  0.75886676  0.08642817  0.55671361  1
  Se  Se129  1  0.75674391  0.41892105  0.05266904  1
  Se  Se130  1  0.74689942  0.41093605  0.55579464  1
  Se  Se131  1  0.75963845  0.75353552  0.05309548  1
  Se  Se132  1  0.75234925  0.75250772  0.55178911  1
  Se  Se133  1  0.23971998  0.24702478  0.06175403  1
  Se  Se134  1  0.25422765  0.25133040  0.55426770  1
  Se  Se135  1  0.25232892  0.59305678  0.06861494  1
  Se  Se136  1  0.24495214  0.57852481  0.54386385  1
  Se  Se137  1  0.24470592  0.91474589  0.05710010  1
  Se  Se138  1  0.25471375  0.92137851  0.54501954  1
  Se  Se139  1  0.58159493  0.25557868  0.05013515  1
  Se  Se140  1  0.59453742  0.24975086  0.55992787  1
  Se  Se141  1  0.59344407  0.59324606  0.05664045  1
  Se  Se142  1  0.58548991  0.58322916  0.55510917  1
  Se  Se143  1  0.59025064  0.92533536  0.05948927  1
  Se  Se144  1  0.59089365  0.91984080  0.55993156  1
  Se  Se145  1  0.92643584  0.24428829  0.07055454  1
  Se  Se146  1  0.92131369  0.25380129  0.54878098  1
  Se  Se147  1  0.92318437  0.57825798  0.05926976  1
  Se  Se148  1  0.92399968  0.59339407  0.56124125  1
  Se  Se149  1  0.92301727  0.91168991  0.04493338  1
  Se  Se150  1  0.91811495  0.91675120  0.55544156  1
  Se  Se151  1  0.07759345  0.26015357  0.42998590  1
  Se  Se152  1  0.08020531  0.24587984  0.95040380  1
  Se  Se153  1  0.07577205  0.58343166  0.44072457  1
  Se  Se154  1  0.07912042  0.58512275  0.94257284  1
  Se  Se155  1  0.08336269  0.92095204  0.44502616  1
  Se  Se156  1  0.10693974  0.89183722  0.93972252  1
  Se  Se157  1  0.40503520  0.24617484  0.43237133  1
  Se  Se158  1  0.41278814  0.25408119  0.95363523  1
  Se  Se159  1  0.39989549  0.59405237  0.43759832  1
  Se  Se160  1  0.41118939  0.59706028  0.94783633  1
  Se  Se161  1  0.41203318  0.91917348  0.43406080  1
  Se  Se162  1  0.40248982  0.92752553  0.94156113  1
  Se  Se163  1  0.75902904  0.24220403  0.44295961  1
  Se  Se164  1  0.74763116  0.25501319  0.93972111  1
  Se  Se165  1  0.74447712  0.58894068  0.43814511  1
  Se  Se166  1  0.75909222  0.58205567  0.94541071  1
  Se  Se167  1  0.75946371  0.91293696  0.45019038  1
  Se  Se168  1  0.73780691  0.92620566  0.94745325  1
  Se  Se169  1  0.25797491  0.07505983  0.43515070  1
  Se  Se170  1  0.24142189  0.08914113  0.95553663  1
  Se  Se171  1  0.24004588  0.41775329  0.43760590  1
  Se  Se172  1  0.25365062  0.41263380  0.94615656  1
  Se  Se173  1  0.24173768  0.75522635  0.44862463  1
  Se  Se174  1  0.24678452  0.75119707  0.95650919  1
  Se  Se175  1  0.59739045  0.07472615  0.44375512  1
  Se  Se176  1  0.56730327  0.09503783  0.95240169  1
  Se  Se177  1  0.59096769  0.40283379  0.44005055  1
  Se  Se178  1  0.59567895  0.41531508  0.93613464  1
  Se  Se179  1  0.58824572  0.74379212  0.43740948  1
  Se  Se180  1  0.59085146  0.74742516  0.94144029  1
  Se  Se181  1  0.92377723  0.08863229  0.44367995  1
  Se  Se182  1  0.92190870  0.07464686  0.93816464  1
  Se  Se183  1  0.92653857  0.42124840  0.43084138  1
  Se  Se184  1  0.92340399  0.41496904  0.95449818  1
  Se  Se185  1  0.91381848  0.75481773  0.44615648  1
  Se  Se186  1  0.91941604  0.75222471  0.94707383  1
  Se  Se187  1  0.25786890  0.26184094  0.28861459  1
  Se  Se188  1  0.24069088  0.23716336  0.81374685  1
  Se  Se189  1  0.22505664  0.57925873  0.30095097  1
  Se  Se190  1  0.24309043  0.57783455  0.81344270  1
  Se  Se191  1  0.24836054  0.91681986  0.30175003  1
  Se  Se192  1  0.24016494  0.91692888  0.80572927  1
  Se  Se193  1  0.58427752  0.25313687  0.29946926  1
  Se  Se194  1  0.58225564  0.24534897  0.81441776  1
  Se  Se195  1  0.58672361  0.58825743  0.29939891  1
  Se  Se196  1  0.58119239  0.58272982  0.79617966  1
  Se  Se197  1  0.58062726  0.90731949  0.31119686  1
  Se  Se198  1  0.58415806  0.91951824  0.80440924  1
  Se  Se199  1  0.90740833  0.24075048  0.30277713  1
  Se  Se200  1  0.92185912  0.25240072  0.80245561  1
  Se  Se201  1  0.91818316  0.58580766  0.29794417  1
  Se  Se202  1  0.92322158  0.58575820  0.80655321  1
  Se  Se203  1  0.91813317  0.91920805  0.30423426  1
  Se  Se204  1  0.91846010  0.91706685  0.80479457  1
  Se  Se205  1  0.10061587  0.09486390  0.29547388  1
  Se  Se206  1  0.07964592  0.07730825  0.80506371  1
  Se  Se207  1  0.05485581  0.38781879  0.29706907  1
  Se  Se208  1  0.08446426  0.41592445  0.80418828  1
  Se  Se209  1  0.07800346  0.75180728  0.30636749  1
  Se  Se210  1  0.07883692  0.74591467  0.80300212  1
  Se  Se211  1  0.41961482  0.08263273  0.29717019  1
  Se  Se212  1  0.41552291  0.08546196  0.81044449  1
  Se  Se213  1  0.41717708  0.42687743  0.30471202  1
  Se  Se214  1  0.43210759  0.42972896  0.80590801  1
  Se  Se215  1  0.41158213  0.74973401  0.30239560  1
  Se  Se216  1  0.42090921  0.76116172  0.81462333  1
  Se  Se217  1  0.75038981  0.08075283  0.30892501  1
  Se  Se218  1  0.75054388  0.08152638  0.80454080  1
  Se  Se219  1  0.74791755  0.41554157  0.30287811  1
  Se  Se220  1  0.76214177  0.42148770  0.81106479  1
  Se  Se221  1  0.75418329  0.74800415  0.30089025  1
  Se  Se222  1  0.75378915  0.74793607  0.80451230  1
  Se  Se223  1  0.24252452  0.07930135  0.19579706  1
  Se  Se224  1  0.24044216  0.09202442  0.68511343  1
  Se  Se225  1  0.25499151  0.40774862  0.21157492  1
  Se  Se226  1  0.24376441  0.42085611  0.68992928  1
  Se  Se227  1  0.25270849  0.74964545  0.20384460  1
  Se  Se228  1  0.24166231  0.75176682  0.69236606  1
  Se  Se229  1  0.57903366  0.09126597  0.18517991  1
  Se  Se230  1  0.58382984  0.07584947  0.70309058  1
  Se  Se231  1  0.58317013  0.41864170  0.19321568  1
  Se  Se232  1  0.57546139  0.42060422  0.68912959  1
  Se  Se233  1  0.58684247  0.75214376  0.19815657  1
  Se  Se234  1  0.58849960  0.74758167  0.69822398  1
  Se  Se235  1  0.91268992  0.07423168  0.19838015  1
  Se  Se236  1  0.92005783  0.08388162  0.69692846  1
  Se  Se237  1  0.90892139  0.42428933  0.19499488  1
  Se  Se238  1  0.91980951  0.42016242  0.69818592  1
  Se  Se239  1  0.92337199  0.74377446  0.19500099  1
  Se  Se240  1  0.92080081  0.74821333  0.69734675  1
  Se  Se241  1  0.05749541  0.27455419  0.20386891  1
  Se  Se242  1  0.08286613  0.25372779  0.69708350  1
  Se  Se243  1  0.10746408  0.56759829  0.20698812  1
  Se  Se244  1  0.08505807  0.58898792  0.69499531  1
  Se  Se245  1  0.07890986  0.91261732  0.19331752  1
  Se  Se246  1  0.07950011  0.92043413  0.69516390  1
  Se  Se247  1  0.41519865  0.25241087  0.19223402  1
  Se  Se248  1  0.41954333  0.24492983  0.69940770  1
  Se  Se249  1  0.41417188  0.58803099  0.19968044  1
  Se  Se250  1  0.42171297  0.57240833  0.68948577  1
  Se  Se251  1  0.41584212  0.92257078  0.20349861  1
  Se  Se252  1  0.42226057  0.89961907  0.68503093  1
  Se  Se253  1  0.74622545  0.25285393  0.19755213  1
  Se  Se254  1  0.76141902  0.24552253  0.69026815  1
  Se  Se255  1  0.74681898  0.58909338  0.19342504  1
  Se  Se256  1  0.75087006  0.58735413  0.69779538  1
  Se  Se257  1  0.76272545  0.90792689  0.18680285  1
  Se  Se258  1  0.75363746  0.91758750  0.69743962  1
