# generated using pymatgen
data_In86Cu29Se144
_symmetry_space_group_name_H-M   'P 1'
_cell_length_a   17.58256220
_cell_length_b   17.58544050
_cell_length_c   23.44523728
_cell_angle_alpha   90.01680162
_cell_angle_beta   90.01621878
_cell_angle_gamma   89.98560789
_symmetry_Int_Tables_number   1
_chemical_formula_structural   In86Cu29Se144
_chemical_formula_sum   'In86 Cu29 Se144'
_cell_volume   7249.19857546
_cell_formula_units_Z   1
loop_
 _symmetry_equiv_pos_site_id
 _symmetry_equiv_pos_as_xyz
  1  'x, y, z'
loop_
 _atom_site_type_symbol
 _atom_site_label
 _atom_site_symmetry_multiplicity
 _atom_site_fract_x
 _atom_site_fract_y
 _atom_site_fract_z
 _atom_site_occupancy
  In  In0  1  -0.00372257  0.17639508  0.12323607  1
  In  In1  1  -0.00240389  0.16675291  0.62735404  1
  In  In2  1  0.01012094  0.50401338  0.12823350  1
  In  In3  1  -0.01074190  0.49016768  0.61413899  1
  In  In4  1  -0.01031878  0.81801118  0.11098681  1
  In  In5  1  0.01103433  0.83261046  0.62399924  1
  In  In6  1  0.33815218  0.14822900  0.13156780  1
  In  In7  1  0.33945756  0.18721383  0.62771368  1
  In  In8  1  0.33566985  0.50358792  0.13022174  1
  In  In9  1  0.33659103  0.50176764  0.62267795  1
  In  In10  1  0.34737490  0.84472471  0.11211377  1
  In  In11  1  0.32755230  0.82413024  0.62160002  1
  In  In12  1  0.65200033  0.17105424  0.13060833  1
  In  In13  1  0.67184364  0.16325977  0.64179869  1
  In  In14  1  0.65801493  0.49552600  0.13041549  1
  In  In15  1  0.66595344  0.50023357  0.62657649  1
  In  In16  1  0.68246776  0.84831987  0.10639365  1
  In  In17  1  0.65955656  0.84709721  0.63484688  1
  In  In18  1  0.17109233  -0.01023409  0.38441660  1
  In  In19  1  0.15454374  -0.00213852  0.87314819  1
  In  In20  1  0.15913242  0.33878414  0.39016971  1
  In  In21  1  0.16273813  0.33017802  0.86066508  1
  In  In22  1  0.16521925  0.67336629  0.37727714  1
  In  In23  1  0.17273266  0.66343123  0.87259702  1
  In  In24  1  0.49021914  0.00139984  0.36561653  1
  In  In25  1  0.51701202  -0.00756612  0.88734924  1
  In  In26  1  0.51841927  0.32739185  0.38005685  1
  In  In27  1  0.49440399  0.31983982  0.86239467  1
  In  In28  1  0.49655629  0.67179820  0.38726724  1
  In  In29  1  0.50952748  0.67995509  0.86350368  1
  In  In30  1  0.83372467  0.01481934  0.37753434  1
  In  In31  1  0.81422852  -0.01908444  0.85900833  1
  In  In32  1  0.82473319  0.33587174  0.38462372  1
  In  In33  1  0.81121893  0.30310424  0.84042525  1
  In  In34  1  0.83107317  0.64913444  0.37426895  1
  In  In35  1  0.82390241  0.68247332  0.88111942  1
  In  In36  1  -0.00642771  0.17090405  0.38914424  1
  In  In37  1  -0.03022621  0.14373762  0.83916787  1
  In  In38  1  -0.00269306  0.50286230  0.38009577  1
  In  In39  1  0.00686064  0.49818417  0.87101436  1
  In  In40  1  0.01276858  0.83502772  0.37253549  1
  In  In41  1  -0.01713605  0.83800760  0.88820234  1
  In  In42  1  0.33734807  0.14973916  0.37867452  1
  In  In43  1  0.33541666  0.17792722  0.86881384  1
  In  In44  1  0.32979234  0.50843337  0.38788875  1
  In  In45  1  0.32770126  0.49776475  0.86280862  1
  In  In46  1  0.33170006  0.84108600  0.37870512  1
  In  In47  1  0.34571939  0.82810282  0.87951917  1
  In  In48  1  0.66504733  0.17308690  0.37017733  1
  In  In49  1  0.64786833  0.14384755  0.84469633  1
  In  In50  1  0.67715990  0.48962891  0.38699035  1
  In  In51  1  0.66455723  0.49944417  0.86579227  1
  In  In52  1  0.65219572  0.83480944  0.37602992  1
  In  In53  1  0.66380154  0.83333437  0.88048853  1
  In  In54  1  0.18095546  -0.00268182  0.12681734  1
  In  In55  1  0.15982861  -0.00806531  0.61881910  1
  In  In56  1  0.16801569  0.33635819  0.12437640  1
  In  In57  1  0.16847871  0.33567957  0.62062641  1
  In  In58  1  0.14723691  0.67399627  0.13264977  1
  In  In59  1  0.17329974  0.67554300  0.61751850  1
  In  In60  1  0.50508059  -0.00189787  0.12400260  1
  In  In61  1  0.51699340  0.00899628  0.63093779  1
  In  In62  1  0.51311744  0.34014104  0.12789404  1
  In  In63  1  0.48950894  0.33324663  0.63887528  1
  In  In64  1  0.49430005  0.67360936  0.12328982  1
  In  In65  1  0.50129085  0.66735398  0.62647175  1
  In  In66  1  0.83162478  -0.01025406  0.12391944  1
  In  In67  1  0.82572410  0.01778214  0.64006885  1
  In  In68  1  0.82449247  0.31713339  0.12028372  1
  In  In69  1  0.83061536  0.33173869  0.62960785  1
  In  In70  1  0.83578183  0.67774118  0.12258469  1
  In  In71  1  0.83510750  0.65360024  0.62302361  1
  In  In72  1  0.81747184  0.15258731  -0.01912377  1
  In  In73  1  0.00001850  0.66708887  0.74926772  1
  In  In74  1  0.33177707  0.67211640  0.25609799  1
  In  In75  1  0.49909796  0.50893527  0.00086620  1
  In  In76  1  0.16768924  0.50486536  -0.00431753  1
  In  In77  1  0.66894206  0.66748928  0.24968439  1
  In  In78  1  0.33822104  0.00134341  0.74978409  1
  In  In79  1  0.16604660  0.16641164  -0.00346592  1
  In  In80  1  0.33523968  0.33129589  0.25588146  1
  In  In81  1  0.00065663  -0.00232034  0.24954226  1
  In  In82  1  0.50103431  0.16631894  0.50444234  1
  In  In83  1  -0.00641457  0.33666281  0.26127811  1
  In  In84  1  0.83531737  0.83180693  0.50354454  1
  In  In85  1  0.83668718  0.50190261  -0.01218557  1
  Cu  Cu86  1  0.49685888  0.50183744  0.74640669  1
  Cu  Cu87  1  0.83210263  0.50401811  0.74487398  1
  Cu  Cu88  1  0.16934974  0.50203338  0.73847400  1
  Cu  Cu89  1  0.16690108  0.83137007  0.74633459  1
  Cu  Cu90  1  0.16988000  0.17079305  0.74362435  1
  Cu  Cu91  1  0.33990477  0.32570140  -0.00631676  1
  Cu  Cu92  1  0.33019019  0.66820024  -0.00440201  1
  Cu  Cu93  1  0.17187433  0.83687155  0.25148814  1
  Cu  Cu94  1  0.50313508  0.84494584  0.24320610  1
  Cu  Cu95  1  0.82938640  0.83546997  0.75437109  1
  Cu  Cu96  1  0.33898605  0.66589750  0.50285633  1
  Cu  Cu97  1  0.16635161  0.16446818  0.25789305  1
  Cu  Cu98  1  0.33286388  0.33735630  0.50611747  1
  Cu  Cu99  1  0.81583556  0.16368021  0.24995049  1
  Cu  Cu100  1  0.33879431  0.00249334  0.00069112  1
  Cu  Cu101  1  0.66752139  0.00281321  0.50763868  1
  Cu  Cu102  1  0.50929040  0.49587109  0.26084815  1
  Cu  Cu103  1  0.65983314  0.33561505  -0.00157757  1
  Cu  Cu104  1  -0.00505480  0.00432995  0.50372488  1
  Cu  Cu105  1  -0.00000964  0.33180307  0.50697358  1
  Cu  Cu106  1  0.33364292  -0.00631875  0.50118197  1
  Cu  Cu107  1  0.83744492  0.49191540  0.25582718  1
  Cu  Cu108  1  0.66945748  0.33167667  0.50726602  1
  Cu  Cu109  1  0.00201919  -0.00693209  -0.00072574  1
  Cu  Cu110  1  0.00355417  0.66579805  0.50026361  1
  Cu  Cu111  1  0.66356313  0.66530962  0.50316481  1
  Cu  Cu112  1  0.49981377  0.82864378  0.75311833  1
  Cu  Cu113  1  -0.00152723  0.32843033  -0.01500526  1
  Cu  Cu114  1  0.83320306  0.83064641  0.24209776  1
  Se  Se115  1  0.07540164  0.07741096  0.06118755  1
  Se  Se116  1  0.08163825  0.08556584  0.55582855  1
  Se  Se117  1  0.07386249  0.40576738  0.05089438  1
  Se  Se118  1  0.08785833  0.42027871  0.55042650  1
  Se  Se119  1  0.09556099  0.75474806  0.05119886  1
  Se  Se120  1  0.08521163  0.75413131  0.54885072  1
  Se  Se121  1  0.42081150  0.08505296  0.05457402  1
  Se  Se122  1  0.40951502  0.07550476  0.56452863  1
  Se  Se123  1  0.40823319  0.41161010  0.05819961  1
  Se  Se124  1  0.42296937  0.41250358  0.55920609  1
  Se  Se125  1  0.41895672  0.74800925  0.04716303  1
  Se  Se126  1  0.42118075  0.75163479  0.55494041  1
  Se  Se127  1  0.74455431  0.08399944  0.06362716  1
  Se  Se128  1  0.74631230  0.08766901  0.56236829  1
  Se  Se129  1  0.74429762  0.41442125  0.05563201  1
  Se  Se130  1  0.75246497  0.41765281  0.55872780  1
  Se  Se131  1  0.75057741  0.74319441  0.04981374  1
  Se  Se132  1  0.74162063  0.74787906  0.56445714  1
  Se  Se133  1  0.25887657  0.25275683  0.05981408  1
  Se  Se134  1  0.25032705  0.24720743  0.55241438  1
  Se  Se135  1  0.25555253  0.59120744  0.06135265  1
  Se  Se136  1  0.25172458  0.58352687  0.55337946  1
  Se  Se137  1  0.24942799  0.91943004  0.04877391  1
  Se  Se138  1  0.24796261  0.91044842  0.55321746  1
  Se  Se139  1  0.57957025  0.25339031  0.05401824  1
  Se  Se140  1  0.58895970  0.25240545  0.56840898  1
  Se  Se141  1  0.59450293  0.59362792  0.06064100  1
  Se  Se142  1  0.58141858  0.58138512  0.55676802  1
  Se  Se143  1  0.56807514  0.90317486  0.05322987  1
  Se  Se144  1  0.58156538  0.91905079  0.55684536  1
  Se  Se145  1  0.91614671  0.24839449  0.04476606  1
  Se  Se146  1  0.91402844  0.25036454  0.55853349  1
  Se  Se147  1  0.92232609  0.58184288  0.05892291  1
  Se  Se148  1  0.91434399  0.58280502  0.54694049  1
  Se  Se149  1  0.91233157  0.91523171  0.05078594  1
  Se  Se150  1  0.91613907  0.92546986  0.56644848  1
  Se  Se151  1  0.08445298  0.24594483  0.45512562  1
  Se  Se152  1  0.07775870  0.24471067  0.92906731  1
  Se  Se153  1  0.08686050  0.58449821  0.44467683  1
  Se  Se154  1  0.07166602  0.59491436  0.94297667  1
  Se  Se155  1  0.07597048  0.91755614  0.45051762  1
  Se  Se156  1  0.08679213  0.91180843  0.94666964  1
  Se  Se157  1  0.41021630  0.25622956  0.44272615  1
  Se  Se158  1  0.42410980  0.24401331  0.94291245  1
  Se  Se159  1  0.42447555  0.57918797  0.45396462  1
  Se  Se160  1  0.40708241  0.58657708  0.93439246  1
  Se  Se161  1  0.42241514  0.92048187  0.44409979  1
  Se  Se162  1  0.42036826  0.91588140  0.94856805  1
  Se  Se163  1  0.74361221  0.24486609  0.44807365  1
  Se  Se164  1  0.74064707  0.26272573  0.93470778  1
  Se  Se165  1  0.75181001  0.58357269  0.45275707  1
  Se  Se166  1  0.73295051  0.58916380  0.94179408  1
  Se  Se167  1  0.74468433  0.92233176  0.44372700  1
  Se  Se168  1  0.74770094  0.92321824  0.94419011  1
  Se  Se169  1  0.24992695  0.08000363  0.45063387  1
  Se  Se170  1  0.25774337  0.07716845  0.93653169  1
  Se  Se171  1  0.24883113  0.42087265  0.45328946  1
  Se  Se172  1  0.25403788  0.40555048  0.93873038  1
  Se  Se173  1  0.25740060  0.74789913  0.44414607  1
  Se  Se174  1  0.24823525  0.75128279  0.94186028  1
  Se  Se175  1  0.58669770  0.07682671  0.44187805  1
  Se  Se176  1  0.59977574  0.09217755  0.93968413  1
  Se  Se177  1  0.58503653  0.41445338  0.45387731  1
  Se  Se178  1  0.57937472  0.41458667  0.93754504  1
  Se  Se179  1  0.58357946  0.75451422  0.45267633  1
  Se  Se180  1  0.57472938  0.74987270  0.94486229  1
  Se  Se181  1  0.90759301  0.08800199  0.45513444  1
  Se  Se182  1  0.92794063  0.07334609  0.93443355  1
  Se  Se183  1  0.91968124  0.41283660  0.44673242  1
  Se  Se184  1  0.91495806  0.40502596  0.92716644  1
  Se  Se185  1  0.92142586  0.74450532  0.43771082  1
  Se  Se186  1  0.91517566  0.74214787  0.95344852  1
  Se  Se187  1  0.24113637  0.24776153  0.31841224  1
  Se  Se188  1  0.25504781  0.25319158  0.79554705  1
  Se  Se189  1  0.24477528  0.57594548  0.30937837  1
  Se  Se190  1  0.24672426  0.58533934  0.79679768  1
  Se  Se191  1  0.25133925  0.92109227  0.30631450  1
  Se  Se192  1  0.24744048  0.91042536  0.80885161  1
  Se  Se193  1  0.57360840  0.24396217  0.30183056  1
  Se  Se194  1  0.60197978  0.26759476  0.79875011  1
  Se  Se195  1  0.58422842  0.58299822  0.31867280  1
  Se  Se196  1  0.58193324  0.58440330  0.79896521  1
  Se  Se197  1  0.58546783  0.92153199  0.30280134  1
  Se  Se198  1  0.58168084  0.91301732  0.80683196  1
  Se  Se199  1  0.90249348  0.23818640  0.31093219  1
  Se  Se200  1  0.94723991  0.27940082  0.80382624  1
  Se  Se201  1  0.92017795  0.58021359  0.30309145  1
  Se  Se202  1  0.90634921  0.58311112  0.81123773  1
  Se  Se203  1  0.90706070  0.91030936  0.30977460  1
  Se  Se204  1  0.92334983  0.91259583  0.80327338  1
  Se  Se205  1  0.08154120  0.08769659  0.31660861  1
  Se  Se206  1  0.09156321  0.08254041  0.79645772  1
  Se  Se207  1  0.09303378  0.42373281  0.31068651  1
  Se  Se208  1  0.08619631  0.42442165  0.79658361  1
  Se  Se209  1  0.08743718  0.75121925  0.30105533  1
  Se  Se210  1  0.08417160  0.75831740  0.81128285  1
  Se  Se211  1  0.41863748  0.09445574  0.29911853  1
  Se  Se212  1  0.42623871  0.08024648  0.81651142  1
  Se  Se213  1  0.42094064  0.42334250  0.31873526  1
  Se  Se214  1  0.41562379  0.41475825  0.79980378  1
  Se  Se215  1  0.43024899  0.76174667  0.30802049  1
  Se  Se216  1  0.40815356  0.74707352  0.79920171  1
  Se  Se217  1  0.74154837  0.07639000  0.30539282  1
  Se  Se218  1  0.78625094  0.11153010  0.81288338  1
  Se  Se219  1  0.74941273  0.41376979  0.30812685  1
  Se  Se220  1  0.74594590  0.42039628  0.79468900  1
  Se  Se221  1  0.75794667  0.75732012  0.31242586  1
  Se  Se222  1  0.74436871  0.75223772  0.80524145  1
  Se  Se223  1  0.24684035  0.08172779  0.20309686  1
  Se  Se224  1  0.24864540  0.08589865  0.68474294  1
  Se  Se225  1  0.24277847  0.42434443  0.19615791  1
  Se  Se226  1  0.25438235  0.41511699  0.69058853  1
  Se  Se227  1  0.25250359  0.75985832  0.18739326  1
  Se  Se228  1  0.25012356  0.74628329  0.69670945  1
  Se  Se229  1  0.58197718  0.07821389  0.19717435  1
  Se  Se230  1  0.58833050  0.08041849  0.70961333  1
  Se  Se231  1  0.58949915  0.41331232  0.20596097  1
  Se  Se232  1  0.58350299  0.41824996  0.69669273  1
  Se  Se233  1  0.58263091  0.75809066  0.18866072  1
  Se  Se234  1  0.58503183  0.74944416  0.69686175  1
  Se  Se235  1  0.90803230  0.09318109  0.19181261  1
  Se  Se236  1  0.93135324  0.07813706  0.70161395  1
  Se  Se237  1  0.90903621  0.41447173  0.18616483  1
  Se  Se238  1  0.91753460  0.42071303  0.69431356  1
  Se  Se239  1  0.92215663  0.74838789  0.19550472  1
  Se  Se240  1  0.90756680  0.75792306  0.68927643  1
  Se  Se241  1  0.08925884  0.24603353  0.19745665  1
  Se  Se242  1  0.08606489  0.25395957  0.69048459  1
  Se  Se243  1  0.09034490  0.57568781  0.20116610  1
  Se  Se244  1  0.08350855  0.58121387  0.68156635  1
  Se  Se245  1  0.08670124  0.90880338  0.18716287  1
  Se  Se246  1  0.08366222  0.91698294  0.69693507  1
  Se  Se247  1  0.42123940  0.24993246  0.18933662  1
  Se  Se248  1  0.43040112  0.23149245  0.70559375  1
  Se  Se249  1  0.43064954  0.57744224  0.20020954  1
  Se  Se250  1  0.41382587  0.58663722  0.69422108  1
  Se  Se251  1  0.41091285  0.92137184  0.19310104  1
  Se  Se252  1  0.42406751  0.90912353  0.68814295  1
  Se  Se253  1  0.74132859  0.25443740  0.19692129  1
  Se  Se254  1  0.76168375  0.24632542  0.70378308  1
  Se  Se255  1  0.76103213  0.57430649  0.19166332  1
  Se  Se256  1  0.74637340  0.58888160  0.69595662  1
  Se  Se257  1  0.74625148  0.91364674  0.19411306  1
  Se  Se258  1  0.74718062  0.92402080  0.70346147  1
