# generated using pymatgen
data_In86Cu29Se144
_symmetry_space_group_name_H-M   'P 1'
_cell_length_a   17.57750936
_cell_length_b   17.58265505
_cell_length_c   23.44099278
_cell_angle_alpha   90.01916797
_cell_angle_beta   90.00371298
_cell_angle_gamma   90.03303973
_symmetry_Int_Tables_number   1
_chemical_formula_structural   In86Cu29Se144
_chemical_formula_sum   'In86 Cu29 Se144'
_cell_volume   7244.65481118
_cell_formula_units_Z   1
loop_
 _symmetry_equiv_pos_site_id
 _symmetry_equiv_pos_as_xyz
  1  'x, y, z'
loop_
 _atom_site_type_symbol
 _atom_site_label
 _atom_site_symmetry_multiplicity
 _atom_site_fract_x
 _atom_site_fract_y
 _atom_site_fract_z
 _atom_site_occupancy
  In  In0  1  0.01124737  0.17393045  0.11769936  1
  In  In1  1  -0.01780713  0.16998400  0.62465918  1
  In  In2  1  -0.00999284  0.50030823  0.11895916  1
  In  In3  1  0.02419944  0.50171557  0.62956462  1
  In  In4  1  0.00545168  0.82134578  0.12213774  1
  In  In5  1  0.00931744  0.81869117  0.64333655  1
  In  In6  1  0.33529050  0.16465971  0.12743514  1
  In  In7  1  0.35122007  0.16067122  0.62026855  1
  In  In8  1  0.32524858  0.49798512  0.14156385  1
  In  In9  1  0.31124636  0.51312630  0.64632348  1
  In  In10  1  0.33293357  0.83452709  0.12388729  1
  In  In11  1  0.31108967  0.81772409  0.59508029  1
  In  In12  1  0.66444147  0.16760659  0.12056385  1
  In  In13  1  0.66732786  0.16044315  0.61858763  1
  In  In14  1  0.66870794  0.48571669  0.12693070  1
  In  In15  1  0.65285101  0.49225827  0.62783388  1
  In  In16  1  0.65893734  0.85194287  0.13292772  1
  In  In17  1  0.65540155  0.84615494  0.62121327  1
  In  In18  1  0.18087168  -0.02193071  0.38225167  1
  In  In19  1  0.16309006  0.00451398  0.88056810  1
  In  In20  1  0.17889498  0.35068171  0.35971251  1
  In  In21  1  0.16340601  0.32812656  0.87302476  1
  In  In22  1  0.18860838  0.66161338  0.39543891  1
  In  In23  1  0.18244647  0.67584773  0.86550668  1
  In  In24  1  0.50009370  0.00446527  0.36522443  1
  In  In25  1  0.49970261  0.00151867  0.88276789  1
  In  In26  1  0.49592694  0.32437162  0.36812490  1
  In  In27  1  0.49018445  0.32361716  0.87284203  1
  In  In28  1  0.47466254  0.68828259  0.38392764  1
  In  In29  1  0.49527186  0.67805325  0.87531851  1
  In  In30  1  0.83602830  0.02049255  0.37473682  1
  In  In31  1  0.84814492  0.00053504  0.87595571  1
  In  In32  1  0.82433372  0.31998255  0.36578549  1
  In  In33  1  0.82892346  0.34006771  0.88049218  1
  In  In34  1  0.83543873  0.66755825  0.37498658  1
  In  In35  1  0.83063136  0.65712963  0.87356365  1
  In  In36  1  -0.00923965  0.16896879  0.37557930  1
  In  In37  1  0.00773445  0.16045809  0.88255070  1
  In  In38  1  0.03116161  0.50158028  0.37312146  1
  In  In39  1  -0.00552264  0.49210965  0.87197816  1
  In  In40  1  0.01928365  0.84040435  0.37976221  1
  In  In41  1  0.00714274  0.85083438  0.86238945  1
  In  In42  1  0.34793544  0.17476300  0.37258063  1
  In  In43  1  0.33026336  0.17025912  0.88364794  1
  In  In44  1  0.32737918  0.50210858  0.37223424  1
  In  In45  1  0.32678639  0.49865538  0.86147061  1
  In  In46  1  0.34095354  0.83342060  0.36173607  1
  In  In47  1  0.33856627  0.83097030  0.87738968  1
  In  In48  1  0.65895409  0.16243971  0.37196463  1
  In  In49  1  0.65722671  0.17679865  0.88358444  1
  In  In50  1  0.67503419  0.49412324  0.36859331  1
  In  In51  1  0.68247312  0.49691944  0.87643862  1
  In  In52  1  0.63025381  0.86264518  0.38476636  1
  In  In53  1  0.65576299  0.82569050  0.87979061  1
  In  In54  1  0.17901097  0.00559846  0.12124235  1
  In  In55  1  0.16805346  -0.01611176  0.62168250  1
  In  In56  1  0.18022648  0.32037263  0.14058479  1
  In  In57  1  0.16796560  0.34570084  0.62497507  1
  In  In58  1  0.16211056  0.67301113  0.12016573  1
  In  In59  1  0.16878886  0.66564345  0.63141128  1
  In  In60  1  0.49456387  0.00033153  0.12568463  1
  In  In61  1  0.49225263  -0.00796093  0.60032874  1
  In  In62  1  0.50996737  0.32518750  0.13418794  1
  In  In63  1  0.49912046  0.32752469  0.62943562  1
  In  In64  1  0.48338335  0.66980849  0.12863854  1
  In  In65  1  0.47205918  0.66642721  0.61919037  1
  In  In66  1  0.81536777  0.00354750  0.12705168  1
  In  In67  1  0.82842481  0.00792209  0.62962747  1
  In  In68  1  0.83402361  0.32914010  0.12034421  1
  In  In69  1  0.82979775  0.31356135  0.62427729  1
  In  In70  1  0.84291781  0.66345920  0.11915412  1
  In  In71  1  0.85033253  0.67559220  0.63236381  1
  In  In72  1  0.66662319  0.66254161  0.75192771  1
  In  In73  1  0.66683035  0.00181044  0.74441656  1
  In  In74  1  0.83609742  0.83753641  0.50522140  1
  In  In75  1  0.00230716  0.65991881  0.24643285  1
  In  In76  1  0.83190827  0.83497419  -0.00023758  1
  In  In77  1  0.16946783  0.16613795  0.49138760  1
  In  In78  1  0.00267590  0.00374738  0.25274277  1
  In  In79  1  0.49007804  0.49427249  0.49538130  1
  In  In80  1  0.66095130  0.66486997  0.25470500  1
  In  In81  1  0.33559688  -0.00023201  0.73592866  1
  In  In82  1  -0.00038241  0.33520747  0.75245672  1
  In  In83  1  0.49966275  0.49746166  0.00618350  1
  In  In84  1  0.84089806  0.49207682  0.49899114  1
  In  In85  1  0.16301375  0.49552495  -0.00240458  1
  Cu  Cu86  1  0.66030754  0.00534410  0.00428653  1
  Cu  Cu87  1  0.33080183  0.34067929  0.49923820  1
  Cu  Cu88  1  0.83718363  0.48777331  0.24677015  1
  Cu  Cu89  1  0.82891808  0.16438896  0.75032908  1
  Cu  Cu90  1  0.49981552  0.16544031  0.74931140  1
  Cu  Cu91  1  0.00046563  0.32949125  -0.00081215  1
  Cu  Cu92  1  0.33622124  0.32635763  0.00675102  1
  Cu  Cu93  1  0.49376077  0.82910197  0.74652187  1
  Cu  Cu94  1  0.82882430  0.17094563  0.24603437  1
  Cu  Cu95  1  0.67131984  0.33319025  0.00309564  1
  Cu  Cu96  1  0.66321261  0.66822169  -0.00114653  1
  Cu  Cu97  1  0.33274176  0.66921495  -0.00198474  1
  Cu  Cu98  1  0.00247974  -0.00115063  -0.00001852  1
  Cu  Cu99  1  0.00097589  0.33713572  0.49919394  1
  Cu  Cu100  1  0.17273665  0.83594135  0.74646608  1
  Cu  Cu101  1  0.50198738  0.16604000  0.24643201  1
  Cu  Cu102  1  0.66643452  0.32052722  0.49774059  1
  Cu  Cu103  1  0.17426534  0.82810289  0.24818306  1
  Cu  Cu104  1  0.83511795  0.49315766  0.75109000  1
  Cu  Cu105  1  0.50091912  0.49132962  0.74977192  1
  Cu  Cu106  1  0.66331327  0.66896380  0.50233600  1
  Cu  Cu107  1  0.01304163  0.67293408  0.50728853  1
  Cu  Cu108  1  0.49778267  0.50067303  0.25520838  1
  Cu  Cu109  1  0.33203163  -0.00271123  0.00324279  1
  Cu  Cu110  1  -0.00062570  0.00014393  0.50289408  1
  Cu  Cu111  1  0.16477250  0.16449382  0.75591706  1
  Cu  Cu112  1  0.17074808  0.16090373  0.25409010  1
  Cu  Cu113  1  0.82329072  0.83567463  0.25738291  1
  Cu  Cu114  1  0.00185389  0.66868054  -0.00560579  1
  Se  Se115  1  0.08771695  0.08061750  0.05371926  1
  Se  Se116  1  0.07976670  0.08521607  0.56156309  1
  Se  Se117  1  0.08299971  0.40422655  0.06251996  1
  Se  Se118  1  0.08628597  0.41903400  0.55041430  1
  Se  Se119  1  0.08584336  0.75197674  0.04567686  1
  Se  Se120  1  0.09030241  0.75795736  0.56272459  1
  Se  Se121  1  0.41479974  0.08429089  0.05442669  1
  Se  Se122  1  0.42988487  0.09914290  0.54078838  1
  Se  Se123  1  0.40834241  0.41183436  0.06789478  1
  Se  Se124  1  0.40648313  0.41618923  0.56695111  1
  Se  Se125  1  0.41596506  0.75123862  0.05216776  1
  Se  Se126  1  0.43248341  0.76662757  0.54660675  1
  Se  Se127  1  0.75116572  0.08692217  0.05045501  1
  Se  Se128  1  0.75148851  0.07632927  0.55328855  1
  Se  Se129  1  0.75463131  0.42037489  0.05220769  1
  Se  Se130  1  0.74128515  0.40792198  0.55740567  1
  Se  Se131  1  0.74060667  0.74904452  0.06391590  1
  Se  Se132  1  0.74684846  0.74144069  0.56383417  1
  Se  Se133  1  0.24749721  0.24701128  0.05870316  1
  Se  Se134  1  0.25436082  0.25412175  0.55880806  1
  Se  Se135  1  0.25784276  0.58254935  0.05727148  1
  Se  Se136  1  0.25474527  0.58716519  0.56257021  1
  Se  Se137  1  0.24627030  0.91125483  0.05213391  1
  Se  Se138  1  0.27724269  0.94931960  0.55485504  1
  Se  Se139  1  0.58070061  0.25411366  0.05317312  1
  Se  Se140  1  0.58028040  0.24913989  0.55703757  1
  Se  Se141  1  0.58937219  0.59014601  0.06559005  1
  Se  Se142  1  0.58174840  0.58717697  0.55856820  1
  Se  Se143  1  0.57957021  0.91725439  0.05452240  1
  Se  Se144  1  0.60175736  0.92958385  0.54305506  1
  Se  Se145  1  0.91637205  0.24517663  0.05130240  1
  Se  Se146  1  0.91492908  0.25143429  0.54668492  1
  Se  Se147  1  0.91734712  0.58411755  0.04488770  1
  Se  Se148  1  0.92576738  0.58831429  0.55900606  1
  Se  Se149  1  0.92112004  0.92324094  0.06407040  1
  Se  Se150  1  0.92794698  0.91899709  0.56914165  1
  Se  Se151  1  0.08225953  0.26175364  0.43523586  1
  Se  Se152  1  0.08897173  0.24934939  0.94778224  1
  Se  Se153  1  0.08925608  0.58333921  0.45380931  1
  Se  Se154  1  0.08227422  0.58896367  0.93356176  1
  Se  Se155  1  0.08913853  0.91703270  0.45766776  1
  Se  Se156  1  0.08201421  0.91354475  0.94543745  1
  Se  Se157  1  0.41772742  0.25921287  0.44846686  1
  Se  Se158  1  0.42097360  0.24635337  0.95180678  1
  Se  Se159  1  0.39721786  0.59356765  0.45000398  1
  Se  Se160  1  0.40941123  0.58189417  0.94020593  1
  Se  Se161  1  0.44047651  0.89727135  0.42916459  1
  Se  Se162  1  0.41639456  0.91578489  0.94743867  1
  Se  Se163  1  0.74959932  0.24224957  0.44111462  1
  Se  Se164  1  0.75349055  0.24956804  0.94824002  1
  Se  Se165  1  0.74426524  0.58754128  0.44535828  1
  Se  Se166  1  0.74987831  0.58544041  0.94965653  1
  Se  Se167  1  0.75419497  0.92135229  0.43636710  1
  Se  Se168  1  0.73964157  0.92603824  0.94010277  1
  Se  Se169  1  0.26600702  0.07721389  0.43889182  1
  Se  Se170  1  0.24950016  0.08238337  0.94905117  1
  Se  Se171  1  0.24703479  0.41914314  0.44387859  1
  Se  Se172  1  0.26190689  0.40809322  0.94225626  1
  Se  Se173  1  0.24057405  0.78413028  0.43756689  1
  Se  Se174  1  0.24909807  0.75286939  0.94557599  1
  Se  Se175  1  0.56505914  0.09457437  0.44029445  1
  Se  Se176  1  0.57738603  0.08866916  0.95008161  1
  Se  Se177  1  0.59217008  0.40957013  0.44037031  1
  Se  Se178  1  0.58830596  0.41186998  0.94138623  1
  Se  Se179  1  0.58465940  0.74724601  0.44382938  1
  Se  Se180  1  0.57433795  0.75058737  0.95231681  1
  Se  Se181  1  0.91987769  0.08659418  0.45122794  1
  Se  Se182  1  0.91724122  0.08376075  0.95064556  1
  Se  Se183  1  0.92377715  0.41041573  0.43011943  1
  Se  Se184  1  0.91899304  0.41741039  0.94811436  1
  Se  Se185  1  0.92925617  0.74463887  0.44363600  1
  Se  Se186  1  0.92060254  0.75050183  0.93528878  1
  Se  Se187  1  0.25423469  0.24756886  0.30485935  1
  Se  Se188  1  0.25058683  0.24514583  0.80804392  1
  Se  Se189  1  0.23753987  0.58525237  0.30971087  1
  Se  Se190  1  0.25317536  0.58764356  0.79551621  1
  Se  Se191  1  0.25273605  0.92025511  0.29641318  1
  Se  Se192  1  0.25087006  0.91898636  0.80764377  1
  Se  Se193  1  0.58580810  0.25105016  0.29945376  1
  Se  Se194  1  0.58159499  0.24780220  0.80465930  1
  Se  Se195  1  0.57092361  0.58117103  0.32032464  1
  Se  Se196  1  0.57629194  0.57320410  0.81450395  1
  Se  Se197  1  0.58478320  0.92518872  0.29354674  1
  Se  Se198  1  0.57342454  0.91021461  0.80581911  1
  Se  Se199  1  0.91910640  0.24786567  0.29873575  1
  Se  Se200  1  0.91099390  0.24337566  0.81206451  1
  Se  Se201  1  0.91130930  0.57094452  0.31012120  1
  Se  Se202  1  0.91516489  0.57866262  0.80381659  1
  Se  Se203  1  0.91435149  0.91029341  0.31416662  1
  Se  Se204  1  0.90782498  0.91809425  0.79881334  1
  Se  Se205  1  0.09451593  0.08303944  0.31923883  1
  Se  Se206  1  0.08104527  0.08068668  0.80669171  1
  Se  Se207  1  0.07130712  0.40694171  0.29683999  1
  Se  Se208  1  0.09631631  0.42765106  0.80357869  1
  Se  Se209  1  0.08953437  0.75076194  0.30718506  1
  Se  Se210  1  0.08926576  0.75627371  0.80278714  1
  Se  Se211  1  0.41338169  0.08652220  0.29780710  1
  Se  Se212  1  0.41830864  0.08425451  0.80820628  1
  Se  Se213  1  0.41352482  0.41692670  0.30744916  1
  Se  Se214  1  0.41530119  0.41023301  0.80287173  1
  Se  Se215  1  0.41059016  0.73784900  0.29387290  1
  Se  Se216  1  0.41097326  0.74796977  0.80138858  1
  Se  Se217  1  0.74914942  0.08631010  0.30121568  1
  Se  Se218  1  0.74866913  0.08810759  0.81403597  1
  Se  Se219  1  0.74699525  0.40944694  0.29724720  1
  Se  Se220  1  0.74972863  0.41042665  0.80184494  1
  Se  Se221  1  0.74492125  0.75746351  0.31841285  1
  Se  Se222  1  0.75215008  0.75815986  0.81047629  1
  Se  Se223  1  0.25286455  0.08071288  0.19792624  1
  Se  Se224  1  0.24052717  0.09487633  0.68481725  1
  Se  Se225  1  0.24487405  0.41545531  0.20804097  1
  Se  Se226  1  0.25062922  0.40362235  0.70340081  1
  Se  Se227  1  0.25047798  0.74379648  0.19020069  1
  Se  Se228  1  0.25841822  0.76079108  0.68850581  1
  Se  Se229  1  0.58438676  0.08413834  0.19042443  1
  Se  Se230  1  0.56806662  0.08032559  0.68521679  1
  Se  Se231  1  0.58275212  0.41999848  0.20130891  1
  Se  Se232  1  0.58545639  0.40673845  0.70079507  1
  Se  Se233  1  0.57447808  0.75550897  0.19420352  1
  Se  Se234  1  0.57732533  0.74888102  0.68749030  1
  Se  Se235  1  0.91308687  0.08852409  0.18849674  1
  Se  Se236  1  0.91644166  0.08340266  0.69991069  1
  Se  Se237  1  0.92016023  0.41103158  0.18962658  1
  Se  Se238  1  0.91162043  0.41882893  0.68327531  1
  Se  Se239  1  0.90494763  0.75915328  0.19596364  1
  Se  Se240  1  0.91562735  0.74984682  0.71117134  1
  Se  Se241  1  0.08339774  0.23989608  0.20066200  1
  Se  Se242  1  0.08597501  0.24286342  0.69033309  1
  Se  Se243  1  0.09118191  0.57130278  0.18603641  1
  Se  Se244  1  0.07439405  0.59811348  0.70092538  1
  Se  Se245  1  0.08759160  0.90882119  0.19118216  1
  Se  Se246  1  0.08537218  0.92271318  0.70024526  1
  Se  Se247  1  0.41422234  0.25155467  0.19762874  1
  Se  Se248  1  0.41198671  0.24667080  0.69796577  1
  Se  Se249  1  0.41501558  0.58377609  0.20184624  1
  Se  Se250  1  0.42104739  0.58264239  0.70116654  1
  Se  Se251  1  0.40635732  0.92310930  0.19289802  1
  Se  Se252  1  0.42397854  0.90748356  0.67927532  1
  Se  Se253  1  0.74643663  0.25237379  0.18989206  1
  Se  Se254  1  0.74285836  0.24189753  0.69526656  1
  Se  Se255  1  0.75957944  0.58017397  0.19275169  1
  Se  Se256  1  0.75663958  0.57363607  0.68776358  1
  Se  Se257  1  0.74645162  0.92344814  0.20446163  1
  Se  Se258  1  0.75618350  0.90258767  0.69340118  1
