# generated using pymatgen
data_In86Cu29Se144
_symmetry_space_group_name_H-M   'P 1'
_cell_length_a   17.58173638
_cell_length_b   17.58168242
_cell_length_c   23.44236670
_cell_angle_alpha   89.97311330
_cell_angle_beta   89.99736695
_cell_angle_gamma   89.99148667
_symmetry_Int_Tables_number   1
_chemical_formula_structural   In86Cu29Se144
_chemical_formula_sum   'In86 Cu29 Se144'
_cell_volume   7246.42158837
_cell_formula_units_Z   1
loop_
 _symmetry_equiv_pos_site_id
 _symmetry_equiv_pos_as_xyz
  1  'x, y, z'
loop_
 _atom_site_type_symbol
 _atom_site_label
 _atom_site_symmetry_multiplicity
 _atom_site_fract_x
 _atom_site_fract_y
 _atom_site_fract_z
 _atom_site_occupancy
  In  In0  1  -0.01386198  0.17128890  0.14198155  1
  In  In1  1  0.03904064  0.14140761  0.65761951  1
  In  In2  1  0.00045662  0.50086896  0.12474445  1
  In  In3  1  0.01673792  0.48720748  0.64135591  1
  In  In4  1  0.00855520  0.82892957  0.12943547  1
  In  In5  1  0.00881516  0.81919913  0.62858771  1
  In  In6  1  0.34069817  0.17340559  0.13060675  1
  In  In7  1  0.31665424  0.15364788  0.61439937  1
  In  In8  1  0.34257439  0.49579581  0.13326545  1
  In  In9  1  0.33057096  0.49578853  0.61283466  1
  In  In10  1  0.32872029  0.82571357  0.12426386  1
  In  In11  1  0.34379575  0.84438174  0.61908904  1
  In  In12  1  0.68172037  0.17582312  0.13189580  1
  In  In13  1  0.66757766  0.17542685  0.61799691  1
  In  In14  1  0.66587538  0.50480503  0.13083613  1
  In  In15  1  0.66396762  0.51250521  0.62380455  1
  In  In16  1  0.64736526  0.82722564  0.12488174  1
  In  In17  1  0.64734434  0.82831572  0.62941854  1
  In  In18  1  0.16381763  0.00471103  0.38386138  1
  In  In19  1  0.15789198  -0.00541948  0.86464133  1
  In  In20  1  0.16894082  0.33622907  0.37512319  1
  In  In21  1  0.15132263  0.33871640  0.87027992  1
  In  In22  1  0.16701524  0.66305671  0.37511021  1
  In  In23  1  0.17374591  0.67761524  0.87273039  1
  In  In24  1  0.49952882  0.00092892  0.38200678  1
  In  In25  1  0.48176201  -0.01091031  0.86450584  1
  In  In26  1  0.49885679  0.33778625  0.37385095  1
  In  In27  1  0.51008607  0.33648971  0.87733027  1
  In  In28  1  0.49372061  0.66886158  0.37224860  1
  In  In29  1  0.49963259  0.66111913  0.88158883  1
  In  In30  1  0.84075687  -0.00097397  0.37080161  1
  In  In31  1  0.84587472  0.00152024  0.86816954  1
  In  In32  1  0.83909221  0.33246511  0.36082154  1
  In  In33  1  0.85866672  0.34718068  0.87919745  1
  In  In34  1  0.83046795  0.66207924  0.36508813  1
  In  In35  1  0.82404249  0.65986023  0.87411772  1
  In  In36  1  0.01186631  0.17886345  0.36901586  1
  In  In37  1  0.00566090  0.17282538  0.85863900  1
  In  In38  1  0.00426979  0.50289830  0.36901292  1
  In  In39  1  -0.01046691  0.49303134  0.87141653  1
  In  In40  1  0.01063677  0.83750424  0.37342684  1
  In  In41  1  0.01206807  0.84133277  0.86942223  1
  In  In42  1  0.32408020  0.17374589  0.38193052  1
  In  In43  1  0.34011921  0.16151594  0.86605505  1
  In  In44  1  0.33326065  0.50343712  0.37384023  1
  In  In45  1  0.33243652  0.51177893  0.87649433  1
  In  In46  1  0.34489732  0.81652637  0.38093885  1
  In  In47  1  0.32628047  0.83066015  0.87917457  1
  In  In48  1  0.65400794  0.16478966  0.37477406  1
  In  In49  1  0.66877571  0.17171615  0.87654999  1
  In  In50  1  0.66174166  0.49404126  0.36945524  1
  In  In51  1  0.65900322  0.51193459  0.88712579  1
  In  In52  1  0.65544049  0.81972777  0.36643932  1
  In  In53  1  0.66408954  0.81557561  0.87507442  1
  In  In54  1  0.16400328  -0.01516764  0.12421679  1
  In  In55  1  0.17326142  -0.00428902  0.62348481  1
  In  In56  1  0.16386597  0.33958122  0.13416527  1
  In  In57  1  0.16100339  0.33140480  0.61928679  1
  In  In58  1  0.15799876  0.67521178  0.13122570  1
  In  In59  1  0.16046454  0.66029535  0.61654767  1
  In  In60  1  0.50488908  -0.00697221  0.12349446  1
  In  In61  1  0.48393919  -0.01254309  0.61668150  1
  In  In62  1  0.49437037  0.34780272  0.13615840  1
  In  In63  1  0.49570805  0.32994546  0.61176329  1
  In  In64  1  0.50249931  0.66897977  0.13284738  1
  In  In65  1  0.50041806  0.67201107  0.62033983  1
  In  In66  1  0.83984475  0.01175787  0.12598445  1
  In  In67  1  0.85212976  0.00760868  0.62883582  1
  In  In68  1  0.82708319  0.34057174  0.13234737  1
  In  In69  1  0.84402939  0.33436170  0.62468458  1
  In  In70  1  0.84385781  0.65619773  0.13032099  1
  In  In71  1  0.83170943  0.66242286  0.63203493  1
  In  In72  1  0.16163140  0.16238527  -0.00647953  1
  In  In73  1  0.84017162  0.17084068  0.50190135  1
  In  In74  1  0.83048329  0.83228252  -0.00436464  1
  In  In75  1  0.83455497  0.50203563  0.49841577  1
  In  In76  1  0.50206673  0.16787966  0.00611988  1
  In  In77  1  0.32427356  0.32825865  0.74147769  1
  In  In78  1  0.32742678  -0.00002301  0.25129673  1
  In  In79  1  0.67072943  -0.00570261  0.74902551  1
  In  In80  1  0.83286025  0.17200241  0.00151438  1
  In  In81  1  0.82809062  0.83212902  0.49105833  1
  In  In82  1  0.67266111  0.33580763  0.74694389  1
  In  In83  1  0.67048904  0.00129931  0.24860094  1
  In  In84  1  0.32932651  0.66596964  0.75055566  1
  In  In85  1  0.16645757  0.50359653  0.00193885  1
  Cu  Cu86  1  0.16475692  0.83066877  0.25330815  1
  Cu  Cu87  1  0.33043300  0.66661447  0.49715876  1
  Cu  Cu88  1  0.65929501  -0.00264041  0.50036453  1
  Cu  Cu89  1  0.00577946  0.66105516  0.49983941  1
  Cu  Cu90  1  0.33137809  0.00085694  0.49810555  1
  Cu  Cu91  1  0.33606222  0.33819104  0.49335364  1
  Cu  Cu92  1  0.16428974  0.16826626  0.25845889  1
  Cu  Cu93  1  0.49889879  0.50027141  0.75384585  1
  Cu  Cu94  1  0.65390606  0.67138159  0.49990607  1
  Cu  Cu95  1  0.49951184  0.17762697  0.25350324  1
  Cu  Cu96  1  0.65703725  -0.00548853  -0.00483211  1
  Cu  Cu97  1  0.66714570  0.34784264  0.00635230  1
  Cu  Cu98  1  0.83696271  0.50383137  0.24577117  1
  Cu  Cu99  1  0.33255464  0.33627440  0.00609236  1
  Cu  Cu100  1  0.34209640  0.66526028  0.00436540  1
  Cu  Cu101  1  0.50276045  0.50541193  0.25422702  1
  Cu  Cu102  1  0.00291490  0.67034268  0.00390292  1
  Cu  Cu103  1  0.00805525  -0.00140028  -0.00266740  1
  Cu  Cu104  1  0.00779046  0.00090586  0.50540265  1
  Cu  Cu105  1  0.83719769  0.83138992  0.24699020  1
  Cu  Cu106  1  0.00811005  0.33171817  0.50115694  1
  Cu  Cu107  1  0.66323276  0.66293291  0.00495837  1
  Cu  Cu108  1  0.33076317  -0.01392466  -0.00287509  1
  Cu  Cu109  1  0.82923756  0.50581262  0.75428557  1
  Cu  Cu110  1  0.49826658  0.15532778  0.74119730  1
  Cu  Cu111  1  0.83728540  0.83172893  0.75337868  1
  Cu  Cu112  1  0.17050075  0.83524567  0.74646788  1
  Cu  Cu113  1  0.16950353  0.49986433  0.25304382  1
  Cu  Cu114  1  0.66205782  0.33497357  0.49375050  1
  Se  Se115  1  0.07541363  0.08187198  0.06415937  1
  Se  Se116  1  0.08549752  0.08677281  0.56110254  1
  Se  Se117  1  0.07930955  0.40587572  0.05545931  1
  Se  Se118  1  0.08219637  0.42456306  0.55389669  1
  Se  Se119  1  0.08717962  0.75486195  0.05313549  1
  Se  Se120  1  0.08550220  0.75266193  0.54818706  1
  Se  Se121  1  0.40415886  0.07264841  0.05811704  1
  Se  Se122  1  0.41688808  0.08534582  0.55048486  1
  Se  Se123  1  0.41840144  0.41757534  0.05660735  1
  Se  Se124  1  0.42134758  0.42136509  0.54563199  1
  Se  Se125  1  0.42192063  0.75019456  0.05905382  1
  Se  Se126  1  0.41469674  0.74936082  0.55144048  1
  Se  Se127  1  0.73664419  0.07529852  0.05483406  1
  Se  Se128  1  0.74856651  0.07184383  0.55725458  1
  Se  Se129  1  0.75300286  0.42539521  0.06051039  1
  Se  Se130  1  0.74268960  0.40959655  0.55850757  1
  Se  Se131  1  0.74757801  0.74492859  0.06234588  1
  Se  Se132  1  0.74403172  0.74435258  0.55809356  1
  Se  Se133  1  0.25115501  0.25176619  0.05910166  1
  Se  Se134  1  0.25369496  0.25877971  0.55211018  1
  Se  Se135  1  0.25680834  0.58853631  0.06490901  1
  Se  Se136  1  0.24662286  0.58140418  0.54829179  1
  Se  Se137  1  0.24685118  0.90867158  0.05365102  1
  Se  Se138  1  0.25010958  0.91380820  0.55025662  1
  Se  Se139  1  0.59153432  0.25949206  0.06418785  1
  Se  Se140  1  0.58251195  0.24692029  0.54619106  1
  Se  Se141  1  0.57966164  0.58278754  0.06099965  1
  Se  Se142  1  0.57656329  0.58069405  0.55162083  1
  Se  Se143  1  0.57734928  0.91112368  0.04931462  1
  Se  Se144  1  0.57999488  0.91050712  0.55294743  1
  Se  Se145  1  0.92194544  0.25759507  0.06269665  1
  Se  Se146  1  0.93518140  0.24945196  0.56360296  1
  Se  Se147  1  0.92073492  0.58376533  0.05302358  1
  Se  Se148  1  0.92393277  0.58515333  0.56201583  1
  Se  Se149  1  0.92105399  0.92223543  0.05590204  1
  Se  Se150  1  0.92107275  0.91589736  0.55579379  1
  Se  Se151  1  0.09021401  0.24881193  0.44613040  1
  Se  Se152  1  0.06758961  0.25668952  0.94282616  1
  Se  Se153  1  0.08452644  0.57653163  0.44402014  1
  Se  Se154  1  0.08071972  0.59237947  0.93878224  1
  Se  Se155  1  0.08485420  0.91363706  0.45035457  1
  Se  Se156  1  0.09165661  0.91585879  0.94514773  1
  Se  Se157  1  0.41984730  0.25126720  0.44366733  1
  Se  Se158  1  0.40946295  0.25448362  0.94262869  1
  Se  Se159  1  0.41639742  0.58483338  0.44406626  1
  Se  Se160  1  0.41838422  0.57624931  0.95109721  1
  Se  Se161  1  0.41467855  0.91612382  0.44605493  1
  Se  Se162  1  0.42021068  0.90932165  0.94475393  1
  Se  Se163  1  0.74923046  0.25695452  0.43810908  1
  Se  Se164  1  0.74317387  0.26717634  0.94278354  1
  Se  Se165  1  0.74034837  0.59302637  0.44229249  1
  Se  Se166  1  0.75344473  0.58449705  0.95351151  1
  Se  Se167  1  0.73608124  0.92409325  0.43337081  1
  Se  Se168  1  0.74352265  0.92561214  0.93344411  1
  Se  Se169  1  0.24620179  0.08862551  0.45128069  1
  Se  Se170  1  0.25881480  0.07456064  0.93791710  1
  Se  Se171  1  0.24911683  0.42160093  0.44377398  1
  Se  Se172  1  0.25379811  0.40837063  0.93964741  1
  Se  Se173  1  0.24488923  0.74986334  0.44548909  1
  Se  Se174  1  0.25312040  0.74399222  0.95133875  1
  Se  Se175  1  0.57982495  0.08697126  0.45005786  1
  Se  Se176  1  0.58009995  0.07795183  0.93527516  1
  Se  Se177  1  0.58035169  0.42263546  0.44461287  1
  Se  Se178  1  0.57653403  0.42132178  0.95148394  1
  Se  Se179  1  0.57462404  0.75484753  0.44432949  1
  Se  Se180  1  0.58175612  0.74687349  0.95053144  1
  Se  Se181  1  0.92782754  0.07815480  0.44191671  1
  Se  Se182  1  0.92734120  0.08296238  0.94128633  1
  Se  Se183  1  0.92196137  0.40643026  0.44083631  1
  Se  Se184  1  0.91724283  0.43191065  0.95568818  1
  Se  Se185  1  0.92156099  0.73745953  0.43915516  1
  Se  Se186  1  0.92528138  0.74736537  0.93711640  1
  Se  Se187  1  0.25256394  0.25208037  0.30512814  1
  Se  Se188  1  0.23954016  0.24317245  0.80913387  1
  Se  Se189  1  0.25195600  0.58647459  0.30335216  1
  Se  Se190  1  0.23545944  0.57136805  0.80430809  1
  Se  Se191  1  0.24481774  0.90961492  0.31519406  1
  Se  Se192  1  0.25338147  0.91340298  0.80479380  1
  Se  Se193  1  0.58747718  0.25718012  0.30480936  1
  Se  Se194  1  0.57378313  0.23983944  0.80183301  1
  Se  Se195  1  0.58659571  0.58948870  0.30624325  1
  Se  Se196  1  0.58055890  0.58150322  0.80878063  1
  Se  Se197  1  0.57222370  0.91679674  0.30401706  1
  Se  Se198  1  0.57970582  0.90413694  0.80594279  1
  Se  Se199  1  0.92008937  0.24436077  0.29911605  1
  Se  Se200  1  0.89863035  0.24560965  0.80813713  1
  Se  Se201  1  0.92149847  0.58536091  0.30027810  1
  Se  Se202  1  0.91592363  0.58801809  0.80561340  1
  Se  Se203  1  0.91807824  0.91101211  0.30495315  1
  Se  Se204  1  0.92359100  0.91770792  0.79963417  1
  Se  Se205  1  0.08497773  0.07776063  0.30750463  1
  Se  Se206  1  0.08657486  0.08482997  0.79666442  1
  Se  Se207  1  0.08439886  0.41410348  0.30338394  1
  Se  Se208  1  0.07625913  0.41999992  0.80011167  1
  Se  Se209  1  0.08112392  0.74474156  0.30516988  1
  Se  Se210  1  0.08831260  0.75163648  0.80126736  1
  Se  Se211  1  0.42033771  0.09111157  0.30956432  1
  Se  Se212  1  0.41071816  0.07635420  0.79295994  1
  Se  Se213  1  0.41678344  0.42010296  0.30439115  1
  Se  Se214  1  0.41719440  0.41604729  0.80879824  1
  Se  Se215  1  0.41546140  0.75057337  0.29980825  1
  Se  Se216  1  0.42090024  0.75117995  0.81063495  1
  Se  Se217  1  0.75667242  0.09339526  0.30905896  1
  Se  Se218  1  0.75515663  0.09272278  0.80712165  1
  Se  Se219  1  0.75356937  0.42201666  0.30128330  1
  Se  Se220  1  0.74978989  0.42492481  0.81592517  1
  Se  Se221  1  0.75070226  0.75120451  0.29977817  1
  Se  Se222  1  0.75095950  0.74797580  0.80236112  1
  Se  Se223  1  0.23841999  0.09152300  0.18928516  1
  Se  Se224  1  0.24466617  0.08618285  0.69406952  1
  Se  Se225  1  0.25379425  0.41581258  0.19969367  1
  Se  Se226  1  0.24146420  0.42883796  0.68860473  1
  Se  Se227  1  0.24935772  0.74982610  0.19904556  1
  Se  Se228  1  0.24781854  0.75493801  0.68395229  1
  Se  Se229  1  0.57463736  0.09510384  0.19034837  1
  Se  Se230  1  0.58476741  0.08178634  0.68287489  1
  Se  Se231  1  0.58749864  0.41944315  0.20244285  1
  Se  Se232  1  0.57273208  0.41879199  0.68935000  1
  Se  Se233  1  0.58425929  0.75042353  0.20360340  1
  Se  Se234  1  0.58652050  0.73249266  0.69750885  1
  Se  Se235  1  0.92007638  0.07089957  0.20450196  1
  Se  Se236  1  0.91568135  0.09000448  0.70355211  1
  Se  Se237  1  0.92150760  0.41831446  0.19600350  1
  Se  Se238  1  0.90860951  0.42110799  0.69909612  1
  Se  Se239  1  0.92241980  0.74743845  0.19537685  1
  Se  Se240  1  0.91667926  0.74724755  0.69661004  1
  Se  Se241  1  0.08424071  0.25073850  0.19994764  1
  Se  Se242  1  0.07732644  0.27135520  0.69824483  1
  Se  Se243  1  0.08531598  0.57903072  0.19492267  1
  Se  Se244  1  0.07207817  0.60308618  0.69350114  1
  Se  Se245  1  0.08250151  0.91702327  0.20081995  1
  Se  Se246  1  0.08431093  0.91451612  0.69171044  1
  Se  Se247  1  0.41262257  0.25836786  0.20141063  1
  Se  Se248  1  0.42027607  0.24090627  0.68416869  1
  Se  Se249  1  0.41642144  0.58625351  0.20073743  1
  Se  Se250  1  0.41677840  0.57318360  0.68980123  1
  Se  Se251  1  0.41982860  0.91212390  0.19272975  1
  Se  Se252  1  0.42354626  0.90991446  0.69735961  1
  Se  Se253  1  0.76218155  0.24721116  0.20366980  1
  Se  Se254  1  0.76079556  0.24046318  0.69124427  1
  Se  Se255  1  0.74897764  0.58934718  0.19895701  1
  Se  Se256  1  0.74302852  0.58391986  0.69965858  1
  Se  Se257  1  0.75601372  0.90876795  0.18441328  1
  Se  Se258  1  0.76050442  0.90668631  0.68499700  1
