# generated using pymatgen
data_In86Cu29Se144
_symmetry_space_group_name_H-M   'P 1'
_cell_length_a   17.58209198
_cell_length_b   17.58464099
_cell_length_c   23.45228435
_cell_angle_alpha   90.02950643
_cell_angle_beta   90.00074600
_cell_angle_gamma   90.00137412
_symmetry_Int_Tables_number   1
_chemical_formula_structural   In86Cu29Se144
_chemical_formula_sum   'In86 Cu29 Se144'
_cell_volume   7250.85378249
_cell_formula_units_Z   1
loop_
 _symmetry_equiv_pos_site_id
 _symmetry_equiv_pos_as_xyz
  1  'x, y, z'
loop_
 _atom_site_type_symbol
 _atom_site_label
 _atom_site_symmetry_multiplicity
 _atom_site_fract_x
 _atom_site_fract_y
 _atom_site_fract_z
 _atom_site_occupancy
  In  In0  1  -0.00568396  0.17314394  0.12587169  1
  In  In1  1  0.00160918  0.17051820  0.62045254  1
  In  In2  1  0.00151519  0.51977713  0.12072515  1
  In  In3  1  -0.01546979  0.50996681  0.63908612  1
  In  In4  1  -0.02127099  0.82244538  0.10624405  1
  In  In5  1  -0.00634139  0.82772438  0.61866439  1
  In  In6  1  0.33195288  0.16035182  0.13608603  1
  In  In7  1  0.33265817  0.16994066  0.60681199  1
  In  In8  1  0.35114868  0.50133221  0.12500263  1
  In  In9  1  0.34713119  0.52151105  0.63007859  1
  In  In10  1  0.32860643  0.83906485  0.13283356  1
  In  In11  1  0.33132240  0.82653546  0.62043468  1
  In  In12  1  0.67576587  0.15135118  0.14134039  1
  In  In13  1  0.65608866  0.15572968  0.61330504  1
  In  In14  1  0.66692206  0.50785367  0.11828293  1
  In  In15  1  0.66262694  0.50133188  0.62662732  1
  In  In16  1  0.67479969  0.82464145  0.13059855  1
  In  In17  1  0.66748630  0.83554604  0.62638415  1
  In  In18  1  0.17991459  -0.01306240  0.38487975  1
  In  In19  1  0.14913794  -0.01178526  0.87613101  1
  In  In20  1  0.16642848  0.32837660  0.38099941  1
  In  In21  1  0.16095624  0.34909609  0.87470896  1
  In  In22  1  0.17565338  0.67919652  0.37093453  1
  In  In23  1  0.17246733  0.67826318  0.87268244  1
  In  In24  1  0.49872567  0.00022952  0.37117564  1
  In  In25  1  0.51575812  -0.02028775  0.87191882  1
  In  In26  1  0.49768568  0.29780803  0.36973465  1
  In  In27  1  0.51728641  0.33667246  0.87530089  1
  In  In28  1  0.51161188  0.67544417  0.36910663  1
  In  In29  1  0.50397308  0.66481333  0.86516593  1
  In  In30  1  0.82582772  0.00695910  0.38092024  1
  In  In31  1  0.83229326  0.00198083  0.87764998  1
  In  In32  1  0.82094103  0.33177477  0.37257608  1
  In  In33  1  0.83489205  0.32799326  0.87867574  1
  In  In34  1  0.83322260  0.67523089  0.36754178  1
  In  In35  1  0.82323614  0.67085098  0.86918389  1
  In  In36  1  0.00164483  0.16413320  0.38671075  1
  In  In37  1  -0.02018389  0.15998597  0.87239957  1
  In  In38  1  -0.01693559  0.50870496  0.37043479  1
  In  In39  1  -0.01475877  0.49531045  0.86774247  1
  In  In40  1  0.00290559  0.83013477  0.38147501  1
  In  In41  1  0.00102357  0.83759383  0.88053942  1
  In  In42  1  0.35858464  0.14644508  0.39676100  1
  In  In43  1  0.33231480  0.16329004  0.87267385  1
  In  In44  1  0.32853436  0.50474471  0.37161315  1
  In  In45  1  0.33974479  0.51968072  0.87146483  1
  In  In46  1  0.33679877  0.83234373  0.37513400  1
  In  In47  1  0.33859236  0.81621038  0.87525908  1
  In  In48  1  0.66489025  0.16248932  0.37125388  1
  In  In49  1  0.68178774  0.16575637  0.87429686  1
  In  In50  1  0.66856436  0.49836069  0.36573419  1
  In  In51  1  0.65158739  0.52338547  0.89869551  1
  In  In52  1  0.66520444  0.83426010  0.37383061  1
  In  In53  1  0.67284891  0.83732816  0.85934617  1
  In  In54  1  0.17460668  -0.00474330  0.13201695  1
  In  In55  1  0.17093200  0.00068753  0.61602074  1
  In  In56  1  0.16688586  0.32569049  0.12837250  1
  In  In57  1  0.16152190  0.32622656  0.62556995  1
  In  In58  1  0.15637668  0.67843777  0.13083376  1
  In  In59  1  0.15610803  0.67542828  0.63120778  1
  In  In60  1  0.50958758  -0.00754953  0.14238999  1
  In  In61  1  0.50726325  -0.00260950  0.62084938  1
  In  In62  1  0.50337697  0.34898210  0.12312608  1
  In  In63  1  0.50445336  0.32968685  0.61908597  1
  In  In64  1  0.51342955  0.65407484  0.13127427  1
  In  In65  1  0.49218000  0.68290038  0.64921193  1
  In  In66  1  0.82070141  -0.01492668  0.11076830  1
  In  In67  1  0.81674449  -0.01546308  0.61427771  1
  In  In68  1  0.82442798  0.32621853  0.11663822  1
  In  In69  1  0.84215139  0.33925706  0.62482621  1
  In  In70  1  0.82889135  0.67365714  0.11736073  1
  In  In71  1  0.81295028  0.69596629  0.64846288  1
  In  In72  1  -0.00337199  0.34028871  0.25086128  1
  In  In73  1  0.16300575  0.16182063  0.00676051  1
  In  In74  1  0.50175776  0.16586135  0.01531651  1
  In  In75  1  0.33617557  0.33533198  0.25271168  1
  In  In76  1  -0.00831728  -0.00709273  0.74900321  1
  In  In77  1  0.33478553  -0.00096031  0.73844489  1
  In  In78  1  0.67362734  0.33772388  0.74591829  1
  In  In79  1  0.83151248  0.50375435  0.50511878  1
  In  In80  1  0.32904913  0.34126965  0.74043175  1
  In  In81  1  0.16457748  0.49956239  0.49818617  1
  In  In82  1  -0.00267456  -0.00782147  0.24836048  1
  In  In83  1  0.50541758  0.82513517  0.00014848  1
  In  In84  1  0.50397652  0.49775730  0.50313110  1
  In  In85  1  0.16525261  0.50792098  -0.00003136  1
  Cu  Cu86  1  0.00067220  0.33023663  0.50441852  1
  Cu  Cu87  1  0.50633723  0.50396881  0.24868872  1
  Cu  Cu88  1  0.66767426  0.67558369  0.50223837  1
  Cu  Cu89  1  0.33971100  0.67251620  0.50131242  1
  Cu  Cu90  1  0.17310690  0.15452269  0.26051738  1
  Cu  Cu91  1  0.82856900  0.16167728  0.25070651  1
  Cu  Cu92  1  0.15945178  0.50708735  0.75439897  1
  Cu  Cu93  1  0.66444817  -0.00558604  0.49509029  1
  Cu  Cu94  1  0.83140718  0.51047507  0.24164417  1
  Cu  Cu95  1  -0.00152733  0.67191292  0.50022379  1
  Cu  Cu96  1  -0.00159578  0.32889561  -0.00170327  1
  Cu  Cu97  1  0.83185451  0.16236144  0.74765104  1
  Cu  Cu98  1  0.82702823  0.83350989  0.24410633  1
  Cu  Cu99  1  0.49626568  0.83176867  0.25378902  1
  Cu  Cu100  1  0.16655332  0.51088170  0.25045291  1
  Cu  Cu101  1  0.00005556  -0.00014006  0.50238759  1
  Cu  Cu102  1  0.33902154  -0.00786999  0.49962006  1
  Cu  Cu103  1  0.16432324  0.83004253  0.25543639  1
  Cu  Cu104  1  0.66166396  0.32104467  0.49248564  1
  Cu  Cu105  1  0.67461826  0.33675621  0.00059508  1
  Cu  Cu106  1  0.66852729  0.00161931  -0.00232762  1
  Cu  Cu107  1  0.32680844  -0.00832900  0.00541132  1
  Cu  Cu108  1  -0.00870415  0.67012776  -0.00617835  1
  Cu  Cu109  1  0.17145364  0.83164291  0.74958269  1
  Cu  Cu110  1  0.34425573  0.33636908  -0.00122406  1
  Cu  Cu111  1  0.15848124  0.17594292  0.74466216  1
  Cu  Cu112  1  0.83505968  0.49751611  0.76106084  1
  Cu  Cu113  1  0.50390905  0.15624295  0.74265128  1
  Cu  Cu114  1  0.33636094  0.66918432  -0.00032110  1
  Se  Se115  1  0.07527948  0.07304778  0.06645973  1
  Se  Se116  1  0.08398883  0.08555857  0.55317939  1
  Se  Se117  1  0.07975912  0.40797233  0.05943349  1
  Se  Se118  1  0.06841506  0.42235968  0.56338281  1
  Se  Se119  1  0.08105454  0.74455240  0.04976347  1
  Se  Se120  1  0.08733917  0.75201703  0.55173107  1
  Se  Se121  1  0.40927914  0.06755304  0.06548166  1
  Se  Se122  1  0.42098541  0.07805705  0.55216330  1
  Se  Se123  1  0.42414436  0.42468533  0.04841163  1
  Se  Se124  1  0.40433145  0.41554807  0.56215892  1
  Se  Se125  1  0.41360191  0.74527295  0.06586300  1
  Se  Se126  1  0.42724428  0.74441134  0.56047147  1
  Se  Se127  1  0.74419476  0.08878166  0.05468254  1
  Se  Se128  1  0.74817139  0.08083493  0.54724502  1
  Se  Se129  1  0.75583545  0.42392642  0.05216233  1
  Se  Se130  1  0.73593771  0.40499113  0.55525784  1
  Se  Se131  1  0.75201112  0.76398964  0.05053903  1
  Se  Se132  1  0.75502855  0.75314251  0.55672670  1
  Se  Se133  1  0.26498941  0.25542314  0.05834223  1
  Se  Se134  1  0.24444186  0.25948843  0.55192711  1
  Se  Se135  1  0.25670026  0.59124192  0.06326362  1
  Se  Se136  1  0.25420792  0.59269597  0.55774564  1
  Se  Se137  1  0.24398917  0.90926342  0.05746386  1
  Se  Se138  1  0.25192505  0.91183112  0.55199092  1
  Se  Se139  1  0.59856367  0.25657404  0.06553377  1
  Se  Se140  1  0.57470161  0.24370371  0.54717599  1
  Se  Se141  1  0.58184772  0.58771361  0.04939647  1
  Se  Se142  1  0.58576925  0.59626687  0.56169121  1
  Se  Se143  1  0.58694392  0.92414146  0.05970321  1
  Se  Se144  1  0.58476903  0.91059857  0.55198074  1
  Se  Se145  1  0.91509883  0.24588556  0.05126495  1
  Se  Se146  1  0.91073908  0.24967162  0.55357880  1
  Se  Se147  1  0.91273928  0.58569029  0.04947101  1
  Se  Se148  1  0.91748341  0.59705754  0.56243533  1
  Se  Se149  1  0.91856107  0.92545324  0.04350214  1
  Se  Se150  1  0.91521127  0.91337610  0.55052725  1
  Se  Se151  1  0.08617071  0.24928414  0.45176261  1
  Se  Se152  1  0.08142341  0.25172000  0.93851856  1
  Se  Se153  1  0.07421135  0.59009793  0.43810627  1
  Se  Se154  1  0.07471359  0.58884983  0.93500143  1
  Se  Se155  1  0.08353825  0.91491122  0.44932910  1
  Se  Se156  1  0.08276128  0.91401580  0.95380331  1
  Se  Se157  1  0.41109652  0.26183727  0.45204359  1
  Se  Se158  1  0.41855541  0.24981019  0.94047510  1
  Se  Se159  1  0.41542011  0.58879557  0.44089165  1
  Se  Se160  1  0.42209203  0.59234065  0.94429967  1
  Se  Se161  1  0.42255311  0.91292564  0.44309012  1
  Se  Se162  1  0.41232646  0.92077169  0.94246635  1
  Se  Se163  1  0.75246126  0.24262856  0.44295099  1
  Se  Se164  1  0.75260534  0.24625973  0.94930846  1
  Se  Se165  1  0.74171864  0.58904582  0.44146202  1
  Se  Se166  1  0.77455390  0.57071683  0.94320116  1
  Se  Se167  1  0.75144203  0.91126909  0.44475547  1
  Se  Se168  1  0.74192348  0.91629135  0.93885987  1
  Se  Se169  1  0.25020754  0.08059121  0.45316610  1
  Se  Se170  1  0.25350912  0.07440056  0.94223488  1
  Se  Se171  1  0.26214543  0.41109854  0.44423164  1
  Se  Se172  1  0.26102807  0.41655082  0.94230742  1
  Se  Se173  1  0.25279957  0.75208804  0.44750790  1
  Se  Se174  1  0.25008095  0.75248472  0.94999947  1
  Se  Se175  1  0.58356693  0.08112525  0.44198371  1
  Se  Se176  1  0.58288832  0.08185200  0.94148861  1
  Se  Se177  1  0.58633897  0.41030871  0.43554629  1
  Se  Se178  1  0.58123675  0.41509427  0.95403609  1
  Se  Se179  1  0.58226627  0.75343257  0.44631776  1
  Se  Se180  1  0.59445384  0.74711336  0.93411817  1
  Se  Se181  1  0.91424652  0.08243337  0.45030868  1
  Se  Se182  1  0.92078355  0.07545218  0.94796137  1
  Se  Se183  1  0.92040308  0.40979706  0.44267990  1
  Se  Se184  1  0.91826181  0.41441912  0.94555688  1
  Se  Se185  1  0.91076584  0.74838646  0.44458197  1
  Se  Se186  1  0.90891792  0.75205966  0.93946833  1
  Se  Se187  1  0.25087577  0.24330173  0.31419027  1
  Se  Se188  1  0.24224041  0.24925030  0.80753031  1
  Se  Se189  1  0.25349853  0.59023732  0.30258966  1
  Se  Se190  1  0.24795782  0.58893939  0.80345822  1
  Se  Se191  1  0.25033378  0.91391956  0.30543737  1
  Se  Se192  1  0.24866446  0.91628235  0.80904350  1
  Se  Se193  1  0.60776779  0.26780834  0.30437125  1
  Se  Se194  1  0.58193026  0.23909902  0.80310955  1
  Se  Se195  1  0.59009498  0.58837888  0.30087458  1
  Se  Se196  1  0.58405837  0.56642291  0.80765123  1
  Se  Se197  1  0.58280299  0.91595785  0.30382235  1
  Se  Se198  1  0.58737424  0.91748615  0.79097925  1
  Se  Se199  1  0.91510888  0.23950130  0.30853402  1
  Se  Se200  1  0.91075091  0.24892586  0.80167284  1
  Se  Se201  1  0.91454442  0.59194384  0.29666638  1
  Se  Se202  1  0.91703954  0.59260949  0.80252535  1
  Se  Se203  1  0.90588299  0.90817219  0.31077656  1
  Se  Se204  1  0.90326084  0.90358674  0.80721088  1
  Se  Se205  1  0.08488403  0.07830338  0.31563050  1
  Se  Se206  1  0.08614066  0.08910659  0.80524796  1
  Se  Se207  1  0.09115397  0.42774520  0.31216139  1
  Se  Se208  1  0.07768192  0.41694537  0.80098782  1
  Se  Se209  1  0.07668789  0.74870860  0.30645635  1
  Se  Se210  1  0.08403630  0.75899786  0.80762620  1
  Se  Se211  1  0.41822729  0.09270418  0.30719933  1
  Se  Se212  1  0.42449291  0.08265368  0.80802694  1
  Se  Se213  1  0.43066439  0.42221900  0.31301383  1
  Se  Se214  1  0.41823233  0.41444447  0.81164503  1
  Se  Se215  1  0.41345907  0.74544213  0.30456570  1
  Se  Se216  1  0.42502565  0.75624206  0.80107821  1
  Se  Se217  1  0.74747835  0.07593782  0.30275861  1
  Se  Se218  1  0.75135334  0.07909995  0.80249992  1
  Se  Se219  1  0.75886393  0.42154047  0.29874854  1
  Se  Se220  1  0.74795663  0.42245876  0.81796896  1
  Se  Se221  1  0.74390990  0.75107731  0.30027994  1
  Se  Se222  1  0.73074075  0.73132130  0.79331740  1
  Se  Se223  1  0.25458997  0.07452594  0.20439064  1
  Se  Se224  1  0.24317224  0.09863791  0.68768124  1
  Se  Se225  1  0.24280054  0.42574960  0.19085344  1
  Se  Se226  1  0.23745924  0.43546072  0.68534861  1
  Se  Se227  1  0.24927501  0.74884616  0.19916111  1
  Se  Se228  1  0.25362704  0.74827692  0.69541210  1
  Se  Se229  1  0.56996557  0.09616366  0.20386647  1
  Se  Se230  1  0.59077153  0.07598843  0.69257130  1
  Se  Se231  1  0.58925431  0.42377938  0.19261195  1
  Se  Se232  1  0.56876244  0.42157475  0.69372104  1
  Se  Se233  1  0.58063024  0.75293551  0.19684422  1
  Se  Se234  1  0.61575143  0.72986712  0.69824216  1
  Se  Se235  1  0.90810660  0.08316866  0.18874354  1
  Se  Se236  1  0.90893906  0.08279894  0.68423980  1
  Se  Se237  1  0.91301082  0.42572270  0.18415789  1
  Se  Se238  1  0.91447343  0.41164026  0.70406524  1
  Se  Se239  1  0.91346438  0.75331677  0.18999405  1
  Se  Se240  1  0.93331437  0.74640641  0.69761500  1
  Se  Se241  1  0.09214129  0.23700297  0.20202837  1
  Se  Se242  1  0.07088444  0.25685987  0.69597231  1
  Se  Se243  1  0.07842703  0.58920268  0.19864500  1
  Se  Se244  1  0.07725369  0.59091200  0.70038302  1
  Se  Se245  1  0.08307168  0.90002473  0.18849658  1
  Se  Se246  1  0.09301488  0.91385136  0.68930211  1
  Se  Se247  1  0.42790620  0.24975172  0.19092263  1
  Se  Se248  1  0.42036988  0.23928773  0.68909578  1
  Se  Se249  1  0.41656656  0.58570672  0.20034586  1
  Se  Se250  1  0.42163059  0.58329357  0.71061777  1
  Se  Se251  1  0.41207961  0.91763533  0.20324516  1
  Se  Se252  1  0.42719381  0.90442368  0.68923905  1
  Se  Se253  1  0.75465411  0.25357412  0.19723974  1
  Se  Se254  1  0.75307215  0.24066843  0.68384320  1
  Se  Se255  1  0.74736301  0.59224551  0.18868763  1
  Se  Se256  1  0.76532005  0.56573667  0.68830910  1
  Se  Se257  1  0.74675588  0.92378207  0.19489895  1
  Se  Se258  1  0.75048537  0.91712539  0.69610972  1
