# generated using pymatgen
data_In86Cu29Se144
_symmetry_space_group_name_H-M   'P 1'
_cell_length_a   17.60620414
_cell_length_b   17.60484608
_cell_length_c   23.45939172
_cell_angle_alpha   90.00400117
_cell_angle_beta   89.99745035
_cell_angle_gamma   90.00212209
_symmetry_Int_Tables_number   1
_chemical_formula_structural   In86Cu29Se144
_chemical_formula_sum   'In86 Cu29 Se144'
_cell_volume   7271.34433083
_cell_formula_units_Z   1
loop_
 _symmetry_equiv_pos_site_id
 _symmetry_equiv_pos_as_xyz
  1  'x, y, z'
loop_
 _atom_site_type_symbol
 _atom_site_label
 _atom_site_symmetry_multiplicity
 _atom_site_fract_x
 _atom_site_fract_y
 _atom_site_fract_z
 _atom_site_occupancy
  In  In0  1  0.00332182  0.17111842  0.12350644  1
  In  In1  1  0.02703611  0.18084181  0.60264160  1
  In  In2  1  0.00154625  0.48351176  0.13531227  1
  In  In3  1  -0.00606186  0.49039965  0.61719983  1
  In  In4  1  0.00183512  0.84708867  0.13013664  1
  In  In5  1  -0.00304895  0.83622344  0.60736337  1
  In  In6  1  0.33941633  0.18548515  0.12729158  1
  In  In7  1  0.32860313  0.16613745  0.62413044  1
  In  In8  1  0.33608551  0.49059484  0.13046825  1
  In  In9  1  0.33366561  0.49501406  0.62220017  1
  In  In10  1  0.32392051  0.83740429  0.13215549  1
  In  In11  1  0.33598589  0.83364540  0.62889227  1
  In  In12  1  0.66940537  0.15595117  0.12553200  1
  In  In13  1  0.67428929  0.17822766  0.62081287  1
  In  In14  1  0.66288620  0.51121643  0.12649692  1
  In  In15  1  0.65781654  0.49143561  0.61362077  1
  In  In16  1  0.67025155  0.81919963  0.12583029  1
  In  In17  1  0.66088358  0.82375927  0.60971620  1
  In  In18  1  0.14264842  0.02418777  0.39934823  1
  In  In19  1  0.17749064  0.00450890  0.87196191  1
  In  In20  1  0.16917693  0.32823789  0.36587021  1
  In  In21  1  0.15226185  0.31874630  0.85527523  1
  In  In22  1  0.18235857  0.65045011  0.38306536  1
  In  In23  1  0.17647350  0.65909352  0.87062957  1
  In  In24  1  0.49244068  0.00280858  0.38948732  1
  In  In25  1  0.49848191  0.00769086  0.86619939  1
  In  In26  1  0.49369462  0.34354146  0.38252591  1
  In  In27  1  0.50234639  0.33311545  0.87012841  1
  In  In28  1  0.48963638  0.67236324  0.38659769  1
  In  In29  1  0.48239251  0.65887579  0.87004760  1
  In  In30  1  0.85134944  -0.00546906  0.38559788  1
  In  In31  1  0.84008326  -0.00132875  0.87728094  1
  In  In32  1  0.84769820  0.31825037  0.38517565  1
  In  In33  1  0.82612072  0.32420861  0.87005916  1
  In  In34  1  0.82505822  0.66876722  0.38774834  1
  In  In35  1  0.83896348  0.67677298  0.87457497  1
  In  In36  1  0.00395502  0.16487286  0.37193973  1
  In  In37  1  -0.00545870  0.16833146  0.87856306  1
  In  In38  1  0.02021379  0.47917189  0.38728593  1
  In  In39  1  0.01171823  0.49687796  0.87240747  1
  In  In40  1  0.00084533  0.84904587  0.38370647  1
  In  In41  1  -0.01270558  0.82858278  0.87376347  1
  In  In42  1  0.32573965  0.17795122  0.38055918  1
  In  In43  1  0.32281291  0.16111440  0.86269588  1
  In  In44  1  0.32803194  0.49869140  0.37272676  1
  In  In45  1  0.33768414  0.50050627  0.86887243  1
  In  In46  1  0.33502739  0.82443486  0.38447738  1
  In  In47  1  0.33985953  0.83334030  0.85809061  1
  In  In48  1  0.66686518  0.16306807  0.38418724  1
  In  In49  1  0.66504370  0.17396397  0.87306857  1
  In  In50  1  0.65982287  0.51186923  0.39388033  1
  In  In51  1  0.66464889  0.48269079  0.87335024  1
  In  In52  1  0.65982277  0.82898075  0.38868624  1
  In  In53  1  0.67407314  0.83934252  0.87020329  1
  In  In54  1  0.15240079  -0.00030173  0.13040453  1
  In  In55  1  0.18454390  0.02055295  0.60523323  1
  In  In56  1  0.18435529  0.31737465  0.14595531  1
  In  In57  1  0.16726188  0.32795685  0.62573797  1
  In  In58  1  0.17168488  0.67427897  0.13819140  1
  In  In59  1  0.17927084  0.67359483  0.61639465  1
  In  In60  1  0.50428316  0.00241776  0.13093211  1
  In  In61  1  0.48113942  -0.01020955  0.62096166  1
  In  In62  1  0.47391820  0.33294573  0.12691156  1
  In  In63  1  0.49736295  0.33266894  0.62184496  1
  In  In64  1  0.50495821  0.65556633  0.12318160  1
  In  In65  1  0.49563099  0.65811653  0.61837959  1
  In  In66  1  0.84292643  0.01311767  0.12003564  1
  In  In67  1  0.84006361  0.00440398  0.60940373  1
  In  In68  1  0.84830543  0.32740574  0.12900013  1
  In  In69  1  0.83705336  0.32704947  0.62439172  1
  In  In70  1  0.82194534  0.66741219  0.12760380  1
  In  In71  1  0.83222549  0.66848344  0.60907364  1
  In  In72  1  0.50246099  0.17373513  -0.00255457  1
  In  In73  1  0.17007884  0.50134466  0.00101690  1
  In  In74  1  0.66056278  -0.00052876  0.74215386  1
  In  In75  1  0.66305450  0.65844344  0.73102675  1
  In  In76  1  0.66437771  0.66889697  0.26115103  1
  In  In77  1  0.00285848  0.66347873  0.26093444  1
  In  In78  1  0.50041684  0.83267222  -0.00962631  1
  In  In79  1  0.83506367  0.49902021  0.00458776  1
  In  In80  1  0.66703281  0.33848581  0.26052953  1
  In  In81  1  0.31850671  0.00673375  0.26675318  1
  In  In82  1  0.00798716  0.00773527  0.73342729  1
  In  In83  1  0.66957332  -0.00175328  0.25244884  1
  In  In84  1  0.00321838  0.66345724  0.74896892  1
  In  In85  1  0.16020486  0.84024853  -0.00508401  1
  Cu  Cu86  1  0.49461112  0.16953523  0.74462407  1
  Cu  Cu87  1  0.84251285  0.84338629  0.25432740  1
  Cu  Cu88  1  0.83159151  0.83433730  0.73942945  1
  Cu  Cu89  1  -0.00700525  0.67411867  0.00389766  1
  Cu  Cu90  1  -0.00791256  0.00690736  0.00341976  1
  Cu  Cu91  1  0.17230888  0.83182845  0.26053140  1
  Cu  Cu92  1  0.50198741  0.49693765  0.74131507  1
  Cu  Cu93  1  0.83658214  0.48812389  0.74524464  1
  Cu  Cu94  1  0.00507368  0.33294136  0.49686859  1
  Cu  Cu95  1  0.32538457  0.33911857  -0.00022834  1
  Cu  Cu96  1  0.33678750  0.66838195  -0.00099326  1
  Cu  Cu97  1  0.49100602  0.83351363  0.26126872  1
  Cu  Cu98  1  0.16992101  0.49832356  0.74382630  1
  Cu  Cu99  1  0.00138450  0.32698505  -0.00144814  1
  Cu  Cu100  1  0.49214598  0.49703495  0.25099986  1
  Cu  Cu101  1  0.65964311  0.00629138  0.50544048  1
  Cu  Cu102  1  0.33015164  0.66011000  0.50326853  1
  Cu  Cu103  1  0.66596377  0.33378053  -0.00201713  1
  Cu  Cu104  1  0.66945847  0.66661357  -0.00162712  1
  Cu  Cu105  1  0.32888206  0.01156484  -0.00352484  1
  Cu  Cu106  1  0.00349291  0.66410923  0.49411655  1
  Cu  Cu107  1  0.83531782  0.49596982  0.26755857  1
  Cu  Cu108  1  0.33114274  0.33435292  0.49941310  1
  Cu  Cu109  1  0.84105411  0.16317141  0.25130268  1
  Cu  Cu110  1  0.33909851  -0.00598035  0.49987653  1
  Cu  Cu111  1  0.66747061  0.33447088  0.50041481  1
  Cu  Cu112  1  0.16886731  0.83469400  0.74230617  1
  Cu  Cu113  1  0.67603987  -0.00728598  0.00065709  1
  Cu  Cu114  1  0.83430401  0.17004607  0.74709882  1
  Se  Se115  1  0.08330916  0.08204858  0.05517225  1
  Se  Se116  1  0.06104746  0.05556418  0.55203226  1
  Se  Se117  1  0.07903793  0.41018573  0.05704239  1
  Se  Se118  1  0.08795196  0.41328127  0.55401304  1
  Se  Se119  1  0.07992033  0.74743648  0.06268041  1
  Se  Se120  1  0.08499795  0.74601568  0.55002643  1
  Se  Se121  1  0.41572422  0.07929957  0.05883707  1
  Se  Se122  1  0.41491740  0.08628641  0.55344267  1
  Se  Se123  1  0.41281440  0.42030483  0.05088217  1
  Se  Se124  1  0.41784026  0.41680662  0.55097584  1
  Se  Se125  1  0.41205706  0.75215681  0.06058605  1
  Se  Se126  1  0.41121844  0.74690134  0.55602605  1
  Se  Se127  1  0.75115462  0.08518457  0.05131178  1
  Se  Se128  1  0.74887685  0.09006523  0.55086562  1
  Se  Se129  1  0.74346824  0.40941398  0.06474530  1
  Se  Se130  1  0.75554580  0.41277629  0.55449442  1
  Se  Se131  1  0.75284070  0.74910518  0.05101876  1
  Se  Se132  1  0.76919770  0.77182816  0.54736282  1
  Se  Se133  1  0.24796636  0.25410046  0.05721776  1
  Se  Se134  1  0.24815896  0.24857912  0.55205032  1
  Se  Se135  1  0.25425734  0.59632645  0.06209219  1
  Se  Se136  1  0.24640930  0.57298908  0.55221301  1
  Se  Se137  1  0.25403340  0.92612275  0.05680757  1
  Se  Se138  1  0.25478460  0.91090685  0.55347496  1
  Se  Se139  1  0.58822331  0.25960858  0.06574479  1
  Se  Se140  1  0.58251473  0.25102970  0.55254968  1
  Se  Se141  1  0.58516212  0.58185531  0.04861213  1
  Se  Se142  1  0.60324419  0.60279273  0.55513570  1
  Se  Se143  1  0.59024208  0.91802128  0.05875348  1
  Se  Se144  1  0.57667578  0.91859090  0.55376587  1
  Se  Se145  1  0.91434947  0.24701880  0.05131124  1
  Se  Se146  1  0.91819760  0.25026877  0.54945198  1
  Se  Se147  1  0.92524746  0.58799172  0.06682555  1
  Se  Se148  1  0.92068754  0.58193518  0.54944068  1
  Se  Se149  1  0.91664384  0.91516585  0.05618074  1
  Se  Se150  1  0.90025274  0.90410310  0.54332082  1
  Se  Se151  1  0.08703933  0.25033009  0.44030883  1
  Se  Se152  1  0.08707647  0.25164557  0.94113305  1
  Se  Se153  1  0.09148435  0.57610484  0.45097115  1
  Se  Se154  1  0.07491893  0.59782269  0.94380088  1
  Se  Se155  1  0.08962048  0.91263577  0.45801970  1
  Se  Se156  1  0.06794056  0.92991690  0.93646194  1
  Se  Se157  1  0.41733753  0.25117068  0.44870343  1
  Se  Se158  1  0.40547217  0.25594662  0.93963841  1
  Se  Se159  1  0.41139513  0.57660432  0.44684850  1
  Se  Se160  1  0.41334654  0.57920786  0.94673551  1
  Se  Se161  1  0.42195609  0.90463367  0.45230848  1
  Se  Se162  1  0.40618980  0.92832337  0.93812375  1
  Se  Se163  1  0.75035990  0.24796877  0.44968495  1
  Se  Se164  1  0.74764002  0.24875189  0.94606463  1
  Se  Se165  1  0.75190028  0.58490642  0.45819954  1
  Se  Se166  1  0.74878142  0.58600709  0.93697960  1
  Se  Se167  1  0.73805578  0.93163363  0.44062848  1
  Se  Se168  1  0.75585722  0.91226828  0.94280803  1
  Se  Se169  1  0.25738772  0.08478308  0.45132452  1
  Se  Se170  1  0.24649184  0.09333063  0.94389765  1
  Se  Se171  1  0.24749400  0.41115132  0.43974979  1
  Se  Se172  1  0.24709257  0.41143663  0.93341712  1
  Se  Se173  1  0.24696349  0.74669252  0.45256180  1
  Se  Se174  1  0.25817148  0.74973853  0.94016152  1
  Se  Se175  1  0.57641316  0.08972756  0.45261069  1
  Se  Se176  1  0.59179076  0.07251917  0.94251932  1
  Se  Se177  1  0.57862442  0.41931922  0.45405034  1
  Se  Se178  1  0.57910825  0.41357294  0.94638370  1
  Se  Se179  1  0.58871577  0.73560712  0.45269074  1
  Se  Se180  1  0.59081870  0.74025378  0.93311993  1
  Se  Se181  1  0.91111656  0.10059657  0.44455280  1
  Se  Se182  1  0.90970081  0.08817987  0.94736785  1
  Se  Se183  1  0.91505763  0.41777213  0.45039143  1
  Se  Se184  1  0.92321166  0.41321769  0.94059190  1
  Se  Se185  1  0.92174690  0.75122760  0.44351031  1
  Se  Se186  1  0.91065282  0.75566732  0.95097942  1
  Se  Se187  1  0.24945054  0.23918354  0.29980658  1
  Se  Se188  1  0.26934715  0.27031827  0.80149660  1
  Se  Se189  1  0.25486527  0.58701029  0.30193097  1
  Se  Se190  1  0.25272743  0.58143500  0.79839805  1
  Se  Se191  1  0.23763207  0.91437717  0.32782139  1
  Se  Se192  1  0.24722806  0.91762756  0.80040591  1
  Se  Se193  1  0.57878013  0.24643618  0.31606498  1
  Se  Se194  1  0.58102398  0.24580676  0.80113325  1
  Se  Se195  1  0.57178546  0.57501861  0.31251805  1
  Se  Se196  1  0.58250042  0.57534815  0.80534945  1
  Se  Se197  1  0.57624783  0.91299126  0.31461124  1
  Se  Se198  1  0.57391177  0.90589159  0.80376460  1
  Se  Se199  1  0.91985064  0.25179404  0.30332520  1
  Se  Se200  1  0.91815652  0.24861260  0.80448198  1
  Se  Se201  1  0.91373119  0.57891096  0.32356053  1
  Se  Se202  1  0.90715358  0.57373588  0.80806216  1
  Se  Se203  1  0.92628393  0.92462381  0.30516601  1
  Se  Se204  1  0.91310934  0.91391685  0.79726557  1
  Se  Se205  1  0.08725611  0.07758053  0.30691061  1
  Se  Se206  1  0.08575606  0.08742263  0.80809466  1
  Se  Se207  1  0.08039098  0.41411241  0.30225662  1
  Se  Se208  1  0.07916199  0.41958874  0.79468859  1
  Se  Se209  1  0.09045099  0.75298399  0.32103946  1
  Se  Se210  1  0.09220428  0.76013404  0.80871911  1
  Se  Se211  1  0.42350361  0.08931275  0.31452223  1
  Se  Se212  1  0.41420715  0.08276756  0.79712794  1
  Se  Se213  1  0.41325584  0.41198503  0.30515017  1
  Se  Se214  1  0.42151394  0.41747789  0.80166336  1
  Se  Se215  1  0.41168072  0.74456995  0.30933276  1
  Se  Se216  1  0.41882597  0.74330543  0.79664344  1
  Se  Se217  1  0.75905509  0.08759122  0.31137961  1
  Se  Se218  1  0.75553526  0.08453633  0.80545965  1
  Se  Se219  1  0.75098976  0.42333913  0.32715536  1
  Se  Se220  1  0.74974543  0.41250122  0.80135826  1
  Se  Se221  1  0.75831237  0.76513791  0.31113442  1
  Se  Se222  1  0.75372719  0.75076585  0.79708536  1
  Se  Se223  1  0.25012012  0.08566705  0.18667177  1
  Se  Se224  1  0.23855516  0.08884014  0.69148690  1
  Se  Se225  1  0.24689850  0.42573463  0.20123396  1
  Se  Se226  1  0.25242387  0.41296373  0.69257541  1
  Se  Se227  1  0.25682420  0.75240322  0.20676419  1
  Se  Se228  1  0.25217502  0.74535154  0.69587310  1
  Se  Se229  1  0.57450932  0.09503411  0.20119672  1
  Se  Se230  1  0.57443198  0.09091766  0.68280504  1
  Se  Se231  1  0.57853736  0.42219043  0.19129012  1
  Se  Se232  1  0.58606699  0.41338343  0.69067632  1
  Se  Se233  1  0.57154250  0.75754640  0.19781981  1
  Se  Se234  1  0.57298685  0.75956875  0.68759414  1
  Se  Se235  1  0.92388379  0.08318141  0.19449706  1
  Se  Se236  1  0.90982004  0.09545742  0.68269008  1
  Se  Se237  1  0.90897731  0.41609877  0.20482722  1
  Se  Se238  1  0.92372074  0.40883335  0.69340267  1
  Se  Se239  1  0.91172807  0.75100066  0.19493117  1
  Se  Se240  1  0.91558789  0.75157013  0.68602010  1
  Se  Se241  1  0.06246525  0.26957543  0.19309744  1
  Se  Se242  1  0.08815019  0.23734855  0.69139700  1
  Se  Se243  1  0.08926082  0.57568351  0.19600936  1
  Se  Se244  1  0.08980389  0.57941803  0.68427146  1
  Se  Se245  1  0.08830008  0.91154644  0.20482042  1
  Se  Se246  1  0.08940003  0.90701841  0.67957217  1
  Se  Se247  1  0.41995901  0.24823392  0.20511508  1
  Se  Se248  1  0.41258940  0.25253269  0.69108868  1
  Se  Se249  1  0.41853018  0.58469329  0.19317761  1
  Se  Se250  1  0.41660098  0.58006001  0.69140602  1
  Se  Se251  1  0.41787258  0.91798569  0.19875805  1
  Se  Se252  1  0.40807177  0.92185581  0.70019794  1
  Se  Se253  1  0.75298626  0.24324327  0.19608456  1
  Se  Se254  1  0.74834305  0.25471601  0.69781303  1
  Se  Se255  1  0.75762501  0.57352209  0.20418532  1
  Se  Se256  1  0.76540335  0.57161037  0.68272429  1
  Se  Se257  1  0.75774589  0.90981495  0.18826818  1
  Se  Se258  1  0.75300185  0.91474172  0.68092628  1
