# generated using pymatgen
data_In86Cu29Se144
_symmetry_space_group_name_H-M   'P 1'
_cell_length_a   17.57757470
_cell_length_b   17.57496388
_cell_length_c   23.43547715
_cell_angle_alpha   90.01941873
_cell_angle_beta   89.98739680
_cell_angle_gamma   89.98929966
_symmetry_Int_Tables_number   1
_chemical_formula_structural   In86Cu29Se144
_chemical_formula_sum   'In86 Cu29 Se144'
_cell_volume   7239.80969446
_cell_formula_units_Z   1
loop_
 _symmetry_equiv_pos_site_id
 _symmetry_equiv_pos_as_xyz
  1  'x, y, z'
loop_
 _atom_site_type_symbol
 _atom_site_label
 _atom_site_symmetry_multiplicity
 _atom_site_fract_x
 _atom_site_fract_y
 _atom_site_fract_z
 _atom_site_occupancy
  In  In0  1  -0.00199089  0.18297919  0.13996637  1
  In  In1  1  -0.00068868  0.17744428  0.61675709  1
  In  In2  1  0.00064859  0.49655212  0.12357847  1
  In  In3  1  0.00809121  0.51114436  0.61941957  1
  In  In4  1  0.01448335  0.82874869  0.12583252  1
  In  In5  1  -0.01651123  0.81939377  0.62867953  1
  In  In6  1  0.31910031  0.17198222  0.14339495  1
  In  In7  1  0.35257550  0.17010175  0.61689180  1
  In  In8  1  0.32429806  0.49511510  0.12877464  1
  In  In9  1  0.33308114  0.50181171  0.62394338  1
  In  In10  1  0.33473660  0.83586678  0.12068151  1
  In  In11  1  0.33333674  0.81626023  0.62014654  1
  In  In12  1  0.67043384  0.16480710  0.12991650  1
  In  In13  1  0.66650926  0.16722277  0.62300901  1
  In  In14  1  0.67060500  0.48258674  0.12799550  1
  In  In15  1  0.65598598  0.48532312  0.61915522  1
  In  In16  1  0.66112503  0.84905941  0.12274364  1
  In  In17  1  0.66407588  0.84792934  0.62970027  1
  In  In18  1  0.18986385  0.02299685  0.33273234  1
  In  In19  1  0.15486932  -0.00165324  0.88462740  1
  In  In20  1  0.18361991  0.35551752  0.34464766  1
  In  In21  1  0.18767357  0.34293322  0.87717760  1
  In  In22  1  0.16969529  0.65904654  0.38036876  1
  In  In23  1  0.16846318  0.66403434  0.87522698  1
  In  In24  1  0.50291918  0.00521815  0.37306990  1
  In  In25  1  0.49883903  -0.01518013  0.87312560  1
  In  In26  1  0.49504677  0.32354533  0.38019123  1
  In  In27  1  0.49806617  0.33019484  0.86560256  1
  In  In28  1  0.48536782  0.66532761  0.39842570  1
  In  In29  1  0.49850400  0.68282784  0.87232264  1
  In  In30  1  0.84262750  0.01866427  0.36766254  1
  In  In31  1  0.83672689  0.01400081  0.87950391  1
  In  In32  1  0.83175752  0.33430874  0.37363444  1
  In  In33  1  0.83173631  0.33723826  0.87816406  1
  In  In34  1  0.83036833  0.66401131  0.38030815  1
  In  In35  1  0.82914978  0.64580234  0.87239211  1
  In  In36  1  0.00004195  0.16499027  0.36555414  1
  In  In37  1  -0.00406554  0.15747809  0.88287096  1
  In  In38  1  0.01495509  0.48277729  0.38195238  1
  In  In39  1  -0.00300997  0.50351947  0.87974693  1
  In  In40  1  0.00721406  0.84529422  0.36749423  1
  In  In41  1  0.01255753  0.83531950  0.88020468  1
  In  In42  1  0.34012482  0.18364444  0.35922739  1
  In  In43  1  0.33217650  0.17627195  0.87369770  1
  In  In44  1  0.34006239  0.48352332  0.39168215  1
  In  In45  1  0.32110903  0.49079110  0.86995188  1
  In  In46  1  0.33083285  0.84422388  0.37557286  1
  In  In47  1  0.33808086  0.82808698  0.87823624  1
  In  In48  1  0.66659842  0.17050232  0.37423586  1
  In  In49  1  0.67538788  0.17571752  0.86752552  1
  In  In50  1  0.67245220  0.48699958  0.38504138  1
  In  In51  1  0.67853125  0.49566929  0.87294065  1
  In  In52  1  0.65141777  0.83778525  0.37751540  1
  In  In53  1  0.65046916  0.83163164  0.87362819  1
  In  In54  1  0.17423552  -0.01198230  0.13980098  1
  In  In55  1  0.16274903  0.00394154  0.62173740  1
  In  In56  1  0.16553452  0.34097109  0.13677161  1
  In  In57  1  0.17068555  0.35473896  0.61926401  1
  In  In58  1  0.16536850  0.66123000  0.11760288  1
  In  In59  1  0.18002352  0.65258354  0.63920756  1
  In  In60  1  0.49881142  -0.00005486  0.12949976  1
  In  In61  1  0.50862893  0.01121158  0.61270076  1
  In  In62  1  0.50079125  0.33661362  0.13938544  1
  In  In63  1  0.49841706  0.33771218  0.62588764  1
  In  In64  1  0.48674474  0.67084337  0.12254677  1
  In  In65  1  0.47986822  0.64703547  0.60606022  1
  In  In66  1  0.82224838  0.01607180  0.13028281  1
  In  In67  1  0.82017699  -0.00422521  0.62265492  1
  In  In68  1  0.83465948  0.33157331  0.12454203  1
  In  In69  1  0.82264564  0.32007969  0.61466123  1
  In  In70  1  0.84478796  0.65903181  0.12000614  1
  In  In71  1  0.84806461  0.67139066  0.63116004  1
  In  In72  1  0.17873082  0.18238695  0.47762971  1
  In  In73  1  0.66432530  0.66677936  0.74628754  1
  In  In74  1  0.83142191  0.83477272  0.50484477  1
  In  In75  1  0.49831047  0.50363606  0.00201801  1
  In  In76  1  -0.00378232  -0.00591962  0.75543829  1
  In  In77  1  -0.00126337  0.33639905  0.74749578  1
  In  In78  1  0.49739101  0.16566988  -0.00007030  1
  In  In79  1  0.33274964  0.66451517  0.25318712  1
  In  In80  1  0.00247665  0.66464890  0.24712614  1
  In  In81  1  0.16532003  0.83388362  0.49432473  1
  In  In82  1  0.15746709  0.16981822  0.01559234  1
  In  In83  1  0.66280400  0.66157883  0.25982266  1
  In  In84  1  0.83221783  0.83005882  -0.00174578  1
  In  In85  1  0.33717225  -0.00043085  0.75175839  1
  Cu  Cu86  1  0.00368734  0.00805852  0.49052561  1
  Cu  Cu87  1  0.00454086  0.65722575  -0.00129814  1
  Cu  Cu88  1  0.49986825  0.83348391  0.74374093  1
  Cu  Cu89  1  0.82529864  0.17589808  0.25186400  1
  Cu  Cu90  1  0.50903549  0.16716066  0.74070741  1
  Cu  Cu91  1  0.67164262  0.32973459  -0.00039835  1
  Cu  Cu92  1  0.00389792  0.33316445  0.00566269  1
  Cu  Cu93  1  0.16854925  0.50792418  0.74715724  1
  Cu  Cu94  1  0.32986551  0.67075453  -0.00181095  1
  Cu  Cu95  1  0.17590386  0.17446312  0.75066437  1
  Cu  Cu96  1  0.50309098  0.16689142  0.25254394  1
  Cu  Cu97  1  -0.00770519  0.33778561  0.49502791  1
  Cu  Cu98  1  0.16310910  0.82653474  0.75276911  1
  Cu  Cu99  1  0.50016616  0.83710569  0.25064967  1
  Cu  Cu100  1  0.66251311  0.32802152  0.49904409  1
  Cu  Cu101  1  0.83087403  0.48968545  0.74817335  1
  Cu  Cu102  1  0.00253954  0.66565609  0.50147004  1
  Cu  Cu103  1  0.82882417  0.16065391  0.74686679  1
  Cu  Cu104  1  0.66047813  0.00258609  0.00487007  1
  Cu  Cu105  1  0.49688955  0.50290376  0.74294829  1
  Cu  Cu106  1  0.32726842  0.00246407  0.00471231  1
  Cu  Cu107  1  0.66422311  0.66496740  -0.00638561  1
  Cu  Cu108  1  0.34011195  -0.00143881  0.49230015  1
  Cu  Cu109  1  0.83847422  0.49399266  0.25135174  1
  Cu  Cu110  1  -0.00463393  -0.00059381  0.00867120  1
  Cu  Cu111  1  0.82665373  0.84499787  0.24808165  1
  Cu  Cu112  1  0.50133030  0.49291763  0.26359299  1
  Cu  Cu113  1  0.66926064  0.00767983  0.49618762  1
  Cu  Cu114  1  0.66893143  0.66129699  0.50039423  1
  Se  Se115  1  0.07421175  0.07438467  0.07376136  1
  Se  Se116  1  0.08775862  0.09011436  0.54838654  1
  Se  Se117  1  0.08928779  0.41380642  0.05843967  1
  Se  Se118  1  0.07710466  0.41877711  0.54946078  1
  Se  Se119  1  0.08330542  0.74635333  0.05010551  1
  Se  Se120  1  0.08066642  0.74746044  0.56197563  1
  Se  Se121  1  0.40328054  0.08590821  0.06452067  1
  Se  Se122  1  0.42130798  0.08626551  0.54265145  1
  Se  Se123  1  0.41574409  0.40968348  0.06238438  1
  Se  Se124  1  0.42198106  0.42399063  0.55711836  1
  Se  Se125  1  0.41629470  0.75370618  0.04918761  1
  Se  Se126  1  0.42892647  0.76217057  0.54879503  1
  Se  Se127  1  0.74551302  0.08853430  0.05216745  1
  Se  Se128  1  0.75309278  0.08655621  0.55256066  1
  Se  Se129  1  0.75390714  0.41565102  0.05237827  1
  Se  Se130  1  0.74817712  0.41429647  0.54987528  1
  Se  Se131  1  0.74088801  0.74237676  0.06141649  1
  Se  Se132  1  0.74316280  0.74269415  0.56447237  1
  Se  Se133  1  0.25740725  0.25830314  0.06307180  1
  Se  Se134  1  0.25307679  0.25497229  0.55874628  1
  Se  Se135  1  0.25686536  0.58152700  0.05408163  1
  Se  Se136  1  0.24089574  0.58058587  0.55783476  1
  Se  Se137  1  0.24390962  0.91772583  0.05636513  1
  Se  Se138  1  0.25817489  0.92602253  0.55673637  1
  Se  Se139  1  0.58495700  0.25845648  0.06040486  1
  Se  Se140  1  0.57965848  0.24965694  0.55749988  1
  Se  Se141  1  0.59207678  0.58879059  0.06488001  1
  Se  Se142  1  0.58383457  0.57516487  0.54924772  1
  Se  Se143  1  0.57249693  0.91946599  0.05194762  1
  Se  Se144  1  0.59061750  0.91908059  0.54980742  1
  Se  Se145  1  0.92200072  0.24791048  0.05769602  1
  Se  Se146  1  0.91368498  0.24711953  0.54498995  1
  Se  Se147  1  0.91840116  0.57453566  0.04969068  1
  Se  Se148  1  0.91350086  0.58761737  0.55419363  1
  Se  Se149  1  0.91305253  0.91684762  0.06655541  1
  Se  Se150  1  0.93104107  0.92763779  0.55724666  1
  Se  Se151  1  0.07443085  0.26605008  0.42995370  1
  Se  Se152  1  0.08247486  0.25676718  0.93904302  1
  Se  Se153  1  0.08382321  0.58095989  0.44797736  1
  Se  Se154  1  0.09093011  0.57658132  0.94551928  1
  Se  Se155  1  0.08955478  0.93339105  0.43367982  1
  Se  Se156  1  0.08078666  0.91656645  0.95748419  1
  Se  Se157  1  0.39938177  0.24939290  0.44495000  1
  Se  Se158  1  0.40956919  0.26340747  0.94516695  1
  Se  Se159  1  0.40752847  0.57577140  0.46111581  1
  Se  Se160  1  0.41223284  0.59146895  0.93733626  1
  Se  Se161  1  0.42527297  0.91479888  0.44198455  1
  Se  Se162  1  0.40942379  0.92198143  0.94690077  1
  Se  Se163  1  0.75054536  0.25069135  0.44432319  1
  Se  Se164  1  0.75397387  0.24631301  0.94532045  1
  Se  Se165  1  0.75411814  0.57925345  0.44904696  1
  Se  Se166  1  0.74908524  0.57659958  0.94960849  1
  Se  Se167  1  0.75074492  0.92401725  0.43756072  1
  Se  Se168  1  0.73997196  0.92251186  0.94139229  1
  Se  Se169  1  0.25698896  0.07203576  0.42878054  1
  Se  Se170  1  0.25107901  0.08629144  0.94464418  1
  Se  Se171  1  0.23539504  0.40169599  0.44023284  1
  Se  Se172  1  0.25205656  0.42450272  0.95346923  1
  Se  Se173  1  0.26315781  0.74217972  0.44428547  1
  Se  Se174  1  0.24576849  0.75384516  0.94454120  1
  Se  Se175  1  0.58253668  0.08868973  0.44390344  1
  Se  Se176  1  0.58627077  0.07945125  0.93650564  1
  Se  Se177  1  0.57724108  0.41173258  0.44784418  1
  Se  Se178  1  0.58782832  0.40954296  0.94115698  1
  Se  Se179  1  0.58704148  0.74855579  0.45053006  1
  Se  Se180  1  0.57845103  0.75267153  0.95006317  1
  Se  Se181  1  0.91759561  0.09387826  0.44418577  1
  Se  Se182  1  0.91415908  0.08557907  0.95726212  1
  Se  Se183  1  0.90779491  0.42377675  0.44426203  1
  Se  Se184  1  0.92080005  0.41201479  0.94616246  1
  Se  Se185  1  0.92817317  0.75198751  0.44087971  1
  Se  Se186  1  0.92031300  0.73660082  0.93904488  1
  Se  Se187  1  0.21983665  0.22488471  0.30163500  1
  Se  Se188  1  0.25760683  0.25911549  0.80145698  1
  Se  Se189  1  0.25200833  0.57078164  0.31450551  1
  Se  Se190  1  0.25384470  0.58799101  0.80276947  1
  Se  Se191  1  0.24862487  0.89868338  0.29596652  1
  Se  Se192  1  0.23833125  0.91587021  0.81101107  1
  Se  Se193  1  0.58290338  0.25387635  0.30615276  1
  Se  Se194  1  0.58665456  0.25154539  0.79971979  1
  Se  Se195  1  0.57172536  0.58014147  0.32386657  1
  Se  Se196  1  0.57583735  0.57674763  0.81087117  1
  Se  Se197  1  0.58515151  0.92099175  0.30158862  1
  Se  Se198  1  0.58293307  0.91621368  0.79751361  1
  Se  Se199  1  0.91521203  0.25496769  0.30258491  1
  Se  Se200  1  0.91416372  0.23837797  0.80704864  1
  Se  Se201  1  0.91384802  0.57874433  0.31151666  1
  Se  Se202  1  0.91505161  0.57167391  0.80161823  1
  Se  Se203  1  0.91360622  0.92005727  0.30328976  1
  Se  Se204  1  0.90760882  0.90759101  0.81763507  1
  Se  Se205  1  0.05662783  0.05944987  0.29942497  1
  Se  Se206  1  0.09279394  0.09321773  0.80722031  1
  Se  Se207  1  0.07011490  0.41837992  0.29315018  1
  Se  Se208  1  0.09189200  0.42199249  0.80827045  1
  Se  Se209  1  0.09512763  0.75060727  0.30850492  1
  Se  Se210  1  0.07992264  0.74686770  0.80793717  1
  Se  Se211  1  0.41684941  0.08196979  0.30207774  1
  Se  Se212  1  0.42933786  0.09378030  0.80888538  1
  Se  Se213  1  0.41240294  0.41083885  0.31113709  1
  Se  Se214  1  0.41704472  0.42068536  0.80280567  1
  Se  Se215  1  0.42830739  0.75107955  0.31252660  1
  Se  Se216  1  0.41401742  0.75535596  0.79945131  1
  Se  Se217  1  0.74472575  0.08599781  0.30187441  1
  Se  Se218  1  0.74967953  0.07775639  0.80373543  1
  Se  Se219  1  0.74748620  0.41871077  0.30427263  1
  Se  Se220  1  0.74870357  0.40682049  0.80152935  1
  Se  Se221  1  0.75603248  0.76056742  0.31119190  1
  Se  Se222  1  0.75071637  0.75022535  0.81377355  1
  Se  Se223  1  0.26103550  0.06675600  0.20645419  1
  Se  Se224  1  0.24894179  0.09020585  0.68856836  1
  Se  Se225  1  0.25980228  0.41241410  0.20444566  1
  Se  Se226  1  0.25104755  0.42022676  0.69719601  1
  Se  Se227  1  0.24547658  0.74940232  0.18855806  1
  Se  Se228  1  0.25400871  0.75191710  0.70025133  1
  Se  Se229  1  0.58299545  0.08363429  0.19564294  1
  Se  Se230  1  0.58834054  0.07688200  0.69199526  1
  Se  Se231  1  0.58783779  0.41814534  0.20552571  1
  Se  Se232  1  0.58348185  0.41479110  0.69925403  1
  Se  Se233  1  0.57889930  0.75181502  0.19237958  1
  Se  Se234  1  0.57260287  0.74778732  0.68205495  1
  Se  Se235  1  0.90993225  0.09215092  0.19852638  1
  Se  Se236  1  0.91785980  0.08830774  0.68805621  1
  Se  Se237  1  0.91962333  0.41445503  0.19354669  1
  Se  Se238  1  0.91069157  0.41803022  0.68131403  1
  Se  Se239  1  0.90528175  0.75818759  0.19200951  1
  Se  Se240  1  0.91371870  0.75044298  0.70911180  1
  Se  Se241  1  0.11093317  0.23249157  0.20090054  1
  Se  Se242  1  0.09384297  0.24814212  0.68819001  1
  Se  Se243  1  0.09609897  0.57281369  0.19378357  1
  Se  Se244  1  0.07468994  0.58745152  0.70074824  1
  Se  Se245  1  0.07732047  0.91181766  0.20133219  1
  Se  Se246  1  0.08834643  0.90886118  0.69029718  1
  Se  Se247  1  0.41554677  0.25161344  0.20341714  1
  Se  Se248  1  0.41756183  0.24942889  0.69563607  1
  Se  Se249  1  0.42933003  0.57262254  0.19640202  1
  Se  Se250  1  0.41346242  0.58921648  0.69434118  1
  Se  Se251  1  0.41451700  0.91351502  0.19466014  1
  Se  Se252  1  0.42066155  0.91634923  0.68312567  1
  Se  Se253  1  0.74431211  0.25896559  0.19520798  1
  Se  Se254  1  0.74983884  0.24880528  0.69452770  1
  Se  Se255  1  0.75765098  0.57981934  0.19416600  1
  Se  Se256  1  0.75258395  0.57299668  0.68721103  1
  Se  Se257  1  0.74152348  0.92452372  0.19485146  1
  Se  Se258  1  0.76544316  0.90415541  0.69660613  1
