# generated using pymatgen
data_In86Cu29Se144
_symmetry_space_group_name_H-M   'P 1'
_cell_length_a   17.58102491
_cell_length_b   17.58740517
_cell_length_c   23.44076067
_cell_angle_alpha   90.01804224
_cell_angle_beta   89.99765039
_cell_angle_gamma   89.96813445
_symmetry_Int_Tables_number   1
_chemical_formula_structural   In86Cu29Se144
_chemical_formula_sum   'In86 Cu29 Se144'
_cell_volume   7247.98973347
_cell_formula_units_Z   1
loop_
 _symmetry_equiv_pos_site_id
 _symmetry_equiv_pos_as_xyz
  1  'x, y, z'
loop_
 _atom_site_type_symbol
 _atom_site_label
 _atom_site_symmetry_multiplicity
 _atom_site_fract_x
 _atom_site_fract_y
 _atom_site_fract_z
 _atom_site_occupancy
  In  In0  1  -0.01415080  0.16346299  0.12748933  1
  In  In1  1  -0.00603116  0.16207704  0.61825914  1
  In  In2  1  0.01837608  0.50349452  0.12995828  1
  In  In3  1  0.00497254  0.48409138  0.62795176  1
  In  In4  1  0.00346899  0.83615274  0.12954519  1
  In  In5  1  0.01743824  0.84774495  0.62356555  1
  In  In6  1  0.33776080  0.16662346  0.13852910  1
  In  In7  1  0.34527850  0.18045386  0.61388855  1
  In  In8  1  0.32363781  0.49512857  0.13572059  1
  In  In9  1  0.32540410  0.49420388  0.62385118  1
  In  In10  1  0.33627320  0.83703558  0.12668909  1
  In  In11  1  0.31969535  0.82140432  0.61011855  1
  In  In12  1  0.66554260  0.16974823  0.14129007  1
  In  In13  1  0.66535047  0.16409302  0.62000516  1
  In  In14  1  0.65766509  0.49702745  0.13283058  1
  In  In15  1  0.64856091  0.49299307  0.61530905  1
  In  In16  1  0.67767616  0.83591269  0.13197103  1
  In  In17  1  0.67122075  0.83611333  0.61801966  1
  In  In18  1  0.16582761  -0.00150925  0.37648942  1
  In  In19  1  0.15205740  -0.00235461  0.86913067  1
  In  In20  1  0.17677873  0.31972698  0.38363849  1
  In  In21  1  0.18027417  0.35653345  0.84065558  1
  In  In22  1  0.16519631  0.67489349  0.38934232  1
  In  In23  1  0.17076676  0.67361331  0.87721510  1
  In  In24  1  0.49892360  0.00245862  0.37647525  1
  In  In25  1  0.50846489  -0.01633921  0.86577585  1
  In  In26  1  0.50082305  0.33747406  0.38382534  1
  In  In27  1  0.49613977  0.33499628  0.86086864  1
  In  In28  1  0.48937301  0.65793004  0.39253454  1
  In  In29  1  0.48175234  0.67490726  0.86946825  1
  In  In30  1  0.83306087  0.00045220  0.37794859  1
  In  In31  1  0.83224735  0.00090429  0.87281657  1
  In  In32  1  0.81548151  0.33027730  0.38183216  1
  In  In33  1  0.83158456  0.32960370  0.86228984  1
  In  In34  1  0.85036585  0.66656924  0.37396523  1
  In  In35  1  0.84587706  0.68124946  0.87428065  1
  In  In36  1  0.00784619  0.15187493  0.38307577  1
  In  In37  1  0.00370433  0.16876735  0.86130944  1
  In  In38  1  0.00135665  0.51832651  0.37283537  1
  In  In39  1  0.02668738  0.50758153  0.86158820  1
  In  In40  1  0.00055797  0.83409369  0.37781125  1
  In  In41  1  -0.00963114  0.83439788  0.88349712  1
  In  In42  1  0.33309781  0.16701149  0.37729597  1
  In  In43  1  0.32036658  0.17190917  0.86806012  1
  In  In44  1  0.34841062  0.48428802  0.39346840  1
  In  In45  1  0.33152783  0.50835884  0.86363701  1
  In  In46  1  0.32096220  0.83711958  0.38799759  1
  In  In47  1  0.32538114  0.81926346  0.86175632  1
  In  In48  1  0.66758086  0.16991382  0.38548381  1
  In  In49  1  0.66701483  0.16505963  0.86088650  1
  In  In50  1  0.65484768  0.48583844  0.37385489  1
  In  In51  1  0.67150864  0.49482380  0.86760950  1
  In  In52  1  0.65533232  0.84763887  0.38254493  1
  In  In53  1  0.67384923  0.84884317  0.86856959  1
  In  In54  1  0.17939447  -0.01504296  0.13598502  1
  In  In55  1  0.15509107  -0.00640119  0.61929705  1
  In  In56  1  0.17420036  0.34252270  0.13031601  1
  In  In57  1  0.16577478  0.33231275  0.61921806  1
  In  In58  1  0.15992708  0.66616126  0.12940391  1
  In  In59  1  0.18414701  0.67465073  0.61738257  1
  In  In60  1  0.49722469  0.00293246  0.14146104  1
  In  In61  1  0.50767605  0.01030220  0.61398313  1
  In  In62  1  0.50145734  0.34068788  0.14586943  1
  In  In63  1  0.50188883  0.32806800  0.62234805  1
  In  In64  1  0.49076164  0.66636246  0.13018785  1
  In  In65  1  0.47034761  0.64854854  0.60123090  1
  In  In66  1  0.84567786  -0.00924246  0.14123725  1
  In  In67  1  0.83518374  -0.00311040  0.62256853  1
  In  In68  1  0.83033954  0.32138517  0.12833356  1
  In  In69  1  0.83434459  0.32014774  0.62249909  1
  In  In70  1  0.83800585  0.68740882  0.12123712  1
  In  In71  1  0.82396486  0.67440406  0.62248663  1
  In  In72  1  0.34238624  0.00940054  0.74250698  1
  In  In73  1  0.50003616  0.83171559  -0.00040124  1
  In  In74  1  0.00606721  0.66533051  0.74921834  1
  In  In75  1  0.50211689  0.16162763  0.00184795  1
  In  In76  1  0.33379317  0.65620257  0.26066074  1
  In  In77  1  -0.00166916  0.33083117  0.24854352  1
  In  In78  1  0.84057489  0.50678614  -0.00129838  1
  In  In79  1  0.15688253  0.16750823  -0.00511327  1
  In  In80  1  0.49813121  0.50087864  -0.00288533  1
  In  In81  1  0.83260529  0.15791987  0.00526560  1
  In  In82  1  0.67205167  0.66626530  0.26080274  1
  In  In83  1  0.83508422  0.50226256  0.49800724  1
  In  In84  1  0.65525493  0.66106360  0.74154070  1
  In  In85  1  0.17345465  0.51418150  -0.00890284  1
  Cu  Cu86  1  0.66979541  0.32765564  0.00319535  1
  Cu  Cu87  1  0.83726743  0.84174642  0.25369999  1
  Cu  Cu88  1  0.83245340  0.50411182  0.25472931  1
  Cu  Cu89  1  -0.00187288  -0.00500715  0.49918338  1
  Cu  Cu90  1  0.33266655  0.33274186  0.00100413  1
  Cu  Cu91  1  0.67180213  -0.00362311  0.00162140  1
  Cu  Cu92  1  0.83712991  0.83967966  0.74726833  1
  Cu  Cu93  1  0.16644740  0.17221017  0.73897416  1
  Cu  Cu94  1  0.50564594  0.16859438  0.73940886  1
  Cu  Cu95  1  0.00323880  -0.00530668  0.00572213  1
  Cu  Cu96  1  0.66731877  0.67353743  -0.00103128  1
  Cu  Cu97  1  0.17319132  0.49366104  0.25936883  1
  Cu  Cu98  1  0.66926999  0.67096571  0.49726124  1
  Cu  Cu99  1  0.50194546  0.83155547  0.73618921  1
  Cu  Cu100  1  0.32774897  -0.00937223  0.00212132  1
  Cu  Cu101  1  0.67145753  0.00077823  0.49896716  1
  Cu  Cu102  1  0.16920495  0.16250211  0.25760049  1
  Cu  Cu103  1  0.50069488  0.17086567  0.26304559  1
  Cu  Cu104  1  0.82990441  0.16772260  0.26004249  1
  Cu  Cu105  1  0.33160681  0.00350878  0.49861564  1
  Cu  Cu106  1  0.00639985  0.34101548  -0.01587259  1
  Cu  Cu107  1  0.16324164  0.83097257  0.25968977  1
  Cu  Cu108  1  0.33303667  0.33357242  0.50236068  1
  Cu  Cu109  1  0.48983130  0.49745906  0.73807293  1
  Cu  Cu110  1  0.49767400  0.83308494  0.25762696  1
  Cu  Cu111  1  0.82990110  0.49134998  0.74525385  1
  Cu  Cu112  1  0.83007562  0.15840077  0.74137893  1
  Cu  Cu113  1  0.00246719  0.66941653  0.50291440  1
  Cu  Cu114  1  0.00153683  0.33219922  0.50003557  1
  Se  Se115  1  0.08041632  0.07833017  0.06564098  1
  Se  Se116  1  0.08136311  0.08248188  0.54921266  1
  Se  Se117  1  0.08627942  0.41315923  0.05152389  1
  Se  Se118  1  0.08436288  0.41884434  0.54888204  1
  Se  Se119  1  0.08623258  0.75240029  0.06230010  1
  Se  Se120  1  0.08659264  0.75221085  0.55597144  1
  Se  Se121  1  0.40746704  0.07250426  0.06102763  1
  Se  Se122  1  0.41876246  0.08783685  0.54663299  1
  Se  Se123  1  0.41251842  0.40995355  0.06260069  1
  Se  Se124  1  0.41606812  0.41473316  0.55759986  1
  Se  Se125  1  0.40826674  0.73971144  0.05564597  1
  Se  Se126  1  0.43690047  0.77516915  0.55299010  1
  Se  Se127  1  0.74260873  0.07488783  0.06961964  1
  Se  Se128  1  0.75416519  0.08212012  0.55428311  1
  Se  Se129  1  0.74737604  0.41407994  0.05932915  1
  Se  Se130  1  0.74698707  0.41131224  0.55595424  1
  Se  Se131  1  0.74624096  0.75923306  0.05259005  1
  Se  Se132  1  0.75480932  0.75424125  0.54677228  1
  Se  Se133  1  0.25404940  0.25021852  0.05993095  1
  Se  Se134  1  0.24494687  0.24653735  0.54882665  1
  Se  Se135  1  0.26153404  0.58947946  0.06318002  1
  Se  Se136  1  0.26589243  0.59036111  0.54959406  1
  Se  Se137  1  0.24664700  0.90785380  0.05551612  1
  Se  Se138  1  0.24559386  0.92074098  0.54948449  1
  Se  Se139  1  0.58579965  0.25489947  0.06494534  1
  Se  Se140  1  0.57163228  0.23638756  0.55336144  1
  Se  Se141  1  0.58967698  0.59356271  0.05882721  1
  Se  Se142  1  0.58361446  0.58604616  0.54621359  1
  Se  Se143  1  0.58409961  0.92467869  0.06335915  1
  Se  Se144  1  0.58603477  0.91698085  0.54963753  1
  Se  Se145  1  0.92838631  0.26339890  0.05002238  1
  Se  Se146  1  0.91462671  0.24785256  0.54709893  1
  Se  Se147  1  0.92884032  0.58941057  0.06418169  1
  Se  Se148  1  0.92336166  0.58804782  0.56406933  1
  Se  Se149  1  0.91529136  0.91879591  0.06084337  1
  Se  Se150  1  0.91818449  0.91045602  0.55528669  1
  Se  Se151  1  0.08363416  0.24470282  0.44857133  1
  Se  Se152  1  0.08956607  0.26395691  0.92508650  1
  Se  Se153  1  0.08221946  0.58149738  0.45145454  1
  Se  Se154  1  0.06687107  0.59905150  0.94423067  1
  Se  Se155  1  0.08567802  0.91426907  0.44677590  1
  Se  Se156  1  0.08451009  0.91713181  0.94636117  1
  Se  Se157  1  0.41396095  0.25038820  0.44743875  1
  Se  Se158  1  0.41201577  0.25337618  0.93946908  1
  Se  Se159  1  0.39174552  0.59471341  0.46108581  1
  Se  Se160  1  0.40333556  0.59108145  0.94355066  1
  Se  Se161  1  0.41661347  0.91977826  0.44633407  1
  Se  Se162  1  0.41017350  0.91958192  0.93644581  1
  Se  Se163  1  0.74796296  0.25108238  0.45709360  1
  Se  Se164  1  0.74558595  0.24898562  0.94001670  1
  Se  Se165  1  0.74510144  0.58889198  0.43398617  1
  Se  Se166  1  0.74268924  0.59138006  0.93670636  1
  Se  Se167  1  0.75459618  0.91367511  0.44812197  1
  Se  Se168  1  0.75474674  0.91686364  0.94578040  1
  Se  Se169  1  0.24685341  0.08485812  0.44442219  1
  Se  Se170  1  0.25469501  0.07475021  0.94021298  1
  Se  Se171  1  0.24326899  0.41529829  0.45211521  1
  Se  Se172  1  0.25521312  0.40787811  0.93562907  1
  Se  Se173  1  0.25216026  0.74845654  0.45827282  1
  Se  Se174  1  0.25671588  0.75224180  0.94367139  1
  Se  Se175  1  0.58242716  0.08075445  0.44807036  1
  Se  Se176  1  0.59214206  0.07261058  0.93908610  1
  Se  Se177  1  0.57759743  0.42567047  0.45400575  1
  Se  Se178  1  0.59040591  0.40586217  0.94059486  1
  Se  Se179  1  0.58089420  0.75071424  0.44595860  1
  Se  Se180  1  0.58946568  0.74635011  0.93191801  1
  Se  Se181  1  0.91328003  0.08204179  0.45022004  1
  Se  Se182  1  0.93095531  0.08086757  0.94211625  1
  Se  Se183  1  0.92528420  0.41309965  0.43578257  1
  Se  Se184  1  0.92166251  0.41987169  0.92850807  1
  Se  Se185  1  0.91767141  0.75006999  0.44896370  1
  Se  Se186  1  0.91046136  0.75262679  0.95426458  1
  Se  Se187  1  0.25200663  0.24999458  0.30448113  1
  Se  Se188  1  0.25757967  0.25134154  0.78895701  1
  Se  Se189  1  0.24575679  0.57254548  0.32443619  1
  Se  Se190  1  0.21600836  0.56433439  0.81142912  1
  Se  Se191  1  0.25129156  0.91372876  0.30873854  1
  Se  Se192  1  0.24911033  0.92164206  0.80198277  1
  Se  Se193  1  0.58531916  0.25299160  0.31492131  1
  Se  Se194  1  0.58523248  0.25357936  0.79737754  1
  Se  Se195  1  0.57079762  0.58262123  0.31221295  1
  Se  Se196  1  0.56623415  0.57346925  0.80779567  1
  Se  Se197  1  0.58215697  0.92119853  0.30383702  1
  Se  Se198  1  0.58736763  0.91086683  0.79076656  1
  Se  Se199  1  0.91547059  0.24763516  0.31708535  1
  Se  Se200  1  0.91203197  0.24424295  0.79596030  1
  Se  Se201  1  0.92198544  0.58944249  0.29599707  1
  Se  Se202  1  0.90598807  0.57598217  0.80577488  1
  Se  Se203  1  0.92116815  0.92111296  0.30896235  1
  Se  Se204  1  0.91789539  0.91614118  0.80775411  1
  Se  Se205  1  0.08212480  0.07899063  0.30433136  1
  Se  Se206  1  0.08817563  0.08630321  0.79473256  1
  Se  Se207  1  0.08490671  0.41421345  0.31491075  1
  Se  Se208  1  0.06193456  0.40513856  0.78881212  1
  Se  Se209  1  0.08381411  0.74392614  0.31188803  1
  Se  Se210  1  0.08513740  0.76166407  0.81055140  1
  Se  Se211  1  0.41423161  0.08318844  0.30705838  1
  Se  Se212  1  0.43134952  0.09507609  0.81220721  1
  Se  Se213  1  0.42118468  0.42123007  0.31259870  1
  Se  Se214  1  0.40823355  0.41773076  0.79781315  1
  Se  Se215  1  0.41929218  0.75325196  0.31767804  1
  Se  Se216  1  0.41609253  0.75066734  0.78967765  1
  Se  Se217  1  0.74669512  0.08596227  0.31298387  1
  Se  Se218  1  0.74946742  0.07610888  0.79950477  1
  Se  Se219  1  0.75243842  0.41885232  0.30639858  1
  Se  Se220  1  0.74206238  0.40934064  0.79611008  1
  Se  Se221  1  0.75824942  0.76247419  0.31649703  1
  Se  Se222  1  0.75285337  0.75085483  0.79951424  1
  Se  Se223  1  0.25263017  0.08005359  0.20091074  1
  Se  Se224  1  0.25002937  0.09193860  0.67969752  1
  Se  Se225  1  0.25538300  0.40747770  0.20826975  1
  Se  Se226  1  0.24428958  0.41182006  0.69238628  1
  Se  Se227  1  0.24869097  0.75216913  0.19943050  1
  Se  Se228  1  0.25271014  0.75611833  0.69415679  1
  Se  Se229  1  0.58160160  0.08598070  0.20648139  1
  Se  Se230  1  0.58685341  0.07878603  0.69292773  1
  Se  Se231  1  0.59681523  0.41289680  0.20828652  1
  Se  Se232  1  0.58104386  0.41561923  0.69371056  1
  Se  Se233  1  0.57768570  0.75340054  0.19632315  1
  Se  Se234  1  0.57332049  0.74496417  0.67467225  1
  Se  Se235  1  0.91739574  0.08778668  0.20621738  1
  Se  Se236  1  0.91946282  0.07784999  0.69259573  1
  Se  Se237  1  0.90970207  0.42543276  0.18796896  1
  Se  Se238  1  0.91202287  0.40903249  0.69171946  1
  Se  Se239  1  0.91612108  0.75503659  0.19932419  1
  Se  Se240  1  0.91415962  0.75465784  0.68947463  1
  Se  Se241  1  0.09199427  0.23943609  0.18942913  1
  Se  Se242  1  0.07770712  0.24869280  0.68552230  1
  Se  Se243  1  0.09384311  0.57923667  0.20500893  1
  Se  Se244  1  0.09182641  0.58194563  0.68366355  1
  Se  Se245  1  0.08390254  0.91627786  0.20284604  1
  Se  Se246  1  0.08738079  0.92257350  0.70141453  1
  Se  Se247  1  0.41637814  0.25200486  0.20606140  1
  Se  Se248  1  0.41553703  0.25211088  0.69524880  1
  Se  Se249  1  0.42782884  0.56784493  0.19894541  1
  Se  Se250  1  0.40843712  0.58665374  0.69001425  1
  Se  Se251  1  0.41192428  0.91303855  0.20202644  1
  Se  Se252  1  0.42255208  0.91673886  0.67940998  1
  Se  Se253  1  0.75079583  0.25532134  0.20607493  1
  Se  Se254  1  0.74669702  0.24585302  0.69277985  1
  Se  Se255  1  0.75825959  0.58457746  0.18875619  1
  Se  Se256  1  0.75106767  0.57081865  0.68533375  1
  Se  Se257  1  0.74520117  0.92193862  0.20546887  1
  Se  Se258  1  0.74918751  0.91506097  0.69231429  1
