# generated using pymatgen
data_In86Cu29Se144
_symmetry_space_group_name_H-M   'P 1'
_cell_length_a   17.57724115
_cell_length_b   17.57944766
_cell_length_c   23.44189592
_cell_angle_alpha   89.99322832
_cell_angle_beta   89.97708195
_cell_angle_gamma   90.00731211
_symmetry_Int_Tables_number   1
_chemical_formula_structural   In86Cu29Se144
_chemical_formula_sum   'In86 Cu29 Se144'
_cell_volume   7243.50273776
_cell_formula_units_Z   1
loop_
 _symmetry_equiv_pos_site_id
 _symmetry_equiv_pos_as_xyz
  1  'x, y, z'
loop_
 _atom_site_type_symbol
 _atom_site_label
 _atom_site_symmetry_multiplicity
 _atom_site_fract_x
 _atom_site_fract_y
 _atom_site_fract_z
 _atom_site_occupancy
  In  In0  1  -0.00346458  0.16127789  0.12430205  1
  In  In1  1  -0.00013172  0.16285045  0.61852991  1
  In  In2  1  -0.00252480  0.51823799  0.12615814  1
  In  In3  1  0.01433352  0.49999438  0.62706883  1
  In  In4  1  0.01088089  0.83147401  0.12897141  1
  In  In5  1  -0.01314388  0.83853736  0.62537182  1
  In  In6  1  0.33932582  0.16636916  0.11575635  1
  In  In7  1  0.33735515  0.16061688  0.62867501  1
  In  In8  1  0.34463309  0.49360726  0.12711252  1
  In  In9  1  0.33401218  0.50281649  0.63448775  1
  In  In10  1  0.32303933  0.83287236  0.12067861  1
  In  In11  1  0.33421084  0.83571090  0.63240308  1
  In  In12  1  0.66191176  0.16592058  0.12870132  1
  In  In13  1  0.65560328  0.15415297  0.61615413  1
  In  In14  1  0.66718468  0.49456393  0.12541114  1
  In  In15  1  0.67468461  0.50835722  0.62601270  1
  In  In16  1  0.65661190  0.83302110  0.14021382  1
  In  In17  1  0.67032326  0.83354491  0.62641154  1
  In  In18  1  0.16241171  0.02297984  0.37305416  1
  In  In19  1  0.16838572  -0.00551854  0.87900538  1
  In  In20  1  0.16223071  0.31973523  0.37406805  1
  In  In21  1  0.17322163  0.31628876  0.87690566  1
  In  In22  1  0.17070821  0.67338197  0.36211064  1
  In  In23  1  0.17484261  0.67754175  0.87472904  1
  In  In24  1  0.50864460  0.00460080  0.37008582  1
  In  In25  1  0.50935144  0.01106936  0.87050614  1
  In  In26  1  0.50211584  0.31877755  0.36823433  1
  In  In27  1  0.49012434  0.34161772  0.88109263  1
  In  In28  1  0.51295932  0.69039090  0.34402313  1
  In  In29  1  0.49524096  0.66242687  0.87332317  1
  In  In30  1  0.83314374  -0.00105849  0.37338893  1
  In  In31  1  0.83260430  0.01362256  0.87568396  1
  In  In32  1  0.82038459  0.33213984  0.36988127  1
  In  In33  1  0.83527469  0.33311782  0.88511691  1
  In  In34  1  0.83671471  0.67014691  0.36860748  1
  In  In35  1  0.82126328  0.66271495  0.87428022  1
  In  In36  1  0.00951256  0.15082099  0.37683667  1
  In  In37  1  -0.00006002  0.16331636  0.88374330  1
  In  In38  1  -0.00477856  0.50232773  0.36758902  1
  In  In39  1  -0.01530589  0.50053608  0.87908589  1
  In  In40  1  -0.01272994  0.82589017  0.37181871  1
  In  In41  1  0.01584132  0.83521304  0.87668069  1
  In  In42  1  0.33556318  0.16022070  0.38464505  1
  In  In43  1  0.33188848  0.16805773  0.87057409  1
  In  In44  1  0.33337264  0.51161433  0.36925028  1
  In  In45  1  0.34181983  0.50739932  0.87274404  1
  In  In46  1  0.34403181  0.83232164  0.37265811  1
  In  In47  1  0.32680113  0.82633284  0.87215163  1
  In  In48  1  0.66773205  0.16684154  0.37142570  1
  In  In49  1  0.66980920  0.16263706  0.87887526  1
  In  In50  1  0.65679665  0.50258858  0.35790457  1
  In  In51  1  0.65760377  0.50470939  0.88439376  1
  In  In52  1  0.67518426  0.84446174  0.36436646  1
  In  In53  1  0.66184423  0.83403831  0.86900928  1
  In  In54  1  0.16693064  -0.00217374  0.11972197  1
  In  In55  1  0.17982504  0.01443342  0.62242075  1
  In  In56  1  0.17873695  0.32119961  0.12207375  1
  In  In57  1  0.18166170  0.32375054  0.63339939  1
  In  In58  1  0.15443376  0.67075657  0.13249680  1
  In  In59  1  0.17016336  0.66391642  0.63323258  1
  In  In60  1  0.50093662  0.01103602  0.12946452  1
  In  In61  1  0.49216797  0.01070842  0.63309004  1
  In  In62  1  0.51091637  0.34162713  0.12220871  1
  In  In63  1  0.49932021  0.31467663  0.62275843  1
  In  In64  1  0.51522150  0.64324388  0.14572068  1
  In  In65  1  0.50117932  0.67010472  0.63330825  1
  In  In66  1  0.81836725  0.00971731  0.13474746  1
  In  In67  1  0.82766033  -0.00777403  0.61631608  1
  In  In68  1  0.81956611  0.32006365  0.11909826  1
  In  In69  1  0.84594877  0.32778466  0.62345557  1
  In  In70  1  0.83834001  0.66658281  0.12765096  1
  In  In71  1  0.82689275  0.67755637  0.63187003  1
  In  In72  1  0.83407332  0.49529293  0.49458704  1
  In  In73  1  0.16518332  0.49272946  0.49316679  1
  In  In74  1  0.16512442  0.49703361  0.00543395  1
  In  In75  1  0.49198458  0.83208875  0.00463902  1
  In  In76  1  0.33906334  0.33560919  0.24683320  1
  In  In77  1  0.49450302  0.49814746  0.48925311  1
  In  In78  1  0.66265133  0.33873168  0.74842457  1
  In  In79  1  0.00467350  -0.00350265  0.75063692  1
  In  In80  1  0.33590656  -0.00117238  0.25219607  1
  In  In81  1  0.16241603  0.84106409  0.50931648  1
  In  In82  1  0.00166876  0.33510827  0.24408805  1
  In  In83  1  0.00309832  0.33721514  0.75053713  1
  In  In84  1  0.83545768  0.83470171  0.00716153  1
  In  In85  1  0.50321190  0.84125108  0.48904503  1
  Cu  Cu86  1  0.50021078  0.50310154  0.75549372  1
  Cu  Cu87  1  0.66984863  0.32094928  0.49558099  1
  Cu  Cu88  1  -0.00432649  -0.00381706  0.49770305  1
  Cu  Cu89  1  -0.00456152  0.33161943  0.00290966  1
  Cu  Cu90  1  0.00083976  0.66998454  0.00488946  1
  Cu  Cu91  1  0.66945822  0.00166770  0.49470199  1
  Cu  Cu92  1  0.17085273  0.82993099  0.75121067  1
  Cu  Cu93  1  0.50352517  0.83783447  0.75116403  1
  Cu  Cu94  1  0.66949551  0.66800639  0.50032612  1
  Cu  Cu95  1  0.00038252  0.00432707  0.00256710  1
  Cu  Cu96  1  0.33357129  0.32318849  0.50311141  1
  Cu  Cu97  1  0.33360212  0.00491621  -0.00313074  1
  Cu  Cu98  1  0.33801269  0.32663978  -0.00007485  1
  Cu  Cu99  1  0.83335964  0.82995723  0.74890838  1
  Cu  Cu100  1  0.83820186  0.83375344  0.24818351  1
  Cu  Cu101  1  0.67031537  0.00652716  0.00277290  1
  Cu  Cu102  1  0.82647261  0.16563205  0.75020749  1
  Cu  Cu103  1  0.83265314  0.50597518  0.24610894  1
  Cu  Cu104  1  -0.00899530  0.66625650  0.49817955  1
  Cu  Cu105  1  0.83108051  0.16578087  0.25043613  1
  Cu  Cu106  1  0.00303215  0.31610114  0.49814000  1
  Cu  Cu107  1  0.66451734  0.65921144  0.00482826  1
  Cu  Cu108  1  0.82793144  0.51322063  0.75468179  1
  Cu  Cu109  1  0.66629610  0.32902369  0.00165546  1
  Cu  Cu110  1  0.15726217  0.84177099  0.24806784  1
  Cu  Cu111  1  0.49562819  0.16753491  0.74918915  1
  Cu  Cu112  1  0.33493717  0.67060200  0.49920510  1
  Cu  Cu113  1  0.33698650  0.66377505  -0.00098459  1
  Cu  Cu114  1  0.16728156  0.50726542  0.75603718  1
  Se  Se115  1  0.08624743  0.08786584  0.05372197  1
  Se  Se116  1  0.08078930  0.07467877  0.55369433  1
  Se  Se117  1  0.07397446  0.40791134  0.06614633  1
  Se  Se118  1  0.08057346  0.40038490  0.55817146  1
  Se  Se119  1  0.08742986  0.75248447  0.05389238  1
  Se  Se120  1  0.07482853  0.73865564  0.56139915  1
  Se  Se121  1  0.42309944  0.08001744  0.05050173  1
  Se  Se122  1  0.43108691  0.09592076  0.55740251  1
  Se  Se123  1  0.41785689  0.41411617  0.05218817  1
  Se  Se124  1  0.40949717  0.41368451  0.55889480  1
  Se  Se125  1  0.41604060  0.73519903  0.06693945  1
  Se  Se126  1  0.41732643  0.74987475  0.55728395  1
  Se  Se127  1  0.75170503  0.08992486  0.05670188  1
  Se  Se128  1  0.75262708  0.08462689  0.55027085  1
  Se  Se129  1  0.74953621  0.41599283  0.05252984  1
  Se  Se130  1  0.74265522  0.40569500  0.55803029  1
  Se  Se131  1  0.73678885  0.74848502  0.06304379  1
  Se  Se132  1  0.75032353  0.75052669  0.55460044  1
  Se  Se133  1  0.24991005  0.24241275  0.04633751  1
  Se  Se134  1  0.25049620  0.24310463  0.55775641  1
  Se  Se135  1  0.25413163  0.58900742  0.06286606  1
  Se  Se136  1  0.25510643  0.58588753  0.55534431  1
  Se  Se137  1  0.25116450  0.91870072  0.04868618  1
  Se  Se138  1  0.26749763  0.92578859  0.55613992  1
  Se  Se139  1  0.58242611  0.24676659  0.05542257  1
  Se  Se140  1  0.58041472  0.24436196  0.54783191  1
  Se  Se141  1  0.57902355  0.57910284  0.05840694  1
  Se  Se142  1  0.58422682  0.58814289  0.55540603  1
  Se  Se143  1  0.59104073  0.91999723  0.05902265  1
  Se  Se144  1  0.58742909  0.92438746  0.55791972  1
  Se  Se145  1  0.91443780  0.24465633  0.05518363  1
  Se  Se146  1  0.91195676  0.24095967  0.55019701  1
  Se  Se147  1  0.91260553  0.58645451  0.05123524  1
  Se  Se148  1  0.91913063  0.58219829  0.56148703  1
  Se  Se149  1  0.92060303  0.92746614  0.06650690  1
  Se  Se150  1  0.91220639  0.91003062  0.54772819  1
  Se  Se151  1  0.09034684  0.23653770  0.44690719  1
  Se  Se152  1  0.08103981  0.25207265  0.94864235  1
  Se  Se153  1  0.07643759  0.59166244  0.43922093  1
  Se  Se154  1  0.08001951  0.58882753  0.94212503  1
  Se  Se155  1  0.07814449  0.91833051  0.43694873  1
  Se  Se156  1  0.08347292  0.91804538  0.95158874  1
  Se  Se157  1  0.42180807  0.25024055  0.44568894  1
  Se  Se158  1  0.41841893  0.24317862  0.94373572  1
  Se  Se159  1  0.41797022  0.60286965  0.43426440  1
  Se  Se160  1  0.42214197  0.58068414  0.94853304  1
  Se  Se161  1  0.40585011  0.93411875  0.44042412  1
  Se  Se162  1  0.41399439  0.92265402  0.93669434  1
  Se  Se163  1  0.75714675  0.24293993  0.44338627  1
  Se  Se164  1  0.75086425  0.24644191  0.94778940  1
  Se  Se165  1  0.74014763  0.58325331  0.43682695  1
  Se  Se166  1  0.75118484  0.58103013  0.95019911  1
  Se  Se167  1  0.75064846  0.91393974  0.44360033  1
  Se  Se168  1  0.74501657  0.92047422  0.94295168  1
  Se  Se169  1  0.24463230  0.08467329  0.45015967  1
  Se  Se170  1  0.24955570  0.08569098  0.94197250  1
  Se  Se171  1  0.26256171  0.40539032  0.43712001  1
  Se  Se172  1  0.25669968  0.41272460  0.94200171  1
  Se  Se173  1  0.24880899  0.74982250  0.44381232  1
  Se  Se174  1  0.25287008  0.75142421  0.95113049  1
  Se  Se175  1  0.58535256  0.08471910  0.44284074  1
  Se  Se176  1  0.58305164  0.08529375  0.94898101  1
  Se  Se177  1  0.59495819  0.41010698  0.43827893  1
  Se  Se178  1  0.58152939  0.41393344  0.94960983  1
  Se  Se179  1  0.59002817  0.74236830  0.43490600  1
  Se  Se180  1  0.58902286  0.74526955  0.94491483  1
  Se  Se181  1  0.91465094  0.08194632  0.44433238  1
  Se  Se182  1  0.91230069  0.08479327  0.95133698  1
  Se  Se183  1  0.92880848  0.40307253  0.43887590  1
  Se  Se184  1  0.91302749  0.41971052  0.95394857  1
  Se  Se185  1  0.90749552  0.74908427  0.44654131  1
  Se  Se186  1  0.92114776  0.74792641  0.94128524  1
  Se  Se187  1  0.25297546  0.24073181  0.30712533  1
  Se  Se188  1  0.25304321  0.25289638  0.80020134  1
  Se  Se189  1  0.24086276  0.57598503  0.30073083  1
  Se  Se190  1  0.25391433  0.58941368  0.80772574  1
  Se  Se191  1  0.23980397  0.91356811  0.31344255  1
  Se  Se192  1  0.24889171  0.91676509  0.80554275  1
  Se  Se193  1  0.59932921  0.25913524  0.30079767  1
  Se  Se194  1  0.57722303  0.24824797  0.81039043  1
  Se  Se195  1  0.57862523  0.58331720  0.28846947  1
  Se  Se196  1  0.58702055  0.58395013  0.80694610  1
  Se  Se197  1  0.55697992  0.89263748  0.30992577  1
  Se  Se198  1  0.58744112  0.92336798  0.80170557  1
  Se  Se199  1  0.91578872  0.24633252  0.30896728  1
  Se  Se200  1  0.90986893  0.24416939  0.80847206  1
  Se  Se201  1  0.91818644  0.58694333  0.29883294  1
  Se  Se202  1  0.91735469  0.59006477  0.80733318  1
  Se  Se203  1  0.91846123  0.91927440  0.30279721  1
  Se  Se204  1  0.91048892  0.90966935  0.81283099  1
  Se  Se205  1  0.08227674  0.08608273  0.29467427  1
  Se  Se206  1  0.08817999  0.09052322  0.81017547  1
  Se  Se207  1  0.09391895  0.42091942  0.30774069  1
  Se  Se208  1  0.08943489  0.42466307  0.81640971  1
  Se  Se209  1  0.07757720  0.75351080  0.30164415  1
  Se  Se210  1  0.08410362  0.74890358  0.80333780  1
  Se  Se211  1  0.42489449  0.09711394  0.30503857  1
  Se  Se212  1  0.41537228  0.08142103  0.80308978  1
  Se  Se213  1  0.42700708  0.42515310  0.30907424  1
  Se  Se214  1  0.41554861  0.41649180  0.80342170  1
  Se  Se215  1  0.38739531  0.73518980  0.29876909  1
  Se  Se216  1  0.42108628  0.75321510  0.80600451  1
  Se  Se217  1  0.74907594  0.07964599  0.30387702  1
  Se  Se218  1  0.74480993  0.08169753  0.80306097  1
  Se  Se219  1  0.75170646  0.42028868  0.29897910  1
  Se  Se220  1  0.75570062  0.42174898  0.81184350  1
  Se  Se221  1  0.75175876  0.74989601  0.30037774  1
  Se  Se222  1  0.74752167  0.75035050  0.80411679  1
  Se  Se223  1  0.25160544  0.08804421  0.18805891  1
  Se  Se224  1  0.25413515  0.08238870  0.70024602  1
  Se  Se225  1  0.23956642  0.42130986  0.19086901  1
  Se  Se226  1  0.24574090  0.42237518  0.69962804  1
  Se  Se227  1  0.24096685  0.75879898  0.19468209  1
  Se  Se228  1  0.25608265  0.74615708  0.69846316  1
  Se  Se229  1  0.59669684  0.06999050  0.19861351  1
  Se  Se230  1  0.58645188  0.08637156  0.69938614  1
  Se  Se231  1  0.58300732  0.41890110  0.19747583  1
  Se  Se232  1  0.57165387  0.42673939  0.68500292  1
  Se  Se233  1  0.57324350  0.75208948  0.20607621  1
  Se  Se234  1  0.58680741  0.75386086  0.69698093  1
  Se  Se235  1  0.91584386  0.08416612  0.19779526  1
  Se  Se236  1  0.90980055  0.08528087  0.69175475  1
  Se  Se237  1  0.90688097  0.42037726  0.18476454  1
  Se  Se238  1  0.90706243  0.43078983  0.69413536  1
  Se  Se239  1  0.92148923  0.75083346  0.19415278  1
  Se  Se240  1  0.92203789  0.74908540  0.69883198  1
  Se  Se241  1  0.09398977  0.23968641  0.19289482  1
  Se  Se242  1  0.08576011  0.23800125  0.69463114  1
  Se  Se243  1  0.08219503  0.58035862  0.20103250  1
  Se  Se244  1  0.08122581  0.58549229  0.70084076  1
  Se  Se245  1  0.08042354  0.92919420  0.19473579  1
  Se  Se246  1  0.09458572  0.90951178  0.68661696  1
  Se  Se247  1  0.42643696  0.24399960  0.18759436  1
  Se  Se248  1  0.41322879  0.25421430  0.69845502  1
  Se  Se249  1  0.39981927  0.58747350  0.19982001  1
  Se  Se250  1  0.41704935  0.58747298  0.69999038  1
  Se  Se251  1  0.41950337  0.90896481  0.18801797  1
  Se  Se252  1  0.41689026  0.91890563  0.69935079  1
  Se  Se253  1  0.74652041  0.24973544  0.19882606  1
  Se  Se254  1  0.75137062  0.24684338  0.68754981  1
  Se  Se255  1  0.74803878  0.58658705  0.19176582  1
  Se  Se256  1  0.74353123  0.59232344  0.69940330  1
  Se  Se257  1  0.74705274  0.91623914  0.20182586  1
  Se  Se258  1  0.75444302  0.91728743  0.69469934  1
