# generated using pymatgen
data_In86Cu29Se144
_symmetry_space_group_name_H-M   'P 1'
_cell_length_a   17.58083748
_cell_length_b   17.58120748
_cell_length_c   23.44503632
_cell_angle_alpha   90.00071887
_cell_angle_beta   89.99121185
_cell_angle_gamma   89.98378649
_symmetry_Int_Tables_number   1
_chemical_formula_structural   In86Cu29Se144
_chemical_formula_sum   'In86 Cu29 Se144'
_cell_volume   7246.68102699
_cell_formula_units_Z   1
loop_
 _symmetry_equiv_pos_site_id
 _symmetry_equiv_pos_as_xyz
  1  'x, y, z'
loop_
 _atom_site_type_symbol
 _atom_site_label
 _atom_site_symmetry_multiplicity
 _atom_site_fract_x
 _atom_site_fract_y
 _atom_site_fract_z
 _atom_site_occupancy
  In  In0  1  0.00278872  0.16319398  0.12085354  1
  In  In1  1  -0.01472916  0.16783277  0.62629125  1
  In  In2  1  0.00428196  0.48429894  0.11978621  1
  In  In3  1  0.00827205  0.51191224  0.63401410  1
  In  In4  1  0.00832786  0.83623204  0.11457265  1
  In  In5  1  0.00284308  0.83312979  0.63406621  1
  In  In6  1  0.32160198  0.17497379  0.13493303  1
  In  In7  1  0.34422105  0.16270979  0.62646434  1
  In  In8  1  0.32469788  0.50771589  0.12892117  1
  In  In9  1  0.31795384  0.49600189  0.63369233  1
  In  In10  1  0.33009717  0.83296075  0.12499218  1
  In  In11  1  0.33465338  0.83431598  0.61481669  1
  In  In12  1  0.67149844  0.15868824  0.12008308  1
  In  In13  1  0.66587631  0.16064461  0.62682993  1
  In  In14  1  0.67803698  0.51505246  0.12339551  1
  In  In15  1  0.66443895  0.50614891  0.63610455  1
  In  In16  1  0.65740506  0.82986727  0.11716082  1
  In  In17  1  0.66404993  0.83838643  0.62983122  1
  In  In18  1  0.15496629  -0.01123760  0.36478819  1
  In  In19  1  0.16177300  0.00996185  0.88608936  1
  In  In20  1  0.16466593  0.33353320  0.36278376  1
  In  In21  1  0.16490809  0.32964615  0.88765895  1
  In  In22  1  0.17860987  0.66567450  0.37095908  1
  In  In23  1  0.15472212  0.67639499  0.88970728  1
  In  In24  1  0.49144620  0.00855860  0.38097720  1
  In  In25  1  0.50051027  -0.01372511  0.87720489  1
  In  In26  1  0.48780444  0.33158904  0.37766680  1
  In  In27  1  0.50971979  0.33636951  0.86716061  1
  In  In28  1  0.50728392  0.67763342  0.36885741  1
  In  In29  1  0.51120728  0.67198272  0.87304252  1
  In  In30  1  0.84450818  -0.00034167  0.37228415  1
  In  In31  1  0.83757872  -0.00245850  0.87503772  1
  In  In32  1  0.82920431  0.31909200  0.37356071  1
  In  In33  1  0.82961306  0.33898806  0.87474258  1
  In  In34  1  0.81839152  0.68004896  0.36977853  1
  In  In35  1  0.85355312  0.68191430  0.86632223  1
  In  In36  1  -0.00867937  0.15907656  0.36617577  1
  In  In37  1  0.01126551  0.16091936  0.88649367  1
  In  In38  1  0.01453587  0.50166110  0.36927255  1
  In  In39  1  0.00411129  0.51146465  0.88206411  1
  In  In40  1  -0.00614929  0.85149441  0.37021134  1
  In  In41  1  -0.00449996  0.83085567  0.87982133  1
  In  In42  1  0.33512160  0.17202655  0.37002126  1
  In  In43  1  0.31899441  0.16734519  0.88338772  1
  In  In44  1  0.32920064  0.49590620  0.36412317  1
  In  In45  1  0.32949158  0.48686726  0.87391686  1
  In  In46  1  0.33153610  0.83439550  0.37194798  1
  In  In47  1  0.33165270  0.85011058  0.89439641  1
  In  In48  1  0.66846474  0.15913249  0.38524889  1
  In  In49  1  0.68132760  0.17456098  0.86668420  1
  In  In50  1  0.65762634  0.50873658  0.37657564  1
  In  In51  1  0.69866342  0.52122576  0.84050117  1
  In  In52  1  0.66140145  0.81795933  0.37342171  1
  In  In53  1  0.66976483  0.83515125  0.87402833  1
  In  In54  1  0.16917774  -0.00534686  0.12379032  1
  In  In55  1  0.17399566  -0.01417122  0.62841773  1
  In  In56  1  0.16497266  0.32962899  0.11781396  1
  In  In57  1  0.16966696  0.34890739  0.63627371  1
  In  In58  1  0.17488080  0.68389844  0.10593172  1
  In  In59  1  0.15611407  0.67110716  0.62853032  1
  In  In60  1  0.49951811  -0.01553525  0.12511006  1
  In  In61  1  0.50196092  0.00739409  0.61897680  1
  In  In62  1  0.49693317  0.32122065  0.12797940  1
  In  In63  1  0.50704176  0.32536257  0.63220755  1
  In  In64  1  0.48814398  0.67605266  0.13379029  1
  In  In65  1  0.50638385  0.68078427  0.62077874  1
  In  In66  1  0.84403665  0.01069151  0.11588825  1
  In  In67  1  0.82581806  0.00679123  0.63350432  1
  In  In68  1  0.85231338  0.33588870  0.11739563  1
  In  In69  1  0.83826958  0.31900094  0.62713832  1
  In  In70  1  0.81992931  0.67377538  0.12681545  1
  In  In71  1  0.82617725  0.67680150  0.63870448  1
  In  In72  1  0.82867958  0.83960761  0.50006277  1
  In  In73  1  0.49720103  0.49939632  0.50552854  1
  In  In74  1  0.00234165  0.66650604  0.23738255  1
  In  In75  1  0.16842710  0.50261072  0.50740582  1
  In  In76  1  0.16709358  0.16294444  0.49887779  1
  In  In77  1  0.33467336  0.66592832  0.75577350  1
  In  In78  1  0.83431165  0.49598947  0.50538412  1
  In  In79  1  0.33434936  0.00462573  0.75699306  1
  In  In80  1  0.49839372  0.15677617  0.00167247  1
  In  In81  1  0.83880913  0.50448184  -0.01021907  1
  In  In82  1  0.50371345  0.49744756  -0.00896445  1
  In  In83  1  0.66483500  0.33946105  0.25182361  1
  In  In84  1  -0.00342184  0.33816603  0.75699524  1
  In  In85  1  0.66889608  -0.00504890  0.24842325  1
  Cu  Cu86  1  0.33321436  0.32653945  0.49904548  1
  Cu  Cu87  1  0.84116708  0.17159407  0.24332204  1
  Cu  Cu88  1  0.50327384  0.16614748  0.74660529  1
  Cu  Cu89  1  0.66285367  -0.00165117  0.50571354  1
  Cu  Cu90  1  0.16223475  0.17056894  0.76138340  1
  Cu  Cu91  1  0.50259172  0.83377442  0.75102325  1
  Cu  Cu92  1  0.16745428  0.49322670  0.24166800  1
  Cu  Cu93  1  -0.00053907  0.00305873  0.49591590  1
  Cu  Cu94  1  0.49920484  0.50265240  0.25194583  1
  Cu  Cu95  1  -0.00107830  0.67787239  0.50629851  1
  Cu  Cu96  1  0.33260282  0.33321885  0.00280035  1
  Cu  Cu97  1  0.83815065  0.50567426  0.24414960  1
  Cu  Cu98  1  0.33865927  0.67064954  0.00414379  1
  Cu  Cu99  1  0.83438850  0.15732535  0.75038816  1
  Cu  Cu100  1  0.16306831  0.16414915  0.24455809  1
  Cu  Cu101  1  0.49212407  0.16383572  0.25378359  1
  Cu  Cu102  1  -0.00606993  0.32686847  0.49888405  1
  Cu  Cu103  1  0.49438294  0.82905286  0.24876150  1
  Cu  Cu104  1  0.16635963  0.82875231  0.24114817  1
  Cu  Cu105  1  0.33107837  -0.00657018  0.49641314  1
  Cu  Cu106  1  0.67498508  -0.00139579  -0.00299508  1
  Cu  Cu107  1  0.83822530  0.83328695  0.75427065  1
  Cu  Cu108  1  0.49738992  0.49954301  0.75128813  1
  Cu  Cu109  1  0.00186798  -0.00246142  -0.00027648  1
  Cu  Cu110  1  0.33988615  0.67329248  0.49208412  1
  Cu  Cu111  1  0.67029933  0.33713886  -0.01125582  1
  Cu  Cu112  1  0.66409707  0.32143096  0.50634744  1
  Cu  Cu113  1  0.66254413  0.67368549  -0.00307390  1
  Cu  Cu114  1  0.15901341  0.83036402  0.75599971  1
  Se  Se115  1  0.08724129  0.07869920  0.05410803  1
  Se  Se116  1  0.07876587  0.07629373  0.56255607  1
  Se  Se117  1  0.08535941  0.41195281  0.04715007  1
  Se  Se118  1  0.07112182  0.40837933  0.56012987  1
  Se  Se119  1  0.06170145  0.73199429  0.04579416  1
  Se  Se120  1  0.08435874  0.75901120  0.55787987  1
  Se  Se121  1  0.40960798  0.08069557  0.06933674  1
  Se  Se122  1  0.41033636  0.08058571  0.55000514  1
  Se  Se123  1  0.41751188  0.41262461  0.05947779  1
  Se  Se124  1  0.40461108  0.40991200  0.56327053  1
  Se  Se125  1  0.42153682  0.75490221  0.05555476  1
  Se  Se126  1  0.42193377  0.75368332  0.54859511  1
  Se  Se127  1  0.75434975  0.08811378  0.04708615  1
  Se  Se128  1  0.75061219  0.08048782  0.55586423  1
  Se  Se129  1  0.74563029  0.41503746  0.05578226  1
  Se  Se130  1  0.74049331  0.40725477  0.56423782  1
  Se  Se131  1  0.74933895  0.75326054  0.04975889  1
  Se  Se132  1  0.74435679  0.74495957  0.55923615  1
  Se  Se133  1  0.25244813  0.24367441  0.05209104  1
  Se  Se134  1  0.24862438  0.25696045  0.56349593  1
  Se  Se135  1  0.25389462  0.58154751  0.04984595  1
  Se  Se136  1  0.26220944  0.59819300  0.55990061  1
  Se  Se137  1  0.23195602  0.89457810  0.05670323  1
  Se  Se138  1  0.24477157  0.91302893  0.54873625  1
  Se  Se139  1  0.59254844  0.25881119  0.05281015  1
  Se  Se140  1  0.57717363  0.24128875  0.55799416  1
  Se  Se141  1  0.58307746  0.59179915  0.05692261  1
  Se  Se142  1  0.59450330  0.58899375  0.55644153  1
  Se  Se143  1  0.58424055  0.92112510  0.04821899  1
  Se  Se144  1  0.58065956  0.91266779  0.55653194  1
  Se  Se145  1  0.90963342  0.23581639  0.05267853  1
  Se  Se146  1  0.91054985  0.24259363  0.54885974  1
  Se  Se147  1  0.91297096  0.58401370  0.06629274  1
  Se  Se148  1  0.92084592  0.59396402  0.56330367  1
  Se  Se149  1  0.91494876  0.91478901  0.04985142  1
  Se  Se150  1  0.92131787  0.92430195  0.56118910  1
  Se  Se151  1  0.07957413  0.25455593  0.43762974  1
  Se  Se152  1  0.09430101  0.23899323  0.95542732  1
  Se  Se153  1  0.07790522  0.59423851  0.44628088  1
  Se  Se154  1  0.07960346  0.58637739  0.95783515  1
  Se  Se155  1  0.08106093  0.91633203  0.44515453  1
  Se  Se156  1  0.08437789  0.91290347  0.94652085  1
  Se  Se157  1  0.41627908  0.24270704  0.44795790  1
  Se  Se158  1  0.41960286  0.25927932  0.94195028  1
  Se  Se159  1  0.41109867  0.58181820  0.43615181  1
  Se  Se160  1  0.41044502  0.59162360  0.93630045  1
  Se  Se161  1  0.41683832  0.91154164  0.44368361  1
  Se  Se162  1  0.42162161  0.92826326  0.95787546  1
  Se  Se163  1  0.75174798  0.24671184  0.44987627  1
  Se  Se164  1  0.75621900  0.24880774  0.94465167  1
  Se  Se165  1  0.74783740  0.58919092  0.44495788  1
  Se  Se166  1  0.74001241  0.59128246  0.93609140  1
  Se  Se167  1  0.73912508  0.92634876  0.43610808  1
  Se  Se168  1  0.75580432  0.91221013  0.94426344  1
  Se  Se169  1  0.25113761  0.07389641  0.43496274  1
  Se  Se170  1  0.26983707  0.06369432  0.94954774  1
  Se  Se171  1  0.25194028  0.40936371  0.44173553  1
  Se  Se172  1  0.25024884  0.41939517  0.95163937  1
  Se  Se173  1  0.24800414  0.75156462  0.44324661  1
  Se  Se174  1  0.25173953  0.75288028  0.95202941  1
  Se  Se175  1  0.57948572  0.08285910  0.45141597  1
  Se  Se176  1  0.59499010  0.08150891  0.93655086  1
  Se  Se177  1  0.58984783  0.40625749  0.44472782  1
  Se  Se178  1  0.60259394  0.42427707  0.92803117  1
  Se  Se179  1  0.58530461  0.74292850  0.44748184  1
  Se  Se180  1  0.57981543  0.75893265  0.94518630  1
  Se  Se181  1  0.91492978  0.08644803  0.44489832  1
  Se  Se182  1  0.91672885  0.08022581  0.94676912  1
  Se  Se183  1  0.92435695  0.41452119  0.43715121  1
  Se  Se184  1  0.93038523  0.40370530  0.94341453  1
  Se  Se185  1  0.92033198  0.74821671  0.43942444  1
  Se  Se186  1  0.91996431  0.74347081  0.95088037  1
  Se  Se187  1  0.24779382  0.24684225  0.29983362  1
  Se  Se188  1  0.24691069  0.25314819  0.81169932  1
  Se  Se189  1  0.24613258  0.57929812  0.29733345  1
  Se  Se190  1  0.24310400  0.58650671  0.81891709  1
  Se  Se191  1  0.24665495  0.91149124  0.29996422  1
  Se  Se192  1  0.24368991  0.91121601  0.81292978  1
  Se  Se193  1  0.58013483  0.24158668  0.31119334  1
  Se  Se194  1  0.58818449  0.24890503  0.80016949  1
  Se  Se195  1  0.58538523  0.58664691  0.30135209  1
  Se  Se196  1  0.58026698  0.58991886  0.79759265  1
  Se  Se197  1  0.57271634  0.91329849  0.30987820  1
  Se  Se198  1  0.58593485  0.91806311  0.80318211  1
  Se  Se199  1  0.91926383  0.25626967  0.30028785  1
  Se  Se200  1  0.91423538  0.23753024  0.81256873  1
  Se  Se201  1  0.91343733  0.58471368  0.31028414  1
  Se  Se202  1  0.89670585  0.55914015  0.81556680  1
  Se  Se203  1  0.90808513  0.91630003  0.29700000  1
  Se  Se204  1  0.92281266  0.91646306  0.80600110  1
  Se  Se205  1  0.07937796  0.08153610  0.29971521  1
  Se  Se206  1  0.08217081  0.08075957  0.80862702  1
  Se  Se207  1  0.07978919  0.41514451  0.29518717  1
  Se  Se208  1  0.09081736  0.42292374  0.81502612  1
  Se  Se209  1  0.08584514  0.75311744  0.30754541  1
  Se  Se210  1  0.07914222  0.74577427  0.80944531  1
  Se  Se211  1  0.40993081  0.07746450  0.30400130  1
  Se  Se212  1  0.42600719  0.09450752  0.81563571  1
  Se  Se213  1  0.41891450  0.41263667  0.30158877  1
  Se  Se214  1  0.41658190  0.41438021  0.80326865  1
  Se  Se215  1  0.41065628  0.74586667  0.30300548  1
  Se  Se216  1  0.41582542  0.76585620  0.81451720  1
  Se  Se217  1  0.75580227  0.09530461  0.30435026  1
  Se  Se218  1  0.75002128  0.07430038  0.80335378  1
  Se  Se219  1  0.75896605  0.42906979  0.31102553  1
  Se  Se220  1  0.74601788  0.39728248  0.79617651  1
  Se  Se221  1  0.75259955  0.76582935  0.29742457  1
  Se  Se222  1  0.75078453  0.74997433  0.80457944  1
  Se  Se223  1  0.24829851  0.07694116  0.19715749  1
  Se  Se224  1  0.24117386  0.09314011  0.69528489  1
  Se  Se225  1  0.25153891  0.40826687  0.18996348  1
  Se  Se226  1  0.25243692  0.41617450  0.71018579  1
  Se  Se227  1  0.24887007  0.74180036  0.19167667  1
  Se  Se228  1  0.24921174  0.76143280  0.69436418  1
  Se  Se229  1  0.57527358  0.09021089  0.19156659  1
  Se  Se230  1  0.58233574  0.07677461  0.69591550  1
  Se  Se231  1  0.57836884  0.42786163  0.18585276  1
  Se  Se232  1  0.58220149  0.41612451  0.69854056  1
  Se  Se233  1  0.58509263  0.75259294  0.19576746  1
  Se  Se234  1  0.58519845  0.74903654  0.69864069  1
  Se  Se235  1  0.92079114  0.08176715  0.19425116  1
  Se  Se236  1  0.92351536  0.07730228  0.69969059  1
  Se  Se237  1  0.91836502  0.41679859  0.19573869  1
  Se  Se238  1  0.91065773  0.42320152  0.68954475  1
  Se  Se239  1  0.91116762  0.76244919  0.18806763  1
  Se  Se240  1  0.92329772  0.74762712  0.70251046  1
  Se  Se241  1  0.08281607  0.24971989  0.19041509  1
  Se  Se242  1  0.08556536  0.24540613  0.69292704  1
  Se  Se243  1  0.09472604  0.57853964  0.18012971  1
  Se  Se244  1  0.09928302  0.57949314  0.70180004  1
  Se  Se245  1  0.08073104  0.91329076  0.19243849  1
  Se  Se246  1  0.08462330  0.92044224  0.70101996  1
  Se  Se247  1  0.41351494  0.25280941  0.20197005  1
  Se  Se248  1  0.41394997  0.24896028  0.69855312  1
  Se  Se249  1  0.41284933  0.58315390  0.19834288  1
  Se  Se250  1  0.42314388  0.58171990  0.68721956  1
  Se  Se251  1  0.41255395  0.91440527  0.19703022  1
  Se  Se252  1  0.41821484  0.91306905  0.69149635  1
  Se  Se253  1  0.75245359  0.25030540  0.18863643  1
  Se  Se254  1  0.75265674  0.24162514  0.69564250  1
  Se  Se255  1  0.74732577  0.59040756  0.20215494  1
  Se  Se256  1  0.75389935  0.58136034  0.70157338  1
  Se  Se257  1  0.75291976  0.91735360  0.17898985  1
  Se  Se258  1  0.75226225  0.91336071  0.69896281  1
