# generated using pymatgen
data_In86Cu29Se144
_symmetry_space_group_name_H-M   'P 1'
_cell_length_a   17.57167599
_cell_length_b   17.57524145
_cell_length_c   23.42742577
_cell_angle_alpha   90.00317909
_cell_angle_beta   90.00319181
_cell_angle_gamma   89.98403449
_symmetry_Int_Tables_number   1
_chemical_formula_structural   In86Cu29Se144
_chemical_formula_sum   'In86 Cu29 Se144'
_cell_volume   7235.00839024
_cell_formula_units_Z   1
loop_
 _symmetry_equiv_pos_site_id
 _symmetry_equiv_pos_as_xyz
  1  'x, y, z'
loop_
 _atom_site_type_symbol
 _atom_site_label
 _atom_site_symmetry_multiplicity
 _atom_site_fract_x
 _atom_site_fract_y
 _atom_site_fract_z
 _atom_site_occupancy
  In  In0  1  0.00728647  0.16566817  0.12579779  1
  In  In1  1  0.00488792  0.15592989  0.61969165  1
  In  In2  1  -0.00288770  0.49983853  0.12218425  1
  In  In3  1  0.01192113  0.49981741  0.62694912  1
  In  In4  1  0.00206519  0.83760982  0.13227329  1
  In  In5  1  -0.00307151  0.82196341  0.62160019  1
  In  In6  1  0.31508972  0.18152773  0.13404177  1
  In  In7  1  0.33425718  0.16741832  0.62578018  1
  In  In8  1  0.32720926  0.50061112  0.12899856  1
  In  In9  1  0.31790223  0.50056258  0.62258565  1
  In  In10  1  0.31897612  0.84359594  0.15716902  1
  In  In11  1  0.34040841  0.84651788  0.60889284  1
  In  In12  1  0.68046667  0.16808012  0.12344744  1
  In  In13  1  0.63018770  0.16288874  0.62339831  1
  In  In14  1  0.67525301  0.49257022  0.13039281  1
  In  In15  1  0.66883137  0.49682319  0.62749734  1
  In  In16  1  0.66786137  0.81187613  0.13401318  1
  In  In17  1  0.66449120  0.84396397  0.62628623  1
  In  In18  1  0.17437283  0.00313582  0.37083495  1
  In  In19  1  0.17822095  0.00506040  0.87027173  1
  In  In20  1  0.17014385  0.33574011  0.37463918  1
  In  In21  1  0.17481631  0.33334808  0.89036145  1
  In  In22  1  0.16635383  0.66657743  0.36810381  1
  In  In23  1  0.15348211  0.66793458  0.87879223  1
  In  In24  1  0.49305170  0.01255479  0.38218406  1
  In  In25  1  0.49882949  0.00431505  0.86151378  1
  In  In26  1  0.49808476  0.32809063  0.37092661  1
  In  In27  1  0.49391064  0.32730920  0.86899652  1
  In  In28  1  0.50279707  0.68296584  0.36273104  1
  In  In29  1  0.50422762  0.66273969  0.87496967  1
  In  In30  1  0.84034241  -0.01369709  0.37090106  1
  In  In31  1  0.82958759  0.00779454  0.88496178  1
  In  In32  1  0.83744997  0.33698418  0.36378984  1
  In  In33  1  0.83143037  0.33330351  0.88522866  1
  In  In34  1  0.83986157  0.67113672  0.36362421  1
  In  In35  1  0.86460208  0.64394947  0.90705368  1
  In  In36  1  0.01455494  0.18283791  0.36474337  1
  In  In37  1  -0.00027746  0.17288582  0.88617670  1
  In  In38  1  0.01426807  0.51077018  0.36404138  1
  In  In39  1  0.00164068  0.50702825  0.88869073  1
  In  In40  1  0.03434469  0.85326336  0.34118723  1
  In  In41  1  0.00283056  0.81321848  0.88014169  1
  In  In42  1  0.33414608  0.16787221  0.37478991  1
  In  In43  1  0.32804189  0.16333066  0.87205533  1
  In  In44  1  0.32483875  0.48917729  0.36704311  1
  In  In45  1  0.33797007  0.48866558  0.88078994  1
  In  In46  1  0.32815080  0.83715825  0.36699078  1
  In  In47  1  0.32121100  0.84989014  0.87316315  1
  In  In48  1  0.65789318  0.16871229  0.37762194  1
  In  In49  1  0.67021664  0.16776213  0.87496326  1
  In  In50  1  0.66693361  0.50375002  0.36473895  1
  In  In51  1  0.67608664  0.50344705  0.87801008  1
  In  In52  1  0.67158667  0.82551723  0.37482646  1
  In  In53  1  0.67088518  0.84240793  0.87505458  1
  In  In54  1  0.15861654  0.00329330  0.13754275  1
  In  In55  1  0.17932298  0.01486030  0.61101819  1
  In  In56  1  0.16993662  0.32895913  0.12463102  1
  In  In57  1  0.17656608  0.34213401  0.61718275  1
  In  In58  1  0.17092714  0.66592517  0.13434903  1
  In  In59  1  0.15945876  0.66007917  0.61437835  1
  In  In60  1  0.48588002  -0.00717773  0.13293668  1
  In  In61  1  0.49592911  0.00130047  0.62528985  1
  In  In62  1  0.49138317  0.34093758  0.13462319  1
  In  In63  1  0.48581397  0.29574878  0.61075654  1
  In  In64  1  0.49428414  0.67942306  0.14341409  1
  In  In65  1  0.48149325  0.66563968  0.61278031  1
  In  In66  1  0.84571931  0.01311345  0.11730151  1
  In  In67  1  0.82769940  -0.01831060  0.62959539  1
  In  In68  1  0.83639681  0.33092259  0.12396158  1
  In  In69  1  0.83228530  0.33484743  0.62772506  1
  In  In70  1  0.83745833  0.66262166  0.12152628  1
  In  In71  1  0.83714116  0.67582372  0.63132825  1
  In  In72  1  0.50015921  0.83135955  0.00996990  1
  In  In73  1  -0.00037863  0.33700873  0.75507177  1
  In  In74  1  0.83493395  0.16311882  0.49963171  1
  In  In75  1  0.50157913  0.49882139  0.01335313  1
  In  In76  1  0.49265661  0.49780175  0.48373457  1
  In  In77  1  0.66952579  0.00537765  0.25087893  1
  In  In78  1  0.83870783  0.50034076  0.50353942  1
  In  In79  1  0.49823408  0.16737551  -0.00387343  1
  In  In80  1  0.16422679  0.83390597  0.01054860  1
  In  In81  1  0.66154032  0.32782906  0.75387102  1
  In  In82  1  0.67197251  0.67379729  0.75093903  1
  In  In83  1  0.83604013  0.82873440  0.50127223  1
  In  In84  1  0.00313554  -0.00563012  0.74856835  1
  In  In85  1  0.32692280  0.67354431  0.74744313  1
  Cu  Cu86  1  0.49593681  0.83571881  0.74383747  1
  Cu  Cu87  1  0.84108199  0.16901371  0.24419379  1
  Cu  Cu88  1  0.83381609  0.83239349  0.24416076  1
  Cu  Cu89  1  0.33085149  0.66944941  0.01084725  1
  Cu  Cu90  1  0.00360425  0.32993624  0.00857644  1
  Cu  Cu91  1  0.33098963  0.00002032  0.49476877  1
  Cu  Cu92  1  0.16658206  0.83483275  0.74524388  1
  Cu  Cu93  1  0.49813334  0.48656172  0.74633262  1
  Cu  Cu94  1  0.32425344  0.67511273  0.49060558  1
  Cu  Cu95  1  0.01109780  0.00189795  0.48783883  1
  Cu  Cu96  1  0.50169378  0.50308099  0.25285140  1
  Cu  Cu97  1  0.00991187  0.33801356  0.49523392  1
  Cu  Cu98  1  0.32987738  0.00449359  0.00083561  1
  Cu  Cu99  1  0.65680165  0.00332680  0.50530771  1
  Cu  Cu100  1  0.16915269  0.17556039  0.74850855  1
  Cu  Cu101  1  0.67420142  0.66464730  0.00744475  1
  Cu  Cu102  1  0.00526643  0.67190550  0.48905499  1
  Cu  Cu103  1  0.67174491  -0.00692519  0.00388084  1
  Cu  Cu104  1  0.17136108  0.16784160  0.25151974  1
  Cu  Cu105  1  0.66570759  0.33432468  0.00191494  1
  Cu  Cu106  1  0.82181093  0.15997229  0.75347822  1
  Cu  Cu107  1  0.49718982  0.16789122  0.25500843  1
  Cu  Cu108  1  0.83770501  0.82518434  0.75892064  1
  Cu  Cu109  1  0.16323426  0.49092674  0.24548934  1
  Cu  Cu110  1  0.00743098  -0.00150211  0.00405254  1
  Cu  Cu111  1  0.33339187  0.32943329  0.49554654  1
  Cu  Cu112  1  0.16428689  0.50383496  0.74953453  1
  Cu  Cu113  1  0.65814163  0.66298767  0.49204207  1
  Cu  Cu114  1  0.82989386  0.49831723  0.24080058  1
  Se  Se115  1  0.09166077  0.08023830  0.05749647  1
  Se  Se116  1  0.08691264  0.08985621  0.54354522  1
  Se  Se117  1  0.08683654  0.41582285  0.05783408  1
  Se  Se118  1  0.08725622  0.42419051  0.55176053  1
  Se  Se119  1  0.07522308  0.73890662  0.06276687  1
  Se  Se120  1  0.08412285  0.75434317  0.54847484  1
  Se  Se121  1  0.41106284  0.08222581  0.06195788  1
  Se  Se122  1  0.41188580  0.08059031  0.55485760  1
  Se  Se123  1  0.40261821  0.40474094  0.05660100  1
  Se  Se124  1  0.41202378  0.41400774  0.55713217  1
  Se  Se125  1  0.40126210  0.75536219  0.07164936  1
  Se  Se126  1  0.41477918  0.75349638  0.54140309  1
  Se  Se127  1  0.75254379  0.08610577  0.04956228  1
  Se  Se128  1  0.74618246  0.07606805  0.56500654  1
  Se  Se129  1  0.75077198  0.41498657  0.05512086  1
  Se  Se130  1  0.74229433  0.40692161  0.55444411  1
  Se  Se131  1  0.75388826  0.75470914  0.05610602  1
  Se  Se132  1  0.73793773  0.73895097  0.55836043  1
  Se  Se133  1  0.24520414  0.24412237  0.05151797  1
  Se  Se134  1  0.25118367  0.24800973  0.55328417  1
  Se  Se135  1  0.24709309  0.58448826  0.05947743  1
  Se  Se136  1  0.25160769  0.58526118  0.54718025  1
  Se  Se137  1  0.26019637  0.92141719  0.06704359  1
  Se  Se138  1  0.24238224  0.91536638  0.54390016  1
  Se  Se139  1  0.58334043  0.25741907  0.06202155  1
  Se  Se140  1  0.59603202  0.25787462  0.54507579  1
  Se  Se141  1  0.58479437  0.59708831  0.06992043  1
  Se  Se142  1  0.58459736  0.58151048  0.55507619  1
  Se  Se143  1  0.59188026  0.92209470  0.06858775  1
  Se  Se144  1  0.57698192  0.91325908  0.55508079  1
  Se  Se145  1  0.91809947  0.24369015  0.05710047  1
  Se  Se146  1  0.92752658  0.26081366  0.55703780  1
  Se  Se147  1  0.90566661  0.57017357  0.05224423  1
  Se  Se148  1  0.92684988  0.59874194  0.55776292  1
  Se  Se149  1  0.92422738  0.91589385  0.05734321  1
  Se  Se150  1  0.92876197  0.92909461  0.55365111  1
  Se  Se151  1  0.09010207  0.24926403  0.44551705  1
  Se  Se152  1  0.08767239  0.24782499  0.95363972  1
  Se  Se153  1  0.08862290  0.58173977  0.44321920  1
  Se  Se154  1  0.08786863  0.58831415  0.95488555  1
  Se  Se155  1  0.08651450  0.91277017  0.43442134  1
  Se  Se156  1  0.08457675  0.92189200  0.93797885  1
  Se  Se157  1  0.42089216  0.24831519  0.44494594  1
  Se  Se158  1  0.40464196  0.25957601  0.94348572  1
  Se  Se159  1  0.40571202  0.59443602  0.42980269  1
  Se  Se160  1  0.41512349  0.59400910  0.94945122  1
  Se  Se161  1  0.41221263  0.91567753  0.44046287  1
  Se  Se162  1  0.41540985  0.92419660  0.94439017  1
  Se  Se163  1  0.75285196  0.25734296  0.43870899  1
  Se  Se164  1  0.74588540  0.24656030  0.94886558  1
  Se  Se165  1  0.75054023  0.58974202  0.43907252  1
  Se  Se166  1  0.75043013  0.57389759  0.95616606  1
  Se  Se167  1  0.74294573  0.92622349  0.44664931  1
  Se  Se168  1  0.75459765  0.91167944  0.94965738  1
  Se  Se169  1  0.24898806  0.08721647  0.44400109  1
  Se  Se170  1  0.24693927  0.08597179  0.94687555  1
  Se  Se171  1  0.25067818  0.41826423  0.44710746  1
  Se  Se172  1  0.24028942  0.43773783  0.95120129  1
  Se  Se173  1  0.24138415  0.75682376  0.43699907  1
  Se  Se174  1  0.25894408  0.74998347  0.94362933  1
  Se  Se175  1  0.58022064  0.09096617  0.45139119  1
  Se  Se176  1  0.58834874  0.06901277  0.94261373  1
  Se  Se177  1  0.59527999  0.41104854  0.43686315  1
  Se  Se178  1  0.58386222  0.41100730  0.93995378  1
  Se  Se179  1  0.57996364  0.75304032  0.44330063  1
  Se  Se180  1  0.59054705  0.74148722  0.94621779  1
  Se  Se181  1  0.92439717  0.08070900  0.43289382  1
  Se  Se182  1  0.92137845  0.08258082  0.95118408  1
  Se  Se183  1  0.92584424  0.41620201  0.43745144  1
  Se  Se184  1  0.92206817  0.41010286  0.94963324  1
  Se  Se185  1  0.92528177  0.75467256  0.43234504  1
  Se  Se186  1  0.91589249  0.76179994  0.95859097  1
  Se  Se187  1  0.25362428  0.25294712  0.30557356  1
  Se  Se188  1  0.24401276  0.25604952  0.81028764  1
  Se  Se189  1  0.24470859  0.57573517  0.30046787  1
  Se  Se190  1  0.24698909  0.58124350  0.81191620  1
  Se  Se191  1  0.24149025  0.91464945  0.29742287  1
  Se  Se192  1  0.24896883  0.92258437  0.79427092  1
  Se  Se193  1  0.58759298  0.24998981  0.30184586  1
  Se  Se194  1  0.56865226  0.22974082  0.80392053  1
  Se  Se195  1  0.58582250  0.59134850  0.30010296  1
  Se  Se196  1  0.57827820  0.57008157  0.80347913  1
  Se  Se197  1  0.58474278  0.92231039  0.31717520  1
  Se  Se198  1  0.58177674  0.90952680  0.80273194  1
  Se  Se199  1  0.92268320  0.25558288  0.29712497  1
  Se  Se200  1  0.90543106  0.24049649  0.80937589  1
  Se  Se201  1  0.91283603  0.57636126  0.29950812  1
  Se  Se202  1  0.91745574  0.58165855  0.81655897  1
  Se  Se203  1  0.91806622  0.92005897  0.29258683  1
  Se  Se204  1  0.91639012  0.91190529  0.81561636  1
  Se  Se205  1  0.08511258  0.08388009  0.30224823  1
  Se  Se206  1  0.08372256  0.09621114  0.80679894  1
  Se  Se207  1  0.08147707  0.40819526  0.30217546  1
  Se  Se208  1  0.09058959  0.42375755  0.81450649  1
  Se  Se209  1  0.05594506  0.71890074  0.30401190  1
  Se  Se210  1  0.08798627  0.75200608  0.80146005  1
  Se  Se211  1  0.41400755  0.08199354  0.30431504  1
  Se  Se212  1  0.40098829  0.07557134  0.80219826  1
  Se  Se213  1  0.41949808  0.41443971  0.30253148  1
  Se  Se214  1  0.41128735  0.41316683  0.80297991  1
  Se  Se215  1  0.40190250  0.74444996  0.29863919  1
  Se  Se216  1  0.42163377  0.75845742  0.81143510  1
  Se  Se217  1  0.76293310  0.09373489  0.31150727  1
  Se  Se218  1  0.74444030  0.07453537  0.80825476  1
  Se  Se219  1  0.74820617  0.41714014  0.29858993  1
  Se  Se220  1  0.75837088  0.41925245  0.80718552  1
  Se  Se221  1  0.74962580  0.75219156  0.29912621  1
  Se  Se222  1  0.76130179  0.74495524  0.82144354  1
  Se  Se223  1  0.25435079  0.08011859  0.20057656  1
  Se  Se224  1  0.24502739  0.08627887  0.69399847  1
  Se  Se225  1  0.25324937  0.40903875  0.19692738  1
  Se  Se226  1  0.24658296  0.41837676  0.69734072  1
  Se  Se227  1  0.24999190  0.73805325  0.21102953  1
  Se  Se228  1  0.24491735  0.75852942  0.67976466  1
  Se  Se229  1  0.57688102  0.09323635  0.18885180  1
  Se  Se230  1  0.59016594  0.06554172  0.69689347  1
  Se  Se231  1  0.58381597  0.41800640  0.19824049  1
  Se  Se232  1  0.57375626  0.40874443  0.68337803  1
  Se  Se233  1  0.57157579  0.76913123  0.20878701  1
  Se  Se234  1  0.56980336  0.74720351  0.68624781  1
  Se  Se235  1  0.92410205  0.08089416  0.19594249  1
  Se  Se236  1  0.90689408  0.08694916  0.69122275  1
  Se  Se237  1  0.91791379  0.41397789  0.19327222  1
  Se  Se238  1  0.91008326  0.42741843  0.69379972  1
  Se  Se239  1  0.91625673  0.74664038  0.19298894  1
  Se  Se240  1  0.92320379  0.74970348  0.70162366  1
  Se  Se241  1  0.08655482  0.24918299  0.19649426  1
  Se  Se242  1  0.08392078  0.24889098  0.68790290  1
  Se  Se243  1  0.08138168  0.57753623  0.19440687  1
  Se  Se244  1  0.08495803  0.58982717  0.69599088  1
  Se  Se245  1  0.09856152  0.89984504  0.20206671  1
  Se  Se246  1  0.09077566  0.91479009  0.68063287  1
  Se  Se247  1  0.41364873  0.25018346  0.19959635  1
  Se  Se248  1  0.40793220  0.25578744  0.69658579  1
  Se  Se249  1  0.41383015  0.57984526  0.19816972  1
  Se  Se250  1  0.41938234  0.57589656  0.69197119  1
  Se  Se251  1  0.42717222  0.91195103  0.21144797  1
  Se  Se252  1  0.40918579  0.91530971  0.69177703  1
  Se  Se253  1  0.75118456  0.25145106  0.19672129  1
  Se  Se254  1  0.74845288  0.23832214  0.68739466  1
  Se  Se255  1  0.74737398  0.58988679  0.19401159  1
  Se  Se256  1  0.75989869  0.57530369  0.69477717  1
  Se  Se257  1  0.75624824  0.91890498  0.18549824  1
  Se  Se258  1  0.75107747  0.90488965  0.70430532  1
