# generated using pymatgen
data_In86Cu29Se144
_symmetry_space_group_name_H-M   'P 1'
_cell_length_a   17.59950078
_cell_length_b   17.59247453
_cell_length_c   23.46147828
_cell_angle_alpha   89.99437520
_cell_angle_beta   90.01991466
_cell_angle_gamma   90.00809696
_symmetry_Int_Tables_number   1
_chemical_formula_structural   In86Cu29Se144
_chemical_formula_sum   'In86 Cu29 Se144'
_cell_volume   7264.11348455
_cell_formula_units_Z   1
loop_
 _symmetry_equiv_pos_site_id
 _symmetry_equiv_pos_as_xyz
  1  'x, y, z'
loop_
 _atom_site_type_symbol
 _atom_site_label
 _atom_site_symmetry_multiplicity
 _atom_site_fract_x
 _atom_site_fract_y
 _atom_site_fract_z
 _atom_site_occupancy
  In  In0  1  -0.00659028  0.17310563  0.13826223  1
  In  In1  1  0.00184000  0.15840064  0.61847820  1
  In  In2  1  -0.01558728  0.49993494  0.12489816  1
  In  In3  1  0.01324497  0.50940333  0.61791680  1
  In  In4  1  0.00056298  0.83762053  0.11541925  1
  In  In5  1  -0.00761308  0.82486089  0.61220974  1
  In  In6  1  0.32153472  0.16164592  0.13138804  1
  In  In7  1  0.32147822  0.15357548  0.61466675  1
  In  In8  1  0.34587581  0.50715414  0.12475137  1
  In  In9  1  0.32579553  0.51082673  0.62237154  1
  In  In10  1  0.31663177  0.84436725  0.14547653  1
  In  In11  1  0.33674270  0.83636196  0.61609518  1
  In  In12  1  0.68351473  0.17185908  0.12128125  1
  In  In13  1  0.66023959  0.17282424  0.62882824  1
  In  In14  1  0.67027299  0.50157335  0.12317668  1
  In  In15  1  0.67102878  0.49510225  0.63519878  1
  In  In16  1  0.67452178  0.81888560  0.12798986  1
  In  In17  1  0.66573319  0.83856166  0.62618363  1
  In  In18  1  0.16956169  -0.00608655  0.37428373  1
  In  In19  1  0.15763629  -0.04151306  0.86099667  1
  In  In20  1  0.15146710  0.33816139  0.38683175  1
  In  In21  1  0.15755637  0.33285901  0.87256408  1
  In  In22  1  0.16448098  0.65897815  0.38158751  1
  In  In23  1  0.16706644  0.69057994  0.87280385  1
  In  In24  1  0.48937401  0.00698542  0.38003038  1
  In  In25  1  0.49413367  -0.00607725  0.86364578  1
  In  In26  1  0.50188638  0.32062290  0.37517123  1
  In  In27  1  0.52911652  0.33311100  0.87826209  1
  In  In28  1  0.51282723  0.67534379  0.37060754  1
  In  In29  1  0.50502220  0.65260909  0.87873162  1
  In  In30  1  0.83611689  -0.02542658  0.37234811  1
  In  In31  1  0.83243965  0.00765132  0.88857851  1
  In  In32  1  0.83787990  0.33635510  0.36490830  1
  In  In33  1  0.80482649  0.35160834  0.89897335  1
  In  In34  1  0.83367987  0.69101756  0.36524559  1
  In  In35  1  0.83503421  0.67151590  0.87288765  1
  In  In36  1  0.01140710  0.17044668  0.37015529  1
  In  In37  1  -0.01714770  0.15319483  0.87425059  1
  In  In38  1  0.01077406  0.50217290  0.37565274  1
  In  In39  1  -0.01614606  0.49933331  0.87587395  1
  In  In40  1  -0.00490841  0.83558015  0.37814693  1
  In  In41  1  0.00460344  0.83613960  0.88499136  1
  In  In42  1  0.33757853  0.15605045  0.37996108  1
  In  In43  1  0.34190553  0.15529736  0.87518050  1
  In  In44  1  0.31980438  0.49949856  0.37399277  1
  In  In45  1  0.34074800  0.51759120  0.88146709  1
  In  In46  1  0.33046414  0.83517731  0.37419699  1
  In  In47  1  0.32293372  0.83445050  0.87348361  1
  In  In48  1  0.65553089  0.16535180  0.37332930  1
  In  In49  1  0.67194710  0.16819193  0.86874776  1
  In  In50  1  0.67262460  0.50268616  0.36736757  1
  In  In51  1  0.66946767  0.50483740  0.87408558  1
  In  In52  1  0.67378226  0.82459075  0.38166082  1
  In  In53  1  0.67468823  0.84434187  0.86504467  1
  In  In54  1  0.16669395  -0.00944064  0.13785662  1
  In  In55  1  0.16868602  -0.00142059  0.61710303  1
  In  In56  1  0.16410971  0.31940501  0.13146135  1
  In  In57  1  0.15977571  0.33147889  0.60954356  1
  In  In58  1  0.15602818  0.70078790  0.13658090  1
  In  In59  1  0.15990992  0.66896028  0.61396353  1
  In  In60  1  0.49293475  -0.00725218  0.12818228  1
  In  In61  1  0.49899436  -0.00171344  0.62229968  1
  In  In62  1  0.50777812  0.35204269  0.11808246  1
  In  In63  1  0.51412489  0.33108120  0.62409006  1
  In  In64  1  0.50701999  0.66204523  0.13482246  1
  In  In65  1  0.49869251  0.67792299  0.62517218  1
  In  In66  1  0.84453500  0.00614242  0.11711536  1
  In  In67  1  0.83832558  -0.01129822  0.62596947  1
  In  In68  1  0.83038417  0.33588819  0.12980231  1
  In  In69  1  0.82866714  0.32523373  0.62884637  1
  In  In70  1  0.83022024  0.65330968  0.11623165  1
  In  In71  1  0.82174938  0.67494611  0.63327182  1
  In  In72  1  -0.00057784  0.66724598  0.25201032  1
  In  In73  1  -0.00682493  0.33140260  0.74703175  1
  In  In74  1  0.50883575  0.16913522  0.00465620  1
  In  In75  1  0.83725515  0.16276911  0.50205647  1
  In  In76  1  0.33793793  0.67300314  0.74687086  1
  In  In77  1  -0.00173962  -0.00242181  0.74743926  1
  In  In78  1  0.50240750  0.82688036  0.00726390  1
  In  In79  1  0.16402917  0.15821795  0.00102999  1
  In  In80  1  0.66642901  -0.00043515  0.24780500  1
  In  In81  1  0.33956975  0.33242691  0.74844910  1
  In  In82  1  0.16619426  0.50613661  0.00462807  1
  In  In83  1  0.33231251  0.32936764  0.25376062  1
  In  In84  1  0.83891173  0.50661519  0.49142249  1
  In  In85  1  0.49656399  0.50076409  0.50551661  1
  Cu  Cu86  1  0.17185137  0.15777525  0.74521969  1
  Cu  Cu87  1  0.33217434  0.67621385  0.00599669  1
  Cu  Cu88  1  0.50510318  0.83219661  0.74457763  1
  Cu  Cu89  1  0.49779932  0.15713453  0.74664737  1
  Cu  Cu90  1  0.83640764  0.16170013  0.24761308  1
  Cu  Cu91  1  0.67065406  0.66332824  -0.00046610  1
  Cu  Cu92  1  0.33215873  0.32849038  0.49361261  1
  Cu  Cu93  1  -0.00945946  0.32519447  0.00679277  1
  Cu  Cu94  1  0.66087920  -0.00281818  0.49861919  1
  Cu  Cu95  1  0.66740536  0.67880438  0.50287117  1
  Cu  Cu96  1  0.16635779  0.50943134  0.74179830  1
  Cu  Cu97  1  0.82863537  0.49821168  0.24461546  1
  Cu  Cu98  1  0.16463560  0.50091228  0.25312404  1
  Cu  Cu99  1  0.49657509  0.83659823  0.25381918  1
  Cu  Cu100  1  0.66676741  0.33045897  0.50044292  1
  Cu  Cu101  1  0.33998273  0.33918009  -0.00240253  1
  Cu  Cu102  1  0.50552924  0.50175549  0.24813407  1
  Cu  Cu103  1  0.33067978  0.66683582  0.49760196  1
  Cu  Cu104  1  0.50872942  0.49371215  0.75565228  1
  Cu  Cu105  1  0.50396864  0.17525387  0.25013561  1
  Cu  Cu106  1  0.83391844  0.50337660  0.75663799  1
  Cu  Cu107  1  -0.00038856  0.66822896  -0.00090696  1
  Cu  Cu108  1  0.00380528  -0.00206720  0.49639771  1
  Cu  Cu109  1  0.32430641  -0.00697877  0.00261164  1
  Cu  Cu110  1  0.67084514  -0.00155009  -0.00499260  1
  Cu  Cu111  1  0.83177432  0.83450270  0.74892608  1
  Cu  Cu112  1  0.82275637  0.17004377  0.75792767  1
  Cu  Cu113  1  0.16363828  0.15926356  0.25634561  1
  Cu  Cu114  1  0.33249762  -0.00365606  0.49719562  1
  Se  Se115  1  0.08062197  0.08176037  0.07199826  1
  Se  Se116  1  0.08538626  0.08308840  0.54884940  1
  Se  Se117  1  0.08010375  0.40524185  0.06093060  1
  Se  Se118  1  0.08048453  0.42085403  0.54800544  1
  Se  Se119  1  0.08615160  0.75165099  0.04809588  1
  Se  Se120  1  0.08946087  0.75897496  0.54548312  1
  Se  Se121  1  0.40601630  0.07846387  0.05708048  1
  Se  Se122  1  0.41697886  0.08001457  0.55088189  1
  Se  Se123  1  0.41819992  0.42588627  0.04970090  1
  Se  Se124  1  0.40565727  0.40569227  0.56242827  1
  Se  Se125  1  0.40927156  0.75083143  0.07233661  1
  Se  Se126  1  0.41792445  0.74695794  0.54995849  1
  Se  Se127  1  0.75080336  0.08218765  0.05063611  1
  Se  Se128  1  0.74285332  0.07596067  0.56074870  1
  Se  Se129  1  0.76092800  0.42388385  0.05818689  1
  Se  Se130  1  0.74790041  0.41361121  0.55600798  1
  Se  Se131  1  0.75294257  0.74833906  0.05124606  1
  Se  Se132  1  0.75234041  0.75768949  0.55729890  1
  Se  Se133  1  0.25937759  0.25728806  0.05491460  1
  Se  Se134  1  0.24803554  0.24648812  0.54844219  1
  Se  Se135  1  0.24953595  0.59727966  0.06692758  1
  Se  Se136  1  0.24636327  0.58192070  0.54842162  1
  Se  Se137  1  0.24736817  0.91396407  0.06247999  1
  Se  Se138  1  0.24750348  0.91260422  0.54825067  1
  Se  Se139  1  0.59988502  0.26517602  0.05463547  1
  Se  Se140  1  0.58279686  0.24550087  0.55009791  1
  Se  Se141  1  0.58409759  0.58897649  0.05764000  1
  Se  Se142  1  0.59508264  0.58755346  0.56112850  1
  Se  Se143  1  0.59358202  0.92408565  0.06174324  1
  Se  Se144  1  0.58006143  0.91297083  0.55359775  1
  Se  Se145  1  0.91133504  0.24468658  0.06335530  1
  Se  Se146  1  0.92509908  0.26128063  0.55733318  1
  Se  Se147  1  0.91842643  0.57782343  0.04598631  1
  Se  Se148  1  0.91352820  0.59393031  0.56180199  1
  Se  Se149  1  0.90735374  0.90911089  0.04908862  1
  Se  Se150  1  0.91402976  0.91917392  0.54815891  1
  Se  Se151  1  0.08241511  0.24014048  0.45039743  1
  Se  Se152  1  0.07228976  0.25279214  0.94237308  1
  Se  Se153  1  0.07056847  0.58995234  0.44953994  1
  Se  Se154  1  0.08188023  0.59022658  0.93600299  1
  Se  Se155  1  0.08621819  0.91284989  0.44474006  1
  Se  Se156  1  0.07528697  0.93627370  0.94781768  1
  Se  Se157  1  0.41958312  0.24539799  0.44620175  1
  Se  Se158  1  0.41622172  0.25556632  0.93903482  1
  Se  Se159  1  0.41369042  0.58652792  0.43833776  1
  Se  Se160  1  0.41770780  0.59170149  0.95653450  1
  Se  Se161  1  0.41746715  0.91258274  0.44588585  1
  Se  Se162  1  0.41366026  0.91910859  0.94484988  1
  Se  Se163  1  0.74895281  0.25377714  0.43936938  1
  Se  Se164  1  0.75314830  0.23185299  0.94661253  1
  Se  Se165  1  0.74148737  0.59711566  0.43915434  1
  Se  Se166  1  0.75539700  0.58536629  0.94248630  1
  Se  Se167  1  0.74919803  0.91517652  0.44975750  1
  Se  Se168  1  0.75085158  0.90857530  0.94626547  1
  Se  Se169  1  0.24692489  0.08085012  0.44620974  1
  Se  Se170  1  0.24970024  0.07021774  0.93685005  1
  Se  Se171  1  0.24865027  0.41710602  0.44727550  1
  Se  Se172  1  0.25323941  0.41364120  0.93863474  1
  Se  Se173  1  0.24944104  0.74978830  0.44332554  1
  Se  Se174  1  0.25026741  0.75609726  0.95010628  1
  Se  Se175  1  0.58135851  0.08516801  0.44685324  1
  Se  Se176  1  0.58168715  0.07219268  0.93826078  1
  Se  Se177  1  0.58871808  0.41578799  0.44161342  1
  Se  Se178  1  0.58078819  0.43253354  0.94576516  1
  Se  Se179  1  0.57796481  0.75535130  0.45005091  1
  Se  Se180  1  0.59175170  0.74757866  0.93984115  1
  Se  Se181  1  0.91902962  0.07420486  0.43582629  1
  Se  Se182  1  0.92762364  0.07592346  0.95570736  1
  Se  Se183  1  0.92473043  0.40575135  0.44062166  1
  Se  Se184  1  0.91786312  0.41615144  0.95170810  1
  Se  Se185  1  0.91360941  0.74847882  0.44450413  1
  Se  Se186  1  0.91580211  0.75090400  0.94569059  1
  Se  Se187  1  0.24255890  0.24483998  0.31590590  1
  Se  Se188  1  0.24426649  0.24236645  0.80823069  1
  Se  Se189  1  0.24641448  0.58589581  0.30419397  1
  Se  Se190  1  0.24484970  0.58235924  0.80810587  1
  Se  Se191  1  0.26317742  0.92787576  0.30411982  1
  Se  Se192  1  0.26457252  0.91760778  0.79504579  1
  Se  Se193  1  0.59008148  0.25646264  0.30035524  1
  Se  Se194  1  0.57954593  0.24175315  0.80096307  1
  Se  Se195  1  0.58782689  0.58609138  0.30207709  1
  Se  Se196  1  0.58745211  0.58673763  0.80215826  1
  Se  Se197  1  0.57861500  0.91648516  0.31386041  1
  Se  Se198  1  0.58515024  0.91976169  0.79733651  1
  Se  Se199  1  0.91905518  0.24524789  0.30285916  1
  Se  Se200  1  0.90417281  0.25315184  0.81491863  1
  Se  Se201  1  0.90603147  0.57559933  0.31063664  1
  Se  Se202  1  0.92066416  0.58878935  0.80311143  1
  Se  Se203  1  0.91364533  0.90114675  0.29932786  1
  Se  Se204  1  0.90856720  0.91502760  0.81199582  1
  Se  Se205  1  0.07939786  0.07235153  0.30503134  1
  Se  Se206  1  0.08980942  0.08632356  0.81007249  1
  Se  Se207  1  0.08474937  0.41482888  0.30508921  1
  Se  Se208  1  0.08713622  0.42772498  0.80289000  1
  Se  Se209  1  0.09065830  0.75365392  0.31114784  1
  Se  Se210  1  0.08510736  0.76970684  0.80603781  1
  Se  Se211  1  0.42198986  0.09091696  0.30261948  1
  Se  Se212  1  0.40927078  0.07774463  0.79720310  1
  Se  Se213  1  0.42513107  0.42317098  0.31092582  1
  Se  Se214  1  0.42169511  0.42140814  0.81555929  1
  Se  Se215  1  0.41720353  0.74984647  0.30729236  1
  Se  Se216  1  0.42924817  0.75591864  0.81272720  1
  Se  Se217  1  0.75732015  0.08537049  0.31269936  1
  Se  Se218  1  0.75208787  0.07304185  0.80818946  1
  Se  Se219  1  0.74724472  0.41321897  0.29945958  1
  Se  Se220  1  0.75243217  0.41531554  0.80768642  1
  Se  Se221  1  0.73880473  0.75592677  0.29797245  1
  Se  Se222  1  0.74918556  0.74876023  0.80146953  1
  Se  Se223  1  0.25043672  0.07942066  0.20366532  1
  Se  Se224  1  0.25144839  0.07429989  0.69189509  1
  Se  Se225  1  0.24656390  0.42236964  0.19013534  1
  Se  Se226  1  0.24221439  0.41845379  0.68918876  1
  Se  Se227  1  0.26215252  0.73482537  0.20626468  1
  Se  Se228  1  0.24602370  0.75418215  0.68591195  1
  Se  Se229  1  0.57837859  0.09388652  0.18557866  1
  Se  Se230  1  0.58448000  0.07857865  0.69261911  1
  Se  Se231  1  0.58779808  0.41801495  0.19528806  1
  Se  Se232  1  0.58711305  0.40862090  0.70028038  1
  Se  Se233  1  0.58207267  0.75623568  0.19990748  1
  Se  Se234  1  0.58873370  0.74648698  0.69517871  1
  Se  Se235  1  0.91819953  0.07365710  0.19918420  1
  Se  Se236  1  0.90578094  0.09686012  0.69358088  1
  Se  Se237  1  0.91943406  0.41426676  0.19987280  1
  Se  Se238  1  0.91007222  0.42856828  0.68755009  1
  Se  Se239  1  0.91334574  0.74564749  0.18267637  1
  Se  Se240  1  0.91721746  0.75604402  0.69359581  1
  Se  Se241  1  0.08373006  0.24999802  0.20646336  1
  Se  Se242  1  0.09048387  0.24144544  0.69012736  1
  Se  Se243  1  0.08846682  0.57756280  0.18642428  1
  Se  Se244  1  0.08292147  0.59343987  0.69232873  1
  Se  Se245  1  0.08690490  0.89355700  0.19449376  1
  Se  Se246  1  0.08225668  0.91069242  0.68342595  1
  Se  Se247  1  0.42410651  0.25032282  0.18480369  1
  Se  Se248  1  0.42063203  0.24004285  0.68504183  1
  Se  Se249  1  0.41572163  0.58475249  0.20220227  1
  Se  Se250  1  0.42792755  0.57168554  0.69331161  1
  Se  Se251  1  0.41422473  0.92479938  0.20471542  1
  Se  Se252  1  0.41815358  0.91078385  0.69073868  1
  Se  Se253  1  0.75124990  0.24845268  0.20028756  1
  Se  Se254  1  0.74389136  0.25292596  0.69998964  1
  Se  Se255  1  0.74869677  0.58698092  0.19460078  1
  Se  Se256  1  0.74843407  0.58315442  0.70132045  1
  Se  Se257  1  0.75755133  0.91563885  0.18728299  1
  Se  Se258  1  0.74942084  0.92058475  0.69718695  1
