# generated using pymatgen
data_In86Cu29Se144
_symmetry_space_group_name_H-M   'P 1'
_cell_length_a   17.57873331
_cell_length_b   17.58528482
_cell_length_c   23.44338592
_cell_angle_alpha   90.01030381
_cell_angle_beta   90.03180090
_cell_angle_gamma   90.00059092
_symmetry_Int_Tables_number   1
_chemical_formula_structural   In86Cu29Se144
_chemical_formula_sum   'In86 Cu29 Se144'
_cell_volume   7246.98307497
_cell_formula_units_Z   1
loop_
 _symmetry_equiv_pos_site_id
 _symmetry_equiv_pos_as_xyz
  1  'x, y, z'
loop_
 _atom_site_type_symbol
 _atom_site_label
 _atom_site_symmetry_multiplicity
 _atom_site_fract_x
 _atom_site_fract_y
 _atom_site_fract_z
 _atom_site_occupancy
  In  In0  1  -0.00539179  0.16298164  0.12716503  1
  In  In1  1  -0.01471011  0.18195065  0.63352147  1
  In  In2  1  -0.01195155  0.49025181  0.12812116  1
  In  In3  1  -0.00316682  0.49955838  0.62533037  1
  In  In4  1  0.01742609  0.85360120  0.10982726  1
  In  In5  1  -0.02043416  0.84341846  0.64566108  1
  In  In6  1  0.31662960  0.15957317  0.11660087  1
  In  In7  1  0.33943493  0.15089769  0.62216644  1
  In  In8  1  0.34057690  0.48601810  0.12175973  1
  In  In9  1  0.32466500  0.52062033  0.62229683  1
  In  In10  1  0.32013392  0.85174653  0.12843628  1
  In  In11  1  0.32379013  0.82500034  0.62772472  1
  In  In12  1  0.68585937  0.15079023  0.13268425  1
  In  In13  1  0.67657496  0.16634034  0.62358089  1
  In  In14  1  0.66318611  0.50359477  0.12316341  1
  In  In15  1  0.67626539  0.48459901  0.62960203  1
  In  In16  1  0.68069849  0.83852544  0.11822239  1
  In  In17  1  0.68334398  0.83349117  0.63831439  1
  In  In18  1  0.16212072  -0.01046010  0.35910425  1
  In  In19  1  0.15552077  0.01352492  0.88994638  1
  In  In20  1  0.16647073  0.34596482  0.37763635  1
  In  In21  1  0.15072030  0.32890108  0.87814846  1
  In  In22  1  0.15178279  0.66816563  0.38142503  1
  In  In23  1  0.17118464  0.67580400  0.87127095  1
  In  In24  1  0.51916405  0.01878000  0.35879823  1
  In  In25  1  0.50602815  -0.01086895  0.87472866  1
  In  In26  1  0.49844365  0.31413150  0.37584421  1
  In  In27  1  0.52462012  0.33393092  0.87465010  1
  In  In28  1  0.50489166  0.65707345  0.37969442  1
  In  In29  1  0.49700651  0.66913511  0.86817937  1
  In  In30  1  0.83056714  -0.00014550  0.37967755  1
  In  In31  1  0.83120155  -0.00182570  0.87354201  1
  In  In32  1  0.83178259  0.33166754  0.37209602  1
  In  In33  1  0.82608041  0.32695805  0.86979495  1
  In  In34  1  0.83800767  0.67071269  0.38946002  1
  In  In35  1  0.84952945  0.69034003  0.84748798  1
  In  In36  1  -0.01036581  0.15248954  0.37078660  1
  In  In37  1  -0.00577793  0.16355076  0.87729437  1
  In  In38  1  -0.00296795  0.49927177  0.37944476  1
  In  In39  1  -0.00930897  0.49288750  0.86632384  1
  In  In40  1  -0.01092861  0.83507746  0.37781554  1
  In  In41  1  -0.01114201  0.84479646  0.86945731  1
  In  In42  1  0.34475651  0.16394446  0.37388367  1
  In  In43  1  0.32932362  0.14970996  0.88276584  1
  In  In44  1  0.32800232  0.49017216  0.38139630  1
  In  In45  1  0.33670935  0.51898970  0.87411017  1
  In  In46  1  0.32553396  0.84160669  0.37465239  1
  In  In47  1  0.33643686  0.82392622  0.87724740  1
  In  In48  1  0.66601632  0.16532968  0.37564277  1
  In  In49  1  0.67500391  0.17031176  0.87171800  1
  In  In50  1  0.68618281  0.49412781  0.37940738  1
  In  In51  1  0.66820771  0.50229025  0.86963879  1
  In  In52  1  0.67278074  0.84583966  0.37841588  1
  In  In53  1  0.69335800  0.85547926  0.84634768  1
  In  In54  1  0.15775909  -0.00195977  0.12483742  1
  In  In55  1  0.16042186  -0.01357122  0.62758652  1
  In  In56  1  0.16417184  0.31993464  0.12527260  1
  In  In57  1  0.14621616  0.33294528  0.62613968  1
  In  In58  1  0.15473417  0.68025950  0.12003692  1
  In  In59  1  0.16657300  0.66100849  0.63291727  1
  In  In60  1  0.50361621  -0.00262814  0.13007014  1
  In  In61  1  0.51354015  0.01488305  0.61711937  1
  In  In62  1  0.50316668  0.34385054  0.12044446  1
  In  In63  1  0.51673372  0.33022593  0.62342651  1
  In  In64  1  0.51492828  0.66154405  0.11476765  1
  In  In65  1  0.49694404  0.67168150  0.63252564  1
  In  In66  1  0.83098942  0.00350200  0.12318832  1
  In  In67  1  0.83339196  0.00333567  0.62893473  1
  In  In68  1  0.84956738  0.32295744  0.14338152  1
  In  In69  1  0.83278525  0.33262993  0.62152959  1
  In  In70  1  0.82640433  0.67261636  0.12157319  1
  In  In71  1  0.83582082  0.66400652  0.63154865  1
  In  In72  1  0.33231695  0.32569477  0.24813433  1
  In  In73  1  0.82664554  0.50230317  -0.00153668  1
  In  In74  1  0.33547241  0.66982547  0.24469285  1
  In  In75  1  0.49824746  0.49664603  0.50598826  1
  In  In76  1  0.16127870  0.82591902  0.50151479  1
  In  In77  1  0.17056812  0.50532478  -0.00420331  1
  In  In78  1  0.67468984  0.67079070  0.24295684  1
  In  In79  1  0.50501811  0.16717631  0.00003724  1
  In  In80  1  0.33024896  0.33411867  0.75337580  1
  In  In81  1  0.33359009  -0.00870777  0.75315535  1
  In  In82  1  0.16324445  0.16546287  0.49872649  1
  In  In83  1  0.50592094  0.83801826  0.50982138  1
  In  In84  1  0.50196448  0.83053065  -0.00191771  1
  In  In85  1  -0.00228736  0.67724789  0.25437103  1
  Cu  Cu86  1  0.51018933  0.16726069  0.74649517  1
  Cu  Cu87  1  0.50245407  0.16654425  0.24707330  1
  Cu  Cu88  1  0.33936337  0.33474710  -0.00100650  1
  Cu  Cu89  1  0.34212477  0.00059858  0.49257020  1
  Cu  Cu90  1  -0.00688146  0.33680840  0.49979919  1
  Cu  Cu91  1  0.51012449  0.49334736  0.24860782  1
  Cu  Cu92  1  -0.00604277  0.67590051  -0.01032557  1
  Cu  Cu93  1  0.66975891  0.32641467  0.49955848  1
  Cu  Cu94  1  0.15895382  0.16427135  0.24544486  1
  Cu  Cu95  1  0.16170749  0.49985953  0.75222541  1
  Cu  Cu96  1  -0.01027231  0.00091086  0.00134576  1
  Cu  Cu97  1  0.49892648  0.49905244  0.74379209  1
  Cu  Cu98  1  0.32814428  0.33299910  0.50080345  1
  Cu  Cu99  1  0.15552263  0.16092066  0.75522699  1
  Cu  Cu100  1  0.49967630  0.83584188  0.74885290  1
  Cu  Cu101  1  0.66991220  0.66953239  -0.01196656  1
  Cu  Cu102  1  0.83077851  0.49561070  0.74454939  1
  Cu  Cu103  1  -0.00204893  0.32118600  0.00412446  1
  Cu  Cu104  1  0.33684906  0.66950547  -0.00293691  1
  Cu  Cu105  1  0.16082560  0.83172060  0.75467046  1
  Cu  Cu106  1  0.67276150  0.67019657  0.51068860  1
  Cu  Cu107  1  -0.00218079  0.66610550  0.50975425  1
  Cu  Cu108  1  -0.00704033  0.00373604  0.50554235  1
  Cu  Cu109  1  0.15943830  0.50472570  0.25578338  1
  Cu  Cu110  1  0.83642310  0.16830091  0.74929851  1
  Cu  Cu111  1  0.83766995  0.84359018  0.24896712  1
  Cu  Cu112  1  0.49849147  0.83862048  0.25102430  1
  Cu  Cu113  1  0.83271713  0.16233698  0.25445923  1
  Cu  Cu114  1  0.67503704  0.33198451  -0.00086589  1
  Se  Se115  1  0.07541744  0.08295108  0.05548996  1
  Se  Se116  1  0.07695467  0.08055542  0.56523417  1
  Se  Se117  1  0.07908376  0.41320730  0.05589995  1
  Se  Se118  1  0.07925024  0.41796016  0.55231843  1
  Se  Se119  1  0.08321372  0.75403209  0.04215261  1
  Se  Se120  1  0.07194565  0.75138350  0.57071631  1
  Se  Se121  1  0.41448709  0.07544114  0.05736781  1
  Se  Se122  1  0.42283946  0.08506415  0.54633381  1
  Se  Se123  1  0.42458444  0.42129438  0.04546302  1
  Se  Se124  1  0.40598508  0.40840534  0.56728066  1
  Se  Se125  1  0.41028455  0.74739546  0.06481922  1
  Se  Se126  1  0.40751377  0.74265931  0.55597012  1
  Se  Se127  1  0.75191416  0.08394795  0.05043591  1
  Se  Se128  1  0.76238644  0.08835350  0.55541977  1
  Se  Se129  1  0.75331393  0.40773560  0.06492818  1
  Se  Se130  1  0.75031898  0.41532131  0.55011969  1
  Se  Se131  1  0.75077125  0.74949099  0.04663833  1
  Se  Se132  1  0.75617599  0.75242955  0.56266339  1
  Se  Se133  1  0.25015561  0.25633737  0.04913022  1
  Se  Se134  1  0.25233396  0.25196180  0.56455241  1
  Se  Se135  1  0.25900217  0.59120111  0.06296170  1
  Se  Se136  1  0.23834111  0.59021582  0.55205410  1
  Se  Se137  1  0.23739176  0.91476250  0.05318921  1
  Se  Se138  1  0.25933446  0.92386404  0.55375422  1
  Se  Se139  1  0.59554792  0.25294154  0.06201266  1
  Se  Se140  1  0.58575106  0.24337872  0.55232939  1
  Se  Se141  1  0.59320120  0.58173145  0.04356961  1
  Se  Se142  1  0.58836602  0.58751824  0.56509079  1
  Se  Se143  1  0.59076992  0.92569782  0.05402199  1
  Se  Se144  1  0.60632155  0.92288772  0.56145062  1
  Se  Se145  1  0.90920855  0.24787938  0.05937295  1
  Se  Se146  1  0.91412627  0.24806779  0.55116442  1
  Se  Se147  1  0.92625793  0.59158609  0.05558200  1
  Se  Se148  1  0.91088837  0.58030282  0.55702190  1
  Se  Se149  1  0.90708927  0.91348466  0.05233319  1
  Se  Se150  1  0.91779085  0.91566904  0.56111485  1
  Se  Se151  1  0.07420001  0.25547571  0.43884714  1
  Se  Se152  1  0.08234548  0.24114285  0.94965463  1
  Se  Se153  1  0.07693625  0.58389353  0.45067084  1
  Se  Se154  1  0.07260632  0.58589166  0.93585307  1
  Se  Se155  1  0.07869458  0.92781442  0.44498804  1
  Se  Se156  1  0.07144695  0.91720857  0.94530785  1
  Se  Se157  1  0.41149370  0.24830705  0.45018554  1
  Se  Se158  1  0.41658481  0.25677731  0.93495291  1
  Se  Se159  1  0.40711064  0.58768756  0.44662030  1
  Se  Se160  1  0.42354983  0.58875162  0.94655394  1
  Se  Se161  1  0.42486529  0.92008217  0.43622281  1
  Se  Se162  1  0.40705136  0.92487169  0.94409303  1
  Se  Se163  1  0.75264323  0.24700639  0.44297757  1
  Se  Se164  1  0.75532613  0.24679500  0.94654198  1
  Se  Se165  1  0.74938757  0.58573488  0.45172783  1
  Se  Se166  1  0.75872362  0.59637299  0.92923774  1
  Se  Se167  1  0.76606911  0.90306699  0.44919734  1
  Se  Se168  1  0.74679483  0.91018266  0.93822799  1
  Se  Se169  1  0.25045748  0.07384105  0.43620770  1
  Se  Se170  1  0.24998664  0.08176065  0.95754975  1
  Se  Se171  1  0.24337110  0.41979615  0.45469748  1
  Se  Se172  1  0.25848000  0.41205080  0.93484725  1
  Se  Se173  1  0.25817366  0.74173567  0.44220157  1
  Se  Se174  1  0.24859863  0.75047070  0.94810419  1
  Se  Se175  1  0.57947007  0.08461923  0.44361269  1
  Se  Se176  1  0.59194250  0.07694625  0.93939959  1
  Se  Se177  1  0.58465046  0.40838421  0.44142823  1
  Se  Se178  1  0.59533451  0.41971646  0.94706877  1
  Se  Se179  1  0.59201896  0.74247012  0.44553997  1
  Se  Se180  1  0.59065727  0.75343021  0.93069851  1
  Se  Se181  1  0.91240928  0.08597340  0.45009336  1
  Se  Se182  1  0.90835970  0.08342575  0.94524377  1
  Se  Se183  1  0.90936602  0.41782427  0.44448621  1
  Se  Se184  1  0.92153228  0.40722365  0.94463853  1
  Se  Se185  1  0.92100166  0.75533602  0.45558125  1
  Se  Se186  1  0.90754360  0.75466285  0.93691874  1
  Se  Se187  1  0.23910055  0.24092542  0.31059456  1
  Se  Se188  1  0.24418035  0.23737921  0.81220373  1
  Se  Se189  1  0.24657749  0.58151768  0.31126403  1
  Se  Se190  1  0.24683128  0.58503413  0.80272318  1
  Se  Se191  1  0.26060285  0.91992578  0.29754491  1
  Se  Se192  1  0.23986071  0.91277062  0.81650792  1
  Se  Se193  1  0.58415689  0.24870127  0.30219260  1
  Se  Se194  1  0.59243554  0.25124277  0.79979384  1
  Se  Se195  1  0.58665422  0.57845370  0.30657560  1
  Se  Se196  1  0.57844341  0.58067917  0.80259848  1
  Se  Se197  1  0.59071194  0.91382451  0.30191452  1
  Se  Se198  1  0.58253394  0.92625892  0.79393650  1
  Se  Se199  1  0.91802071  0.24742902  0.30499994  1
  Se  Se200  1  0.91956565  0.25074086  0.80549854  1
  Se  Se201  1  0.90789074  0.58559576  0.31109731  1
  Se  Se202  1  0.91716962  0.57818592  0.79565428  1
  Se  Se203  1  0.91868621  0.92319213  0.30702912  1
  Se  Se204  1  0.89535936  0.90891371  0.79584031  1
  Se  Se205  1  0.07761534  0.07995662  0.29972166  1
  Se  Se206  1  0.07639636  0.07597666  0.80904441  1
  Se  Se207  1  0.07928669  0.41862399  0.30722588  1
  Se  Se208  1  0.08201188  0.41139646  0.80304911  1
  Se  Se209  1  0.09367515  0.76707708  0.30981149  1
  Se  Se210  1  0.07585097  0.75102570  0.80851088  1
  Se  Se211  1  0.41362958  0.08387604  0.29697225  1
  Se  Se212  1  0.42607989  0.09008877  0.80679334  1
  Se  Se213  1  0.42232124  0.42042698  0.30837241  1
  Se  Se214  1  0.42435496  0.42155713  0.81202811  1
  Se  Se215  1  0.42803820  0.75153399  0.31126734  1
  Se  Se216  1  0.41299130  0.75316541  0.79943634  1
  Se  Se217  1  0.74870139  0.07974246  0.30790032  1
  Se  Se218  1  0.75231769  0.08510606  0.80238724  1
  Se  Se219  1  0.74568419  0.41126340  0.30290351  1
  Se  Se220  1  0.74885602  0.41534473  0.80266026  1
  Se  Se221  1  0.76213750  0.75594093  0.30890417  1
  Se  Se222  1  0.72120789  0.72536440  0.80134488  1
  Se  Se223  1  0.24528786  0.08322835  0.19323379  1
  Se  Se224  1  0.24097841  0.08647364  0.69451086  1
  Se  Se225  1  0.24013352  0.42438822  0.19362206  1
  Se  Se226  1  0.24291200  0.42168560  0.68978586  1
  Se  Se227  1  0.23612889  0.75822729  0.19529203  1
  Se  Se228  1  0.24666599  0.74960391  0.70165486  1
  Se  Se229  1  0.58694035  0.08044636  0.19715861  1
  Se  Se230  1  0.59257762  0.08272502  0.69456459  1
  Se  Se231  1  0.59096123  0.41271586  0.19341641  1
  Se  Se232  1  0.58474380  0.41141542  0.69908231  1
  Se  Se233  1  0.57665507  0.75989992  0.18736373  1
  Se  Se234  1  0.58458044  0.75307695  0.69676401  1
  Se  Se235  1  0.91359555  0.07989862  0.19675885  1
  Se  Se236  1  0.92102283  0.08248972  0.69897933  1
  Se  Se237  1  0.91940217  0.42061316  0.20734924  1
  Se  Se238  1  0.91659173  0.41193249  0.69289510  1
  Se  Se239  1  0.91278166  0.76128568  0.18627862  1
  Se  Se240  1  0.92005893  0.73653819  0.70531288  1
  Se  Se241  1  0.07653990  0.25186473  0.19629892  1
  Se  Se242  1  0.07980863  0.25147929  0.70285508  1
  Se  Se243  1  0.08528748  0.58209452  0.19011632  1
  Se  Se244  1  0.07770625  0.58117982  0.69796505  1
  Se  Se245  1  0.07736641  0.91650250  0.19629133  1
  Se  Se246  1  0.08047003  0.92048390  0.70452692  1
  Se  Se247  1  0.42095968  0.24187104  0.18268363  1
  Se  Se248  1  0.41984766  0.24266287  0.69149400  1
  Se  Se249  1  0.43001641  0.57449825  0.18926041  1
  Se  Se250  1  0.41227084  0.58459294  0.69704697  1
  Se  Se251  1  0.41477178  0.91884805  0.19688525  1
  Se  Se252  1  0.42377574  0.91516665  0.68249537  1
  Se  Se253  1  0.74911797  0.24758045  0.20206526  1
  Se  Se254  1  0.75296144  0.25215169  0.69462887  1
  Se  Se255  1  0.76475952  0.57270102  0.19195751  1
  Se  Se256  1  0.74452484  0.58072998  0.69579331  1
  Se  Se257  1  0.74805116  0.91941533  0.19490269  1
  Se  Se258  1  0.77436601  0.90936344  0.70628607  1
