# generated using pymatgen
data_In86Cu29Se144
_symmetry_space_group_name_H-M   'P 1'
_cell_length_a   17.57592619
_cell_length_b   17.57882652
_cell_length_c   23.44052906
_cell_angle_alpha   89.99098163
_cell_angle_beta   90.00667574
_cell_angle_gamma   89.99918247
_symmetry_Int_Tables_number   1
_chemical_formula_structural   In86Cu29Se144
_chemical_formula_sum   'In86 Cu29 Se144'
_cell_volume   7242.28317229
_cell_formula_units_Z   1
loop_
 _symmetry_equiv_pos_site_id
 _symmetry_equiv_pos_as_xyz
  1  'x, y, z'
loop_
 _atom_site_type_symbol
 _atom_site_label
 _atom_site_symmetry_multiplicity
 _atom_site_fract_x
 _atom_site_fract_y
 _atom_site_fract_z
 _atom_site_occupancy
  In  In0  1  0.00331732  0.15152905  0.12700932  1
  In  In1  1  0.00225456  0.16648778  0.62184734  1
  In  In2  1  0.00289692  0.50837506  0.11396516  1
  In  In3  1  0.00204372  0.49811297  0.62840778  1
  In  In4  1  0.00726212  0.84470250  0.11250225  1
  In  In5  1  -0.00504486  0.84618626  0.64769742  1
  In  In6  1  0.33405116  0.16604286  0.11840531  1
  In  In7  1  0.34117474  0.17725750  0.61849870  1
  In  In8  1  0.32664981  0.50752137  0.12329683  1
  In  In9  1  0.32743628  0.50054609  0.62525555  1
  In  In10  1  0.32149154  0.84348204  0.12238288  1
  In  In11  1  0.32986408  0.81934659  0.62639944  1
  In  In12  1  0.65395496  0.16221162  0.12572934  1
  In  In13  1  0.66527098  0.16084351  0.61640811  1
  In  In14  1  0.67243996  0.49055628  0.12298702  1
  In  In15  1  0.68169458  0.51620936  0.61899149  1
  In  In16  1  0.67969019  0.82966025  0.12691743  1
  In  In17  1  0.66855675  0.82973778  0.62321137  1
  In  In18  1  0.16497249  0.01296765  0.36901469  1
  In  In19  1  0.15476813  0.00875105  0.87805381  1
  In  In20  1  0.16649579  0.33416383  0.37994682  1
  In  In21  1  0.16962298  0.33403102  0.87365491  1
  In  In22  1  0.15555474  0.66301546  0.37999664  1
  In  In23  1  0.15593804  0.66830835  0.86793714  1
  In  In24  1  0.50625735  -0.00577142  0.38023839  1
  In  In25  1  0.50842963  0.00468780  0.88112062  1
  In  In26  1  0.50213542  0.32931581  0.38710496  1
  In  In27  1  0.48371246  0.33584113  0.87337711  1
  In  In28  1  0.49767639  0.67097180  0.38788942  1
  In  In29  1  0.50065671  0.66568369  0.86089397  1
  In  In30  1  0.83462616  -0.00130433  0.37741843  1
  In  In31  1  0.84134830  -0.01747178  0.87621365  1
  In  In32  1  0.83221114  0.33443373  0.38591918  1
  In  In33  1  0.85131820  0.33541866  0.86942139  1
  In  In34  1  0.83645163  0.66798689  0.38899022  1
  In  In35  1  0.83312413  0.66866057  0.86860493  1
  In  In36  1  0.00862390  0.15316949  0.38196178  1
  In  In37  1  0.01424995  0.18082223  0.86394262  1
  In  In38  1  0.00201355  0.49641992  0.38834065  1
  In  In39  1  0.00281869  0.49768680  0.87371183  1
  In  In40  1  -0.00998665  0.82726203  0.37640141  1
  In  In41  1  -0.00172074  0.83287765  0.86733198  1
  In  In42  1  0.32654297  0.17004219  0.38333614  1
  In  In43  1  0.32184496  0.17390715  0.88055246  1
  In  In44  1  0.32949021  0.50488534  0.38544656  1
  In  In45  1  0.32211240  0.49426885  0.86511654  1
  In  In46  1  0.34108950  0.84508256  0.37620899  1
  In  In47  1  0.32800505  0.81561470  0.86821625  1
  In  In48  1  0.66950528  0.15968418  0.38017568  1
  In  In49  1  0.66179563  0.15587256  0.87617714  1
  In  In50  1  0.66811134  0.49838747  0.38780179  1
  In  In51  1  0.66682391  0.51504107  0.86897552  1
  In  In52  1  0.65861366  0.84760007  0.38212332  1
  In  In53  1  0.67824684  0.82988548  0.87171995  1
  In  In54  1  0.15745382  -0.00573508  0.11795862  1
  In  In55  1  0.14860262  -0.00053585  0.62532251  1
  In  In56  1  0.16885053  0.33611409  0.11848591  1
  In  In57  1  0.16575599  0.33540334  0.62592533  1
  In  In58  1  0.16262948  0.66481406  0.11446906  1
  In  In59  1  0.17610790  0.66661911  0.63610536  1
  In  In60  1  0.49526627  0.01282791  0.13411096  1
  In  In61  1  0.50516840  0.00320342  0.61364827  1
  In  In62  1  0.50936079  0.32275677  0.12832425  1
  In  In63  1  0.49024590  0.32870468  0.62037345  1
  In  In64  1  0.49900974  0.66868639  0.12542204  1
  In  In65  1  0.50055036  0.66653645  0.62314642  1
  In  In66  1  0.84607938  -0.01145743  0.13343433  1
  In  In67  1  0.83834557  -0.00215700  0.62054714  1
  In  In68  1  0.82764029  0.34131214  0.12060459  1
  In  In69  1  0.84614071  0.34068845  0.62034885  1
  In  In70  1  0.84143798  0.67736638  0.10989864  1
  In  In71  1  0.84463634  0.67173152  0.63432128  1
  In  In72  1  0.67050797  0.67164595  0.24999292  1
  In  In73  1  0.00282550  0.32768018  0.25612224  1
  In  In74  1  0.32621915  -0.00002685  0.75031843  1
  In  In75  1  0.49785620  0.49844365  0.00210016  1
  In  In76  1  0.49328326  0.83762038  0.00411068  1
  In  In77  1  0.66651723  0.33331248  0.73410509  1
  In  In78  1  0.67118479  0.32510033  0.26252062  1
  In  In79  1  0.33059998  0.00064679  0.25076247  1
  In  In80  1  0.32987373  0.32728039  0.24652639  1
  In  In81  1  0.00294040  0.67456360  0.24467574  1
  In  In82  1  0.32911016  0.67295923  0.25723663  1
  In  In83  1  0.67403041  -0.00489551  0.74377873  1
  In  In84  1  0.83578911  0.16972953  0.00005534  1
  In  In85  1  0.16642547  0.82993636  0.50363015  1
  Cu  Cu86  1  0.16641176  0.17174599  0.74837220  1
  Cu  Cu87  1  0.33221324  0.32865739  -0.00440026  1
  Cu  Cu88  1  0.49294969  0.50385249  0.74354756  1
  Cu  Cu89  1  0.67396763  -0.00581767  0.49861898  1
  Cu  Cu90  1  0.33498060  0.00265786  0.49776773  1
  Cu  Cu91  1  -0.00232078  0.33269498  0.50474348  1
  Cu  Cu92  1  0.84224272  0.50794052  0.24897108  1
  Cu  Cu93  1  0.00086684  0.66449559  0.51084730  1
  Cu  Cu94  1  -0.00489304  0.66617460  -0.01209623  1
  Cu  Cu95  1  0.84591131  0.15877344  0.74538292  1
  Cu  Cu96  1  0.83553331  0.50007314  0.74668100  1
  Cu  Cu97  1  0.32589298  0.33763818  0.50318772  1
  Cu  Cu98  1  0.67004734  0.33682643  -0.00023393  1
  Cu  Cu99  1  0.33554189  0.66305682  0.50716939  1
  Cu  Cu100  1  0.67344314  0.67152993  -0.00721272  1
  Cu  Cu101  1  0.32549691  0.00102264  -0.00028461  1
  Cu  Cu102  1  0.66087120  0.33276019  0.50467406  1
  Cu  Cu103  1  0.67383979  0.66773030  0.50656708  1
  Cu  Cu104  1  0.82979878  0.15753839  0.25387030  1
  Cu  Cu105  1  0.16782306  0.49714298  0.75037046  1
  Cu  Cu106  1  0.49188407  0.17384546  0.74994636  1
  Cu  Cu107  1  0.00664913  0.33513369  -0.00611190  1
  Cu  Cu108  1  -0.00289231  -0.00038059  -0.00390094  1
  Cu  Cu109  1  0.83138210  0.84355684  0.25416546  1
  Cu  Cu110  1  0.66539646  0.00364004  0.00119099  1
  Cu  Cu111  1  -0.00360158  -0.00145146  0.50230720  1
  Cu  Cu112  1  0.32193419  0.65944439  -0.00904259  1
  Cu  Cu113  1  0.49932493  0.49712004  0.26015719  1
  Cu  Cu114  1  0.49975522  0.83076256  0.74312138  1
  Se  Se115  1  0.08122778  0.08380873  0.04834471  1
  Se  Se116  1  0.08368062  0.08423824  0.54930305  1
  Se  Se117  1  0.08612711  0.41956915  0.05094713  1
  Se  Se118  1  0.08247105  0.41717311  0.55573234  1
  Se  Se119  1  0.07641152  0.74563896  0.04839718  1
  Se  Se120  1  0.07881514  0.74855024  0.56950741  1
  Se  Se121  1  0.41573552  0.07668170  0.05374705  1
  Se  Se122  1  0.41837402  0.08779908  0.55058148  1
  Se  Se123  1  0.41016466  0.40457404  0.06312099  1
  Se  Se124  1  0.41214694  0.41981800  0.55493936  1
  Se  Se125  1  0.40062280  0.73768396  0.05607589  1
  Se  Se126  1  0.41861770  0.75295905  0.55350668  1
  Se  Se127  1  0.75058511  0.07857384  0.06234710  1
  Se  Se128  1  0.75444515  0.08010501  0.55254669  1
  Se  Se129  1  0.75483444  0.42361418  0.04647669  1
  Se  Se130  1  0.74836949  0.41303944  0.55694359  1
  Se  Se131  1  0.75152300  0.75933567  0.04631224  1
  Se  Se132  1  0.75978431  0.74769779  0.56059108  1
  Se  Se133  1  0.24891222  0.24826055  0.05220336  1
  Se  Se134  1  0.24441992  0.24992724  0.55436382  1
  Se  Se135  1  0.24410808  0.57600579  0.04849236  1
  Se  Se136  1  0.24388897  0.58637083  0.55701878  1
  Se  Se137  1  0.24139270  0.91295952  0.04698508  1
  Se  Se138  1  0.25661432  0.92453683  0.56207357  1
  Se  Se139  1  0.58779697  0.25186663  0.05186503  1
  Se  Se140  1  0.57759125  0.24621504  0.55433901  1
  Se  Se141  1  0.59469668  0.59334726  0.05692945  1
  Se  Se142  1  0.58355629  0.58420760  0.55323669  1
  Se  Se143  1  0.58737178  0.92272050  0.06362929  1
  Se  Se144  1  0.58842947  0.91313814  0.55291274  1
  Se  Se145  1  0.92844637  0.25868179  0.06083038  1
  Se  Se146  1  0.91382658  0.24475044  0.55278090  1
  Se  Se147  1  0.91379705  0.58258806  0.04561791  1
  Se  Se148  1  0.91481393  0.58113486  0.56174314  1
  Se  Se149  1  0.90996920  0.91841447  0.04835315  1
  Se  Se150  1  0.92689656  0.90800892  0.56026147  1
  Se  Se151  1  0.07860142  0.25319174  0.44505070  1
  Se  Se152  1  0.08915305  0.24842250  0.94444584  1
  Se  Se153  1  0.08400441  0.58327806  0.45489968  1
  Se  Se154  1  0.08490514  0.58172181  0.94240103  1
  Se  Se155  1  0.08007836  0.92062456  0.44029278  1
  Se  Se156  1  0.07780732  0.91411019  0.94128134  1
  Se  Se157  1  0.41030091  0.25166607  0.45125507  1
  Se  Se158  1  0.41997761  0.24582386  0.94653509  1
  Se  Se159  1  0.41956202  0.58034026  0.45241011  1
  Se  Se160  1  0.41420428  0.58668623  0.93623573  1
  Se  Se161  1  0.42055799  0.91504528  0.45171321  1
  Se  Se162  1  0.40443212  0.92119348  0.93685019  1
  Se  Se163  1  0.74386453  0.25110704  0.44836015  1
  Se  Se164  1  0.74653444  0.25758808  0.93522802  1
  Se  Se165  1  0.75458502  0.58010676  0.45321121  1
  Se  Se166  1  0.75268109  0.58354797  0.94177633  1
  Se  Se167  1  0.75990706  0.90975772  0.44832786  1
  Se  Se168  1  0.74352775  0.91993391  0.94502869  1
  Se  Se169  1  0.24421162  0.08090190  0.44761278  1
  Se  Se170  1  0.24331354  0.08581533  0.94668177  1
  Se  Se171  1  0.24304846  0.42090315  0.44933529  1
  Se  Se172  1  0.25311119  0.41698495  0.94387542  1
  Se  Se173  1  0.25981564  0.74296093  0.44048775  1
  Se  Se174  1  0.24114919  0.74759807  0.94089663  1
  Se  Se175  1  0.58588401  0.07913138  0.44991004  1
  Se  Se176  1  0.57998491  0.08976031  0.95403406  1
  Se  Se177  1  0.57883127  0.41960741  0.45305358  1
  Se  Se178  1  0.58790160  0.41341254  0.93698660  1
  Se  Se179  1  0.59160201  0.74902815  0.44924120  1
  Se  Se180  1  0.57987569  0.74666773  0.94007759  1
  Se  Se181  1  0.91366860  0.08324085  0.44875801  1
  Se  Se182  1  0.92362808  0.08618028  0.93461802  1
  Se  Se183  1  0.91228449  0.41921168  0.45387750  1
  Se  Se184  1  0.91764406  0.41686000  0.94585649  1
  Se  Se185  1  0.92162287  0.75067818  0.45541290  1
  Se  Se186  1  0.91247810  0.75364149  0.93872774  1
  Se  Se187  1  0.23776631  0.24072960  0.30667046  1
  Se  Se188  1  0.25269225  0.25158477  0.80252162  1
  Se  Se189  1  0.24014578  0.57578934  0.30947230  1
  Se  Se190  1  0.24763013  0.58807734  0.80143670  1
  Se  Se191  1  0.24007443  0.90672906  0.30814141  1
  Se  Se192  1  0.24032115  0.91314315  0.81285814  1
  Se  Se193  1  0.57073595  0.23926595  0.31213525  1
  Se  Se194  1  0.58222778  0.24885963  0.80653510  1
  Se  Se195  1  0.58256985  0.58042601  0.31353920  1
  Se  Se196  1  0.58367909  0.58279694  0.79356914  1
  Se  Se197  1  0.58353578  0.91776188  0.30539324  1
  Se  Se198  1  0.57526033  0.91270750  0.80630598  1
  Se  Se199  1  0.90580473  0.24323832  0.31351038  1
  Se  Se200  1  0.92098625  0.25206933  0.79558361  1
  Se  Se201  1  0.91841601  0.58443594  0.31281706  1
  Se  Se202  1  0.91662780  0.57814149  0.80561359  1
  Se  Se203  1  0.92140523  0.91927768  0.30692384  1
  Se  Se204  1  0.91906838  0.91960168  0.79827633  1
  Se  Se205  1  0.07831947  0.08620210  0.29988317  1
  Se  Se206  1  0.08366322  0.08358156  0.79803267  1
  Se  Se207  1  0.08795406  0.42749733  0.30994773  1
  Se  Se208  1  0.08443667  0.41345857  0.80440363  1
  Se  Se209  1  0.09328543  0.75998900  0.30808925  1
  Se  Se210  1  0.05816838  0.73104931  0.79772564  1
  Se  Se211  1  0.41610898  0.08652736  0.31598498  1
  Se  Se212  1  0.42097987  0.08761036  0.81139247  1
  Se  Se213  1  0.41623462  0.41659732  0.31437487  1
  Se  Se214  1  0.41482195  0.41799603  0.79862219  1
  Se  Se215  1  0.43001712  0.75828605  0.30899789  1
  Se  Se216  1  0.41470465  0.74783722  0.79503667  1
  Se  Se217  1  0.74605184  0.07735403  0.30794827  1
  Se  Se218  1  0.75980128  0.08792584  0.80760003  1
  Se  Se219  1  0.76094561  0.42932958  0.30949186  1
  Se  Se220  1  0.75121565  0.41743888  0.80476851  1
  Se  Se221  1  0.75992899  0.75529709  0.31409040  1
  Se  Se222  1  0.74087601  0.74182469  0.80018743  1
  Se  Se223  1  0.24339185  0.08623102  0.18626338  1
  Se  Se224  1  0.24539094  0.09247468  0.68595646  1
  Se  Se225  1  0.24194208  0.42626035  0.19414196  1
  Se  Se226  1  0.25143207  0.41405011  0.69639853  1
  Se  Se227  1  0.23936358  0.75335226  0.18937992  1
  Se  Se228  1  0.24762260  0.75974209  0.70383556  1
  Se  Se229  1  0.58638385  0.08302971  0.20163950  1
  Se  Se230  1  0.57470613  0.09074835  0.69404035  1
  Se  Se231  1  0.58116348  0.42132717  0.19883896  1
  Se  Se232  1  0.57635064  0.42876684  0.68129825  1
  Se  Se233  1  0.57477779  0.75981983  0.19297491  1
  Se  Se234  1  0.58541617  0.74851638  0.69249420  1
  Se  Se235  1  0.91906555  0.08112884  0.20053453  1
  Se  Se236  1  0.92478193  0.07535266  0.69027763  1
  Se  Se237  1  0.91707093  0.42204552  0.19077749  1
  Se  Se238  1  0.91983560  0.41315093  0.69876388  1
  Se  Se239  1  0.90684225  0.76235828  0.18925515  1
  Se  Se240  1  0.94234458  0.73192917  0.70652962  1
  Se  Se241  1  0.09036517  0.24540585  0.18937508  1
  Se  Se242  1  0.08046896  0.25124110  0.69312344  1
  Se  Se243  1  0.09045994  0.57625344  0.19146655  1
  Se  Se244  1  0.08591090  0.58012368  0.69688360  1
  Se  Se245  1  0.07962121  0.91490732  0.19080852  1
  Se  Se246  1  0.10463922  0.90902632  0.70361073  1
  Se  Se247  1  0.42651359  0.23524732  0.19543607  1
  Se  Se248  1  0.40998560  0.25666972  0.69745191  1
  Se  Se249  1  0.42366463  0.57629647  0.19673197  1
  Se  Se250  1  0.41048644  0.58909130  0.69139705  1
  Se  Se251  1  0.42016655  0.90533658  0.19227807  1
  Se  Se252  1  0.42350375  0.91877940  0.68757924  1
  Se  Se253  1  0.75877815  0.24413719  0.19156904  1
  Se  Se254  1  0.76099894  0.23616937  0.68600398  1
  Se  Se255  1  0.76061831  0.58258644  0.18667479  1
  Se  Se256  1  0.75274976  0.58817944  0.69890627  1
  Se  Se257  1  0.74557173  0.92096801  0.19833331  1
  Se  Se258  1  0.76656858  0.90208488  0.69327701  1
