# generated using pymatgen
data_In86Cu29Se144
_symmetry_space_group_name_H-M   'P 1'
_cell_length_a   17.64392893
_cell_length_b   17.65500317
_cell_length_c   23.51819942
_cell_angle_alpha   89.96649663
_cell_angle_beta   89.95191576
_cell_angle_gamma   89.98357789
_symmetry_Int_Tables_number   1
_chemical_formula_structural   In86Cu29Se144
_chemical_formula_sum   'In86 Cu29 Se144'
_cell_volume   7326.00015225
_cell_formula_units_Z   1
loop_
 _symmetry_equiv_pos_site_id
 _symmetry_equiv_pos_as_xyz
  1  'x, y, z'
loop_
 _atom_site_type_symbol
 _atom_site_label
 _atom_site_symmetry_multiplicity
 _atom_site_fract_x
 _atom_site_fract_y
 _atom_site_fract_z
 _atom_site_occupancy
  In  In0  1  -0.00689409  0.16879276  0.12700808  1
  In  In1  1  -0.01897555  0.15924078  0.62367239  1
  In  In2  1  -0.00432673  0.49342904  0.11954015  1
  In  In3  1  -0.00240680  0.51406141  0.63126686  1
  In  In4  1  -0.00257724  0.84002826  0.11786302  1
  In  In5  1  -0.00607482  0.83096273  0.62986800  1
  In  In6  1  0.33825421  0.16760744  0.12792632  1
  In  In7  1  0.34137525  0.18029522  0.62340678  1
  In  In8  1  0.32653448  0.50043459  0.12361022  1
  In  In9  1  0.33608088  0.49603998  0.62684006  1
  In  In10  1  0.33001375  0.83842847  0.12015834  1
  In  In11  1  0.33660777  0.82581369  0.61927912  1
  In  In12  1  0.68270545  0.15671491  0.13395833  1
  In  In13  1  0.66334654  0.15110920  0.62083127  1
  In  In14  1  0.67445432  0.49082048  0.14208986  1
  In  In15  1  0.69201682  0.53782925  0.58287969  1
  In  In16  1  0.67646352  0.82192987  0.13809849  1
  In  In17  1  0.67101646  0.83422697  0.62830081  1
  In  In18  1  0.15429234  -0.00109560  0.37505997  1
  In  In19  1  0.14365914  -0.00451991  0.87220266  1
  In  In20  1  0.16568707  0.33630972  0.36061588  1
  In  In21  1  0.18112417  0.33363924  0.87835792  1
  In  In22  1  0.17246446  0.67138973  0.37659098  1
  In  In23  1  0.15070692  0.68518493  0.88662955  1
  In  In24  1  0.52052160  -0.01975790  0.38797565  1
  In  In25  1  0.53006295  -0.02140072  0.87084065  1
  In  In26  1  0.52899231  0.36776938  0.34360653  1
  In  In27  1  0.49751945  0.34765119  0.87070201  1
  In  In28  1  0.51076025  0.66190901  0.38602128  1
  In  In29  1  0.52888381  0.67875204  0.86394288  1
  In  In30  1  0.83211024  -0.00203546  0.37292173  1
  In  In31  1  0.83181231  0.00430409  0.88195924  1
  In  In32  1  0.83221538  0.33424932  0.37381724  1
  In  In33  1  0.83577658  0.32828454  0.88880034  1
  In  In34  1  0.80617355  0.68896332  0.39737814  1
  In  In35  1  0.82970871  0.66859808  0.87157670  1
  In  In36  1  -0.01202827  0.15790680  0.36378340  1
  In  In37  1  -0.00603569  0.15211098  0.87407351  1
  In  In38  1  -0.01043631  0.49025309  0.37030527  1
  In  In39  1  -0.01419432  0.51557111  0.88230690  1
  In  In40  1  -0.01539984  0.84353574  0.38351862  1
  In  In41  1  -0.00826306  0.83605556  0.87541568  1
  In  In42  1  0.33352385  0.17192791  0.37102034  1
  In  In43  1  0.33145926  0.17092849  0.86966991  1
  In  In44  1  0.35385251  0.49669022  0.37159657  1
  In  In45  1  0.34175439  0.49463035  0.87503620  1
  In  In46  1  0.33804452  0.83046545  0.39067228  1
  In  In47  1  0.33106607  0.82281949  0.87542540  1
  In  In48  1  0.67150244  0.16696958  0.37124476  1
  In  In49  1  0.68286403  0.16709574  0.88395047  1
  In  In50  1  0.66894468  0.50742423  0.38127687  1
  In  In51  1  0.67616615  0.51000339  0.87451334  1
  In  In52  1  0.66476454  0.83584474  0.37441308  1
  In  In53  1  0.72218655  0.86403306  0.81594120  1
  In  In54  1  0.15646362  -0.01421882  0.11743157  1
  In  In55  1  0.16344320  -0.01604947  0.62821228  1
  In  In56  1  0.15601843  0.33330833  0.12768246  1
  In  In57  1  0.17241974  0.34629964  0.62882811  1
  In  In58  1  0.16994480  0.66611276  0.11405911  1
  In  In59  1  0.14894995  0.67344585  0.63401691  1
  In  In60  1  0.50329679  -0.00034445  0.12921539  1
  In  In61  1  0.52751057  -0.01942308  0.63726355  1
  In  In62  1  0.50341647  0.33386057  0.14405091  1
  In  In63  1  0.49378151  0.33957892  0.62240354  1
  In  In64  1  0.51755253  0.66148099  0.13559919  1
  In  In65  1  0.55978935  0.70265354  0.56561708  1
  In  In66  1  0.83416198  -0.00773110  0.12600166  1
  In  In67  1  0.83516935  -0.00077956  0.62843478  1
  In  In68  1  0.83717113  0.33962552  0.13264633  1
  In  In69  1  0.82385562  0.32394561  0.61278887  1
  In  In70  1  0.83015231  0.66391618  0.12115644  1
  In  In71  1  0.83541153  0.66572961  0.63029225  1
  In  In72  1  0.15919371  0.50515902  0.49990721  1
  In  In73  1  0.50059548  0.82880857  0.00156594  1
  In  In74  1  0.33921955  0.65897392  0.75247309  1
  In  In75  1  0.33414052  0.00289589  0.25283678  1
  In  In76  1  0.00386308  0.34181615  0.75096109  1
  In  In77  1  0.34218236  0.66668065  0.25776785  1
  In  In78  1  0.33363343  0.01050557  0.74394115  1
  In  In79  1  0.16001784  0.16534475  0.00143637  1
  In  In80  1  0.65672067  0.33504598  0.74894351  1
  In  In81  1  -0.00585588  0.66288378  0.25533389  1
  In  In82  1  0.50433226  0.50446786  -0.00240886  1
  In  In83  1  0.50305535  0.16852256  0.01410733  1
  In  In84  1  0.15765138  0.16228812  0.48652282  1
  In  In85  1  0.49834773  0.16173183  0.49342439  1
  Cu  Cu86  1  0.83222760  0.83548188  0.25691557  1
  Cu  Cu87  1  0.16099059  0.83611448  0.75521247  1
  Cu  Cu88  1  -0.00116932  0.67169422  0.50863438  1
  Cu  Cu89  1  0.16433325  0.83527473  0.24652406  1
  Cu  Cu90  1  0.83359662  0.17081215  0.24889896  1
  Cu  Cu91  1  0.33800335  0.00211873  0.51044086  1
  Cu  Cu92  1  -0.00234938  0.66962743  -0.00106458  1
  Cu  Cu93  1  0.15894674  0.16241872  0.24734711  1
  Cu  Cu94  1  0.49955305  0.50086688  0.73879508  1
  Cu  Cu95  1  0.66321828  0.33021429  0.48861644  1
  Cu  Cu96  1  -0.00748595  0.33343969  0.49667946  1
  Cu  Cu97  1  0.49717854  0.16760316  0.74947100  1
  Cu  Cu98  1  0.32324109  -0.00701498  -0.00581603  1
  Cu  Cu99  1  -0.00036403  0.33570218  0.00380677  1
  Cu  Cu100  1  0.50270458  0.16188689  0.25143814  1
  Cu  Cu101  1  0.83242209  0.16151932  0.75028888  1
  Cu  Cu102  1  0.33029835  0.33255588  0.49540272  1
  Cu  Cu103  1  0.67570136  0.33957942  0.01097135  1
  Cu  Cu104  1  0.67205545  -0.00734158  -0.00104832  1
  Cu  Cu105  1  0.82814206  0.50028050  0.74669384  1
  Cu  Cu106  1  0.67542279  0.66964472  -0.00077375  1
  Cu  Cu107  1  0.32632744  0.66887919  0.50104720  1
  Cu  Cu108  1  0.82865047  0.50994295  0.25427535  1
  Cu  Cu109  1  0.33827118  0.33717220  -0.00096045  1
  Cu  Cu110  1  0.33540405  0.66143194  -0.00154305  1
  Cu  Cu111  1  0.16641680  0.49589052  0.24292171  1
  Cu  Cu112  1  -0.00518684  -0.00485912  0.50079407  1
  Cu  Cu113  1  0.16289329  0.17352859  0.75339736  1
  Cu  Cu114  1  0.17319595  0.50214081  0.75527589  1
  Se  Se115  1  0.06774448  0.07467169  0.05468051  1
  Se  Se116  1  0.07931960  0.07631416  0.55820086  1
  Se  Se117  1  0.08765960  0.41729143  0.05272431  1
  Se  Se118  1  0.07169810  0.40970440  0.55984852  1
  Se  Se119  1  0.08142154  0.75088108  0.05403902  1
  Se  Se120  1  0.08444932  0.75600910  0.55793528  1
  Se  Se121  1  0.40330772  0.06860197  0.05652396  1
  Se  Se122  1  0.42120015  0.07811655  0.56847374  1
  Se  Se123  1  0.42314629  0.40924077  0.06065268  1
  Se  Se124  1  0.40876268  0.41548094  0.55133186  1
  Se  Se125  1  0.41477952  0.73538735  0.06370917  1
  Se  Se126  1  0.41563844  0.75111263  0.54611938  1
  Se  Se127  1  0.74795355  0.07524065  0.05680125  1
  Se  Se128  1  0.76809051  0.09470094  0.55982276  1
  Se  Se129  1  0.75423579  0.42543367  0.06361483  1
  Se  Se130  1  0.74664565  0.40947081  0.54501052  1
  Se  Se131  1  0.75053883  0.75577546  0.05629464  1
  Se  Se132  1  0.74284894  0.73637879  0.56179299  1
  Se  Se133  1  0.25820740  0.25380824  0.05614042  1
  Se  Se134  1  0.24520730  0.25397123  0.55225052  1
  Se  Se135  1  0.25099255  0.57712607  0.04913402  1
  Se  Se136  1  0.24595057  0.59166343  0.56473727  1
  Se  Se137  1  0.24402986  0.90940078  0.04873093  1
  Se  Se138  1  0.25176435  0.91607414  0.55721495  1
  Se  Se139  1  0.59354137  0.26086603  0.06969884  1
  Se  Se140  1  0.58689532  0.25423770  0.55696577  1
  Se  Se141  1  0.59784071  0.58593637  0.05938481  1
  Se  Se142  1  0.55582880  0.55712484  0.54795657  1
  Se  Se143  1  0.59071362  0.91831632  0.06151817  1
  Se  Se144  1  0.60127522  0.92529108  0.55504964  1
  Se  Se145  1  0.91589991  0.25733054  0.05989629  1
  Se  Se146  1  0.91516974  0.24437311  0.54891555  1
  Se  Se147  1  0.91830912  0.58497222  0.05509721  1
  Se  Se148  1  0.91752610  0.58242416  0.55631659  1
  Se  Se149  1  0.89628745  0.89974636  0.05329287  1
  Se  Se150  1  0.91530624  0.91397663  0.55825480  1
  Se  Se151  1  0.07292919  0.26038972  0.43187788  1
  Se  Se152  1  0.07540460  0.25717571  0.93823387  1
  Se  Se153  1  0.06943515  0.59307889  0.43852719  1
  Se  Se154  1  0.08319731  0.58334943  0.94887816  1
  Se  Se155  1  0.08307532  0.91575647  0.44814930  1
  Se  Se156  1  0.08085937  0.91045518  0.94489302  1
  Se  Se157  1  0.41595576  0.25917268  0.43671026  1
  Se  Se158  1  0.41840435  0.25344984  0.94278966  1
  Se  Se159  1  0.40850123  0.58790253  0.44619471  1
  Se  Se160  1  0.42342953  0.59835988  0.93386883  1
  Se  Se161  1  0.41945668  0.91959262  0.45453026  1
  Se  Se162  1  0.41555962  0.92353508  0.93660257  1
  Se  Se163  1  0.75102904  0.24795597  0.44173177  1
  Se  Se164  1  0.75224273  0.24945566  0.95852213  1
  Se  Se165  1  0.74594243  0.58133100  0.45801724  1
  Se  Se166  1  0.75680360  0.58210918  0.94772246  1
  Se  Se167  1  0.76971741  0.89624302  0.43759769  1
  Se  Se168  1  0.72595507  0.91621176  0.92432743  1
  Se  Se169  1  0.26194406  0.07247072  0.44084491  1
  Se  Se170  1  0.25058276  0.07939829  0.93589680  1
  Se  Se171  1  0.24702270  0.41465368  0.43821163  1
  Se  Se172  1  0.25609982  0.42120776  0.94756033  1
  Se  Se173  1  0.24109066  0.75355631  0.45139393  1
  Se  Se174  1  0.25292386  0.75141120  0.95063981  1
  Se  Se175  1  0.60326046  0.07519698  0.44842969  1
  Se  Se176  1  0.58408385  0.07884231  0.94705519  1
  Se  Se177  1  0.57813638  0.41521037  0.44062280  1
  Se  Se178  1  0.59695020  0.40823759  0.94282622  1
  Se  Se179  1  0.58528136  0.75467855  0.45001698  1
  Se  Se180  1  0.59968284  0.75460213  0.94153068  1
  Se  Se181  1  0.92025730  0.07945793  0.44153945  1
  Se  Se182  1  0.90913763  0.09277619  0.94894247  1
  Se  Se183  1  0.91082834  0.41956375  0.44623948  1
  Se  Se184  1  0.91698531  0.41933063  0.94960041  1
  Se  Se185  1  0.91616629  0.75256716  0.45332905  1
  Se  Se186  1  0.91268174  0.74672024  0.94292441  1
  Se  Se187  1  0.24505288  0.24128441  0.30019352  1
  Se  Se188  1  0.25167455  0.25385501  0.80112293  1
  Se  Se189  1  0.24283162  0.57264502  0.30861935  1
  Se  Se190  1  0.24371672  0.58494133  0.81979880  1
  Se  Se191  1  0.24646152  0.90763586  0.31146451  1
  Se  Se192  1  0.24849773  0.91700154  0.80904670  1
  Se  Se193  1  0.58873534  0.24651230  0.30030322  1
  Se  Se194  1  0.57688224  0.24147634  0.81689427  1
  Se  Se195  1  0.56775401  0.56845132  0.31354858  1
  Se  Se196  1  0.58301307  0.57038499  0.80176043  1
  Se  Se197  1  0.58776550  0.92095024  0.30338140  1
  Se  Se198  1  0.58620634  0.91141238  0.78584581  1
  Se  Se199  1  0.91631852  0.25594344  0.30143494  1
  Se  Se200  1  0.91050512  0.24919454  0.80736675  1
  Se  Se201  1  0.89809106  0.59063992  0.32116664  1
  Se  Se202  1  0.91087943  0.58174832  0.80146820  1
  Se  Se203  1  0.92131908  0.91952694  0.30244979  1
  Se  Se204  1  0.89278171  0.90595814  0.81137599  1
  Se  Se205  1  0.08021409  0.07707991  0.30100468  1
  Se  Se206  1  0.07924817  0.08528635  0.79916877  1
  Se  Se207  1  0.07784632  0.42128033  0.29849156  1
  Se  Se208  1  0.08964837  0.42549552  0.81748690  1
  Se  Se209  1  0.08598165  0.75775749  0.31033282  1
  Se  Se210  1  0.07742180  0.75212341  0.80640433  1
  Se  Se211  1  0.42991459  0.08103477  0.31598573  1
  Se  Se212  1  0.42860939  0.08253091  0.81463661  1
  Se  Se213  1  0.39620937  0.39442504  0.30221060  1
  Se  Se214  1  0.41735952  0.42056836  0.79707108  1
  Se  Se215  1  0.42562673  0.75875505  0.31746761  1
  Se  Se216  1  0.42817433  0.76060002  0.80483373  1
  Se  Se217  1  0.75389359  0.08425068  0.30294307  1
  Se  Se218  1  0.74841835  0.08622489  0.80799710  1
  Se  Se219  1  0.75009358  0.42424396  0.30964271  1
  Se  Se220  1  0.75907625  0.41294076  0.81007950  1
  Se  Se221  1  0.74858260  0.74806766  0.30627394  1
  Se  Se222  1  0.71863379  0.71726128  0.80835753  1
  Se  Se223  1  0.23885617  0.08233436  0.18580374  1
  Se  Se224  1  0.23895214  0.09810752  0.68447108  1
  Se  Se225  1  0.24963465  0.41216731  0.19085879  1
  Se  Se226  1  0.25419871  0.41980325  0.70123840  1
  Se  Se227  1  0.24712612  0.75147534  0.19228893  1
  Se  Se228  1  0.24505714  0.75663553  0.69784779  1
  Se  Se229  1  0.58466239  0.08122465  0.19579465  1
  Se  Se230  1  0.58566975  0.08608389  0.70132998  1
  Se  Se231  1  0.57616044  0.42657445  0.20733154  1
  Se  Se232  1  0.58654059  0.42647837  0.68067628  1
  Se  Se233  1  0.57106888  0.76296292  0.20055216  1
  Se  Se234  1  0.56538985  0.74665512  0.67011729  1
  Se  Se235  1  0.91140524  0.08380896  0.19349317  1
  Se  Se236  1  0.91928640  0.07779815  0.70221675  1
  Se  Se237  1  0.91572919  0.43039360  0.19994411  1
  Se  Se238  1  0.90431095  0.41524076  0.68631293  1
  Se  Se239  1  0.91174301  0.75578556  0.19340742  1
  Se  Se240  1  0.92965064  0.73385029  0.69721496  1
  Se  Se241  1  0.07779357  0.24883907  0.19596546  1
  Se  Se242  1  0.08480706  0.24759012  0.68645010  1
  Se  Se243  1  0.08892595  0.58416692  0.18912733  1
  Se  Se244  1  0.08396732  0.58058153  0.70484239  1
  Se  Se245  1  0.07844155  0.91428067  0.19384611  1
  Se  Se246  1  0.07707866  0.91652215  0.70044403  1
  Se  Se247  1  0.41470614  0.24317858  0.20130709  1
  Se  Se248  1  0.41981249  0.25503113  0.69740075  1
  Se  Se249  1  0.42123917  0.57261664  0.19320742  1
  Se  Se250  1  0.42671567  0.58832280  0.68165619  1
  Se  Se251  1  0.41887946  0.90697137  0.19369861  1
  Se  Se252  1  0.41677169  0.90918645  0.69277441  1
  Se  Se253  1  0.74960362  0.25644151  0.19785493  1
  Se  Se254  1  0.75132656  0.24385779  0.69273322  1
  Se  Se255  1  0.74897488  0.59409998  0.19816904  1
  Se  Se256  1  0.74438148  0.57010197  0.68399784  1
  Se  Se257  1  0.75066573  0.91786384  0.20056564  1
  Se  Se258  1  0.76105810  0.90825354  0.69760286  1
