# generated using pymatgen
data_In86Cu29Se144
_symmetry_space_group_name_H-M   'P 1'
_cell_length_a   17.53932025
_cell_length_b   17.53966014
_cell_length_c   23.39009494
_cell_angle_alpha   90.01565559
_cell_angle_beta   90.00522746
_cell_angle_gamma   89.98073976
_symmetry_Int_Tables_number   1
_chemical_formula_structural   In86Cu29Se144
_chemical_formula_sum   'In86 Cu29 Se144'
_cell_volume   7195.58112310
_cell_formula_units_Z   1
loop_
 _symmetry_equiv_pos_site_id
 _symmetry_equiv_pos_as_xyz
  1  'x, y, z'
loop_
 _atom_site_type_symbol
 _atom_site_label
 _atom_site_symmetry_multiplicity
 _atom_site_fract_x
 _atom_site_fract_y
 _atom_site_fract_z
 _atom_site_occupancy
  In  In0  1  -0.02107175  0.16342082  0.12085440  1
  In  In1  1  -0.00448062  0.18539929  0.62261731  1
  In  In2  1  0.00374063  0.49600598  0.12505051  1
  In  In3  1  -0.00193061  0.50243658  0.62979925  1
  In  In4  1  0.01109411  0.83978068  0.12290533  1
  In  In5  1  -0.01220230  0.81670406  0.61916542  1
  In  In6  1  0.33005740  0.15133246  0.12214029  1
  In  In7  1  0.35423998  0.17905550  0.61622811  1
  In  In8  1  0.34948368  0.49534359  0.12779410  1
  In  In9  1  0.33685446  0.50798054  0.63202322  1
  In  In10  1  0.33442630  0.83349991  0.13027418  1
  In  In11  1  0.30932545  0.79308040  0.59352256  1
  In  In12  1  0.68031051  0.17320572  0.11970149  1
  In  In13  1  0.67648595  0.17891043  0.61818966  1
  In  In14  1  0.64813984  0.50358985  0.12649852  1
  In  In15  1  0.65061639  0.49526753  0.61890018  1
  In  In16  1  0.67034844  0.82318173  0.12004324  1
  In  In17  1  0.65733700  0.81492992  0.60336242  1
  In  In18  1  0.15793390  -0.01235520  0.37130287  1
  In  In19  1  0.15542076  -0.01175713  0.87794548  1
  In  In20  1  0.17549823  0.34179994  0.38406804  1
  In  In21  1  0.18351330  0.35737541  0.84994885  1
  In  In22  1  0.18339411  0.66280617  0.39095688  1
  In  In23  1  0.16930511  0.67120591  0.86237472  1
  In  In24  1  0.49675216  0.00759422  0.37503119  1
  In  In25  1  0.51721978  0.00962097  0.87665425  1
  In  In26  1  0.50124640  0.32514506  0.38591803  1
  In  In27  1  0.49986523  0.33967450  0.87220020  1
  In  In28  1  0.48049721  0.68478313  0.40302339  1
  In  In29  1  0.48275193  0.66080882  0.86957321  1
  In  In30  1  0.84522224  -0.00692445  0.38048288  1
  In  In31  1  0.82341873  0.00473677  0.89089171  1
  In  In32  1  0.82002994  0.34341122  0.38786965  1
  In  In33  1  0.82681832  0.33465008  0.85811543  1
  In  In34  1  0.82412924  0.66365130  0.39740376  1
  In  In35  1  0.84213097  0.66750060  0.86645257  1
  In  In36  1  -0.00028231  0.15630750  0.37603894  1
  In  In37  1  -0.00963936  0.16998507  0.87531674  1
  In  In38  1  -0.00151845  0.50723103  0.38834911  1
  In  In39  1  0.00365468  0.51139643  0.84325974  1
  In  In40  1  -0.00482134  0.83843100  0.38081105  1
  In  In41  1  0.00594382  0.83108440  0.88079056  1
  In  In42  1  0.34589828  0.16850754  0.37701021  1
  In  In43  1  0.33910066  0.18209378  0.87645100  1
  In  In44  1  0.32923805  0.51581489  0.39794023  1
  In  In45  1  0.34543924  0.51963941  0.85159130  1
  In  In46  1  0.33134283  0.83109101  0.38002436  1
  In  In47  1  0.32870955  0.80739216  0.87659573  1
  In  In48  1  0.65375322  0.18064253  0.37739774  1
  In  In49  1  0.66104605  0.17862622  0.88651596  1
  In  In50  1  0.66721377  0.49519601  0.38921189  1
  In  In51  1  0.66299843  0.47707341  0.86053927  1
  In  In52  1  0.66618421  0.82636292  0.38901718  1
  In  In53  1  0.66778313  0.84769844  0.87293876  1
  In  In54  1  0.17896224  -0.01586360  0.13433088  1
  In  In55  1  0.17517268  -0.01417517  0.62247337  1
  In  In56  1  0.16824488  0.33974617  0.12146092  1
  In  In57  1  0.15345778  0.36790193  0.64989293  1
  In  In58  1  0.16639940  0.68081474  0.12511703  1
  In  In59  1  0.16589328  0.65531104  0.62918366  1
  In  In60  1  0.48521023  -0.00432017  0.12598547  1
  In  In61  1  0.49736488  -0.00362525  0.61704310  1
  In  In62  1  0.51262430  0.34271389  0.12205733  1
  In  In63  1  0.50655683  0.33918961  0.63440510  1
  In  In64  1  0.49834836  0.65437882  0.12399228  1
  In  In65  1  0.47657361  0.63552823  0.58160857  1
  In  In66  1  0.83829093  0.00777246  0.12233810  1
  In  In67  1  0.82546344  -0.00681548  0.61688312  1
  In  In68  1  0.83359231  0.31611843  0.12175128  1
  In  In69  1  0.83004601  0.33882911  0.62886783  1
  In  In70  1  0.81920029  0.67012292  0.12140375  1
  In  In71  1  0.83745660  0.67274202  0.61926363  1
  In  In72  1  0.16256947  0.16503087  -0.00233611  1
  In  In73  1  0.66598280  0.00221304  0.25127895  1
  In  In74  1  0.33615763  -0.00399742  0.74421158  1
  In  In75  1  0.82920063  0.49749989  -0.01430597  1
  In  In76  1  -0.00029106  0.66845164  0.26284354  1
  In  In77  1  0.50070715  0.83729512  -0.00064118  1
  In  In78  1  -0.00436653  0.00099080  0.75483349  1
  In  In79  1  -0.00021801  0.32578661  0.24639596  1
  In  In80  1  0.16674885  0.17425139  0.50309756  1
  In  In81  1  0.66818842  0.00057356  0.75368601  1
  In  In82  1  0.33874532  0.33092283  0.25992915  1
  In  In83  1  0.17680676  0.51302849  -0.01783151  1
  In  In84  1  0.65700064  0.65669978  0.73726952  1
  In  In85  1  0.65711664  0.66647145  0.26263471  1
  Cu  Cu86  1  0.83321034  0.17606845  0.74659927  1
  Cu  Cu87  1  0.66973015  0.33608080  -0.00464458  1
  Cu  Cu88  1  -0.00680373  0.34050612  0.51122799  1
  Cu  Cu89  1  0.49918054  0.17002157  0.25033801  1
  Cu  Cu90  1  0.00038972  0.00152493  0.49954423  1
  Cu  Cu91  1  0.66364113  0.66669398  -0.00536730  1
  Cu  Cu92  1  0.49644384  0.50427118  0.25715345  1
  Cu  Cu93  1  0.00189262  0.33362536  -0.01473617  1
  Cu  Cu94  1  0.17405620  0.17180860  0.74468649  1
  Cu  Cu95  1  0.33610120  -0.00491097  0.00069372  1
  Cu  Cu96  1  0.33615413  -0.00330569  0.49606090  1
  Cu  Cu97  1  0.81977979  0.49093493  0.26088507  1
  Cu  Cu98  1  0.35186479  0.33396660  -0.00377709  1
  Cu  Cu99  1  0.00175580  -0.00702219  0.00290801  1
  Cu  Cu100  1  0.33015094  0.34092537  0.51009217  1
  Cu  Cu101  1  0.01396902  0.66357975  0.50694913  1
  Cu  Cu102  1  -0.00834712  0.67219334  -0.00404306  1
  Cu  Cu103  1  0.48288540  0.82482142  0.73693102  1
  Cu  Cu104  1  0.66637633  0.00887328  0.49405347  1
  Cu  Cu105  1  0.84063047  0.83596836  0.25411321  1
  Cu  Cu106  1  0.51098064  0.17510559  0.74953724  1
  Cu  Cu107  1  0.17272188  0.50671304  0.26426066  1
  Cu  Cu108  1  0.83202041  0.83095380  0.74582186  1
  Cu  Cu109  1  0.65980376  0.32715873  0.50665240  1
  Cu  Cu110  1  0.16609021  0.82199558  0.74408373  1
  Cu  Cu111  1  0.16321122  0.15332111  0.25064175  1
  Cu  Cu112  1  0.49201426  0.83120489  0.25798113  1
  Cu  Cu113  1  0.82727685  0.16676341  0.25010649  1
  Cu  Cu114  1  0.17665021  0.83111039  0.25236850  1
  Se  Se115  1  0.08248210  0.07443070  0.06524763  1
  Se  Se116  1  0.07826159  0.07953996  0.56369225  1
  Se  Se117  1  0.08095775  0.41516582  0.04648726  1
  Se  Se118  1  0.08498081  0.42000478  0.55938934  1
  Se  Se119  1  0.08028684  0.74827873  0.05153694  1
  Se  Se120  1  0.09299495  0.75138740  0.55903910  1
  Se  Se121  1  0.41881888  0.08252840  0.04976717  1
  Se  Se122  1  0.41827478  0.08317686  0.54756883  1
  Se  Se123  1  0.42694630  0.42196790  0.05209784  1
  Se  Se124  1  0.41969788  0.41762108  0.56411943  1
  Se  Se125  1  0.41226613  0.74311055  0.05699038  1
  Se  Se126  1  0.44160112  0.77264775  0.54920224  1
  Se  Se127  1  0.76245359  0.09148159  0.05270251  1
  Se  Se128  1  0.75124076  0.08645404  0.55131405  1
  Se  Se129  1  0.74623963  0.41786569  0.06113588  1
  Se  Se130  1  0.74387398  0.41320132  0.55659162  1
  Se  Se131  1  0.75007544  0.74959710  0.04418474  1
  Se  Se132  1  0.78000587  0.77493548  0.55148737  1
  Se  Se133  1  0.26122713  0.25874039  0.05390258  1
  Se  Se134  1  0.24465552  0.26421380  0.57045643  1
  Se  Se135  1  0.25144026  0.58064677  0.06601467  1
  Se  Se136  1  0.25906483  0.58858722  0.55845465  1
  Se  Se137  1  0.25461235  0.91190719  0.05553064  1
  Se  Se138  1  0.24790234  0.91327628  0.54427668  1
  Se  Se139  1  0.59028815  0.25417694  0.05459053  1
  Se  Se140  1  0.57170644  0.24692736  0.55872922  1
  Se  Se141  1  0.58081107  0.58327842  0.04819297  1
  Se  Se142  1  0.61813321  0.60825963  0.54890517  1
  Se  Se143  1  0.59011862  0.92508213  0.06218639  1
  Se  Se144  1  0.58588137  0.92150978  0.54734250  1
  Se  Se145  1  0.92032580  0.25385387  0.04462936  1
  Se  Se146  1  0.90444063  0.25203644  0.55254953  1
  Se  Se147  1  0.91796861  0.58474539  0.05683767  1
  Se  Se148  1  0.92232457  0.58380201  0.55524493  1
  Se  Se149  1  0.91573741  0.91324278  0.05782236  1
  Se  Se150  1  0.91948448  0.91593372  0.55392271  1
  Se  Se151  1  0.07047365  0.26257612  0.44367628  1
  Se  Se152  1  0.09364504  0.26086512  0.92839441  1
  Se  Se153  1  0.09468365  0.57698272  0.45331072  1
  Se  Se154  1  0.06501144  0.58872035  0.93232667  1
  Se  Se155  1  0.08444635  0.91466973  0.45014873  1
  Se  Se156  1  0.08828160  0.90819228  0.95481066  1
  Se  Se157  1  0.40816223  0.25201704  0.45497981  1
  Se  Se158  1  0.43314732  0.24526503  0.94666396  1
  Se  Se159  1  0.42610199  0.57783818  0.46829072  1
  Se  Se160  1  0.40076601  0.58491085  0.94059442  1
  Se  Se161  1  0.42316326  0.91645360  0.44252689  1
  Se  Se162  1  0.41132694  0.91995794  0.93099479  1
  Se  Se163  1  0.74491531  0.24633752  0.45021351  1
  Se  Se164  1  0.76141002  0.26089587  0.94207281  1
  Se  Se165  1  0.74639418  0.57526900  0.46238917  1
  Se  Se166  1  0.73736675  0.58796374  0.92822684  1
  Se  Se167  1  0.75087441  0.92024251  0.44618281  1
  Se  Se168  1  0.74186596  0.91447655  0.95219342  1
  Se  Se169  1  0.25083840  0.08002571  0.43931938  1
  Se  Se170  1  0.25676169  0.07553901  0.93693374  1
  Se  Se171  1  0.24429082  0.42371439  0.45866226  1
  Se  Se172  1  0.26635886  0.41055104  0.93601905  1
  Se  Se173  1  0.26331731  0.74881030  0.45813744  1
  Se  Se174  1  0.23805059  0.73965495  0.94526079  1
  Se  Se175  1  0.57703387  0.09060743  0.44458752  1
  Se  Se176  1  0.59959662  0.07598337  0.95107312  1
  Se  Se177  1  0.57666560  0.41400936  0.45438222  1
  Se  Se178  1  0.58472786  0.41999905  0.94383107  1
  Se  Se179  1  0.60632783  0.72445800  0.45387414  1
  Se  Se180  1  0.58224216  0.74508974  0.93201870  1
  Se  Se181  1  0.91516702  0.08704608  0.45050134  1
  Se  Se182  1  0.92392761  0.08256402  0.94926834  1
  Se  Se183  1  0.91186397  0.42229232  0.45209139  1
  Se  Se184  1  0.92862022  0.41995374  0.92499620  1
  Se  Se185  1  0.92827587  0.74237444  0.44903627  1
  Se  Se186  1  0.90789531  0.75389397  0.94256954  1
  Se  Se187  1  0.23667891  0.24013070  0.31144551  1
  Se  Se188  1  0.26055815  0.24990461  0.79846917  1
  Se  Se189  1  0.26017311  0.58626417  0.31422286  1
  Se  Se190  1  0.22284851  0.56245882  0.79995020  1
  Se  Se191  1  0.25642944  0.91721897  0.30732511  1
  Se  Se192  1  0.24282504  0.90776962  0.80613906  1
  Se  Se193  1  0.57608607  0.25832170  0.30305970  1
  Se  Se194  1  0.59152906  0.25542684  0.80754985  1
  Se  Se195  1  0.56866490  0.58211146  0.32530247  1
  Se  Se196  1  0.57063344  0.57196860  0.80465070  1
  Se  Se197  1  0.58315292  0.90522153  0.31240280  1
  Se  Se198  1  0.56389940  0.90480214  0.79941173  1
  Se  Se199  1  0.90732734  0.24772436  0.31293290  1
  Se  Se200  1  0.92449969  0.25204367  0.79867952  1
  Se  Se201  1  0.90094452  0.57675823  0.31514883  1
  Se  Se202  1  0.90042085  0.58453161  0.78798277  1
  Se  Se203  1  0.92458869  0.92020843  0.30386231  1
  Se  Se204  1  0.90169921  0.91382643  0.81307683  1
  Se  Se205  1  0.07627480  0.07543492  0.30390403  1
  Se  Se206  1  0.09517743  0.09249637  0.80765838  1
  Se  Se207  1  0.08378688  0.42124181  0.31159611  1
  Se  Se208  1  0.07556456  0.40809089  0.78561696  1
  Se  Se209  1  0.09806480  0.75381953  0.31818001  1
  Se  Se210  1  0.07380502  0.75248377  0.80144156  1
  Se  Se211  1  0.41571388  0.08553339  0.30137436  1
  Se  Se212  1  0.42699455  0.08881245  0.80527358  1
  Se  Se213  1  0.41718964  0.42707361  0.32206647  1
  Se  Se214  1  0.40569971  0.40401463  0.80036600  1
  Se  Se215  1  0.41679138  0.74347733  0.31343816  1
  Se  Se216  1  0.40577268  0.74235660  0.79580775  1
  Se  Se217  1  0.75295237  0.08794899  0.31617729  1
  Se  Se218  1  0.75783269  0.09414989  0.81088489  1
  Se  Se219  1  0.73455113  0.41005669  0.31145430  1
  Se  Se220  1  0.76498596  0.43221675  0.79030904  1
  Se  Se221  1  0.76138811  0.75411185  0.31411664  1
  Se  Se222  1  0.74223620  0.75394736  0.80347079  1
  Se  Se223  1  0.25571191  0.07785553  0.19969053  1
  Se  Se224  1  0.24975420  0.09053818  0.68299345  1
  Se  Se225  1  0.24467730  0.42074724  0.19920720  1
  Se  Se226  1  0.27519943  0.40982841  0.70348634  1
  Se  Se227  1  0.25552727  0.74427996  0.19913308  1
  Se  Se228  1  0.25616389  0.74511977  0.69119533  1
  Se  Se229  1  0.57793331  0.08997711  0.18801848  1
  Se  Se230  1  0.58055211  0.08662890  0.68826309  1
  Se  Se231  1  0.57966442  0.42087534  0.20302280  1
  Se  Se232  1  0.59365016  0.41732605  0.70232357  1
  Se  Se233  1  0.57420353  0.75691272  0.19351342  1
  Se  Se234  1  0.56978933  0.74941591  0.67932789  1
  Se  Se235  1  0.91433415  0.08339873  0.20029628  1
  Se  Se236  1  0.90786722  0.08692090  0.68842251  1
  Se  Se237  1  0.90432423  0.42330503  0.19313659  1
  Se  Se238  1  0.93235212  0.39971058  0.69416219  1
  Se  Se239  1  0.91189946  0.74959664  0.19173978  1
  Se  Se240  1  0.91715971  0.74414746  0.69920699  1
  Se  Se241  1  0.09290176  0.23623781  0.18489432  1
  Se  Se242  1  0.08342192  0.25055751  0.69614548  1
  Se  Se243  1  0.08786667  0.57802412  0.19807202  1
  Se  Se244  1  0.08113625  0.58260762  0.70091266  1
  Se  Se245  1  0.08528127  0.91191001  0.20243221  1
  Se  Se246  1  0.08262093  0.90900545  0.69166203  1
  Se  Se247  1  0.41808483  0.24723505  0.18658558  1
  Se  Se248  1  0.41901754  0.25142500  0.69876005  1
  Se  Se249  1  0.41504324  0.58569773  0.20080670  1
  Se  Se250  1  0.43812854  0.59392310  0.68279531  1
  Se  Se251  1  0.41443260  0.91606649  0.20198871  1
  Se  Se252  1  0.40653384  0.90355136  0.67488835  1
  Se  Se253  1  0.74720208  0.25427802  0.19899388  1
  Se  Se254  1  0.74298172  0.25632022  0.69797980  1
  Se  Se255  1  0.74916476  0.57942931  0.19742039  1
  Se  Se256  1  0.75691473  0.57562234  0.68123017  1
  Se  Se257  1  0.75417971  0.90760403  0.19284858  1
  Se  Se258  1  0.74466598  0.90551322  0.68766401  1
