# generated using pymatgen
data_In86Cu29Se144
_symmetry_space_group_name_H-M   'P 1'
_cell_length_a   17.58561817
_cell_length_b   17.58841207
_cell_length_c   23.44471665
_cell_angle_alpha   89.96696403
_cell_angle_beta   90.00392596
_cell_angle_gamma   89.98642719
_symmetry_Int_Tables_number   1
_chemical_formula_structural   In86Cu29Se144
_chemical_formula_sum   'In86 Cu29 Se144'
_cell_volume   7251.52208787
_cell_formula_units_Z   1
loop_
 _symmetry_equiv_pos_site_id
 _symmetry_equiv_pos_as_xyz
  1  'x, y, z'
loop_
 _atom_site_type_symbol
 _atom_site_label
 _atom_site_symmetry_multiplicity
 _atom_site_fract_x
 _atom_site_fract_y
 _atom_site_fract_z
 _atom_site_occupancy
  In  In0  1  -0.00176222  0.17605333  0.13198066  1
  In  In1  1  0.00611611  0.16784822  0.62498806  1
  In  In2  1  -0.01374521  0.48823087  0.11390625  1
  In  In3  1  -0.00317265  0.49314983  0.63144064  1
  In  In4  1  -0.00796752  0.84225486  0.13632597  1
  In  In5  1  0.00275812  0.84177140  0.61211842  1
  In  In6  1  0.35014405  0.16559065  0.12519404  1
  In  In7  1  0.31451541  0.17088949  0.62630985  1
  In  In8  1  0.33339568  0.49777630  0.11426093  1
  In  In9  1  0.35179525  0.49929532  0.62869291  1
  In  In10  1  0.33650154  0.82200969  0.12484747  1
  In  In11  1  0.33344123  0.83261825  0.62927651  1
  In  In12  1  0.66826503  0.16738589  0.12629686  1
  In  In13  1  0.67579611  0.17584982  0.62728190  1
  In  In14  1  0.66451997  0.50041939  0.12120281  1
  In  In15  1  0.64151435  0.52227655  0.64713722  1
  In  In16  1  0.66256898  0.84163592  0.13441560  1
  In  In17  1  0.65500255  0.82305167  0.61276305  1
  In  In18  1  0.15595190  0.01134244  0.38388571  1
  In  In19  1  0.16871742  -0.00993118  0.87448728  1
  In  In20  1  0.14960285  0.30978271  0.35303028  1
  In  In21  1  0.16514903  0.35545792  0.87073789  1
  In  In22  1  0.18261831  0.66782726  0.38235161  1
  In  In23  1  0.17437768  0.64260491  0.87017197  1
  In  In24  1  0.49893879  -0.01292915  0.37318714  1
  In  In25  1  0.49498096  0.00814894  0.88031436  1
  In  In26  1  0.50655445  0.34353164  0.36653212  1
  In  In27  1  0.50943628  0.32834711  0.88041294  1
  In  In28  1  0.50846046  0.65924419  0.37851569  1
  In  In29  1  0.50641514  0.66678697  0.87789690  1
  In  In30  1  0.82765002  -0.01495187  0.35705268  1
  In  In31  1  0.83863390  0.01030163  0.88308590  1
  In  In32  1  0.83640707  0.33335064  0.36798313  1
  In  In33  1  0.83260739  0.33811898  0.88309243  1
  In  In34  1  0.82720975  0.68335347  0.36933062  1
  In  In35  1  0.80993429  0.65880080  0.87639994  1
  In  In36  1  0.01131487  0.16773102  0.36250208  1
  In  In37  1  -0.01905947  0.17457333  0.88669777  1
  In  In38  1  0.00440209  0.48672008  0.37386455  1
  In  In39  1  0.01294942  0.48752633  0.88371762  1
  In  In40  1  -0.01116559  0.84439456  0.38058560  1
  In  In41  1  0.00181222  0.84032688  0.87640299  1
  In  In42  1  0.31276085  0.16913708  0.37329549  1
  In  In43  1  0.34677886  0.16774461  0.87457233  1
  In  In44  1  0.34520652  0.49677946  0.37673864  1
  In  In45  1  0.33524484  0.50511284  0.87367495  1
  In  In46  1  0.33952126  0.83132027  0.38739377  1
  In  In47  1  0.34698065  0.83907556  0.86695738  1
  In  In48  1  0.67689364  0.17354576  0.36552230  1
  In  In49  1  0.66189042  0.17713899  0.88778312  1
  In  In50  1  0.65873730  0.49431926  0.36535692  1
  In  In51  1  0.66677297  0.50653348  0.88505707  1
  In  In52  1  0.66364592  0.82931259  0.36876862  1
  In  In53  1  0.65918293  0.81087590  0.87505099  1
  In  In54  1  0.16105030  0.00759951  0.13830152  1
  In  In55  1  0.16763852  0.00829160  0.62184359  1
  In  In56  1  0.15800179  0.33987501  0.13323968  1
  In  In57  1  0.16407713  0.31999851  0.62160485  1
  In  In58  1  0.17538636  0.66351230  0.12139620  1
  In  In59  1  0.16312936  0.67876297  0.62750108  1
  In  In60  1  0.51133977  0.01404140  0.11699949  1
  In  In61  1  0.50069711  -0.01907484  0.62428247  1
  In  In62  1  0.50485848  0.33529677  0.12215923  1
  In  In63  1  0.49581636  0.34842730  0.62558323  1
  In  In64  1  0.51806464  0.68033273  0.10001971  1
  In  In65  1  0.49760227  0.66843453  0.62788277  1
  In  In66  1  0.82326703  0.00114745  0.13218814  1
  In  In67  1  0.84422664  0.00223338  0.62045958  1
  In  In68  1  0.83237086  0.33009200  0.12561520  1
  In  In69  1  0.82319243  0.33934592  0.63230233  1
  In  In70  1  0.82614425  0.65243480  0.12082158  1
  In  In71  1  0.82054622  0.66396807  0.62373715  1
  In  In72  1  0.33634100  0.00296798  0.25342851  1
  In  In73  1  0.49481719  0.16210199  0.49532455  1
  In  In74  1  0.16934674  0.17159087  0.01029740  1
  In  In75  1  0.16832966  0.83094108  0.00020005  1
  In  In76  1  0.82806130  0.49939978  0.49628197  1
  In  In77  1  0.17326021  0.49548057  0.50547508  1
  In  In78  1  0.82713155  0.83304198  0.00477994  1
  In  In79  1  0.83768116  0.16659411  0.49265380  1
  In  In80  1  0.33974951  0.65831264  0.25125735  1
  In  In81  1  -0.00280230  0.66185381  0.25241887  1
  In  In82  1  0.00194240  0.00401987  0.75096435  1
  In  In83  1  0.66436847  -0.00097993  0.74659779  1
  In  In84  1  0.33410892  0.33785246  0.75244051  1
  In  In85  1  -0.00156757  0.66268081  0.75001200  1
  Cu  Cu86  1  0.16275966  0.16620629  0.74914558  1
  Cu  Cu87  1  0.49767874  0.16406187  0.75589365  1
  Cu  Cu88  1  0.33282933  -0.00353210  0.00133047  1
  Cu  Cu89  1  -0.00100018  0.66932744  -0.00164128  1
  Cu  Cu90  1  0.83043740  0.49414578  0.75814849  1
  Cu  Cu91  1  0.66691837  -0.00280853  0.00533098  1
  Cu  Cu92  1  0.50405596  0.83468595  0.24576038  1
  Cu  Cu93  1  0.50104082  0.50235285  0.24103458  1
  Cu  Cu94  1  0.83045357  0.49374324  0.24345998  1
  Cu  Cu95  1  0.82766727  0.82963991  0.74585449  1
  Cu  Cu96  1  0.66210193  0.67053677  0.50111927  1
  Cu  Cu97  1  0.16271704  0.83708482  0.25991281  1
  Cu  Cu98  1  0.34112063  0.67374862  0.50508404  1
  Cu  Cu99  1  0.67298006  0.33161320  0.00474534  1
  Cu  Cu100  1  0.65688333  0.34852781  0.50114660  1
  Cu  Cu101  1  0.33192561  -0.00576903  0.50373703  1
  Cu  Cu102  1  -0.00307029  -0.00274308  0.49311236  1
  Cu  Cu103  1  0.16253303  0.49212992  0.24303892  1
  Cu  Cu104  1  0.50067470  0.82503348  0.74899118  1
  Cu  Cu105  1  0.67177652  -0.00679217  0.49001025  1
  Cu  Cu106  1  0.50603958  0.17152713  0.24724083  1
  Cu  Cu107  1  0.33434408  0.66423647  -0.00537729  1
  Cu  Cu108  1  0.17651232  0.82918934  0.75136165  1
  Cu  Cu109  1  0.82825589  0.18066741  0.75927025  1
  Cu  Cu110  1  0.33975893  0.33602467  -0.00584612  1
  Cu  Cu111  1  0.83413341  0.16482692  0.24676076  1
  Cu  Cu112  1  0.00052714  0.66990853  0.49848220  1
  Cu  Cu113  1  0.00113238  0.33451466  0.00562642  1
  Cu  Cu114  1  0.32939692  0.33307348  0.50014818  1
  Se  Se115  1  0.07737189  0.07777718  0.06216184  1
  Se  Se116  1  0.07453570  0.07953466  0.55315785  1
  Se  Se117  1  0.09013415  0.41811290  0.05369469  1
  Se  Se118  1  0.07261300  0.40815640  0.55662486  1
  Se  Se119  1  0.07236918  0.74826904  0.06365443  1
  Se  Se120  1  0.08642765  0.75136272  0.55060188  1
  Se  Se121  1  0.41799627  0.08465542  0.04849525  1
  Se  Se122  1  0.40936426  0.07870133  0.56405641  1
  Se  Se123  1  0.42313177  0.41694752  0.05027742  1
  Se  Se124  1  0.41525737  0.41788428  0.54868180  1
  Se  Se125  1  0.41174028  0.75509042  0.04574520  1
  Se  Se126  1  0.42207272  0.75769692  0.55864169  1
  Se  Se127  1  0.74999212  0.08144514  0.05686583  1
  Se  Se128  1  0.74216803  0.07782023  0.55392894  1
  Se  Se129  1  0.75546781  0.41771189  0.05639072  1
  Se  Se130  1  0.73625637  0.42419865  0.56413785  1
  Se  Se131  1  0.73611645  0.74443291  0.06114470  1
  Se  Se132  1  0.75395151  0.75052797  0.54955463  1
  Se  Se133  1  0.26327994  0.26289161  0.06320493  1
  Se  Se134  1  0.24470257  0.24562640  0.54678128  1
  Se  Se135  1  0.24822229  0.58373482  0.04761295  1
  Se  Se136  1  0.25959189  0.59102214  0.56368528  1
  Se  Se137  1  0.25181218  0.92466208  0.06560503  1
  Se  Se138  1  0.24792363  0.91523644  0.56018040  1
  Se  Se139  1  0.58579667  0.24711341  0.05491658  1
  Se  Se140  1  0.58480153  0.25386199  0.55576348  1
  Se  Se141  1  0.57125721  0.56420848  0.04880393  1
  Se  Se142  1  0.58328260  0.58570533  0.55757007  1
  Se  Se143  1  0.58277459  0.91268174  0.05633800  1
  Se  Se144  1  0.58392302  0.91821702  0.54635227  1
  Se  Se145  1  0.91848154  0.24862705  0.05605122  1
  Se  Se146  1  0.91361201  0.25555274  0.56232770  1
  Se  Se147  1  0.91472069  0.58423230  0.04889531  1
  Se  Se148  1  0.92325541  0.58737929  0.55872740  1
  Se  Se149  1  0.91987736  0.92346111  0.05974249  1
  Se  Se150  1  0.91011733  0.91674369  0.54587760  1
  Se  Se151  1  0.08397763  0.24666896  0.43834463  1
  Se  Se152  1  0.08555034  0.25938636  0.94272211  1
  Se  Se153  1  0.07909226  0.58570001  0.44166502  1
  Se  Se154  1  0.08536690  0.58636663  0.94751037  1
  Se  Se155  1  0.08658935  0.91151023  0.44730409  1
  Se  Se156  1  0.07349832  0.92874917  0.94978548  1
  Se  Se157  1  0.41147556  0.25728855  0.43627310  1
  Se  Se158  1  0.42202098  0.24616864  0.94787699  1
  Se  Se159  1  0.41455198  0.58767554  0.44640741  1
  Se  Se160  1  0.42008162  0.58072989  0.94443834  1
  Se  Se161  1  0.42250351  0.91798453  0.45238984  1
  Se  Se162  1  0.41606152  0.91633343  0.94590695  1
  Se  Se163  1  0.74029404  0.26574310  0.44458076  1
  Se  Se164  1  0.75825529  0.24705976  0.95274753  1
  Se  Se165  1  0.74013869  0.59108441  0.43706699  1
  Se  Se166  1  0.75050117  0.58383359  0.95763402  1
  Se  Se167  1  0.75318112  0.91151298  0.43579515  1
  Se  Se168  1  0.73955024  0.91990338  0.93693894  1
  Se  Se169  1  0.25257654  0.08160256  0.45015367  1
  Se  Se170  1  0.25348432  0.07982008  0.94265429  1
  Se  Se171  1  0.25015478  0.40937566  0.43519859  1
  Se  Se172  1  0.25418745  0.41953882  0.94390639  1
  Se  Se173  1  0.25115975  0.75353702  0.45523490  1
  Se  Se174  1  0.25363207  0.74632648  0.93378130  1
  Se  Se175  1  0.59387196  0.08093884  0.43498029  1
  Se  Se176  1  0.58472964  0.08102697  0.94902963  1
  Se  Se177  1  0.57558261  0.42696307  0.44316110  1
  Se  Se178  1  0.58800959  0.41211809  0.95014190  1
  Se  Se179  1  0.58106121  0.75378585  0.44418021  1
  Se  Se180  1  0.57616543  0.75336776  0.95267437  1
  Se  Se181  1  0.91857267  0.07480040  0.42928508  1
  Se  Se182  1  0.91873890  0.08148992  0.95620126  1
  Se  Se183  1  0.92305896  0.40373600  0.44637082  1
  Se  Se184  1  0.91875278  0.41938773  0.95192470  1
  Se  Se185  1  0.91398805  0.74835630  0.44460512  1
  Se  Se186  1  0.91807213  0.74708206  0.93780935  1
  Se  Se187  1  0.27016185  0.26756280  0.29978292  1
  Se  Se188  1  0.24297652  0.24494320  0.81232336  1
  Se  Se189  1  0.24028606  0.57021321  0.30682376  1
  Se  Se190  1  0.25255682  0.57120536  0.79634201  1
  Se  Se191  1  0.25092371  0.91177205  0.31658711  1
  Se  Se192  1  0.25374983  0.91917232  0.80291652  1
  Se  Se193  1  0.58822369  0.25557201  0.30148398  1
  Se  Se194  1  0.58430113  0.24363417  0.80727418  1
  Se  Se195  1  0.58011267  0.58541882  0.29934602  1
  Se  Se196  1  0.60147570  0.59622258  0.81157190  1
  Se  Se197  1  0.58441659  0.91973689  0.29966096  1
  Se  Se198  1  0.57788075  0.91064564  0.80981276  1
  Se  Se199  1  0.91688355  0.24807743  0.30119968  1
  Se  Se200  1  0.91757247  0.25829860  0.81024177  1
  Se  Se201  1  0.90565202  0.57054593  0.31212593  1
  Se  Se202  1  0.91256036  0.57783027  0.81608292  1
  Se  Se203  1  0.92454380  0.90967500  0.29598640  1
  Se  Se204  1  0.90370012  0.91189947  0.80616336  1
  Se  Se205  1  0.09360389  0.07852309  0.29955406  1
  Se  Se206  1  0.08483417  0.09320307  0.81689393  1
  Se  Se207  1  0.07488584  0.41279500  0.29518593  1
  Se  Se208  1  0.07800116  0.42125516  0.79855361  1
  Se  Se209  1  0.08897924  0.74737244  0.31606335  1
  Se  Se210  1  0.09038969  0.75473185  0.81130045  1
  Se  Se211  1  0.42651231  0.09586554  0.31327582  1
  Se  Se212  1  0.41327035  0.07720735  0.80236406  1
  Se  Se213  1  0.41814757  0.42255349  0.29829571  1
  Se  Se214  1  0.43070578  0.41961781  0.81022246  1
  Se  Se215  1  0.42303661  0.75750314  0.30849722  1
  Se  Se216  1  0.41888598  0.74214348  0.80406636  1
  Se  Se217  1  0.74779001  0.08168381  0.29776944  1
  Se  Se218  1  0.75064060  0.08850863  0.81100035  1
  Se  Se219  1  0.74864551  0.41257273  0.30174172  1
  Se  Se220  1  0.74610639  0.41717069  0.81511629  1
  Se  Se221  1  0.73681556  0.74276207  0.29703267  1
  Se  Se222  1  0.74723565  0.74644083  0.79974153  1
  Se  Se223  1  0.25006488  0.09904753  0.19664720  1
  Se  Se224  1  0.24655897  0.08147917  0.69882711  1
  Se  Se225  1  0.25670668  0.42121955  0.19062732  1
  Se  Se226  1  0.24583286  0.41745932  0.68404381  1
  Se  Se227  1  0.24123589  0.75555910  0.19934459  1
  Se  Se228  1  0.25572161  0.74310273  0.69860976  1
  Se  Se229  1  0.58601899  0.08213195  0.19681116  1
  Se  Se230  1  0.57420166  0.09079046  0.68638507  1
  Se  Se231  1  0.58705006  0.41530687  0.19355505  1
  Se  Se232  1  0.59388433  0.40031195  0.69571273  1
  Se  Se233  1  0.57606974  0.74418461  0.19014139  1
  Se  Se234  1  0.58928836  0.74983997  0.69421722  1
  Se  Se235  1  0.91758668  0.08205537  0.19406693  1
  Se  Se236  1  0.90466982  0.09762495  0.69689645  1
  Se  Se237  1  0.91952441  0.41266955  0.19448180  1
  Se  Se238  1  0.91284812  0.41533932  0.70041728  1
  Se  Se239  1  0.90461539  0.74654672  0.19180291  1
  Se  Se240  1  0.91650094  0.75848513  0.68620767  1
  Se  Se241  1  0.09255461  0.24384635  0.19954763  1
  Se  Se242  1  0.08015417  0.25104327  0.69790264  1
  Se  Se243  1  0.08465689  0.57761283  0.18534502  1
  Se  Se244  1  0.09305378  0.57512312  0.69245225  1
  Se  Se245  1  0.08266635  0.91739151  0.20315680  1
  Se  Se246  1  0.08887334  0.90779081  0.69356851  1
  Se  Se247  1  0.42226427  0.25387866  0.19466491  1
  Se  Se248  1  0.42006773  0.24252834  0.69013967  1
  Se  Se249  1  0.42566063  0.58547758  0.17944234  1
  Se  Se250  1  0.43349035  0.57379406  0.69876065  1
  Se  Se251  1  0.42153783  0.91491307  0.18726819  1
  Se  Se252  1  0.41790724  0.91429566  0.70001710  1
  Se  Se253  1  0.74925798  0.25049604  0.19638764  1
  Se  Se254  1  0.74233380  0.25739287  0.70344617  1
  Se  Se255  1  0.74593659  0.57964433  0.19564953  1
  Se  Se256  1  0.75594379  0.58303342  0.70159351  1
  Se  Se257  1  0.75699657  0.90792256  0.20153347  1
  Se  Se258  1  0.75428169  0.91288736  0.68319348  1
