# generated using pymatgen
data_In86Cu29Se144
_symmetry_space_group_name_H-M   'P 1'
_cell_length_a   17.58077028
_cell_length_b   17.58190184
_cell_length_c   23.43965190
_cell_angle_alpha   90.02596565
_cell_angle_beta   90.01375320
_cell_angle_gamma   89.99593049
_symmetry_Int_Tables_number   1
_chemical_formula_structural   In86Cu29Se144
_chemical_formula_sum   'In86 Cu29 Se144'
_cell_volume   7245.27459476
_cell_formula_units_Z   1
loop_
 _symmetry_equiv_pos_site_id
 _symmetry_equiv_pos_as_xyz
  1  'x, y, z'
loop_
 _atom_site_type_symbol
 _atom_site_label
 _atom_site_symmetry_multiplicity
 _atom_site_fract_x
 _atom_site_fract_y
 _atom_site_fract_z
 _atom_site_occupancy
  In  In0  1  -0.01197533  0.17365370  0.14348774  1
  In  In1  1  0.00469015  0.15708967  0.63594925  1
  In  In2  1  0.00738529  0.49497107  0.12585310  1
  In  In3  1  -0.00366985  0.49990970  0.63042092  1
  In  In4  1  0.01513122  0.82465811  0.12984824  1
  In  In5  1  0.00816340  0.82506800  0.63008170  1
  In  In6  1  0.34661444  0.16450028  0.12394481  1
  In  In7  1  0.34274487  0.17666130  0.61471029  1
  In  In8  1  0.32178406  0.51414637  0.13805613  1
  In  In9  1  0.33680960  0.49998463  0.63470638  1
  In  In10  1  0.32065840  0.82508451  0.11508892  1
  In  In11  1  0.32246330  0.82579915  0.61849912  1
  In  In12  1  0.66326620  0.18249133  0.12916742  1
  In  In13  1  0.65354752  0.17887552  0.62067105  1
  In  In14  1  0.66304640  0.50326679  0.14497018  1
  In  In15  1  0.66848795  0.49680728  0.63203514  1
  In  In16  1  0.65398028  0.83060401  0.12381312  1
  In  In17  1  0.65749622  0.83294931  0.62582796  1
  In  In18  1  0.16516773  0.00750702  0.38780095  1
  In  In19  1  0.15416912  -0.00498503  0.87420872  1
  In  In20  1  0.16326766  0.32978835  0.37189394  1
  In  In21  1  0.17072385  0.34263277  0.87023724  1
  In  In22  1  0.17454261  0.66724746  0.36995887  1
  In  In23  1  0.16627241  0.66273647  0.87854468  1
  In  In24  1  0.48198977  0.00642573  0.39511232  1
  In  In25  1  0.49789156  0.00025339  0.87843256  1
  In  In26  1  0.49678262  0.32995839  0.36648096  1
  In  In27  1  0.49555995  0.33093378  0.87081548  1
  In  In28  1  0.50302237  0.66873904  0.36906674  1
  In  In29  1  0.50417948  0.66994513  0.87469273  1
  In  In30  1  0.84344768  -0.00129262  0.37137541  1
  In  In31  1  0.84284470  -0.00510494  0.87166467  1
  In  In32  1  0.82766097  0.32550490  0.36025951  1
  In  In33  1  0.83459560  0.33305671  0.86529309  1
  In  In34  1  0.82417324  0.65414109  0.35652318  1
  In  In35  1  0.83615584  0.66686092  0.87029797  1
  In  In36  1  0.01111439  0.17934960  0.36747936  1
  In  In37  1  -0.00235081  0.16818068  0.86113169  1
  In  In38  1  -0.01389083  0.49433057  0.35791576  1
  In  In39  1  0.01320475  0.50903242  0.87162346  1
  In  In40  1  0.01198083  0.83417165  0.37048360  1
  In  In41  1  0.00788642  0.83231108  0.87530524  1
  In  In42  1  0.32438635  0.17238054  0.38457800  1
  In  In43  1  0.33646163  0.18284611  0.87270120  1
  In  In44  1  0.34562846  0.50164419  0.35533788  1
  In  In45  1  0.32238517  0.49314580  0.87159900  1
  In  In46  1  0.33617282  0.82730795  0.38605033  1
  In  In47  1  0.33853566  0.82405348  0.87938563  1
  In  In48  1  0.65765283  0.16377542  0.37677417  1
  In  In49  1  0.65400579  0.16972846  0.87196691  1
  In  In50  1  0.65628886  0.49117410  0.35406496  1
  In  In51  1  0.66912037  0.50183215  0.87075003  1
  In  In52  1  0.65250968  0.82230545  0.37383314  1
  In  In53  1  0.66526864  0.82094517  0.87532762  1
  In  In54  1  0.16454056  -0.01135486  0.12257220  1
  In  In55  1  0.16120326  -0.01046617  0.61658995  1
  In  In56  1  0.15933896  0.34150187  0.12954423  1
  In  In57  1  0.17414600  0.32802476  0.62787719  1
  In  In58  1  0.16626720  0.66953871  0.12055769  1
  In  In59  1  0.15745123  0.67310398  0.63013383  1
  In  In60  1  0.49369502  -0.00411121  0.11674256  1
  In  In61  1  0.48383491  -0.00785201  0.60666136  1
  In  In62  1  0.50396469  0.33434468  0.13395001  1
  In  In63  1  0.50664524  0.32635629  0.62813561  1
  In  In64  1  0.48802824  0.67220637  0.13598269  1
  In  In65  1  0.49671589  0.67026287  0.63397920  1
  In  In66  1  0.84073973  0.01292312  0.13173370  1
  In  In67  1  0.84993008  0.01174663  0.62826085  1
  In  In68  1  0.83000973  0.34317869  0.14033898  1
  In  In69  1  0.82516065  0.32727801  0.63354731  1
  In  In70  1  0.84234235  0.65355303  0.13851619  1
  In  In71  1  0.83476215  0.66446785  0.63284123  1
  In  In72  1  0.16631739  0.49901556  0.49342328  1
  In  In73  1  0.83131042  0.16823799  0.50112161  1
  In  In74  1  0.32747794  0.00112837  0.25621307  1
  In  In75  1  0.82990844  0.49655984  0.49741835  1
  In  In76  1  0.67278897  0.00855718  0.74090458  1
  In  In77  1  0.49619336  0.50224423  0.01215928  1
  In  In78  1  0.66782449  -0.00188605  0.25897605  1
  In  In79  1  0.16783564  0.16269936  -0.00281429  1
  In  In80  1  0.83502720  0.83188812  -0.00435421  1
  In  In81  1  0.50166967  0.49866261  0.48939963  1
  In  In82  1  0.83147624  0.17102839  0.00698177  1
  In  In83  1  0.83004775  0.83014994  0.49117632  1
  In  In84  1  0.32936309  0.00096099  0.73673559  1
  In  In85  1  0.83757325  0.49731806  0.01141234  1
  Cu  Cu86  1  0.83078308  0.49779971  0.75143268  1
  Cu  Cu87  1  0.00512111  0.33840136  0.00032649  1
  Cu  Cu88  1  0.32686868  0.66976659  0.50279388  1
  Cu  Cu89  1  0.16636899  0.17284654  0.74918741  1
  Cu  Cu90  1  0.33367273  0.66710786  0.00276749  1
  Cu  Cu91  1  0.33591219  0.33505359  0.49633031  1
  Cu  Cu92  1  0.65999059  0.66440399  0.49527876  1
  Cu  Cu93  1  0.16810492  0.83164782  0.74849422  1
  Cu  Cu94  1  0.84175943  0.83158933  0.75301265  1
  Cu  Cu95  1  0.65563232  0.00243801  -0.00106939  1
  Cu  Cu96  1  0.49883455  0.50309754  0.75351043  1
  Cu  Cu97  1  0.16612980  0.49935322  0.24803692  1
  Cu  Cu98  1  0.49650807  0.17266018  0.74461792  1
  Cu  Cu99  1  0.66078353  -0.00124700  0.50035910  1
  Cu  Cu100  1  0.16849372  0.16675862  0.25673110  1
  Cu  Cu101  1  0.65701820  0.33061081  0.00381771  1
  Cu  Cu102  1  0.00577816  0.67218658  0.49645841  1
  Cu  Cu103  1  0.16329189  0.50229007  0.75052563  1
  Cu  Cu104  1  0.33709363  -0.00357414  -0.00286577  1
  Cu  Cu105  1  0.83529968  0.83499402  0.25150848  1
  Cu  Cu106  1  0.48897531  0.83230926  0.25318727  1
  Cu  Cu107  1  0.66658135  0.67051125  0.00239354  1
  Cu  Cu108  1  0.00431740  -0.00014497  0.50228153  1
  Cu  Cu109  1  0.50535796  0.82750136  0.75216068  1
  Cu  Cu110  1  0.00390040  0.32576922  0.49628497  1
  Cu  Cu111  1  0.50381325  0.16993833  0.24954001  1
  Cu  Cu112  1  0.00276732  -0.00106958  0.00280627  1
  Cu  Cu113  1  0.16899853  0.82876811  0.24628546  1
  Cu  Cu114  1  0.33473502  0.33376634  -0.00295004  1
  Se  Se115  1  0.07301780  0.08687527  0.06429428  1
  Se  Se116  1  0.08151039  0.08749907  0.55679739  1
  Se  Se117  1  0.08995868  0.42025819  0.05143276  1
  Se  Se118  1  0.07674190  0.41297923  0.55695998  1
  Se  Se119  1  0.09361690  0.76111733  0.05169956  1
  Se  Se120  1  0.08668031  0.75320998  0.55231975  1
  Se  Se121  1  0.41741740  0.08428522  0.04803182  1
  Se  Se122  1  0.41836560  0.09214500  0.54526245  1
  Se  Se123  1  0.40423468  0.41094047  0.06673343  1
  Se  Se124  1  0.41228965  0.41738668  0.55710132  1
  Se  Se125  1  0.42041552  0.74847816  0.05530391  1
  Se  Se126  1  0.41708275  0.74306526  0.55814053  1
  Se  Se127  1  0.73849808  0.07573686  0.06107747  1
  Se  Se128  1  0.74418732  0.07272387  0.56107749  1
  Se  Se129  1  0.73630256  0.41142113  0.06431539  1
  Se  Se130  1  0.74150530  0.40710124  0.55784573  1
  Se  Se131  1  0.75223189  0.74385811  0.06352714  1
  Se  Se132  1  0.74487107  0.74008827  0.55636703  1
  Se  Se133  1  0.25383438  0.25288423  0.05935568  1
  Se  Se134  1  0.24903057  0.25575628  0.54965700  1
  Se  Se135  1  0.25226575  0.58163243  0.05530050  1
  Se  Se136  1  0.25128561  0.58399157  0.56135984  1
  Se  Se137  1  0.24770397  0.91843375  0.04821257  1
  Se  Se138  1  0.26365345  0.92770869  0.55356034  1
  Se  Se139  1  0.57372654  0.24917891  0.05693768  1
  Se  Se140  1  0.57674894  0.25531271  0.54805554  1
  Se  Se141  1  0.59232992  0.59116337  0.06697489  1
  Se  Se142  1  0.58556051  0.58407514  0.55954359  1
  Se  Se143  1  0.57907810  0.91220568  0.05079306  1
  Se  Se144  1  0.58207534  0.90873972  0.55076319  1
  Se  Se145  1  0.92298933  0.26393895  0.06318563  1
  Se  Se146  1  0.92341576  0.25440511  0.56228361  1
  Se  Se147  1  0.93058456  0.59474973  0.05810906  1
  Se  Se148  1  0.92271258  0.59171137  0.55437931  1
  Se  Se149  1  0.91837234  0.92178471  0.06159971  1
  Se  Se150  1  0.91964218  0.91642150  0.55649119  1
  Se  Se151  1  0.09188458  0.24510559  0.44677011  1
  Se  Se152  1  0.07594537  0.25231934  0.93837772  1
  Se  Se153  1  0.07195714  0.58290415  0.43357789  1
  Se  Se154  1  0.08999927  0.57611696  0.94867612  1
  Se  Se155  1  0.08269751  0.91273494  0.44836018  1
  Se  Se156  1  0.08395359  0.91438791  0.95006380  1
  Se  Se157  1  0.42164513  0.25396819  0.44298048  1
  Se  Se158  1  0.42103066  0.25149422  0.94731945  1
  Se  Se159  1  0.40319170  0.59036230  0.43907619  1
  Se  Se160  1  0.41217999  0.58436132  0.94206724  1
  Se  Se161  1  0.41764088  0.90566164  0.45626025  1
  Se  Se162  1  0.42088465  0.91167845  0.94512903  1
  Se  Se163  1  0.74440519  0.25836892  0.44067176  1
  Se  Se164  1  0.74312569  0.25815506  0.94271852  1
  Se  Se165  1  0.73891482  0.58426852  0.43572988  1
  Se  Se166  1  0.74782992  0.58781378  0.94615120  1
  Se  Se167  1  0.73845472  0.92502695  0.43505727  1
  Se  Se168  1  0.74082893  0.92667053  0.93963014  1
  Se  Se169  1  0.26584695  0.07183717  0.45124297  1
  Se  Se170  1  0.25946671  0.07609833  0.93376697  1
  Se  Se171  1  0.26383253  0.41780781  0.43302923  1
  Se  Se172  1  0.24741212  0.41576662  0.94802279  1
  Se  Se173  1  0.24013349  0.74827158  0.44890580  1
  Se  Se174  1  0.24988567  0.74857330  0.94702496  1
  Se  Se175  1  0.58043173  0.08825505  0.45135720  1
  Se  Se176  1  0.57810247  0.08903722  0.94459475  1
  Se  Se177  1  0.59516177  0.40850422  0.43564564  1
  Se  Se178  1  0.58491273  0.41794236  0.94401206  1
  Se  Se179  1  0.57238608  0.74848983  0.44839865  1
  Se  Se180  1  0.58132407  0.75086719  0.94942831  1
  Se  Se181  1  0.92638161  0.08174631  0.44201596  1
  Se  Se182  1  0.92330459  0.08216747  0.94439124  1
  Se  Se183  1  0.92131604  0.40540816  0.43863496  1
  Se  Se184  1  0.91851625  0.41216353  0.94048732  1
  Se  Se185  1  0.91717182  0.73846317  0.43248892  1
  Se  Se186  1  0.92706653  0.73822340  0.94338185  1
  Se  Se187  1  0.25488621  0.25033276  0.30621331  1
  Se  Se188  1  0.25079964  0.25484678  0.80211176  1
  Se  Se189  1  0.25129482  0.58473763  0.29788150  1
  Se  Se190  1  0.24814225  0.58448110  0.80461823  1
  Se  Se191  1  0.24147460  0.90763165  0.31432835  1
  Se  Se192  1  0.24963362  0.91353755  0.80722521  1
  Se  Se193  1  0.59079280  0.24953137  0.30218177  1
  Se  Se194  1  0.58100091  0.25352239  0.79928966  1
  Se  Se195  1  0.58150835  0.59026258  0.29753090  1
  Se  Se196  1  0.58482194  0.58602149  0.80567512  1
  Se  Se197  1  0.56274022  0.91856861  0.31395914  1
  Se  Se198  1  0.58422969  0.91711635  0.80563524  1
  Se  Se199  1  0.92247466  0.25022421  0.29914073  1
  Se  Se200  1  0.91533813  0.25213655  0.79749898  1
  Se  Se201  1  0.93354959  0.60255974  0.29584327  1
  Se  Se202  1  0.91621633  0.57918550  0.80501516  1
  Se  Se203  1  0.92216126  0.91428482  0.30409789  1
  Se  Se204  1  0.92605100  0.91509729  0.80437957  1
  Se  Se205  1  0.08933859  0.07882161  0.30919449  1
  Se  Se206  1  0.08829424  0.08304466  0.80105870  1
  Se  Se207  1  0.08510650  0.41403968  0.30200000  1
  Se  Se208  1  0.07976995  0.41494728  0.80132400  1
  Se  Se209  1  0.08633597  0.74528163  0.30127529  1
  Se  Se210  1  0.08824147  0.74866332  0.80634604  1
  Se  Se211  1  0.42289635  0.09100039  0.31098760  1
  Se  Se212  1  0.41874166  0.08723587  0.80344372  1
  Se  Se213  1  0.43059249  0.41802886  0.29319642  1
  Se  Se214  1  0.41457507  0.41756138  0.80511393  1
  Se  Se215  1  0.40697938  0.74927331  0.30774428  1
  Se  Se216  1  0.41796981  0.74847187  0.80482607  1
  Se  Se217  1  0.76040015  0.09378687  0.30992161  1
  Se  Se218  1  0.75609895  0.08989486  0.81188830  1
  Se  Se219  1  0.77793230  0.44211491  0.30528687  1
  Se  Se220  1  0.74407192  0.41414836  0.80199294  1
  Se  Se221  1  0.74529325  0.75797156  0.30316397  1
  Se  Se222  1  0.75253490  0.75119162  0.80366701  1
  Se  Se223  1  0.24256793  0.08960182  0.18891277  1
  Se  Se224  1  0.24149433  0.09595899  0.68198193  1
  Se  Se225  1  0.25136209  0.41177747  0.19894276  1
  Se  Se226  1  0.24720805  0.41814284  0.69735910  1
  Se  Se227  1  0.25351736  0.74656700  0.19344065  1
  Se  Se228  1  0.25172819  0.74755028  0.69620112  1
  Se  Se229  1  0.57666571  0.08068987  0.19091787  1
  Se  Se230  1  0.56553621  0.08212269  0.68396507  1
  Se  Se231  1  0.59721998  0.39987407  0.20346880  1
  Se  Se232  1  0.57881248  0.41804825  0.69721376  1
  Se  Se233  1  0.57890963  0.75528928  0.20002449  1
  Se  Se234  1  0.59178163  0.74573149  0.69985530  1
  Se  Se235  1  0.92477121  0.07377213  0.20754709  1
  Se  Se236  1  0.91751303  0.08453969  0.70675197  1
  Se  Se237  1  0.91624569  0.43066219  0.19793031  1
  Se  Se238  1  0.91167856  0.41537896  0.69496701  1
  Se  Se239  1  0.91893988  0.75490246  0.19593596  1
  Se  Se240  1  0.92208448  0.74564118  0.69809318  1
  Se  Se241  1  0.08799428  0.25111976  0.19989883  1
  Se  Se242  1  0.08167205  0.25612665  0.69609657  1
  Se  Se243  1  0.08846503  0.58415764  0.19137102  1
  Se  Se244  1  0.07866721  0.58470868  0.69669392  1
  Se  Se245  1  0.08543746  0.91883359  0.19927303  1
  Se  Se246  1  0.08581085  0.91737740  0.69543404  1
  Se  Se247  1  0.41466732  0.24878649  0.19794353  1
  Se  Se248  1  0.40927504  0.25608191  0.69444286  1
  Se  Se249  1  0.42929557  0.56987911  0.20040079  1
  Se  Se250  1  0.41433319  0.58734739  0.70219469  1
  Se  Se251  1  0.41238777  0.91234216  0.19040855  1
  Se  Se252  1  0.42566880  0.90457452  0.68926558  1
  Se  Se253  1  0.76398590  0.23559416  0.19614297  1
  Se  Se254  1  0.74628817  0.23311464  0.69384603  1
  Se  Se255  1  0.74508950  0.59299882  0.20559023  1
  Se  Se256  1  0.74842807  0.58379050  0.69872219  1
  Se  Se257  1  0.75248440  0.91179154  0.18980018  1
  Se  Se258  1  0.76398284  0.90843131  0.68755143  1
