# generated using pymatgen
data_In86Cu29Se144
_symmetry_space_group_name_H-M   'P 1'
_cell_length_a   17.58474131
_cell_length_b   17.59143146
_cell_length_c   23.45067683
_cell_angle_alpha   90.03561287
_cell_angle_beta   90.00708036
_cell_angle_gamma   89.98759201
_symmetry_Int_Tables_number   1
_chemical_formula_structural   In86Cu29Se144
_chemical_formula_sum   'In86 Cu29 Se144'
_cell_volume   7254.24883557
_cell_formula_units_Z   1
loop_
 _symmetry_equiv_pos_site_id
 _symmetry_equiv_pos_as_xyz
  1  'x, y, z'
loop_
 _atom_site_type_symbol
 _atom_site_label
 _atom_site_symmetry_multiplicity
 _atom_site_fract_x
 _atom_site_fract_y
 _atom_site_fract_z
 _atom_site_occupancy
  In  In0  1  -0.00585525  0.16436723  0.11405293  1
  In  In1  1  -0.02403772  0.15656983  0.62401969  1
  In  In2  1  0.01035960  0.50157297  0.12547051  1
  In  In3  1  -0.00915213  0.51920155  0.63117354  1
  In  In4  1  -0.01734524  0.83719866  0.12579176  1
  In  In5  1  -0.00556090  0.82878023  0.63049803  1
  In  In6  1  0.35007484  0.18306724  0.10928901  1
  In  In7  1  0.32616590  0.16042413  0.63014988  1
  In  In8  1  0.32361116  0.49521232  0.11489638  1
  In  In9  1  0.35664492  0.50783212  0.62740022  1
  In  In10  1  0.33844820  0.83043957  0.12469300  1
  In  In11  1  0.33337367  0.82955067  0.62829673  1
  In  In12  1  0.67764176  0.18213216  0.12133070  1
  In  In13  1  0.67334104  0.15499977  0.63052869  1
  In  In14  1  0.65622146  0.51227059  0.12615083  1
  In  In15  1  0.65641657  0.48817147  0.61942780  1
  In  In16  1  0.67803128  0.81507427  0.12592578  1
  In  In17  1  0.68103893  0.85937149  0.60638227  1
  In  In18  1  0.15358873  -0.00273901  0.37768102  1
  In  In19  1  0.16940330  0.00241994  0.86789779  1
  In  In20  1  0.17239793  0.32305955  0.36561166  1
  In  In21  1  0.17051794  0.33395370  0.88398188  1
  In  In22  1  0.16381539  0.67776043  0.37718700  1
  In  In23  1  0.16859525  0.66586735  0.87673635  1
  In  In24  1  0.49261340  -0.00616039  0.38203910  1
  In  In25  1  0.51000427  0.00749419  0.86558000  1
  In  In26  1  0.52307132  0.34957940  0.35953104  1
  In  In27  1  0.50350996  0.33271495  0.87948703  1
  In  In28  1  0.51144391  0.65083145  0.38571606  1
  In  In29  1  0.49499000  0.66294907  0.87490897  1
  In  In30  1  0.82346177  0.00329311  0.39404400  1
  In  In31  1  0.83353409  0.00150177  0.87310563  1
  In  In32  1  0.81567240  0.34140893  0.38936608  1
  In  In33  1  0.81588156  0.33233303  0.87389514  1
  In  In34  1  0.83003405  0.66718314  0.37486904  1
  In  In35  1  0.84557692  0.66723427  0.86923812  1
  In  In36  1  -0.00271605  0.16042588  0.37333235  1
  In  In37  1  0.00607113  0.16069371  0.88006037  1
  In  In38  1  -0.02092693  0.50057491  0.37488727  1
  In  In39  1  0.00500577  0.51457728  0.87337714  1
  In  In40  1  -0.00062319  0.83088597  0.38271848  1
  In  In41  1  -0.01248732  0.82757064  0.86364556  1
  In  In42  1  0.32715727  0.17099590  0.36933489  1
  In  In43  1  0.33831183  0.16319833  0.87900199  1
  In  In44  1  0.35030121  0.49881304  0.37317990  1
  In  In45  1  0.33829543  0.50845437  0.88518439  1
  In  In46  1  0.33435396  0.82100397  0.38955787  1
  In  In47  1  0.33378668  0.82876360  0.86585774  1
  In  In48  1  0.67179254  0.17549864  0.37623012  1
  In  In49  1  0.66332653  0.16816293  0.87765613  1
  In  In50  1  0.66287605  0.50050200  0.37775949  1
  In  In51  1  0.66787810  0.49087484  0.87108811  1
  In  In52  1  0.68275241  0.81794633  0.39269295  1
  In  In53  1  0.67271900  0.84747371  0.86895607  1
  In  In54  1  0.15396599  0.00122876  0.11734395  1
  In  In55  1  0.17647534  -0.01674066  0.63680751  1
  In  In56  1  0.17607460  0.34418499  0.11515595  1
  In  In57  1  0.17086765  0.32917563  0.62546507  1
  In  In58  1  0.16606854  0.65296226  0.12519422  1
  In  In59  1  0.15231477  0.68046712  0.63647337  1
  In  In60  1  0.49235345  0.00173950  0.12023246  1
  In  In61  1  0.51311351  -0.01433253  0.63590645  1
  In  In62  1  0.50462573  0.33756916  0.12475575  1
  In  In63  1  0.51121861  0.35086134  0.61939657  1
  In  In64  1  0.52028497  0.66155770  0.11922649  1
  In  In65  1  0.49683173  0.66129755  0.62658250  1
  In  In66  1  0.83367833  0.00470210  0.11900235  1
  In  In67  1  0.82541912  -0.00286037  0.63027856  1
  In  In68  1  0.82531962  0.31879735  0.12730672  1
  In  In69  1  0.80965083  0.31410604  0.60725200  1
  In  In70  1  0.82277539  0.67875634  0.13064586  1
  In  In71  1  0.83692061  0.67690376  0.62233157  1
  In  In72  1  0.32908464  0.00267278  0.24746813  1
  In  In73  1  0.16106174  0.16058791  0.49737630  1
  In  In74  1  0.33780544  0.65879274  0.24824714  1
  In  In75  1  0.16442985  0.50170753  0.50504289  1
  In  In76  1  -0.00582299  0.00126558  0.24720198  1
  In  In77  1  -0.00578924  0.33368823  0.74539653  1
  In  In78  1  -0.00671262  0.33535394  0.24888378  1
  In  In79  1  0.83413422  0.50145856  -0.00330873  1
  In  In80  1  0.66843518  0.67522843  0.74676461  1
  In  In81  1  0.50811977  0.83253203  -0.00369946  1
  In  In82  1  0.33817196  0.33138885  0.75417016  1
  In  In83  1  0.16601506  0.83092787  -0.00958596  1
  In  In84  1  0.50209790  0.16603269  0.49875253  1
  In  In85  1  0.66417869  0.00163365  0.26076285  1
  Cu  Cu86  1  0.34177491  0.33658729  0.49403259  1
  Cu  Cu87  1  0.17486736  0.17519182  0.23724740  1
  Cu  Cu88  1  0.33384773  -0.00845268  0.50850184  1
  Cu  Cu89  1  0.16371378  0.82766068  0.26025892  1
  Cu  Cu90  1  0.66654493  0.00378201  -0.00502900  1
  Cu  Cu91  1  0.17538893  0.50402393  0.75403326  1
  Cu  Cu92  1  0.50405239  0.17240196  0.24238736  1
  Cu  Cu93  1  0.00133809  0.66917685  -0.00312817  1
  Cu  Cu94  1  0.00142058  -0.00933462  0.50690138  1
  Cu  Cu95  1  -0.00109883  0.33554407  0.00223207  1
  Cu  Cu96  1  0.33229604  0.00414626  -0.00764983  1
  Cu  Cu97  1  0.82922262  0.49716989  0.74784164  1
  Cu  Cu98  1  0.82518918  0.16338129  0.75089244  1
  Cu  Cu99  1  0.50032915  0.83113907  0.74608393  1
  Cu  Cu100  1  0.16683764  0.49898699  0.24415670  1
  Cu  Cu101  1  0.15973048  0.15645438  0.75056014  1
  Cu  Cu102  1  0.83124322  0.83284305  0.25520263  1
  Cu  Cu103  1  0.16453206  0.82961093  0.75256068  1
  Cu  Cu104  1  0.50854867  0.82196305  0.25492292  1
  Cu  Cu105  1  0.50502696  0.49516836  0.24863829  1
  Cu  Cu106  1  0.32949823  0.66634162  0.50662282  1
  Cu  Cu107  1  0.33580281  0.33281997  -0.00138477  1
  Cu  Cu108  1  0.66314012  0.33227141  -0.00016795  1
  Cu  Cu109  1  -0.00713284  0.00346853  -0.00404478  1
  Cu  Cu110  1  0.66302289  0.66446572  0.50495809  1
  Cu  Cu111  1  0.82533499  0.50367907  0.25354938  1
  Cu  Cu112  1  -0.00546097  0.67193215  0.50319414  1
  Cu  Cu113  1  -0.00804727  0.33981487  0.50133239  1
  Cu  Cu114  1  0.50014765  0.17069235  0.75405783  1
  Se  Se115  1  0.08123517  0.08509359  0.04613788  1
  Se  Se116  1  0.08179320  0.07435519  0.56609410  1
  Se  Se117  1  0.08327530  0.42211751  0.05041533  1
  Se  Se118  1  0.07309360  0.41101913  0.56518156  1
  Se  Se119  1  0.07778654  0.75047851  0.06104493  1
  Se  Se120  1  0.08050751  0.75179945  0.55668748  1
  Se  Se121  1  0.41988193  0.08258789  0.04635505  1
  Se  Se122  1  0.41292817  0.07795132  0.56258426  1
  Se  Se123  1  0.41797799  0.41512315  0.05426366  1
  Se  Se124  1  0.41848003  0.42071396  0.55039476  1
  Se  Se125  1  0.41762226  0.74339315  0.05795792  1
  Se  Se126  1  0.41589070  0.74831403  0.55813412  1
  Se  Se127  1  0.74701709  0.08634072  0.05379214  1
  Se  Se128  1  0.76153191  0.08981316  0.55787713  1
  Se  Se129  1  0.74564994  0.41338360  0.05975652  1
  Se  Se130  1  0.75620550  0.42771065  0.55202428  1
  Se  Se131  1  0.75961612  0.75314920  0.04853358  1
  Se  Se132  1  0.74973858  0.75069097  0.55138884  1
  Se  Se133  1  0.24592391  0.24882491  0.04804461  1
  Se  Se134  1  0.26036623  0.25420202  0.55159653  1
  Se  Se135  1  0.25330865  0.59304864  0.05165720  1
  Se  Se136  1  0.25010385  0.58818275  0.56913183  1
  Se  Se137  1  0.25792252  0.92181484  0.05571577  1
  Se  Se138  1  0.24636338  0.90929347  0.55719772  1
  Se  Se139  1  0.58044459  0.24847904  0.05420771  1
  Se  Se140  1  0.59172750  0.25088650  0.56072799  1
  Se  Se141  1  0.58711264  0.58016206  0.04318953  1
  Se  Se142  1  0.57790090  0.58100196  0.55522810  1
  Se  Se143  1  0.59498867  0.92115959  0.06219294  1
  Se  Se144  1  0.57358108  0.92342525  0.54826400  1
  Se  Se145  1  0.91118007  0.25371830  0.05134023  1
  Se  Se146  1  0.91580020  0.24525847  0.54894312  1
  Se  Se147  1  0.92166863  0.59022782  0.05998579  1
  Se  Se148  1  0.91211918  0.58500505  0.55256085  1
  Se  Se149  1  0.91291706  0.91838606  0.05072685  1
  Se  Se150  1  0.91476762  0.91515710  0.56229008  1
  Se  Se151  1  0.07532378  0.26211121  0.44092295  1
  Se  Se152  1  0.08168751  0.25184540  0.94720317  1
  Se  Se153  1  0.07293445  0.58764840  0.44226802  1
  Se  Se154  1  0.08703485  0.58427744  0.94870680  1
  Se  Se155  1  0.08608257  0.91223762  0.45080890  1
  Se  Se156  1  0.07336536  0.92187808  0.93626607  1
  Se  Se157  1  0.41738989  0.25506386  0.43308857  1
  Se  Se158  1  0.41874868  0.24888535  0.94584503  1
  Se  Se159  1  0.41080296  0.58297516  0.45083165  1
  Se  Se160  1  0.43478165  0.57753703  0.95188348  1
  Se  Se161  1  0.41653366  0.91026605  0.45247397  1
  Se  Se162  1  0.41434904  0.92084418  0.93616190  1
  Se  Se163  1  0.75346897  0.23927501  0.45327422  1
  Se  Se164  1  0.74868184  0.24865198  0.94889059  1
  Se  Se165  1  0.74563159  0.58705281  0.44432988  1
  Se  Se166  1  0.74790554  0.58971562  0.93432803  1
  Se  Se167  1  0.74868148  0.91445776  0.45888133  1
  Se  Se168  1  0.75161431  0.91947391  0.94554779  1
  Se  Se169  1  0.26041917  0.07114391  0.44126968  1
  Se  Se170  1  0.24372968  0.08457582  0.94224210  1
  Se  Se171  1  0.25074167  0.41177488  0.43890736  1
  Se  Se172  1  0.25258254  0.41989647  0.94846793  1
  Se  Se173  1  0.24141300  0.74681695  0.45516814  1
  Se  Se174  1  0.26753760  0.74173907  0.94461466  1
  Se  Se175  1  0.59200639  0.07494780  0.43977196  1
  Se  Se176  1  0.57750508  0.08424043  0.94574888  1
  Se  Se177  1  0.57816720  0.41757145  0.44526801  1
  Se  Se178  1  0.58562608  0.41953687  0.94642940  1
  Se  Se179  1  0.57760081  0.74916844  0.45187437  1
  Se  Se180  1  0.59667103  0.74740414  0.93369200  1
  Se  Se181  1  0.92852412  0.07895605  0.44865111  1
  Se  Se182  1  0.90949954  0.08921621  0.94511023  1
  Se  Se183  1  0.90807112  0.42439984  0.45138878  1
  Se  Se184  1  0.92359016  0.41115818  0.93406484  1
  Se  Se185  1  0.90982482  0.75126456  0.44689926  1
  Se  Se186  1  0.91786631  0.75090993  0.94375898  1
  Se  Se187  1  0.25873750  0.25379469  0.29283703  1
  Se  Se188  1  0.23900906  0.24224440  0.80736460  1
  Se  Se189  1  0.24332690  0.57567848  0.31214160  1
  Se  Se190  1  0.25632662  0.58370307  0.81082491  1
  Se  Se191  1  0.24761909  0.90986286  0.31406067  1
  Se  Se192  1  0.25041124  0.91517752  0.80195451  1
  Se  Se193  1  0.59163296  0.24624871  0.29945401  1
  Se  Se194  1  0.58341695  0.25325241  0.80699831  1
  Se  Se195  1  0.58245733  0.58241637  0.30402003  1
  Se  Se196  1  0.58268790  0.58048714  0.80496783  1
  Se  Se197  1  0.58031249  0.90379334  0.31815815  1
  Se  Se198  1  0.58376822  0.91680324  0.79769532  1
  Se  Se199  1  0.90940490  0.25266778  0.31610616  1
  Se  Se200  1  0.90913533  0.24476314  0.80960119  1
  Se  Se201  1  0.91318538  0.58727382  0.30161818  1
  Se  Se202  1  0.91708672  0.57795628  0.79818435  1
  Se  Se203  1  0.90754625  0.91780342  0.31441131  1
  Se  Se204  1  0.92095318  0.92788069  0.80246408  1
  Se  Se205  1  0.09682543  0.09446941  0.29966448  1
  Se  Se206  1  0.07331835  0.07776579  0.80331873  1
  Se  Se207  1  0.08673536  0.42490209  0.31027004  1
  Se  Se208  1  0.09111686  0.41804746  0.80724507  1
  Se  Se209  1  0.07357538  0.74816897  0.30735547  1
  Se  Se210  1  0.08437525  0.74457234  0.80703736  1
  Se  Se211  1  0.42763285  0.09026026  0.30500457  1
  Se  Se212  1  0.41391131  0.08590336  0.80327285  1
  Se  Se213  1  0.41604663  0.41327615  0.29817994  1
  Se  Se214  1  0.42291602  0.42496525  0.81125887  1
  Se  Se215  1  0.42182438  0.74764825  0.31378708  1
  Se  Se216  1  0.42171717  0.74669406  0.80150374  1
  Se  Se217  1  0.76464897  0.08817482  0.31112397  1
  Se  Se218  1  0.74258223  0.08329636  0.80789780  1
  Se  Se219  1  0.74856524  0.41766448  0.30872322  1
  Se  Se220  1  0.74591291  0.41188272  0.79718168  1
  Se  Se221  1  0.74436447  0.75057141  0.30610354  1
  Se  Se222  1  0.76413040  0.76135839  0.80374800  1
  Se  Se223  1  0.24890425  0.08895076  0.17816684  1
  Se  Se224  1  0.25192465  0.07818138  0.70183335  1
  Se  Se225  1  0.25206288  0.41715680  0.19324537  1
  Se  Se226  1  0.24865864  0.42288397  0.69066401  1
  Se  Se227  1  0.24458442  0.75614354  0.19468854  1
  Se  Se228  1  0.25235956  0.74768509  0.70047763  1
  Se  Se229  1  0.58112583  0.08361973  0.18800883  1
  Se  Se230  1  0.58159218  0.08446303  0.70013020  1
  Se  Se231  1  0.59141824  0.41501486  0.19468512  1
  Se  Se232  1  0.58277239  0.41832029  0.69951056  1
  Se  Se233  1  0.58824035  0.74403057  0.19631002  1
  Se  Se234  1  0.58459924  0.76272387  0.68106566  1
  Se  Se235  1  0.90646048  0.09730556  0.19302479  1
  Se  Se236  1  0.91122376  0.07826188  0.70240779  1
  Se  Se237  1  0.90437441  0.42705315  0.18787794  1
  Se  Se238  1  0.90361380  0.41594252  0.68255675  1
  Se  Se239  1  0.91541402  0.75188586  0.19997877  1
  Se  Se240  1  0.92605144  0.73396587  0.69856088  1
  Se  Se241  1  0.08375381  0.25031348  0.18326582  1
  Se  Se242  1  0.08523134  0.23707312  0.68749694  1
  Se  Se243  1  0.08029665  0.58656415  0.20033399  1
  Se  Se244  1  0.08493721  0.58117048  0.70210431  1
  Se  Se245  1  0.09098243  0.90769207  0.19383047  1
  Se  Se246  1  0.07919375  0.91251336  0.70010766  1
  Se  Se247  1  0.41681278  0.25312875  0.19193708  1
  Se  Se248  1  0.42500036  0.24725241  0.68654471  1
  Se  Se249  1  0.42661680  0.57424635  0.18519501  1
  Se  Se250  1  0.41782053  0.59055864  0.70383536  1
  Se  Se251  1  0.42843803  0.90580448  0.19782786  1
  Se  Se252  1  0.41197459  0.91706832  0.69813355  1
  Se  Se253  1  0.74658668  0.25042400  0.20374303  1
  Se  Se254  1  0.74850763  0.25136142  0.69600981  1
  Se  Se255  1  0.74652020  0.58620802  0.19506469  1
  Se  Se256  1  0.75170068  0.57913855  0.68602838  1
  Se  Se257  1  0.75477137  0.91619106  0.19387590  1
  Se  Se258  1  0.74041676  0.91383916  0.69680039  1
