# generated using pymatgen
data_In86Cu29Se144
_symmetry_space_group_name_H-M   'P 1'
_cell_length_a   17.58327498
_cell_length_b   17.58120284
_cell_length_c   23.44568242
_cell_angle_alpha   89.99766019
_cell_angle_beta   89.99504173
_cell_angle_gamma   90.00634250
_symmetry_Int_Tables_number   1
_chemical_formula_structural   In86Cu29Se144
_chemical_formula_sum   'In86 Cu29 Se144'
_cell_volume   7247.88386329
_cell_formula_units_Z   1
loop_
 _symmetry_equiv_pos_site_id
 _symmetry_equiv_pos_as_xyz
  1  'x, y, z'
loop_
 _atom_site_type_symbol
 _atom_site_label
 _atom_site_symmetry_multiplicity
 _atom_site_fract_x
 _atom_site_fract_y
 _atom_site_fract_z
 _atom_site_occupancy
  In  In0  1  -0.00549178  0.17017487  0.13033846  1
  In  In1  1  -0.00891471  0.17494970  0.62622506  1
  In  In2  1  0.01010023  0.48986453  0.13733646  1
  In  In3  1  -0.00334508  0.49556344  0.61361601  1
  In  In4  1  -0.00261913  0.83753179  0.13364467  1
  In  In5  1  -0.00003099  0.84259862  0.62870187  1
  In  In6  1  0.36665663  0.13948757  0.16484751  1
  In  In7  1  0.33621907  0.15303004  0.62348593  1
  In  In8  1  0.34340104  0.48550754  0.13867854  1
  In  In9  1  0.33484672  0.49765782  0.61023840  1
  In  In10  1  0.33218495  0.83928005  0.13521941  1
  In  In11  1  0.34042338  0.82975324  0.62362412  1
  In  In12  1  0.65320370  0.14789108  0.10897501  1
  In  In13  1  0.66835932  0.16694420  0.62071730  1
  In  In14  1  0.66570999  0.50995265  0.12916324  1
  In  In15  1  0.65995330  0.49240948  0.61856048  1
  In  In16  1  0.66113791  0.83853040  0.13360414  1
  In  In17  1  0.66714904  0.85181358  0.62504053  1
  In  In18  1  0.17365781  0.01442215  0.36159093  1
  In  In19  1  0.16960024  0.00460041  0.86336835  1
  In  In20  1  0.17781537  0.33569440  0.36442315  1
  In  In21  1  0.14892763  0.33917575  0.86700424  1
  In  In22  1  0.15789372  0.65873346  0.36962771  1
  In  In23  1  0.17275567  0.66048032  0.87776176  1
  In  In24  1  0.49935525  0.00165502  0.37255581  1
  In  In25  1  0.50989746  0.01353587  0.86630809  1
  In  In26  1  0.50004697  0.33242611  0.37741287  1
  In  In27  1  0.50842271  0.31914464  0.88315191  1
  In  In28  1  0.49885338  0.66781220  0.37470795  1
  In  In29  1  0.48949744  0.66350294  0.88009720  1
  In  In30  1  0.83986330  0.00873242  0.37299045  1
  In  In31  1  0.83896114  0.00997129  0.86990303  1
  In  In32  1  0.83806567  0.32482963  0.38151400  1
  In  In33  1  0.82113481  0.32292560  0.86254639  1
  In  In34  1  0.82371431  0.65985572  0.37210370  1
  In  In35  1  0.83321114  0.66616326  0.87540949  1
  In  In36  1  -0.00529263  0.16249230  0.36657961  1
  In  In37  1  -0.01067733  0.16126998  0.86849549  1
  In  In38  1  -0.00103610  0.49722912  0.37789048  1
  In  In39  1  0.00845918  0.48087297  0.86847247  1
  In  In40  1  0.00879938  0.84257023  0.37086287  1
  In  In41  1  -0.00387484  0.84487260  0.87187494  1
  In  In42  1  0.34919873  0.17869814  0.35406306  1
  In  In43  1  0.34848749  0.16292391  0.87549649  1
  In  In44  1  0.33368032  0.49990842  0.37483294  1
  In  In45  1  0.33470095  0.50645438  0.87690500  1
  In  In46  1  0.34251384  0.84666710  0.36744105  1
  In  In47  1  0.32463315  0.83885316  0.87566542  1
  In  In48  1  0.66799550  0.16309504  0.37649452  1
  In  In49  1  0.66537195  0.16742891  0.87593588  1
  In  In50  1  0.65650470  0.50562306  0.38255155  1
  In  In51  1  0.67065632  0.48280541  0.87406808  1
  In  In52  1  0.65828714  0.82457972  0.37185431  1
  In  In53  1  0.66096345  0.84464648  0.87010301  1
  In  In54  1  0.18240993  0.00691561  0.13692162  1
  In  In55  1  0.16726901  -0.00507329  0.63813267  1
  In  In56  1  0.17100185  0.32106348  0.14122383  1
  In  In57  1  0.15600077  0.33715084  0.62455462  1
  In  In58  1  0.17069810  0.66409265  0.13795500  1
  In  In59  1  0.17579686  0.66529914  0.61855780  1
  In  In60  1  0.50699999  0.00670506  0.12777272  1
  In  In61  1  0.50253224  0.00385506  0.62061908  1
  In  In62  1  0.49223670  0.32282520  0.12484791  1
  In  In63  1  0.51216596  0.34112114  0.61581138  1
  In  In64  1  0.50781586  0.65851025  0.13536984  1
  In  In65  1  0.49428970  0.66485991  0.61351503  1
  In  In66  1  0.82021814  0.01408681  0.12889199  1
  In  In67  1  0.81598969  0.01168607  0.63588684  1
  In  In68  1  0.84478992  0.32489074  0.12959306  1
  In  In69  1  0.83250480  0.33099642  0.61926041  1
  In  In70  1  0.83052356  0.67262307  0.13872301  1
  In  In71  1  0.84350963  0.66097705  0.62018326  1
  In  In72  1  0.83113740  0.83353638  0.50437810  1
  In  In73  1  0.16967695  0.17087255  0.49838516  1
  In  In74  1  0.16995804  0.49185789  -0.00070683  1
  In  In75  1  0.82942788  0.49307975  0.00416807  1
  In  In76  1  0.32911260  0.67076198  0.75106627  1
  In  In77  1  0.66619667  0.32754818  0.25662388  1
  In  In78  1  0.49627216  0.84067037  0.00324681  1
  In  In79  1  0.82903459  0.84330771  -0.00521791  1
  In  In80  1  0.16917221  0.83281818  0.50204942  1
  In  In81  1  0.16938710  0.83940726  0.01524902  1
  In  In82  1  0.66459843  0.67074244  0.75375603  1
  In  In83  1  0.33233207  0.32850033  0.74598189  1
  In  In84  1  0.00121275  0.67186845  0.74611611  1
  In  In85  1  0.17747300  0.16570999  0.00618871  1
  Cu  Cu86  1  0.00002361  0.00667062  -0.00246307  1
  Cu  Cu87  1  0.00020297  0.01005589  0.49744961  1
  Cu  Cu88  1  0.33519754  0.33120677  0.49064906  1
  Cu  Cu89  1  0.66364275  0.00187188  0.49912025  1
  Cu  Cu90  1  0.49900223  0.50054126  0.25775300  1
  Cu  Cu91  1  0.16316131  0.16672963  0.74685188  1
  Cu  Cu92  1  0.66866713  0.32964394  0.49819957  1
  Cu  Cu93  1  0.66273647  0.32895570  -0.00247122  1
  Cu  Cu94  1  0.33833420  0.65913946  0.00716988  1
  Cu  Cu95  1  0.50868431  0.16628385  0.74893743  1
  Cu  Cu96  1  0.65988992  0.66666254  0.00842181  1
  Cu  Cu97  1  0.50092186  0.84579647  0.74416029  1
  Cu  Cu98  1  0.50475835  0.83217773  0.25253792  1
  Cu  Cu99  1  0.33348184  0.66586518  0.49200973  1
  Cu  Cu100  1  0.83684680  0.83600738  0.25609773  1
  Cu  Cu101  1  0.33781834  0.33203948  0.00666403  1
  Cu  Cu102  1  0.17067636  0.83148718  0.25287249  1
  Cu  Cu103  1  -0.00391425  0.66068281  0.49262656  1
  Cu  Cu104  1  0.66217483  0.66220951  0.49564801  1
  Cu  Cu105  1  0.83544041  0.17339993  0.74715130  1
  Cu  Cu106  1  0.83704890  0.49435696  0.74256654  1
  Cu  Cu107  1  0.83404767  0.50332945  0.25455328  1
  Cu  Cu108  1  0.49829497  0.49248522  0.74604338  1
  Cu  Cu109  1  0.82992455  0.16308923  0.25073631  1
  Cu  Cu110  1  -0.00461783  0.32400521  0.00121315  1
  Cu  Cu111  1  0.34286193  0.00333624  0.49458571  1
  Cu  Cu112  1  0.16479534  0.50424755  0.25638255  1
  Cu  Cu113  1  -0.00545719  0.65829281  0.00747051  1
  Cu  Cu114  1  0.00012454  0.33493806  0.49906986  1
  Se  Se115  1  0.08206786  0.07639670  0.06348149  1
  Se  Se116  1  0.08514021  0.07955323  0.56219191  1
  Se  Se117  1  0.07916642  0.40307718  0.05888649  1
  Se  Se118  1  0.08867122  0.41794348  0.54705862  1
  Se  Se119  1  0.07659409  0.73891946  0.06375437  1
  Se  Se120  1  0.06987632  0.74350887  0.55672153  1
  Se  Se121  1  0.41093504  0.08696663  0.06874480  1
  Se  Se122  1  0.42297144  0.08849702  0.54893309  1
  Se  Se123  1  0.41907357  0.41904153  0.05774819  1
  Se  Se124  1  0.41959200  0.41296385  0.54679872  1
  Se  Se125  1  0.41325909  0.74549219  0.06521254  1
  Se  Se126  1  0.41258998  0.75162281  0.54746073  1
  Se  Se127  1  0.75844975  0.08745635  0.04672460  1
  Se  Se128  1  0.75214455  0.08168020  0.55178389  1
  Se  Se129  1  0.73981734  0.40403869  0.06496864  1
  Se  Se130  1  0.74988206  0.41632149  0.55134052  1
  Se  Se131  1  0.74672065  0.74760989  0.05998903  1
  Se  Se132  1  0.73799566  0.74100290  0.56176644  1
  Se  Se133  1  0.26227112  0.25320672  0.06878298  1
  Se  Se134  1  0.26021985  0.25914203  0.56131145  1
  Se  Se135  1  0.25432324  0.58042736  0.06473908  1
  Se  Se136  1  0.24921076  0.58359482  0.54575049  1
  Se  Se137  1  0.26819437  0.93363111  0.05923653  1
  Se  Se138  1  0.25831048  0.92941753  0.55708141  1
  Se  Se139  1  0.57740082  0.24948583  0.05243320  1
  Se  Se140  1  0.58331479  0.24588260  0.54999614  1
  Se  Se141  1  0.57786540  0.57966799  0.05630565  1
  Se  Se142  1  0.57923755  0.57848397  0.55098267  1
  Se  Se143  1  0.59682890  0.92512189  0.05533961  1
  Se  Se144  1  0.58106795  0.91572570  0.55030529  1
  Se  Se145  1  0.91216945  0.24152715  0.05321184  1
  Se  Se146  1  0.91623855  0.24834857  0.54885006  1
  Se  Se147  1  0.91657471  0.58119242  0.06854093  1
  Se  Se148  1  0.91174055  0.57842363  0.54552842  1
  Se  Se149  1  0.92249011  0.92400705  0.05883198  1
  Se  Se150  1  0.92025179  0.93045145  0.55852752  1
  Se  Se151  1  0.07874277  0.25568580  0.43625938  1
  Se  Se152  1  0.08135356  0.24860591  0.94178956  1
  Se  Se153  1  0.08673300  0.57937506  0.44610502  1
  Se  Se154  1  0.07189912  0.58293912  0.94291740  1
  Se  Se155  1  0.08743661  0.93195532  0.44276492  1
  Se  Se156  1  0.08388527  0.92320513  0.94449707  1
  Se  Se157  1  0.41493890  0.24246324  0.44083781  1
  Se  Se158  1  0.41662407  0.24630139  0.95083355  1
  Se  Se159  1  0.41960743  0.58045472  0.44361164  1
  Se  Se160  1  0.41854357  0.57644412  0.95174670  1
  Se  Se161  1  0.42288608  0.91391390  0.44508526  1
  Se  Se162  1  0.41450591  0.92600045  0.93615438  1
  Se  Se163  1  0.75069433  0.24352136  0.44680161  1
  Se  Se164  1  0.75156587  0.25293670  0.94360249  1
  Se  Se165  1  0.75166800  0.58043765  0.44840934  1
  Se  Se166  1  0.74089108  0.58959104  0.94454279  1
  Se  Se167  1  0.74550637  0.92037489  0.43914960  1
  Se  Se168  1  0.73800885  0.93374627  0.93925316  1
  Se  Se169  1  0.26097675  0.08499751  0.43736329  1
  Se  Se170  1  0.25749906  0.07463969  0.93983916  1
  Se  Se171  1  0.24832126  0.41426007  0.44199017  1
  Se  Se172  1  0.25771031  0.39965232  0.93775445  1
  Se  Se173  1  0.25326240  0.74940153  0.43399908  1
  Se  Se174  1  0.25610665  0.74196713  0.95123527  1
  Se  Se175  1  0.58051146  0.08344890  0.44432345  1
  Se  Se176  1  0.57210228  0.09521672  0.94351344  1
  Se  Se177  1  0.58132159  0.41307183  0.44784567  1
  Se  Se178  1  0.58234761  0.41798681  0.94691475  1
  Se  Se179  1  0.57991407  0.75006437  0.44718996  1
  Se  Se180  1  0.58872053  0.74668884  0.94175894  1
  Se  Se181  1  0.91563527  0.09177191  0.44580045  1
  Se  Se182  1  0.91447747  0.08788761  0.94650005  1
  Se  Se183  1  0.91340625  0.41749721  0.44739294  1
  Se  Se184  1  0.91815861  0.40655632  0.94007252  1
  Se  Se185  1  0.92165450  0.75154770  0.43799744  1
  Se  Se186  1  0.92547096  0.74355823  0.94483572  1
  Se  Se187  1  0.22669184  0.22304963  0.30282410  1
  Se  Se188  1  0.24323725  0.24233109  0.81171452  1
  Se  Se189  1  0.25411182  0.58611522  0.30505711  1
  Se  Se190  1  0.23876166  0.56931528  0.80281393  1
  Se  Se191  1  0.25382563  0.92206204  0.29902045  1
  Se  Se192  1  0.24692936  0.91056659  0.80190993  1
  Se  Se193  1  0.57050551  0.23517386  0.30641069  1
  Se  Se194  1  0.58640682  0.25345845  0.80367023  1
  Se  Se195  1  0.58571969  0.58542946  0.30599001  1
  Se  Se196  1  0.57317317  0.57519244  0.80982640  1
  Se  Se197  1  0.58647461  0.91829035  0.30527842  1
  Se  Se198  1  0.58703931  0.92521135  0.79688278  1
  Se  Se199  1  0.91052642  0.25140875  0.30208751  1
  Se  Se200  1  0.92278209  0.25666101  0.79915722  1
  Se  Se201  1  0.91916438  0.58460697  0.30843060  1
  Se  Se202  1  0.91179377  0.57381864  0.80755330  1
  Se  Se203  1  0.92036505  0.92199357  0.30533834  1
  Se  Se204  1  0.91148339  0.91696647  0.80335493  1
  Se  Se205  1  0.06366378  0.06593130  0.30182506  1
  Se  Se206  1  0.07841155  0.08416697  0.80085120  1
  Se  Se207  1  0.08141902  0.41735572  0.30614791  1
  Se  Se208  1  0.08635348  0.41938129  0.78896790  1
  Se  Se209  1  0.08263987  0.75130180  0.30368367  1
  Se  Se210  1  0.09173593  0.75313007  0.81389259  1
  Se  Se211  1  0.40890176  0.06761003  0.29843549  1
  Se  Se212  1  0.41694851  0.08543135  0.79686838  1
  Se  Se213  1  0.41667410  0.41321687  0.30746891  1
  Se  Se214  1  0.42037358  0.41649939  0.81103033  1
  Se  Se215  1  0.41793023  0.75058950  0.30421142  1
  Se  Se216  1  0.42696640  0.76164073  0.80702455  1
  Se  Se217  1  0.74701249  0.08086501  0.30479968  1
  Se  Se218  1  0.75231354  0.09262399  0.80404383  1
  Se  Se219  1  0.75341203  0.42253800  0.31503348  1
  Se  Se220  1  0.74786285  0.41627666  0.79537980  1
  Se  Se221  1  0.75033735  0.75052324  0.30434962  1
  Se  Se222  1  0.75979839  0.76065838  0.80891718  1
  Se  Se223  1  0.22758867  0.11841985  0.19997622  1
  Se  Se224  1  0.25278788  0.08501608  0.69877613  1
  Se  Se225  1  0.24667425  0.41670036  0.20406203  1
  Se  Se226  1  0.24914976  0.42556846  0.68735006  1
  Se  Se227  1  0.25669970  0.74820847  0.20164317  1
  Se  Se228  1  0.23806929  0.76099449  0.69195199  1
  Se  Se229  1  0.59611205  0.08210676  0.19597038  1
  Se  Se230  1  0.58773869  0.08240977  0.69114208  1
  Se  Se231  1  0.57939668  0.42076758  0.19506823  1
  Se  Se232  1  0.58655937  0.41327953  0.69533938  1
  Se  Se233  1  0.58876362  0.74651639  0.20058861  1
  Se  Se234  1  0.57329389  0.75283356  0.68761252  1
  Se  Se235  1  0.91594262  0.08033804  0.19724992  1
  Se  Se236  1  0.91710607  0.08571026  0.69539230  1
  Se  Se237  1  0.91189741  0.41742496  0.19971598  1
  Se  Se238  1  0.91953288  0.41499511  0.68670564  1
  Se  Se239  1  0.92108571  0.75103067  0.20287995  1
  Se  Se240  1  0.90265521  0.75954782  0.69205976  1
  Se  Se241  1  0.05469601  0.27204211  0.19582142  1
  Se  Se242  1  0.08196313  0.25103144  0.69412704  1
  Se  Se243  1  0.07948597  0.58638543  0.20252123  1
  Se  Se244  1  0.08647295  0.58122559  0.68440789  1
  Se  Se245  1  0.09337954  0.91575729  0.19391809  1
  Se  Se246  1  0.07919031  0.91544077  0.70175415  1
  Se  Se247  1  0.41136299  0.26708798  0.20610690  1
  Se  Se248  1  0.42774612  0.24492694  0.68634703  1
  Se  Se249  1  0.41585470  0.58350896  0.20206702  1
  Se  Se250  1  0.41884507  0.57703998  0.69038464  1
  Se  Se251  1  0.42731168  0.91703088  0.19540904  1
  Se  Se252  1  0.41424406  0.92224010  0.68925465  1
  Se  Se253  1  0.74831003  0.24069859  0.18895424  1
  Se  Se254  1  0.74995059  0.25145646  0.69048044  1
  Se  Se255  1  0.74739427  0.58432774  0.20227576  1
  Se  Se256  1  0.75307600  0.58059323  0.69028648  1
  Se  Se257  1  0.75559288  0.91477297  0.19597324  1
  Se  Se258  1  0.75007446  0.91347614  0.70097190  1
