# generated using pymatgen
data_In86Cu29Se144
_symmetry_space_group_name_H-M   'P 1'
_cell_length_a   17.59223227
_cell_length_b   17.59468985
_cell_length_c   23.46031234
_cell_angle_alpha   90.01563097
_cell_angle_beta   89.97437121
_cell_angle_gamma   90.00838722
_symmetry_Int_Tables_number   1
_chemical_formula_structural   In86Cu29Se144
_chemical_formula_sum   'In86 Cu29 Se144'
_cell_volume   7261.66636429
_cell_formula_units_Z   1
loop_
 _symmetry_equiv_pos_site_id
 _symmetry_equiv_pos_as_xyz
  1  'x, y, z'
loop_
 _atom_site_type_symbol
 _atom_site_label
 _atom_site_symmetry_multiplicity
 _atom_site_fract_x
 _atom_site_fract_y
 _atom_site_fract_z
 _atom_site_occupancy
  In  In0  1  -0.00572480  0.17846307  0.12279658  1
  In  In1  1  0.00386395  0.16879640  0.62378294  1
  In  In2  1  -0.00741274  0.51610604  0.11895848  1
  In  In3  1  -0.00782315  0.50174733  0.64132198  1
  In  In4  1  0.00112446  0.82039054  0.11908173  1
  In  In5  1  -0.00782953  0.82913876  0.62142876  1
  In  In6  1  0.34214956  0.14177755  0.13149783  1
  In  In7  1  0.32836163  0.16567270  0.62104410  1
  In  In8  1  0.34185631  0.48266693  0.12451253  1
  In  In9  1  0.35692629  0.50623205  0.62931791  1
  In  In10  1  0.33984905  0.84135017  0.12007016  1
  In  In11  1  0.33627352  0.83405658  0.62553404  1
  In  In12  1  0.66504463  0.16421269  0.12372742  1
  In  In13  1  0.64985339  0.15076031  0.61671149  1
  In  In14  1  0.66574510  0.49963041  0.12251906  1
  In  In15  1  0.65005481  0.51084703  0.62516307  1
  In  In16  1  0.64877543  0.84738822  0.14274677  1
  In  In17  1  0.67631649  0.83404231  0.61344952  1
  In  In18  1  0.18428833  -0.01523793  0.38376250  1
  In  In19  1  0.17094892  -0.01553361  0.87742375  1
  In  In20  1  0.16217590  0.32351325  0.38129429  1
  In  In21  1  0.16341212  0.34700121  0.87097942  1
  In  In22  1  0.17979842  0.67889783  0.37653188  1
  In  In23  1  0.17321433  0.67305929  0.86408854  1
  In  In24  1  0.50306274  -0.00075665  0.37522695  1
  In  In25  1  0.49344830  0.00278348  0.86655235  1
  In  In26  1  0.51177550  0.31196247  0.39128927  1
  In  In27  1  0.50793047  0.32831170  0.88033675  1
  In  In28  1  0.51824215  0.65879290  0.39077929  1
  In  In29  1  0.49808029  0.67340393  0.87639617  1
  In  In30  1  0.82702129  0.01215295  0.38010968  1
  In  In31  1  0.82808815  0.01541048  0.87898095  1
  In  In32  1  0.81885303  0.33590552  0.37456615  1
  In  In33  1  0.83158702  0.33172487  0.87233724  1
  In  In34  1  0.82478942  0.68123428  0.38416418  1
  In  In35  1  0.82967638  0.65589795  0.87026267  1
  In  In36  1  0.00045164  0.16516263  0.38786712  1
  In  In37  1  -0.01539359  0.16885113  0.87344064  1
  In  In38  1  -0.00675686  0.50178866  0.37733647  1
  In  In39  1  -0.01669139  0.49191364  0.85290042  1
  In  In40  1  0.00539622  0.83153466  0.38438315  1
  In  In41  1  0.01557562  0.83808228  0.87293657  1
  In  In42  1  0.35866656  0.14415800  0.39437155  1
  In  In43  1  0.35277318  0.16296872  0.86987356  1
  In  In44  1  0.34226844  0.51128642  0.37744583  1
  In  In45  1  0.33597862  0.50897252  0.87103420  1
  In  In46  1  0.33162164  0.84526790  0.38138196  1
  In  In47  1  0.33484418  0.83315642  0.86963813  1
  In  In48  1  0.66703196  0.16476876  0.37366994  1
  In  In49  1  0.66486672  0.16243992  0.87402906  1
  In  In50  1  0.65851579  0.48836579  0.36604877  1
  In  In51  1  0.66779523  0.50217558  0.88276933  1
  In  In52  1  0.66353236  0.83677398  0.37692252  1
  In  In53  1  0.65029752  0.84135712  0.87980068  1
  In  In54  1  0.18054640  -0.00595798  0.12950744  1
  In  In55  1  0.17879136  0.01088862  0.62016685  1
  In  In56  1  0.16050868  0.33182383  0.12557971  1
  In  In57  1  0.16747580  0.31863747  0.62581895  1
  In  In58  1  0.16377317  0.67231447  0.11954687  1
  In  In59  1  0.16137287  0.67657904  0.62952747  1
  In  In60  1  0.50210397  -0.00564531  0.12355610  1
  In  In61  1  0.50471942  0.00140391  0.63009735  1
  In  In62  1  0.51508885  0.34258915  0.11721928  1
  In  In63  1  0.49338425  0.33488735  0.61448335  1
  In  In64  1  0.50903429  0.67932569  0.11786444  1
  In  In65  1  0.49488895  0.65808861  0.61780690  1
  In  In66  1  0.80847758  -0.00255616  0.12094144  1
  In  In67  1  0.81956494  -0.00677120  0.61754770  1
  In  In68  1  0.81290930  0.31541999  0.11081779  1
  In  In69  1  0.84545352  0.33463522  0.63063274  1
  In  In70  1  0.83172244  0.65549206  0.11720511  1
  In  In71  1  0.82361672  0.67986940  0.62796984  1
  In  In72  1  0.17155897  0.51074816  -0.00595298  1
  In  In73  1  0.82608289  0.83168711  -0.00288282  1
  In  In74  1  -0.00434933  -0.00315888  0.24922872  1
  In  In75  1  0.82943831  0.49724954  0.50578236  1
  In  In76  1  0.16860057  0.16549540  0.00701377  1
  In  In77  1  0.17255287  0.49823695  0.50456286  1
  In  In78  1  0.33284191  0.33220087  0.74537174  1
  In  In79  1  -0.00907965  0.33344185  0.24439351  1
  In  In80  1  0.34393857  0.32228228  0.26142020  1
  In  In81  1  0.00055989  0.00057516  0.74950266  1
  In  In82  1  0.34072528  0.67836701  0.24375329  1
  In  In83  1  0.66502002  0.66824095  0.74981479  1
  In  In84  1  -0.00869154  0.66958001  0.26362296  1
  In  In85  1  0.66673796  0.33078605  0.75035425  1
  Cu  Cu86  1  0.82626028  0.83129536  0.25479917  1
  Cu  Cu87  1  0.66339117  0.00307962  0.49651856  1
  Cu  Cu88  1  0.66631241  0.66693173  0.00131638  1
  Cu  Cu89  1  0.82799383  0.16737673  0.75001794  1
  Cu  Cu90  1  0.16401870  0.50028023  0.24954951  1
  Cu  Cu91  1  0.49791180  0.83390856  0.25459014  1
  Cu  Cu92  1  -0.00168531  -0.00121243  -0.00327223  1
  Cu  Cu93  1  0.50510015  0.16466603  0.25241637  1
  Cu  Cu94  1  0.17128038  0.83528406  0.74664119  1
  Cu  Cu95  1  0.17226800  0.15155341  0.25950538  1
  Cu  Cu96  1  -0.00438120  0.33986531  -0.00821285  1
  Cu  Cu97  1  -0.00093925  -0.00121845  0.50456521  1
  Cu  Cu98  1  0.67040733  0.33183251  -0.00225714  1
  Cu  Cu99  1  0.50759127  0.50322573  0.25000042  1
  Cu  Cu100  1  0.49923784  0.83460963  0.74912637  1
  Cu  Cu101  1  0.00354251  0.66865604  0.50271154  1
  Cu  Cu102  1  0.83155486  0.83908586  0.74772681  1
  Cu  Cu103  1  0.33588672  0.67164596  -0.00891651  1
  Cu  Cu104  1  0.33738642  -0.00632316  -0.00214429  1
  Cu  Cu105  1  0.82061321  0.49635133  0.24208802  1
  Cu  Cu106  1  0.16488490  0.16571395  0.74798663  1
  Cu  Cu107  1  0.34508258  0.32590038  0.00185947  1
  Cu  Cu108  1  0.16720714  0.50554380  0.74844246  1
  Cu  Cu109  1  0.33644175  0.67358935  0.50008373  1
  Cu  Cu110  1  0.82519804  0.16642171  0.24909655  1
  Cu  Cu111  1  0.00406727  0.66484567  -0.00815137  1
  Cu  Cu112  1  0.00482054  0.32515849  0.50710940  1
  Cu  Cu113  1  0.33885211  -0.00359449  0.50545346  1
  Cu  Cu114  1  0.66840753  0.32510187  0.50012501  1
  Se  Se115  1  0.07567491  0.07371321  0.06499816  1
  Se  Se116  1  0.08292647  0.08388043  0.55554996  1
  Se  Se117  1  0.07872060  0.41587531  0.05390511  1
  Se  Se118  1  0.07418397  0.41718825  0.56466249  1
  Se  Se119  1  0.08567455  0.74882301  0.04540931  1
  Se  Se120  1  0.08583591  0.75448609  0.55408281  1
  Se  Se121  1  0.41921006  0.07760198  0.05188336  1
  Se  Se122  1  0.41948933  0.08180804  0.55917313  1
  Se  Se123  1  0.42476096  0.41873113  0.04829832  1
  Se  Se124  1  0.41520818  0.42532106  0.55032539  1
  Se  Se125  1  0.41519058  0.75170819  0.05180143  1
  Se  Se126  1  0.41989488  0.75423203  0.55476343  1
  Se  Se127  1  0.76340137  0.10162142  0.05415965  1
  Se  Se128  1  0.74939928  0.08674022  0.54952084  1
  Se  Se129  1  0.75089706  0.42118452  0.04997210  1
  Se  Se130  1  0.73910102  0.40740859  0.56554466  1
  Se  Se131  1  0.73926906  0.75052966  0.06398261  1
  Se  Se132  1  0.75026676  0.74132889  0.54696730  1
  Se  Se133  1  0.26352115  0.25386363  0.06684912  1
  Se  Se134  1  0.25534128  0.25703033  0.55307072  1
  Se  Se135  1  0.26495597  0.58983202  0.06077769  1
  Se  Se136  1  0.25730010  0.59323610  0.56305919  1
  Se  Se137  1  0.24810924  0.91598943  0.05086987  1
  Se  Se138  1  0.25049381  0.91465486  0.55561221  1
  Se  Se139  1  0.58601944  0.24863049  0.05106933  1
  Se  Se140  1  0.57811646  0.24663549  0.55117263  1
  Se  Se141  1  0.58175952  0.58289237  0.05377300  1
  Se  Se142  1  0.58981100  0.59265810  0.54823902  1
  Se  Se143  1  0.58655140  0.91002575  0.05747796  1
  Se  Se144  1  0.58472502  0.92168144  0.55555221  1
  Se  Se145  1  0.91849016  0.25301578  0.04748981  1
  Se  Se146  1  0.91348756  0.24798195  0.55718694  1
  Se  Se147  1  0.91460829  0.58447193  0.04174097  1
  Se  Se148  1  0.92380452  0.58812762  0.56204031  1
  Se  Se149  1  0.91810738  0.92115835  0.06062203  1
  Se  Se150  1  0.91253212  0.91466657  0.55362045  1
  Se  Se151  1  0.08946655  0.24313798  0.45509572  1
  Se  Se152  1  0.08210035  0.25547253  0.94037762  1
  Se  Se153  1  0.08139447  0.58958056  0.44066644  1
  Se  Se154  1  0.07817750  0.58397814  0.92771076  1
  Se  Se155  1  0.08468260  0.91868120  0.45009845  1
  Se  Se156  1  0.08596872  0.91465383  0.95143126  1
  Se  Se157  1  0.40164317  0.26093543  0.45151549  1
  Se  Se158  1  0.42392571  0.24207377  0.94639185  1
  Se  Se159  1  0.41914262  0.58367088  0.45282363  1
  Se  Se160  1  0.41812653  0.58297215  0.94394653  1
  Se  Se161  1  0.42330844  0.91804258  0.44859939  1
  Se  Se162  1  0.41751886  0.91458101  0.93914919  1
  Se  Se163  1  0.75276718  0.24554297  0.44510261  1
  Se  Se164  1  0.74869720  0.24953372  0.93926838  1
  Se  Se165  1  0.74352554  0.57724550  0.43812433  1
  Se  Se166  1  0.75258022  0.58638503  0.94877782  1
  Se  Se167  1  0.75010545  0.92004824  0.44501673  1
  Se  Se168  1  0.73869177  0.93008184  0.94516982  1
  Se  Se169  1  0.25115458  0.07920921  0.45283300  1
  Se  Se170  1  0.25506029  0.08028615  0.94177818  1
  Se  Se171  1  0.25646496  0.41415256  0.43769583  1
  Se  Se172  1  0.26222659  0.40742561  0.94375100  1
  Se  Se173  1  0.25001680  0.75780634  0.45127939  1
  Se  Se174  1  0.24840030  0.75127745  0.93979857  1
  Se  Se175  1  0.58071240  0.08809812  0.44432655  1
  Se  Se176  1  0.57103000  0.08782704  0.93678234  1
  Se  Se177  1  0.58967135  0.41383742  0.44682344  1
  Se  Se178  1  0.58456048  0.41684038  0.94808350  1
  Se  Se179  1  0.57928287  0.76427262  0.45014489  1
  Se  Se180  1  0.58179465  0.74948272  0.94876607  1
  Se  Se181  1  0.91440586  0.08336493  0.45263344  1
  Se  Se182  1  0.91668390  0.08734594  0.94990054  1
  Se  Se183  1  0.92363020  0.40384501  0.44533520  1
  Se  Se184  1  0.91585829  0.42158845  0.93620391  1
  Se  Se185  1  0.91814368  0.75108536  0.45078672  1
  Se  Se186  1  0.92195219  0.74895729  0.93542850  1
  Se  Se187  1  0.24985419  0.23483265  0.31772807  1
  Se  Se188  1  0.24341498  0.24451229  0.81185418  1
  Se  Se189  1  0.24721598  0.58201393  0.30405992  1
  Se  Se190  1  0.25543484  0.58527774  0.79877660  1
  Se  Se191  1  0.25142957  0.91185411  0.30350859  1
  Se  Se192  1  0.25202328  0.91921545  0.80045224  1
  Se  Se193  1  0.58293687  0.25150728  0.30627448  1
  Se  Se194  1  0.57239077  0.23987109  0.80282088  1
  Se  Se195  1  0.58504183  0.58915884  0.30540281  1
  Se  Se196  1  0.57827730  0.57666980  0.81033032  1
  Se  Se197  1  0.58424954  0.91860682  0.30388007  1
  Se  Se198  1  0.58321469  0.91782554  0.80095835  1
  Se  Se199  1  0.91180379  0.24073173  0.30985671  1
  Se  Se200  1  0.91340410  0.25109373  0.80003011  1
  Se  Se201  1  0.89498798  0.57174591  0.31089826  1
  Se  Se202  1  0.92173415  0.60093857  0.79636678  1
  Se  Se203  1  0.91062134  0.90779817  0.31384811  1
  Se  Se204  1  0.90888273  0.91483952  0.81333221  1
  Se  Se205  1  0.08363983  0.07925336  0.31692895  1
  Se  Se206  1  0.08956959  0.08862590  0.81476314  1
  Se  Se207  1  0.08515643  0.42015289  0.30922079  1
  Se  Se208  1  0.08426675  0.41512566  0.79467561  1
  Se  Se209  1  0.09381653  0.76124070  0.30641146  1
  Se  Se210  1  0.08349791  0.75500725  0.79816445  1
  Se  Se211  1  0.41918819  0.08390822  0.30552585  1
  Se  Se212  1  0.40202090  0.07154165  0.79454266  1
  Se  Se213  1  0.42904023  0.42412956  0.31220913  1
  Se  Se214  1  0.42223762  0.41541874  0.81020700  1
  Se  Se215  1  0.42349973  0.75168751  0.31812780  1
  Se  Se216  1  0.41796021  0.74794580  0.80134741  1
  Se  Se217  1  0.74644501  0.08020283  0.30247142  1
  Se  Se218  1  0.74729093  0.08164159  0.80157714  1
  Se  Se219  1  0.74484638  0.40830712  0.29712215  1
  Se  Se220  1  0.75253097  0.42797412  0.80640833  1
  Se  Se221  1  0.74406753  0.74762791  0.30710278  1
  Se  Se222  1  0.75138843  0.76267323  0.81271629  1
  Se  Se223  1  0.25573195  0.07200434  0.20448574  1
  Se  Se224  1  0.25286462  0.08617007  0.69760069  1
  Se  Se225  1  0.24508986  0.41375601  0.19763838  1
  Se  Se226  1  0.24435658  0.42523851  0.68525196  1
  Se  Se227  1  0.24123373  0.76058261  0.18833198  1
  Se  Se228  1  0.25487272  0.74998547  0.69591081  1
  Se  Se229  1  0.58191705  0.08197767  0.19273717  1
  Se  Se230  1  0.59235214  0.07745515  0.69977612  1
  Se  Se231  1  0.58662369  0.41694744  0.19570565  1
  Se  Se232  1  0.57177460  0.41884510  0.69194263  1
  Se  Se233  1  0.57832065  0.74460336  0.20263213  1
  Se  Se234  1  0.58129212  0.75747127  0.68628896  1
  Se  Se235  1  0.90877669  0.08951439  0.18862021  1
  Se  Se236  1  0.90734466  0.08449605  0.68910510  1
  Se  Se237  1  0.90764306  0.42468351  0.18143264  1
  Se  Se238  1  0.91262989  0.41515585  0.70622318  1
  Se  Se239  1  0.90664158  0.75299566  0.19294686  1
  Se  Se240  1  0.91393143  0.75319377  0.69736688  1
  Se  Se241  1  0.09460281  0.23534551  0.19954231  1
  Se  Se242  1  0.07961558  0.24954199  0.69859405  1
  Se  Se243  1  0.08414410  0.58355233  0.19403702  1
  Se  Se244  1  0.08261333  0.59003300  0.69806235  1
  Se  Se245  1  0.08408150  0.90540636  0.18959526  1
  Se  Se246  1  0.08929511  0.91586699  0.68620451  1
  Se  Se247  1  0.42702364  0.24441590  0.18789274  1
  Se  Se248  1  0.42489971  0.24265639  0.68930250  1
  Se  Se249  1  0.42348446  0.57636915  0.18793193  1
  Se  Se250  1  0.42711043  0.58991401  0.70124792  1
  Se  Se251  1  0.41811423  0.91491244  0.19601544  1
  Se  Se252  1  0.41585483  0.91815068  0.69569676  1
  Se  Se253  1  0.74510314  0.25153339  0.19497021  1
  Se  Se254  1  0.74996211  0.24136130  0.68513933  1
  Se  Se255  1  0.74610765  0.58838811  0.19124172  1
  Se  Se256  1  0.75499491  0.57446872  0.69148096  1
  Se  Se257  1  0.74817131  0.92143465  0.20388975  1
  Se  Se258  1  0.74501143  0.91473626  0.69277029  1
