# generated using pymatgen
data_In86Cu29Se144
_symmetry_space_group_name_H-M   'P 1'
_cell_length_a   17.58332238
_cell_length_b   17.58592857
_cell_length_c   23.44593016
_cell_angle_alpha   89.97484734
_cell_angle_beta   89.98523722
_cell_angle_gamma   90.00837776
_symmetry_Int_Tables_number   1
_chemical_formula_structural   In86Cu29Se144
_chemical_formula_sum   'In86 Cu29 Se144'
_cell_volume   7249.92726458
_cell_formula_units_Z   1
loop_
 _symmetry_equiv_pos_site_id
 _symmetry_equiv_pos_as_xyz
  1  'x, y, z'
loop_
 _atom_site_type_symbol
 _atom_site_label
 _atom_site_symmetry_multiplicity
 _atom_site_fract_x
 _atom_site_fract_y
 _atom_site_fract_z
 _atom_site_occupancy
  In  In0  1  0.01677861  0.15801422  0.14119567  1
  In  In1  1  0.00321720  0.17361595  0.62250271  1
  In  In2  1  -0.01523392  0.51157953  0.13465506  1
  In  In3  1  -0.01367284  0.49690174  0.62684677  1
  In  In4  1  -0.00548323  0.82848565  0.12439385  1
  In  In5  1  -0.00375501  0.83503761  0.60789535  1
  In  In6  1  0.31282888  0.16351509  0.12768126  1
  In  In7  1  0.33875131  0.17933994  0.62204891  1
  In  In8  1  0.35169136  0.50847583  0.12162457  1
  In  In9  1  0.34047113  0.47754663  0.62303653  1
  In  In10  1  0.33503347  0.83583810  0.13539399  1
  In  In11  1  0.32673015  0.84150001  0.62057404  1
  In  In12  1  0.67658579  0.17659733  0.12415582  1
  In  In13  1  0.66942187  0.15801145  0.63756116  1
  In  In14  1  0.66945490  0.49614017  0.12001969  1
  In  In15  1  0.66006837  0.51143373  0.63007849  1
  In  In16  1  0.66283272  0.82272390  0.12260806  1
  In  In17  1  0.67354999  0.82369214  0.62989991  1
  In  In18  1  0.13931040  -0.02089842  0.35469287  1
  In  In19  1  0.17428549  -0.00231621  0.88653850  1
  In  In20  1  0.16550893  0.34447648  0.37338429  1
  In  In21  1  0.15734527  0.32128053  0.87381351  1
  In  In22  1  0.17265809  0.67698643  0.36411435  1
  In  In23  1  0.17696559  0.67196537  0.88380250  1
  In  In24  1  0.49167664  0.00904581  0.36586950  1
  In  In25  1  0.50022371  -0.01280252  0.87771836  1
  In  In26  1  0.51544935  0.33222148  0.37706168  1
  In  In27  1  0.51560513  0.34638116  0.86121744  1
  In  In28  1  0.49137585  0.66187661  0.36355294  1
  In  In29  1  0.51147018  0.65571420  0.88478521  1
  In  In30  1  0.85555074  -0.01503427  0.39532160  1
  In  In31  1  0.82362798  -0.00156340  0.87757050  1
  In  In32  1  0.82933696  0.32461386  0.37521204  1
  In  In33  1  0.83198337  0.33546755  0.87576306  1
  In  In34  1  0.84267506  0.69449423  0.34525585  1
  In  In35  1  0.81975628  0.67480213  0.88474441  1
  In  In36  1  -0.01342832  0.14507591  0.35897804  1
  In  In37  1  0.00078775  0.17950699  0.87835750  1
  In  In38  1  -0.00677838  0.49968225  0.36262118  1
  In  In39  1  -0.00408759  0.48020885  0.87816274  1
  In  In40  1  -0.00253577  0.83972806  0.36921115  1
  In  In41  1  0.00139381  0.83124474  0.88628665  1
  In  In42  1  0.33830251  0.16410140  0.36994821  1
  In  In43  1  0.32148347  0.16479229  0.87810406  1
  In  In44  1  0.33310748  0.51119255  0.37520641  1
  In  In45  1  0.34843430  0.49896406  0.88092240  1
  In  In46  1  0.32364288  0.81857832  0.36243863  1
  In  In47  1  0.33807550  0.83695274  0.88866119  1
  In  In48  1  0.66855690  0.17828488  0.37381455  1
  In  In49  1  0.67001115  0.17079271  0.86456913  1
  In  In50  1  0.66793920  0.49920711  0.37573623  1
  In  In51  1  0.66353592  0.49944132  0.87815384  1
  In  In52  1  0.68187424  0.83775449  0.36731034  1
  In  In53  1  0.66889882  0.82797757  0.87709417  1
  In  In54  1  0.16797814  -0.00187358  0.13070192  1
  In  In55  1  0.16695620  -0.00465231  0.61541124  1
  In  In56  1  0.16436434  0.31993698  0.12565325  1
  In  In57  1  0.16691753  0.32366640  0.63128062  1
  In  In58  1  0.15065305  0.68062390  0.13392719  1
  In  In59  1  0.15649127  0.67111427  0.61841725  1
  In  In60  1  0.50053427  -0.02060423  0.13023742  1
  In  In61  1  0.50112205  0.01509978  0.62726930  1
  In  In62  1  0.50645753  0.34899620  0.11499121  1
  In  In63  1  0.49114013  0.34109420  0.63638656  1
  In  In64  1  0.50764815  0.67088515  0.13513588  1
  In  In65  1  0.51690523  0.66555990  0.62204993  1
  In  In66  1  0.84951558  -0.00100886  0.12690376  1
  In  In67  1  0.82348281  -0.01220942  0.61457966  1
  In  In68  1  0.82464248  0.34194554  0.13058284  1
  In  In69  1  0.83999417  0.32570918  0.63333882  1
  In  In70  1  0.83156695  0.66522322  0.12479239  1
  In  In71  1  0.82442394  0.66681973  0.62234712  1
  In  In72  1  0.16142826  0.50428591  0.00545679  1
  In  In73  1  -0.00217239  0.00388461  0.74763764  1
  In  In74  1  0.17116946  0.50415691  0.49547352  1
  In  In75  1  -0.00676014  0.66054289  0.74954063  1
  In  In76  1  0.33593605  0.33753171  0.24246817  1
  In  In77  1  0.33892972  0.66296657  0.75918779  1
  In  In78  1  0.50306644  0.83199373  0.49632406  1
  In  In79  1  0.82456097  0.50657965  0.49781462  1
  In  In80  1  0.49636850  0.16452108  -0.00570181  1
  In  In81  1  0.15958086  0.16069600  0.49496677  1
  In  In82  1  0.84012115  0.16547490  -0.00032038  1
  In  In83  1  0.50186836  0.17099056  0.50373851  1
  In  In84  1  0.33881510  0.00633911  0.74649857  1
  In  In85  1  0.67399211  0.00212619  0.24671722  1
  Cu  Cu86  1  -0.00082790  0.67646042  0.48601625  1
  Cu  Cu87  1  0.32133851  -0.00802810  0.49082176  1
  Cu  Cu88  1  0.66954970  0.00275547  0.50282572  1
  Cu  Cu89  1  0.33630409  0.66340214  0.49155082  1
  Cu  Cu90  1  0.82418229  0.49668122  0.24912842  1
  Cu  Cu91  1  0.33385186  -0.00148234  0.00927920  1
  Cu  Cu92  1  0.82718893  0.49556432  0.75331835  1
  Cu  Cu93  1  -0.00469089  0.32858866  0.00477507  1
  Cu  Cu94  1  0.33214667  0.33527939  0.00246841  1
  Cu  Cu95  1  0.66846258  -0.01218108  0.00043461  1
  Cu  Cu96  1  0.49901796  0.17152932  0.24705381  1
  Cu  Cu97  1  0.00214348  0.33271311  0.50138227  1
  Cu  Cu98  1  0.16881244  0.50288671  0.24912258  1
  Cu  Cu99  1  0.67262764  0.66910393  0.49599655  1
  Cu  Cu100  1  0.66373907  0.66404526  0.00390888  1
  Cu  Cu101  1  0.16795629  0.83327953  0.75160476  1
  Cu  Cu102  1  0.66788062  0.33512263  0.50223610  1
  Cu  Cu103  1  0.16503944  0.17108097  0.75140871  1
  Cu  Cu104  1  0.83378056  0.16957048  0.75209314  1
  Cu  Cu105  1  0.51214951  0.83227147  0.75381717  1
  Cu  Cu106  1  0.50753884  0.49831145  0.24532625  1
  Cu  Cu107  1  0.50344050  0.50263799  0.75437923  1
  Cu  Cu108  1  0.00968715  -0.00407516  0.00866042  1
  Cu  Cu109  1  0.83498577  0.17019241  0.25125214  1
  Cu  Cu110  1  0.33440311  0.68064655  0.00975286  1
  Cu  Cu111  1  0.16810886  0.48621151  0.75141577  1
  Cu  Cu112  1  0.82685284  0.83612712  0.74980788  1
  Cu  Cu113  1  -0.00637903  0.66503084  0.00770204  1
  Cu  Cu114  1  0.16150819  0.83376955  0.24566691  1
  Se  Se115  1  0.08691489  0.08482448  0.06016861  1
  Se  Se116  1  0.06719960  0.07105693  0.55396884  1
  Se  Se117  1  0.07267326  0.41348077  0.06503728  1
  Se  Se118  1  0.08051128  0.41511321  0.56027004  1
  Se  Se119  1  0.08177930  0.75086467  0.05215068  1
  Se  Se120  1  0.08534485  0.75200829  0.54425878  1
  Se  Se121  1  0.41590244  0.08079525  0.06639346  1
  Se  Se122  1  0.40095855  0.07299197  0.55216672  1
  Se  Se123  1  0.41785137  0.42355553  0.04584138  1
  Se  Se124  1  0.43007684  0.41412280  0.55226427  1
  Se  Se125  1  0.42133780  0.75404482  0.06702309  1
  Se  Se126  1  0.41117759  0.74256396  0.55904903  1
  Se  Se127  1  0.74599946  0.07317366  0.05857520  1
  Se  Se128  1  0.74652406  0.09000887  0.55735276  1
  Se  Se129  1  0.74898941  0.40890913  0.05216664  1
  Se  Se130  1  0.74784771  0.41424415  0.56486872  1
  Se  Se131  1  0.75115314  0.74799944  0.05284549  1
  Se  Se132  1  0.75230643  0.75388096  0.55109211  1
  Se  Se133  1  0.24852404  0.24946336  0.05121893  1
  Se  Se134  1  0.25131968  0.25658124  0.55132715  1
  Se  Se135  1  0.25090109  0.59527342  0.06452411  1
  Se  Se136  1  0.26074914  0.58913536  0.56216847  1
  Se  Se137  1  0.25145705  0.91423617  0.06242912  1
  Se  Se138  1  0.24167454  0.90772213  0.54560994  1
  Se  Se139  1  0.59012798  0.25404123  0.05155293  1
  Se  Se140  1  0.59143117  0.25532991  0.56619848  1
  Se  Se141  1  0.57930241  0.58542118  0.06031569  1
  Se  Se142  1  0.58994944  0.58406404  0.54798682  1
  Se  Se143  1  0.58240382  0.91024506  0.05460549  1
  Se  Se144  1  0.58571089  0.92342858  0.56157850  1
  Se  Se145  1  0.92304755  0.24671536  0.07010979  1
  Se  Se146  1  0.91626318  0.25343106  0.55506822  1
  Se  Se147  1  0.90980238  0.57675203  0.05326901  1
  Se  Se148  1  0.92661000  0.59584913  0.55282629  1
  Se  Se149  1  0.91686540  0.91455786  0.05194961  1
  Se  Se150  1  0.91307419  0.91896149  0.54523675  1
  Se  Se151  1  0.07584640  0.25652342  0.43562832  1
  Se  Se152  1  0.08407874  0.24795699  0.95379013  1
  Se  Se153  1  0.07749544  0.58783456  0.43335811  1
  Se  Se154  1  0.07111227  0.58981134  0.93965990  1
  Se  Se155  1  0.07660639  0.92044104  0.44184632  1
  Se  Se156  1  0.08964568  0.91261528  0.95068174  1
  Se  Se157  1  0.41226325  0.25643082  0.44017326  1
  Se  Se158  1  0.41036266  0.25957044  0.93693524  1
  Se  Se159  1  0.42490595  0.58243158  0.44428453  1
  Se  Se160  1  0.40911604  0.59439538  0.95110767  1
  Se  Se161  1  0.41106610  0.91823204  0.43479505  1
  Se  Se162  1  0.42151936  0.91886553  0.95623913  1
  Se  Se163  1  0.74915226  0.24956704  0.45043060  1
  Se  Se164  1  0.74263851  0.25073021  0.94421945  1
  Se  Se165  1  0.75639520  0.60189465  0.42959097  1
  Se  Se166  1  0.74695496  0.57999504  0.94940655  1
  Se  Se167  1  0.74579912  0.91461494  0.44853913  1
  Se  Se168  1  0.75546444  0.90832791  0.94757273  1
  Se  Se169  1  0.24754146  0.07534551  0.43043175  1
  Se  Se170  1  0.25246148  0.08357834  0.95496787  1
  Se  Se171  1  0.26411264  0.40959778  0.44374721  1
  Se  Se172  1  0.24780725  0.41451133  0.94146857  1
  Se  Se173  1  0.25016776  0.74727284  0.44295431  1
  Se  Se174  1  0.24792485  0.75838481  0.95451439  1
  Se  Se175  1  0.58673821  0.07737839  0.44059428  1
  Se  Se176  1  0.59605990  0.07574799  0.94013136  1
  Se  Se177  1  0.58716365  0.41908789  0.44876263  1
  Se  Se178  1  0.56928606  0.42494209  0.94366901  1
  Se  Se179  1  0.59119349  0.74636267  0.43356212  1
  Se  Se180  1  0.58361255  0.75154139  0.94907504  1
  Se  Se181  1  0.90727864  0.10379431  0.44532574  1
  Se  Se182  1  0.93090522  0.07119046  0.94076040  1
  Se  Se183  1  0.92194386  0.41664752  0.44330009  1
  Se  Se184  1  0.91162718  0.41110546  0.95224356  1
  Se  Se185  1  0.90891015  0.75188721  0.43438035  1
  Se  Se186  1  0.91405677  0.74912173  0.95006689  1
  Se  Se187  1  0.24859975  0.25291871  0.30678488  1
  Se  Se188  1  0.25093211  0.25094570  0.80459226  1
  Se  Se189  1  0.25453304  0.58519905  0.30087143  1
  Se  Se190  1  0.24035070  0.57135063  0.81267676  1
  Se  Se191  1  0.24922310  0.91495499  0.29866687  1
  Se  Se192  1  0.25117765  0.91190683  0.80884304  1
  Se  Se193  1  0.58408551  0.25107850  0.30043486  1
  Se  Se194  1  0.58168539  0.24652315  0.79889725  1
  Se  Se195  1  0.58598692  0.57906857  0.30457968  1
  Se  Se196  1  0.58705013  0.58701367  0.80550576  1
  Se  Se197  1  0.57900221  0.91690814  0.30704595  1
  Se  Se198  1  0.59063058  0.91759384  0.80777609  1
  Se  Se199  1  0.91904849  0.25512450  0.30390779  1
  Se  Se200  1  0.91625203  0.25150977  0.80706623  1
  Se  Se201  1  0.91231605  0.58307809  0.29489982  1
  Se  Se202  1  0.90809365  0.57540789  0.81527076  1
  Se  Se203  1  0.90854773  0.92326163  0.30547690  1
  Se  Se204  1  0.91499401  0.90773904  0.80901316  1
  Se  Se205  1  0.09739469  0.09693988  0.29726076  1
  Se  Se206  1  0.09236738  0.08476015  0.81239466  1
  Se  Se207  1  0.08477996  0.41872017  0.29986272  1
  Se  Se208  1  0.07974245  0.40926082  0.80463290  1
  Se  Se209  1  0.07786377  0.75090272  0.30074611  1
  Se  Se210  1  0.08841835  0.75098233  0.80938331  1
  Se  Se211  1  0.41190922  0.08674437  0.29316801  1
  Se  Se212  1  0.42298444  0.08798051  0.81470562  1
  Se  Se213  1  0.42492568  0.42079163  0.30881520  1
  Se  Se214  1  0.41263167  0.42007224  0.80138173  1
  Se  Se215  1  0.42396144  0.75739772  0.29777139  1
  Se  Se216  1  0.42600486  0.75867962  0.81523987  1
  Se  Se217  1  0.75749262  0.08785663  0.31329604  1
  Se  Se218  1  0.75425426  0.08006841  0.80287706  1
  Se  Se219  1  0.74876728  0.41268510  0.30878698  1
  Se  Se220  1  0.74446547  0.41387167  0.80796796  1
  Se  Se221  1  0.72480806  0.74208892  0.28915380  1
  Se  Se222  1  0.75028381  0.74743002  0.80365585  1
  Se  Se223  1  0.24149504  0.08610705  0.20246937  1
  Se  Se224  1  0.23913138  0.09003716  0.68688817  1
  Se  Se225  1  0.24640870  0.42896535  0.18249482  1
  Se  Se226  1  0.25279743  0.40916942  0.69547730  1
  Se  Se227  1  0.24921112  0.74698913  0.19962016  1
  Se  Se228  1  0.24740979  0.75029858  0.69303079  1
  Se  Se229  1  0.57962845  0.09150622  0.18561585  1
  Se  Se230  1  0.57882338  0.08137770  0.70360954  1
  Se  Se231  1  0.58749720  0.41261133  0.19308671  1
  Se  Se232  1  0.58579154  0.42079932  0.69789648  1
  Se  Se233  1  0.59990656  0.74419095  0.20395022  1
  Se  Se234  1  0.58759714  0.74426020  0.69870187  1
  Se  Se235  1  0.91753024  0.08209392  0.20197408  1
  Se  Se236  1  0.90687022  0.08892609  0.68679849  1
  Se  Se237  1  0.91443668  0.41461469  0.20015353  1
  Se  Se238  1  0.91707806  0.41614698  0.70186513  1
  Se  Se239  1  0.92280465  0.73783909  0.19318468  1
  Se  Se240  1  0.91264189  0.76000214  0.68901890  1
  Se  Se241  1  0.08157123  0.26103122  0.20360257  1
  Se  Se242  1  0.07612349  0.25041529  0.69986212  1
  Se  Se243  1  0.08000118  0.58476340  0.19950786  1
  Se  Se244  1  0.09232547  0.57206020  0.69176521  1
  Se  Se245  1  0.07579153  0.91501301  0.19308666  1
  Se  Se246  1  0.08706279  0.90763680  0.68941390  1
  Se  Se247  1  0.42403986  0.24811973  0.17993649  1
  Se  Se248  1  0.42337681  0.23809825  0.69744545  1
  Se  Se249  1  0.41927778  0.58468217  0.20054853  1
  Se  Se250  1  0.42274700  0.58018217  0.68958695  1
  Se  Se251  1  0.41378533  0.92076126  0.20540586  1
  Se  Se252  1  0.42726431  0.90518567  0.69132419  1
  Se  Se253  1  0.74794060  0.25264538  0.20106031  1
  Se  Se254  1  0.74808053  0.25294895  0.70067291  1
  Se  Se255  1  0.74680831  0.57992839  0.19164523  1
  Se  Se256  1  0.75431175  0.58514533  0.69712407  1
  Se  Se257  1  0.75869207  0.90934503  0.18701964  1
  Se  Se258  1  0.74674657  0.92014537  0.69488228  1
