# generated using pymatgen
data_In86Cu29Se144
_symmetry_space_group_name_H-M   'P 1'
_cell_length_a   17.58802429
_cell_length_b   17.58901617
_cell_length_c   23.44511581
_cell_angle_alpha   90.01359967
_cell_angle_beta   89.98813814
_cell_angle_gamma   90.02099082
_symmetry_Int_Tables_number   1
_chemical_formula_structural   In86Cu29Se144
_chemical_formula_sum   'In86 Cu29 Se144'
_cell_volume   7252.88742313
_cell_formula_units_Z   1
loop_
 _symmetry_equiv_pos_site_id
 _symmetry_equiv_pos_as_xyz
  1  'x, y, z'
loop_
 _atom_site_type_symbol
 _atom_site_label
 _atom_site_symmetry_multiplicity
 _atom_site_fract_x
 _atom_site_fract_y
 _atom_site_fract_z
 _atom_site_occupancy
  In  In0  1  0.01125347  0.17682401  0.12611993  1
  In  In1  1  -0.00739476  0.15942846  0.61498943  1
  In  In2  1  -0.00385210  0.49299533  0.12392583  1
  In  In3  1  -0.00329723  0.49703857  0.61477591  1
  In  In4  1  -0.00492682  0.82839091  0.11493217  1
  In  In5  1  0.01005915  0.84518203  0.62294275  1
  In  In6  1  0.30575202  0.16137506  0.13023988  1
  In  In7  1  0.32454026  0.15390647  0.61836623  1
  In  In8  1  0.32379453  0.50441429  0.12130479  1
  In  In9  1  0.32965452  0.51149774  0.62928716  1
  In  In10  1  0.33663518  0.83867763  0.11271312  1
  In  In11  1  0.32517252  0.83835301  0.63471993  1
  In  In12  1  0.68286947  0.17214044  0.12036596  1
  In  In13  1  0.66557138  0.16173579  0.61760979  1
  In  In14  1  0.67360165  0.48742014  0.12533196  1
  In  In15  1  0.67500431  0.50341210  0.62885792  1
  In  In16  1  0.66856050  0.83607212  0.10759552  1
  In  In17  1  0.67407518  0.82899014  0.63452776  1
  In  In18  1  0.17168466  -0.00555391  0.37964308  1
  In  In19  1  0.16519781  -0.00346014  0.87523145  1
  In  In20  1  0.15163824  0.33442914  0.38307942  1
  In  In21  1  0.16083436  0.33644286  0.88489635  1
  In  In22  1  0.16074270  0.66770949  0.37989660  1
  In  In23  1  0.17762698  0.66337822  0.88229132  1
  In  In24  1  0.50178454  0.01135230  0.37547541  1
  In  In25  1  0.48896789  -0.01156884  0.86494936  1
  In  In26  1  0.49550697  0.31526980  0.37112532  1
  In  In27  1  0.50444281  0.34131769  0.87712319  1
  In  In28  1  0.49705066  0.66814322  0.37631702  1
  In  In29  1  0.51291278  0.68280247  0.87279826  1
  In  In30  1  0.84212861  -0.00286506  0.38129404  1
  In  In31  1  0.83644028  0.00346482  0.87115903  1
  In  In32  1  0.83829697  0.33033000  0.37249208  1
  In  In33  1  0.83292904  0.32931375  0.88799762  1
  In  In34  1  0.83427461  0.66279158  0.38156356  1
  In  In35  1  0.80956265  0.68485027  0.89555137  1
  In  In36  1  -0.00229197  0.17394983  0.38372926  1
  In  In37  1  0.00809553  0.16060152  0.87847193  1
  In  In38  1  0.01295309  0.47892582  0.39166378  1
  In  In39  1  -0.00181053  0.50216222  0.87943684  1
  In  In40  1  -0.00210039  0.83690856  0.37953191  1
  In  In41  1  -0.00996423  0.84261468  0.87929737  1
  In  In42  1  0.33882008  0.15768534  0.38127842  1
  In  In43  1  0.33401426  0.14974413  0.87423316  1
  In  In44  1  0.31744060  0.48810160  0.37150583  1
  In  In45  1  0.31944496  0.50422536  0.87969801  1
  In  In46  1  0.31840441  0.83056203  0.37505270  1
  In  In47  1  0.33101201  0.83273649  0.87788065  1
  In  In48  1  0.66357151  0.17101831  0.37644004  1
  In  In49  1  0.68698419  0.16615906  0.87502817  1
  In  In50  1  0.69145339  0.49398338  0.37707136  1
  In  In51  1  0.66581463  0.51358951  0.88236327  1
  In  In52  1  0.67194635  0.84210206  0.37514143  1
  In  In53  1  0.66545398  0.83565809  0.87433979  1
  In  In54  1  0.17276703  0.01211460  0.12334924  1
  In  In55  1  0.16835485  -0.00389696  0.62802417  1
  In  In56  1  0.15583346  0.32578846  0.12577687  1
  In  In57  1  0.15233473  0.32528407  0.60600258  1
  In  In58  1  0.16726957  0.66224169  0.10939480  1
  In  In59  1  0.16762791  0.67236144  0.62253974  1
  In  In60  1  0.49627000  -0.01145280  0.11956890  1
  In  In61  1  0.49875463  0.00466145  0.63177905  1
  In  In62  1  0.51080033  0.33816333  0.12979855  1
  In  In63  1  0.51289886  0.32973355  0.61968494  1
  In  In64  1  0.48655918  0.67490256  0.11352326  1
  In  In65  1  0.49438022  0.67377280  0.63917223  1
  In  In66  1  0.82840527  -0.00439496  0.11662699  1
  In  In67  1  0.83844954  -0.00090816  0.62648373  1
  In  In68  1  0.83860376  0.33506842  0.12858323  1
  In  In69  1  0.83652396  0.33464868  0.61221238  1
  In  In70  1  0.83151526  0.66832694  0.11138421  1
  In  In71  1  0.82640274  0.66384692  0.62529586  1
  In  In72  1  -0.00314431  0.66243987  0.23925562  1
  In  In73  1  0.32891083  0.32875994  0.25090124  1
  In  In74  1  -0.00275223  0.32965435  0.73620738  1
  In  In75  1  0.49856542  0.49651781  0.50030517  1
  In  In76  1  0.32725679  0.32753645  0.74216970  1
  In  In77  1  -0.00071152  0.00228118  0.25510268  1
  In  In78  1  0.66811063  0.00475007  0.23861239  1
  In  In79  1  0.32732831  0.66727510  0.24653109  1
  In  In80  1  0.50008710  0.16358149  0.00204402  1
  In  In81  1  0.50436890  0.50345839  -0.00158658  1
  In  In82  1  -0.00284768  0.67114239  0.75357544  1
  In  In83  1  0.66822037  0.33216414  0.74800939  1
  In  In84  1  0.66806509  0.66598601  0.24058523  1
  In  In85  1  0.49780924  0.83789595  0.51575763  1
  Cu  Cu86  1  0.33464007  -0.00552165  0.50561524  1
  Cu  Cu87  1  0.31901972  0.66224991  0.50098828  1
  Cu  Cu88  1  0.32383813  -0.00192462  -0.00509149  1
  Cu  Cu89  1  -0.00025963  0.32967111  0.00608003  1
  Cu  Cu90  1  -0.00401920  0.00286251  -0.00046368  1
  Cu  Cu91  1  0.51031313  0.50217614  0.24845857  1
  Cu  Cu92  1  0.84171146  0.16297855  0.74827676  1
  Cu  Cu93  1  0.49350432  0.84276744  0.23970028  1
  Cu  Cu94  1  -0.00590984  0.67034823  0.50275486  1
  Cu  Cu95  1  0.83293625  0.83863499  0.75563085  1
  Cu  Cu96  1  0.66570629  0.67333962  0.50581428  1
  Cu  Cu97  1  0.49403289  0.50933390  0.75809244  1
  Cu  Cu98  1  0.17085977  0.83405308  0.75285851  1
  Cu  Cu99  1  0.33209420  0.32827157  0.49397006  1
  Cu  Cu100  1  0.00641035  0.66506752  -0.00463252  1
  Cu  Cu101  1  0.68168472  0.00585646  0.49997310  1
  Cu  Cu102  1  0.66989792  0.32890018  0.49567192  1
  Cu  Cu103  1  0.16587838  0.50142495  0.75189495  1
  Cu  Cu104  1  0.50507994  0.83588883  0.75337646  1
  Cu  Cu105  1  0.17162497  0.15447651  0.75132053  1
  Cu  Cu106  1  0.49847392  0.16583773  0.25265673  1
  Cu  Cu107  1  0.00475943  -0.00193416  0.50126321  1
  Cu  Cu108  1  0.66451180  0.00034664  -0.00781175  1
  Cu  Cu109  1  0.82631676  0.51123495  0.75516997  1
  Cu  Cu110  1  0.16558351  0.83930179  0.24860000  1
  Cu  Cu111  1  0.32800420  0.32952940  0.00298756  1
  Cu  Cu112  1  0.84675905  0.49117318  0.25364465  1
  Cu  Cu113  1  0.83696805  0.16890626  0.24998472  1
  Cu  Cu114  1  0.50361510  0.15948481  0.74736881  1
  Se  Se115  1  0.07918058  0.08354652  0.05566846  1
  Se  Se116  1  0.08933637  0.07880037  0.55618861  1
  Se  Se117  1  0.08536553  0.41624782  0.05520419  1
  Se  Se118  1  0.08387835  0.42502360  0.54598330  1
  Se  Se119  1  0.08562919  0.75342876  0.04792782  1
  Se  Se120  1  0.08128321  0.75136768  0.55534285  1
  Se  Se121  1  0.40122395  0.07949601  0.05918529  1
  Se  Se122  1  0.42167477  0.07888221  0.55478498  1
  Se  Se123  1  0.41322553  0.40817551  0.05951895  1
  Se  Se124  1  0.40624913  0.40798995  0.56124690  1
  Se  Se125  1  0.41578971  0.75767195  0.04225169  1
  Se  Se126  1  0.40323663  0.73840720  0.56131204  1
  Se  Se127  1  0.74711151  0.08036254  0.04892675  1
  Se  Se128  1  0.76329149  0.08877305  0.55520656  1
  Se  Se129  1  0.76733272  0.42429096  0.05708551  1
  Se  Se130  1  0.74081073  0.41736556  0.55422405  1
  Se  Se131  1  0.74559434  0.74567852  0.04421672  1
  Se  Se132  1  0.75086036  0.75559853  0.55716640  1
  Se  Se133  1  0.24299694  0.24771511  0.05486465  1
  Se  Se134  1  0.25149930  0.24466479  0.55033315  1
  Se  Se135  1  0.27012652  0.59620405  0.04785701  1
  Se  Se136  1  0.24133295  0.57671197  0.55585629  1
  Se  Se137  1  0.24105787  0.91959243  0.05300620  1
  Se  Se138  1  0.24978813  0.91117825  0.55715107  1
  Se  Se139  1  0.59133800  0.25887099  0.05510283  1
  Se  Se140  1  0.58486365  0.24605212  0.54782005  1
  Se  Se141  1  0.59162488  0.58799955  0.06425946  1
  Se  Se142  1  0.58085960  0.59284281  0.56244505  1
  Se  Se143  1  0.57853823  0.91874250  0.04498275  1
  Se  Se144  1  0.59873771  0.92829952  0.56216882  1
  Se  Se145  1  0.91609611  0.24599130  0.05902345  1
  Se  Se146  1  0.93742853  0.26742445  0.55236277  1
  Se  Se147  1  0.92573699  0.58485973  0.05408812  1
  Se  Se148  1  0.91004840  0.58604468  0.55495200  1
  Se  Se149  1  0.91257161  0.91468661  0.04894613  1
  Se  Se150  1  0.91785814  0.91614454  0.55421099  1
  Se  Se151  1  0.08148743  0.24855565  0.45582449  1
  Se  Se152  1  0.08250298  0.24747975  0.94954091  1
  Se  Se153  1  0.07868803  0.58789453  0.44924822  1
  Se  Se154  1  0.08911013  0.57833224  0.94532238  1
  Se  Se155  1  0.08637488  0.91274067  0.44716040  1
  Se  Se156  1  0.08018723  0.91939450  0.94646906  1
  Se  Se157  1  0.42169347  0.24385386  0.44918863  1
  Se  Se158  1  0.40935347  0.25600341  0.93955763  1
  Se  Se159  1  0.40270652  0.58619387  0.43997359  1
  Se  Se160  1  0.41845562  0.58994754  0.93535563  1
  Se  Se161  1  0.41464286  0.91636437  0.44117660  1
  Se  Se162  1  0.41551423  0.92006138  0.94536138  1
  Se  Se163  1  0.75467517  0.24667104  0.44288323  1
  Se  Se164  1  0.74917379  0.24562113  0.95283061  1
  Se  Se165  1  0.74573805  0.58763666  0.45165554  1
  Se  Se166  1  0.76624733  0.56547679  0.95102569  1
  Se  Se167  1  0.75537062  0.91378724  0.44750287  1
  Se  Se168  1  0.75266689  0.92089924  0.93991629  1
  Se  Se169  1  0.25316090  0.07737738  0.44942535  1
  Se  Se170  1  0.24243086  0.08685098  0.94574950  1
  Se  Se171  1  0.24593355  0.41508469  0.44866234  1
  Se  Se172  1  0.24792257  0.41757197  0.95087911  1
  Se  Se173  1  0.24273438  0.75200493  0.44836899  1
  Se  Se174  1  0.24239599  0.76080680  0.94813252  1
  Se  Se175  1  0.59025572  0.08044598  0.44626347  1
  Se  Se176  1  0.58247717  0.07980459  0.93260293  1
  Se  Se177  1  0.58640915  0.40976102  0.43591000  1
  Se  Se178  1  0.59863634  0.40601183  0.94756082  1
  Se  Se179  1  0.58422855  0.75066249  0.44507952  1
  Se  Se180  1  0.60072252  0.74405517  0.94759295  1
  Se  Se181  1  0.91918409  0.08218515  0.44980219  1
  Se  Se182  1  0.91431075  0.08667679  0.94409696  1
  Se  Se183  1  0.88901542  0.43689152  0.43972727  1
  Se  Se184  1  0.92275446  0.41387349  0.94806651  1
  Se  Se185  1  0.91406111  0.75294806  0.44609011  1
  Se  Se186  1  0.91918631  0.75189265  0.94921419  1
  Se  Se187  1  0.24682870  0.24599426  0.31898221  1
  Se  Se188  1  0.24123727  0.24506954  0.81103871  1
  Se  Se189  1  0.23580844  0.57836737  0.30505222  1
  Se  Se190  1  0.24887198  0.58446454  0.80330270  1
  Se  Se191  1  0.25092364  0.91811728  0.30264198  1
  Se  Se192  1  0.25333331  0.91870542  0.80641019  1
  Se  Se193  1  0.58703943  0.24837183  0.30003147  1
  Se  Se194  1  0.57682235  0.24264184  0.80964759  1
  Se  Se195  1  0.58479702  0.58040981  0.31299170  1
  Se  Se196  1  0.58652106  0.58571318  0.80691619  1
  Se  Se197  1  0.57743449  0.91427998  0.30299675  1
  Se  Se198  1  0.59053710  0.92174628  0.80195639  1
  Se  Se199  1  0.92250578  0.24706855  0.30476850  1
  Se  Se200  1  0.91381029  0.24975213  0.80863368  1
  Se  Se201  1  0.91963116  0.57851382  0.31215731  1
  Se  Se202  1  0.90603794  0.58785859  0.81667548  1
  Se  Se203  1  0.90531874  0.90487443  0.30452289  1
  Se  Se204  1  0.92193153  0.92208856  0.80144486  1
  Se  Se205  1  0.08793468  0.08844789  0.31580811  1
  Se  Se206  1  0.08150825  0.07902803  0.80436039  1
  Se  Se207  1  0.08403839  0.41803973  0.30776864  1
  Se  Se208  1  0.08309669  0.41724489  0.80506911  1
  Se  Se209  1  0.08435495  0.75576670  0.30457293  1
  Se  Se210  1  0.08913569  0.75619795  0.81468118  1
  Se  Se211  1  0.41559030  0.08149156  0.30321414  1
  Se  Se212  1  0.41362470  0.08072526  0.79761251  1
  Se  Se213  1  0.42529421  0.42391183  0.30737911  1
  Se  Se214  1  0.41416984  0.41872629  0.80798984  1
  Se  Se215  1  0.42275360  0.75904587  0.30465286  1
  Se  Se216  1  0.41880278  0.75527572  0.80707558  1
  Se  Se217  1  0.75730926  0.08423844  0.30788166  1
  Se  Se218  1  0.75234698  0.08350529  0.79875240  1
  Se  Se219  1  0.75316870  0.41066746  0.29974544  1
  Se  Se220  1  0.75494361  0.41885492  0.81230583  1
  Se  Se221  1  0.75286077  0.75097521  0.30817419  1
  Se  Se222  1  0.75191499  0.75059397  0.80648582  1
  Se  Se223  1  0.24125862  0.08035556  0.20658510  1
  Se  Se224  1  0.25747258  0.07540610  0.69727467  1
  Se  Se225  1  0.24336761  0.42187791  0.19190728  1
  Se  Se226  1  0.23348998  0.41682112  0.68567982  1
  Se  Se227  1  0.24043241  0.75724365  0.18539624  1
  Se  Se228  1  0.24758712  0.74466040  0.69900098  1
  Se  Se229  1  0.57387419  0.09391551  0.18179276  1
  Se  Se230  1  0.59360199  0.08345168  0.69478367  1
  Se  Se231  1  0.59318999  0.41427142  0.20132385  1
  Se  Se232  1  0.57140452  0.42777429  0.69533949  1
  Se  Se233  1  0.57434904  0.75929487  0.18458491  1
  Se  Se234  1  0.58778324  0.74903056  0.70239469  1
  Se  Se235  1  0.90902246  0.08404469  0.18835138  1
  Se  Se236  1  0.92562822  0.08171882  0.69461006  1
  Se  Se237  1  0.92895043  0.40825697  0.19982560  1
  Se  Se238  1  0.90146309  0.43032257  0.69135932  1
  Se  Se239  1  0.90318139  0.75641001  0.18852781  1
  Se  Se240  1  0.91126327  0.76023876  0.69055752  1
  Se  Se241  1  0.09204580  0.24254722  0.20263731  1
  Se  Se242  1  0.09551845  0.23635151  0.68855364  1
  Se  Se243  1  0.09614986  0.57723802  0.18657077  1
  Se  Se244  1  0.08093583  0.57679459  0.69142414  1
  Se  Se245  1  0.08056853  0.91189600  0.18757496  1
  Se  Se246  1  0.08573895  0.91691207  0.70076914  1
  Se  Se247  1  0.41979993  0.24209469  0.18685861  1
  Se  Se248  1  0.42632271  0.24188581  0.68663579  1
  Se  Se249  1  0.42599523  0.57759966  0.19064624  1
  Se  Se250  1  0.40887196  0.58742737  0.70287198  1
  Se  Se251  1  0.40454477  0.92200055  0.19095786  1
  Se  Se252  1  0.42014668  0.91475279  0.69713364  1
  Se  Se253  1  0.75166254  0.25136582  0.19737899  1
  Se  Se254  1  0.76251234  0.24635436  0.68826823  1
  Se  Se255  1  0.76802596  0.57430682  0.19254363  1
  Se  Se256  1  0.74276182  0.59220748  0.70108605  1
  Se  Se257  1  0.75330193  0.90286908  0.18868280  1
  Se  Se258  1  0.75282685  0.92140444  0.69784190  1
