# generated using pymatgen
data_In86Cu29Se144
_symmetry_space_group_name_H-M   'P 1'
_cell_length_a   17.57435985
_cell_length_b   17.57674509
_cell_length_c   23.43696040
_cell_angle_alpha   90.01726520
_cell_angle_beta   89.99754101
_cell_angle_gamma   90.00674448
_symmetry_Int_Tables_number   1
_chemical_formula_structural   In86Cu29Se144
_chemical_formula_sum   'In86 Cu29 Se144'
_cell_volume   7239.67769471
_cell_formula_units_Z   1
loop_
 _symmetry_equiv_pos_site_id
 _symmetry_equiv_pos_as_xyz
  1  'x, y, z'
loop_
 _atom_site_type_symbol
 _atom_site_label
 _atom_site_symmetry_multiplicity
 _atom_site_fract_x
 _atom_site_fract_y
 _atom_site_fract_z
 _atom_site_occupancy
  In  In0  1  -0.00888494  0.18518824  0.13777769  1
  In  In1  1  -0.00960755  0.15679946  0.61635893  1
  In  In2  1  -0.00003439  0.50232055  0.12410478  1
  In  In3  1  0.01507843  0.49859710  0.62573931  1
  In  In4  1  -0.01258461  0.83597794  0.12924535  1
  In  In5  1  0.00103869  0.83366956  0.62654601  1
  In  In6  1  0.34368005  0.17093113  0.12789580  1
  In  In7  1  0.32271415  0.15500989  0.61529092  1
  In  In8  1  0.31993355  0.49522474  0.11102109  1
  In  In9  1  0.32870077  0.50980815  0.62735248  1
  In  In10  1  0.33421736  0.83877105  0.12333065  1
  In  In11  1  0.33208266  0.83608598  0.62696086  1
  In  In12  1  0.67375078  0.17691226  0.12548536  1
  In  In13  1  0.67115141  0.17214940  0.61960037  1
  In  In14  1  0.65829373  0.48538336  0.11549121  1
  In  In15  1  0.65377654  0.49280900  0.63118298  1
  In  In16  1  0.66704420  0.82285630  0.12240851  1
  In  In17  1  0.66835934  0.83884589  0.61763256  1
  In  In18  1  0.16657843  0.00019000  0.38602663  1
  In  In19  1  0.16288466  0.00051731  0.86077867  1
  In  In20  1  0.17096104  0.33049002  0.37462870  1
  In  In21  1  0.17787668  0.33714356  0.87932485  1
  In  In22  1  0.15629973  0.67393909  0.38293332  1
  In  In23  1  0.16744120  0.66582258  0.86909409  1
  In  In24  1  0.49960386  0.00112198  0.38360893  1
  In  In25  1  0.50077971  0.00523635  0.87184637  1
  In  In26  1  0.48188122  0.30983689  0.34848336  1
  In  In27  1  0.50458784  0.32521770  0.88368686  1
  In  In28  1  0.50220112  0.67563840  0.37787496  1
  In  In29  1  0.47723944  0.66438654  0.87644472  1
  In  In30  1  0.83277018  0.00439496  0.38394785  1
  In  In31  1  0.83722873  -0.00570509  0.88261787  1
  In  In32  1  0.82558602  0.31187605  0.35234143  1
  In  In33  1  0.82670633  0.34163214  0.88430873  1
  In  In34  1  0.84583197  0.66392182  0.37507608  1
  In  In35  1  0.84387122  0.66148831  0.87921123  1
  In  In36  1  -0.00087244  0.17439569  0.37566602  1
  In  In37  1  -0.00104774  0.15355259  0.87394816  1
  In  In38  1  0.00438218  0.50155424  0.36882340  1
  In  In39  1  -0.00537867  0.51026557  0.88286642  1
  In  In40  1  0.00599161  0.82846516  0.38331132  1
  In  In41  1  -0.00010652  0.82954885  0.86775161  1
  In  In42  1  0.33041177  0.17267302  0.37990252  1
  In  In43  1  0.34211848  0.16465192  0.87699115  1
  In  In44  1  0.33423785  0.48408999  0.37386651  1
  In  In45  1  0.32236838  0.51627288  0.89607672  1
  In  In46  1  0.33181735  0.83162654  0.38496457  1
  In  In47  1  0.33918574  0.83122141  0.85919779  1
  In  In48  1  0.66524734  0.17306619  0.37620699  1
  In  In49  1  0.65790408  0.17618658  0.88112158  1
  In  In50  1  0.67445462  0.48941714  0.37008716  1
  In  In51  1  0.67506400  0.49066841  0.88263148  1
  In  In52  1  0.66188424  0.84298619  0.38686350  1
  In  In53  1  0.66797197  0.84576269  0.87538991  1
  In  In54  1  0.17570474  0.00314267  0.12249533  1
  In  In55  1  0.16626240  -0.00359910  0.62446355  1
  In  In56  1  0.15246578  0.34336596  0.13665490  1
  In  In57  1  0.16829356  0.33570393  0.60949879  1
  In  In58  1  0.16949815  0.64503029  0.12292466  1
  In  In59  1  0.16490046  0.66651245  0.62558178  1
  In  In60  1  0.48935314  0.01896912  0.12337094  1
  In  In61  1  0.48568313  -0.00897772  0.61817114  1
  In  In62  1  0.49912458  0.32720353  0.12969097  1
  In  In63  1  0.51296421  0.33324824  0.62619946  1
  In  In64  1  0.51024048  0.66698589  0.12007512  1
  In  In65  1  0.48122780  0.67107201  0.63347251  1
  In  In66  1  0.82823200  -0.00294201  0.11739123  1
  In  In67  1  0.83879732  0.00592043  0.62092187  1
  In  In68  1  0.83078300  0.33225718  0.12572799  1
  In  In69  1  0.83039148  0.32108147  0.62211321  1
  In  In70  1  0.84164879  0.67357605  0.11906209  1
  In  In71  1  0.83226157  0.68285674  0.62725470  1
  In  In72  1  0.50410569  0.83268509  -0.00462267  1
  In  In73  1  0.66177014  0.00345718  0.75450905  1
  In  In74  1  0.00031752  0.00422453  0.25937392  1
  In  In75  1  0.66630005  0.66463143  0.74881867  1
  In  In76  1  0.83809153  0.49740961  0.49198692  1
  In  In77  1  0.16256839  0.16821295  0.00118078  1
  In  In78  1  0.16571888  0.82961586  -0.00885172  1
  In  In79  1  0.49963834  0.49896362  0.50004549  1
  In  In80  1  0.33345234  0.00673038  0.24958776  1
  In  In81  1  0.33109758  0.66241189  0.25069223  1
  In  In82  1  0.00018286  0.33227359  0.74837888  1
  In  In83  1  0.66414664  0.00492840  0.25595273  1
  In  In84  1  0.33891192  0.33142316  0.75493498  1
  In  In85  1  0.66899873  0.66085476  0.24342816  1
  Cu  Cu86  1  0.16736651  0.83061155  0.74388986  1
  Cu  Cu87  1  0.33516689  0.33425887  0.00459410  1
  Cu  Cu88  1  0.83545120  0.49774797  0.75888041  1
  Cu  Cu89  1  0.67511647  0.66289948  -0.00131993  1
  Cu  Cu90  1  0.84116396  0.49640402  0.24510927  1
  Cu  Cu91  1  0.33632554  0.33077438  0.49214072  1
  Cu  Cu92  1  0.32631307  0.66776824  0.50633849  1
  Cu  Cu93  1  0.66795379  0.32882680  0.00560669  1
  Cu  Cu94  1  0.50007220  0.49294224  0.75775927  1
  Cu  Cu95  1  0.66360166  0.67428770  0.50279528  1
  Cu  Cu96  1  0.49776908  0.16334799  0.75101293  1
  Cu  Cu97  1  0.66387177  0.00658662  -0.00168411  1
  Cu  Cu98  1  0.33658057  -0.00037306  0.50432130  1
  Cu  Cu99  1  0.16367644  0.16090437  0.74049923  1
  Cu  Cu100  1  0.66652569  0.32992227  0.49303270  1
  Cu  Cu101  1  -0.00141366  0.33654817  0.00844029  1
  Cu  Cu102  1  0.16262682  0.49632262  0.24929711  1
  Cu  Cu103  1  0.84076932  0.83688699  0.75171718  1
  Cu  Cu104  1  0.00119642  0.33175135  0.49412297  1
  Cu  Cu105  1  0.00468027  -0.00334429  0.50269318  1
  Cu  Cu106  1  -0.00758449  0.00332526  0.00237898  1
  Cu  Cu107  1  0.16088138  0.82838803  0.25497036  1
  Cu  Cu108  1  -0.00227529  0.66862203  0.50235719  1
  Cu  Cu109  1  0.00460438  0.67088915  -0.00184464  1
  Cu  Cu110  1  0.67248560  0.00654248  0.50168878  1
  Cu  Cu111  1  0.83023257  0.16811176  0.74552991  1
  Cu  Cu112  1  0.50101824  0.49773137  0.24177264  1
  Cu  Cu113  1  0.16949512  0.50484954  0.75270019  1
  Cu  Cu114  1  0.83145559  0.82456576  0.25159616  1
  Se  Se115  1  0.07132096  0.08097291  0.06476282  1
  Se  Se116  1  0.08773959  0.08360398  0.55388457  1
  Se  Se117  1  0.08680359  0.42007664  0.05563304  1
  Se  Se118  1  0.08038054  0.41986284  0.54626662  1
  Se  Se119  1  0.08104106  0.74960961  0.06298703  1
  Se  Se120  1  0.08242673  0.74984676  0.55665291  1
  Se  Se121  1  0.39943885  0.08040485  0.05150340  1
  Se  Se122  1  0.42293065  0.08966949  0.54960760  1
  Se  Se123  1  0.42202487  0.41442936  0.05806218  1
  Se  Se124  1  0.40865519  0.40914961  0.56177022  1
  Se  Se125  1  0.41113124  0.74556396  0.05644545  1
  Se  Se126  1  0.41425565  0.75014257  0.55579466  1
  Se  Se127  1  0.74740511  0.08656085  0.05440525  1
  Se  Se128  1  0.75717359  0.09054614  0.55306401  1
  Se  Se129  1  0.75638743  0.41600948  0.05105321  1
  Se  Se130  1  0.74030972  0.41565076  0.55496426  1
  Se  Se131  1  0.75292354  0.75236666  0.05074624  1
  Se  Se132  1  0.75347097  0.75472513  0.55158450  1
  Se  Se133  1  0.24793874  0.25791234  0.06395882  1
  Se  Se134  1  0.25206005  0.24837328  0.54685329  1
  Se  Se135  1  0.25861399  0.59626481  0.04550845  1
  Se  Se136  1  0.24366221  0.57915606  0.55429955  1
  Se  Se137  1  0.25715695  0.92365820  0.04955725  1
  Se  Se138  1  0.25034049  0.91555598  0.55474940  1
  Se  Se139  1  0.58043738  0.24675719  0.05659382  1
  Se  Se140  1  0.58312437  0.25146216  0.55081177  1
  Se  Se141  1  0.58737436  0.58334484  0.05069184  1
  Se  Se142  1  0.58527895  0.59266042  0.56311476  1
  Se  Se143  1  0.58593379  0.92580214  0.06202743  1
  Se  Se144  1  0.58544106  0.92320730  0.55217532  1
  Se  Se145  1  0.91582636  0.24823087  0.05571168  1
  Se  Se146  1  0.91667992  0.25150605  0.55017289  1
  Se  Se147  1  0.92138988  0.58636537  0.05202611  1
  Se  Se148  1  0.91798274  0.58586649  0.56171454  1
  Se  Se149  1  0.91385158  0.91180178  0.05238804  1
  Se  Se150  1  0.91808988  0.91564162  0.55605546  1
  Se  Se151  1  0.08889811  0.24761120  0.44549106  1
  Se  Se152  1  0.07259609  0.25953779  0.93935365  1
  Se  Se153  1  0.07535710  0.58226828  0.44634419  1
  Se  Se154  1  0.08942940  0.58862356  0.94501009  1
  Se  Se155  1  0.08830013  0.91098515  0.45165457  1
  Se  Se156  1  0.07531921  0.92895882  0.94004181  1
  Se  Se157  1  0.42716115  0.25295469  0.44188238  1
  Se  Se158  1  0.41380725  0.24723001  0.95059619  1
  Se  Se159  1  0.40613034  0.59046645  0.44121690  1
  Se  Se160  1  0.43370170  0.57205896  0.95421993  1
  Se  Se161  1  0.41808629  0.91469209  0.45000498  1
  Se  Se162  1  0.40997460  0.91924752  0.93726978  1
  Se  Se163  1  0.75813728  0.25319055  0.44122861  1
  Se  Se164  1  0.75123299  0.24733472  0.94891529  1
  Se  Se165  1  0.73843795  0.59162493  0.44087351  1
  Se  Se166  1  0.75928034  0.57917211  0.94622949  1
  Se  Se167  1  0.75481073  0.91745569  0.45186434  1
  Se  Se168  1  0.74724763  0.91754314  0.95073223  1
  Se  Se169  1  0.25536908  0.08335664  0.44851826  1
  Se  Se170  1  0.24639318  0.07739335  0.93748309  1
  Se  Se171  1  0.24843661  0.41765373  0.44779447  1
  Se  Se172  1  0.24602031  0.41676448  0.95574713  1
  Se  Se173  1  0.24451527  0.75126741  0.45065826  1
  Se  Se174  1  0.26362383  0.74585409  0.93606556  1
  Se  Se175  1  0.58859763  0.08597763  0.44526346  1
  Se  Se176  1  0.57677888  0.08513258  0.94537217  1
  Se  Se177  1  0.58263616  0.40949748  0.43553856  1
  Se  Se178  1  0.58644557  0.41222347  0.94981131  1
  Se  Se179  1  0.57681795  0.75571599  0.45125050  1
  Se  Se180  1  0.59329302  0.73938098  0.93520728  1
  Se  Se181  1  0.92648972  0.08272878  0.44574044  1
  Se  Se182  1  0.91186738  0.08914036  0.94900310  1
  Se  Se183  1  0.91769552  0.40342063  0.43028623  1
  Se  Se184  1  0.91912903  0.41887644  0.94879531  1
  Se  Se185  1  0.91285473  0.75030542  0.44893228  1
  Se  Se186  1  0.92152548  0.75466910  0.94402056  1
  Se  Se187  1  0.26792100  0.26341425  0.30715307  1
  Se  Se188  1  0.23965943  0.23809858  0.80648353  1
  Se  Se189  1  0.24042157  0.57692872  0.31311201  1
  Se  Se190  1  0.25850173  0.57938488  0.80768123  1
  Se  Se191  1  0.24469025  0.91040789  0.30987620  1
  Se  Se192  1  0.24918793  0.91559047  0.79772258  1
  Se  Se193  1  0.60276838  0.26056492  0.30042721  1
  Se  Se194  1  0.57825433  0.24878239  0.80477459  1
  Se  Se195  1  0.57438950  0.57635599  0.30830373  1
  Se  Se196  1  0.58259151  0.57678558  0.81458647  1
  Se  Se197  1  0.57392392  0.90911800  0.30967307  1
  Se  Se198  1  0.56988281  0.90412049  0.80304810  1
  Se  Se199  1  0.93181792  0.24719376  0.29423053  1
  Se  Se200  1  0.90946775  0.24622225  0.81012314  1
  Se  Se201  1  0.91730317  0.58299717  0.30076677  1
  Se  Se202  1  0.92153833  0.58455469  0.80350847  1
  Se  Se203  1  0.90792189  0.90725768  0.31286086  1
  Se  Se204  1  0.91854486  0.92404378  0.80628253  1
  Se  Se205  1  0.09936031  0.09008473  0.31156638  1
  Se  Se206  1  0.07606838  0.08366465  0.79542646  1
  Se  Se207  1  0.08423942  0.41115126  0.30481832  1
  Se  Se208  1  0.08969606  0.42093518  0.81103334  1
  Se  Se209  1  0.07639789  0.74650811  0.30627874  1
  Se  Se210  1  0.08516132  0.74852514  0.80098789  1
  Se  Se211  1  0.42610816  0.08995046  0.31076809  1
  Se  Se212  1  0.41254872  0.08121654  0.80204568  1
  Se  Se213  1  0.41281681  0.41921853  0.29477394  1
  Se  Se214  1  0.41655803  0.42154118  0.82148360  1
  Se  Se215  1  0.41833357  0.75874422  0.30700324  1
  Se  Se216  1  0.42295033  0.74439221  0.79562004  1
  Se  Se217  1  0.76300448  0.09079612  0.30857770  1
  Se  Se218  1  0.75469245  0.09113788  0.81293937  1
  Se  Se219  1  0.75203093  0.41634506  0.29530122  1
  Se  Se220  1  0.74961075  0.41241618  0.80537128  1
  Se  Se221  1  0.74663884  0.75214729  0.31372263  1
  Se  Se222  1  0.75679773  0.75680230  0.80964214  1
  Se  Se223  1  0.23938503  0.09683266  0.19447364  1
  Se  Se224  1  0.25312163  0.07853662  0.69369239  1
  Se  Se225  1  0.25306071  0.42329814  0.19363716  1
  Se  Se226  1  0.24198907  0.41568807  0.69317310  1
  Se  Se227  1  0.24166936  0.75568956  0.18969872  1
  Se  Se228  1  0.25209709  0.74546720  0.69359115  1
  Se  Se229  1  0.57753116  0.09423552  0.19410124  1
  Se  Se230  1  0.57789261  0.08785774  0.68674532  1
  Se  Se231  1  0.58821703  0.41272057  0.19534598  1
  Se  Se232  1  0.58378447  0.40993600  0.70548606  1
  Se  Se233  1  0.57284797  0.75957695  0.19694648  1
  Se  Se234  1  0.58127259  0.75813101  0.68951700  1
  Se  Se235  1  0.90766021  0.07969409  0.19207927  1
  Se  Se236  1  0.91603227  0.08475198  0.69591899  1
  Se  Se237  1  0.92283918  0.41256850  0.19158580  1
  Se  Se238  1  0.90871081  0.42228709  0.68819965  1
  Se  Se239  1  0.91769136  0.74480587  0.19930145  1
  Se  Se240  1  0.92057251  0.74952902  0.69919749  1
  Se  Se241  1  0.08841797  0.24639039  0.20410144  1
  Se  Se242  1  0.08874868  0.24778309  0.68307079  1
  Se  Se243  1  0.08149170  0.58371128  0.19767438  1
  Se  Se244  1  0.08351728  0.58437959  0.69882961  1
  Se  Se245  1  0.08998386  0.91519867  0.19268794  1
  Se  Se246  1  0.08219695  0.91785418  0.69568225  1
  Se  Se247  1  0.41604061  0.25036733  0.20169257  1
  Se  Se248  1  0.41901799  0.24271143  0.68726337  1
  Se  Se249  1  0.42083872  0.57984798  0.18480488  1
  Se  Se250  1  0.41765922  0.57367825  0.70184903  1
  Se  Se251  1  0.42576266  0.91342545  0.19210911  1
  Se  Se252  1  0.41349316  0.92012372  0.69581235  1
  Se  Se253  1  0.75537732  0.24926771  0.19862887  1
  Se  Se254  1  0.74515680  0.25260649  0.69647572  1
  Se  Se255  1  0.75795373  0.57339740  0.18257646  1
  Se  Se256  1  0.75905559  0.57318731  0.68971448  1
  Se  Se257  1  0.75200527  0.90760067  0.19419472  1
  Se  Se258  1  0.75543984  0.91483504  0.69394336  1
