# generated using pymatgen
data_In86Cu29Se144
_symmetry_space_group_name_H-M   'P 1'
_cell_length_a   17.71161344
_cell_length_b   17.70172953
_cell_length_c   23.56304620
_cell_angle_alpha   89.96876579
_cell_angle_beta   89.96230766
_cell_angle_gamma   90.01780889
_symmetry_Int_Tables_number   1
_chemical_formula_structural   In86Cu29Se144
_chemical_formula_sum   'In86 Cu29 Se144'
_cell_volume   7387.62906120
_cell_formula_units_Z   1
loop_
 _symmetry_equiv_pos_site_id
 _symmetry_equiv_pos_as_xyz
  1  'x, y, z'
loop_
 _atom_site_type_symbol
 _atom_site_label
 _atom_site_symmetry_multiplicity
 _atom_site_fract_x
 _atom_site_fract_y
 _atom_site_fract_z
 _atom_site_occupancy
  In  In0  1  -0.00553451  0.17442465  0.12172710  1
  In  In1  1  -0.01016706  0.16155406  0.61606662  1
  In  In2  1  -0.00390372  0.48196520  0.11659622  1
  In  In3  1  0.01086797  0.51952842  0.60681278  1
  In  In4  1  0.00039138  0.84136450  0.12266629  1
  In  In5  1  -0.00422448  0.83770203  0.63581251  1
  In  In6  1  0.32947815  0.18721377  0.12804870  1
  In  In7  1  0.33832222  0.18211890  0.61908150  1
  In  In8  1  0.32657524  0.49989369  0.12877291  1
  In  In9  1  0.33126436  0.49821124  0.62335864  1
  In  In10  1  0.32881155  0.82364367  0.12169605  1
  In  In11  1  0.32475566  0.83204911  0.62707513  1
  In  In12  1  0.67258395  0.16869585  0.14327725  1
  In  In13  1  0.67094415  0.17045892  0.61991387  1
  In  In14  1  0.69128363  0.44062912  0.17441468  1
  In  In15  1  0.66669760  0.50859307  0.61421483  1
  In  In16  1  0.66687301  0.83454707  0.12794700  1
  In  In17  1  0.67939374  0.83988640  0.62911336  1
  In  In18  1  0.16016793  0.01739888  0.37522763  1
  In  In19  1  0.16206094  0.01331965  0.87508752  1
  In  In20  1  0.17084302  0.33550936  0.36815886  1
  In  In21  1  0.17072704  0.32480002  0.88039210  1
  In  In22  1  0.14919723  0.56394575  0.36315418  1
  In  In23  1  0.15818744  0.65807932  0.86607227  1
  In  In24  1  0.51604003  0.00446247  0.37155852  1
  In  In25  1  0.49982324  -0.00515060  0.87097572  1
  In  In26  1  0.49803091  0.33289098  0.37442612  1
  In  In27  1  0.49822809  0.34547811  0.87238625  1
  In  In28  1  0.47562892  0.64054863  0.35196492  1
  In  In29  1  0.49776332  0.67308905  0.87055148  1
  In  In30  1  0.85123746  0.01517488  0.35753052  1
  In  In31  1  0.83674852  0.00736023  0.87012159  1
  In  In32  1  0.83489703  0.33005260  0.37630571  1
  In  In33  1  0.86951210  0.31184298  0.90967947  1
  In  In34  1  0.82757360  0.65929226  0.37688942  1
  In  In35  1  0.84352062  0.64680061  0.88025314  1
  In  In36  1  0.00277787  0.17405168  0.37319370  1
  In  In37  1  0.00768687  0.16023796  0.87738804  1
  In  In38  1  0.01857226  0.46226292  0.43264321  1
  In  In39  1  0.00114789  0.49714871  0.87834529  1
  In  In40  1  -0.00634502  0.82325542  0.37154891  1
  In  In41  1  0.00442060  0.83733624  0.86785075  1
  In  In42  1  0.31191293  0.18851716  0.38293669  1
  In  In43  1  0.32374679  0.16635171  0.87522901  1
  In  In44  1  0.34078901  0.48982144  0.36831055  1
  In  In45  1  0.32127917  0.48949047  0.86201318  1
  In  In46  1  0.33626692  0.82385993  0.37747328  1
  In  In47  1  0.34389785  0.82676559  0.87123515  1
  In  In48  1  0.67250116  0.16085173  0.37348167  1
  In  In49  1  0.68156295  0.17234516  0.87806745  1
  In  In50  1  0.65974770  0.50160622  0.37538926  1
  In  In51  1  0.67795238  0.49879669  0.87736744  1
  In  In52  1  0.66776222  0.83235271  0.36739076  1
  In  In53  1  0.65896426  0.83837094  0.87314302  1
  In  In54  1  0.13870516  0.01195078  0.13155237  1
  In  In55  1  0.15437704  -0.00120046  0.62522827  1
  In  In56  1  0.16640504  0.33500292  0.11978627  1
  In  In57  1  0.16646573  0.34674945  0.61353022  1
  In  In58  1  0.18007156  0.65580941  0.12760492  1
  In  In59  1  0.17418125  0.66402335  0.62650963  1
  In  In60  1  0.51276486  0.00680674  0.12630786  1
  In  In61  1  0.50924824  0.02169998  0.62111688  1
  In  In62  1  0.50041060  0.34052389  0.14484062  1
  In  In63  1  0.49874388  0.33107326  0.61777774  1
  In  In64  1  0.51317395  0.64148253  0.14444495  1
  In  In65  1  0.49019399  0.65178285  0.61826985  1
  In  In66  1  0.81543371  0.02848612  0.14097912  1
  In  In67  1  0.83091846  0.00678714  0.63234176  1
  In  In68  1  0.83770351  0.32887346  0.13003298  1
  In  In69  1  0.84777170  0.34179544  0.60738806  1
  In  In70  1  0.83220108  0.64165604  0.12895472  1
  In  In71  1  0.83744597  0.67066247  0.62524746  1
  In  In72  1  0.17039612  0.83358107  -0.00352903  1
  In  In73  1  0.67252155  0.33522679  0.74944942  1
  In  In74  1  0.49721661  0.83375380  0.00035386  1
  In  In75  1  0.16933283  0.82798903  0.49886120  1
  In  In76  1  0.66609939  0.67247301  0.75073601  1
  In  In77  1  -0.00078373  0.66175183  0.25160689  1
  In  In78  1  0.50343083  0.50656501  0.00659874  1
  In  In79  1  0.33610795  -0.00267172  0.25460455  1
  In  In80  1  0.50199777  0.83550299  0.50013402  1
  In  In81  1  0.00108154  0.33426147  0.74293551  1
  In  In82  1  0.83635231  0.83454606  -0.00939806  1
  In  In83  1  0.33138774  -0.00181553  0.74827083  1
  In  In84  1  0.50641410  0.16602204  0.00616909  1
  In  In85  1  0.83008331  0.83461644  0.49393874  1
  Cu  Cu86  1  0.32729629  0.65484835  0.49311782  1
  Cu  Cu87  1  0.16362587  0.50164758  0.74153376  1
  Cu  Cu88  1  0.16369024  0.17096205  0.24865419  1
  Cu  Cu89  1  0.50066157  0.83355508  0.74836505  1
  Cu  Cu90  1  0.16489230  0.82934700  0.74768360  1
  Cu  Cu91  1  0.33615881  0.33920039  0.49871245  1
  Cu  Cu92  1  0.66129540  0.32706138  0.49130003  1
  Cu  Cu93  1  0.50011434  0.16413456  0.25730062  1
  Cu  Cu94  1  0.67316830  0.33987848  0.01516821  1
  Cu  Cu95  1  0.33891422  0.01026410  0.49909536  1
  Cu  Cu96  1  0.83761673  0.49507187  0.25650077  1
  Cu  Cu97  1  0.49362873  0.50005797  0.74516413  1
  Cu  Cu98  1  0.16554414  0.17171796  0.75055050  1
  Cu  Cu99  1  0.50278366  0.82970959  0.24752009  1
  Cu  Cu100  1  0.33461550  0.65511944  0.00089881  1
  Cu  Cu101  1  0.50417472  0.17131928  0.74088940  1
  Cu  Cu102  1  0.01344246  0.65622680  0.00011019  1
  Cu  Cu103  1  0.33379548  0.33376903  0.00050722  1
  Cu  Cu104  1  -0.00169737  0.00245689  0.49771838  1
  Cu  Cu105  1  0.31936511  0.00940093  0.00271561  1
  Cu  Cu106  1  0.16413892  0.82578735  0.25411089  1
  Cu  Cu107  1  0.83203650  0.83703270  0.75376898  1
  Cu  Cu108  1  0.83757377  0.49561754  0.75502411  1
  Cu  Cu109  1  0.67594162  0.00991055  0.49671462  1
  Cu  Cu110  1  -0.00935300  0.01206076  0.00294868  1
  Cu  Cu111  1  0.65560964  0.66652697  0.49127471  1
  Cu  Cu112  1  0.83540107  0.16792545  0.74858263  1
  Cu  Cu113  1  0.67126713  0.66236503  0.00861929  1
  Cu  Cu114  1  0.83870337  0.83685688  0.24841937  1
  Se  Se115  1  0.08095661  0.09190795  0.05122687  1
  Se  Se116  1  0.08331715  0.08118789  0.55255724  1
  Se  Se117  1  0.08496134  0.41131114  0.04791595  1
  Se  Se118  1  0.07161642  0.41313061  0.54618861  1
  Se  Se119  1  0.08386047  0.74423799  0.05972661  1
  Se  Se120  1  0.07725942  0.75201660  0.56582487  1
  Se  Se121  1  0.40790537  0.07884975  0.06367237  1
  Se  Se122  1  0.41884518  0.09214937  0.55418862  1
  Se  Se123  1  0.41795933  0.40769834  0.06038444  1
  Se  Se124  1  0.41771195  0.42041826  0.55448602  1
  Se  Se125  1  0.41641969  0.73571931  0.05799633  1
  Se  Se126  1  0.40162311  0.74395445  0.55246200  1
  Se  Se127  1  0.73597985  0.09200080  0.06314800  1
  Se  Se128  1  0.75799082  0.08478031  0.55656529  1
  Se  Se129  1  0.74823683  0.42345440  0.07248953  1
  Se  Se130  1  0.73608125  0.40704491  0.55473789  1
  Se  Se131  1  0.75448732  0.74652470  0.06065610  1
  Se  Se132  1  0.73575704  0.74421016  0.55419272  1
  Se  Se133  1  0.24947018  0.24860735  0.04947174  1
  Se  Se134  1  0.24995278  0.25709043  0.55151796  1
  Se  Se135  1  0.24907305  0.57460564  0.05148257  1
  Se  Se136  1  0.24640431  0.57950180  0.55426136  1
  Se  Se137  1  0.24629398  0.92651476  0.06476966  1
  Se  Se138  1  0.25806586  0.92770381  0.55644699  1
  Se  Se139  1  0.58393172  0.26181333  0.06918738  1
  Se  Se140  1  0.58286033  0.24712676  0.55291046  1
  Se  Se141  1  0.60105423  0.57789178  0.06901467  1
  Se  Se142  1  0.57591753  0.58251886  0.54701076  1
  Se  Se143  1  0.59226354  0.92371209  0.05304345  1
  Se  Se144  1  0.59718527  0.92629577  0.55686414  1
  Se  Se145  1  0.90287662  0.24601437  0.05395542  1
  Se  Se146  1  0.91546273  0.24389647  0.54595735  1
  Se  Se147  1  0.92346959  0.58360656  0.05531986  1
  Se  Se148  1  0.89285885  0.57359830  0.55707741  1
  Se  Se149  1  0.91358089  0.92490209  0.05751594  1
  Se  Se150  1  0.91969069  0.92119482  0.55847459  1
  Se  Se151  1  0.10864363  0.23532218  0.43376136  1
  Se  Se152  1  0.05645342  0.27337405  0.93621928  1
  Se  Se153  1  0.08047170  0.59218561  0.45576293  1
  Se  Se154  1  0.09330642  0.57634288  0.94318293  1
  Se  Se155  1  0.07662353  0.91895429  0.43972261  1
  Se  Se156  1  0.07259470  0.92809494  0.94507244  1
  Se  Se157  1  0.41504978  0.25208587  0.44520570  1
  Se  Se158  1  0.41695484  0.25420563  0.94125218  1
  Se  Se159  1  0.41655246  0.57855030  0.44059269  1
  Se  Se160  1  0.41397478  0.58197874  0.93517045  1
  Se  Se161  1  0.41275813  0.92674416  0.43973865  1
  Se  Se162  1  0.40126789  0.92885937  0.94440952  1
  Se  Se163  1  0.74917981  0.24537106  0.44356259  1
  Se  Se164  1  0.74611543  0.25636847  0.95353161  1
  Se  Se165  1  0.74399012  0.58192421  0.44688550  1
  Se  Se166  1  0.74998305  0.58244473  0.95003436  1
  Se  Se167  1  0.74741174  0.92732951  0.43404449  1
  Se  Se168  1  0.74148311  0.92615095  0.93889900  1
  Se  Se169  1  0.24886479  0.08478476  0.44654111  1
  Se  Se170  1  0.24098571  0.09154623  0.94718462  1
  Se  Se171  1  0.25390933  0.41626820  0.43978013  1
  Se  Se172  1  0.25510561  0.41446537  0.94246416  1
  Se  Se173  1  0.24729667  0.73553286  0.43578077  1
  Se  Se174  1  0.25981233  0.73969158  0.93899810  1
  Se  Se175  1  0.58415880  0.08582291  0.44671222  1
  Se  Se176  1  0.58653524  0.07903708  0.93786103  1
  Se  Se177  1  0.57954519  0.41577132  0.44434819  1
  Se  Se178  1  0.59349257  0.40963459  0.94683294  1
  Se  Se179  1  0.57838063  0.74748124  0.43293397  1
  Se  Se180  1  0.59295334  0.73809989  0.94502341  1
  Se  Se181  1  0.92009775  0.08311267  0.43956190  1
  Se  Se182  1  0.91101489  0.08952687  0.94287395  1
  Se  Se183  1  0.88333353  0.42442705  0.45443216  1
  Se  Se184  1  0.89537937  0.44498955  0.94438229  1
  Se  Se185  1  0.92330133  0.73820677  0.44724933  1
  Se  Se186  1  0.93487759  0.74026501  0.94111090  1
  Se  Se187  1  0.25151124  0.25457149  0.29632283  1
  Se  Se188  1  0.25002916  0.25086447  0.80417722  1
  Se  Se189  1  0.26631121  0.58779395  0.30457040  1
  Se  Se190  1  0.24743353  0.58312531  0.79792843  1
  Se  Se191  1  0.24075183  0.91114934  0.31387572  1
  Se  Se192  1  0.24192136  0.90956858  0.81202420  1
  Se  Se193  1  0.58338562  0.24609066  0.31022476  1
  Se  Se194  1  0.57894797  0.24629044  0.80962385  1
  Se  Se195  1  0.60357400  0.60640688  0.30917660  1
  Se  Se196  1  0.57821652  0.57311267  0.80802055  1
  Se  Se197  1  0.58249409  0.91468846  0.30063881  1
  Se  Se198  1  0.58230072  0.91770270  0.80014062  1
  Se  Se199  1  0.91403619  0.24914982  0.30576697  1
  Se  Se200  1  0.91199238  0.25053091  0.80963363  1
  Se  Se201  1  0.91754586  0.57372972  0.31589892  1
  Se  Se202  1  0.92403351  0.57961632  0.80396285  1
  Se  Se203  1  0.92682208  0.91297454  0.30075929  1
  Se  Se204  1  0.91745894  0.92002947  0.80467947  1
  Se  Se205  1  0.08099755  0.08670008  0.30015871  1
  Se  Se206  1  0.08279019  0.08568555  0.80025221  1
  Se  Se207  1  0.07558362  0.43974828  0.32887364  1
  Se  Se208  1  0.09122957  0.41878505  0.80547915  1
  Se  Se209  1  0.09257227  0.74175993  0.31506927  1
  Se  Se210  1  0.08026457  0.74848069  0.80146216  1
  Se  Se211  1  0.41384747  0.09105167  0.31785503  1
  Se  Se212  1  0.42327245  0.09351629  0.80473950  1
  Se  Se213  1  0.43971148  0.42689073  0.29996367  1
  Se  Se214  1  0.41494913  0.41253942  0.79811062  1
  Se  Se215  1  0.41344824  0.75529248  0.30012860  1
  Se  Se216  1  0.41731457  0.74745311  0.79693661  1
  Se  Se217  1  0.74100436  0.07196961  0.30142569  1
  Se  Se218  1  0.74987865  0.08941871  0.80311358  1
  Se  Se219  1  0.74893666  0.41807179  0.31113664  1
  Se  Se220  1  0.76490398  0.41225319  0.81488868  1
  Se  Se221  1  0.76235419  0.75364473  0.30661910  1
  Se  Se222  1  0.75923090  0.75232404  0.81657400  1
  Se  Se223  1  0.24680738  0.08641395  0.19165001  1
  Se  Se224  1  0.24603490  0.09059866  0.68846647  1
  Se  Se225  1  0.26441357  0.39573878  0.18879062  1
  Se  Se226  1  0.24553198  0.41542355  0.69084860  1
  Se  Se227  1  0.24688649  0.75147032  0.19505909  1
  Se  Se228  1  0.25190977  0.74881987  0.69787348  1
  Se  Se229  1  0.58262637  0.08179759  0.20385742  1
  Se  Se230  1  0.59322721  0.08966173  0.69491310  1
  Se  Se231  1  0.55073756  0.44965600  0.20780958  1
  Se  Se232  1  0.58290800  0.42562361  0.68922369  1
  Se  Se233  1  0.58793828  0.74863699  0.19555344  1
  Se  Se234  1  0.57547231  0.75386696  0.68347167  1
  Se  Se235  1  0.93934978  0.06837132  0.18728693  1
  Se  Se236  1  0.92164413  0.08607175  0.69653836  1
  Se  Se237  1  0.91876991  0.41611252  0.19710402  1
  Se  Se238  1  0.91543401  0.42874126  0.68546388  1
  Se  Se239  1  0.91097820  0.75137840  0.18608514  1
  Se  Se240  1  0.90992831  0.75167921  0.69881058  1
  Se  Se241  1  0.08424066  0.25121387  0.18964619  1
  Se  Se242  1  0.08980550  0.24480655  0.68293371  1
  Se  Se243  1  0.08260554  0.57330472  0.18536708  1
  Se  Se244  1  0.08036222  0.58553810  0.69038231  1
  Se  Se245  1  0.08451451  0.90784235  0.19805574  1
  Se  Se246  1  0.08364964  0.91902625  0.70046904  1
  Se  Se247  1  0.41822998  0.24625006  0.20290267  1
  Se  Se248  1  0.41933438  0.25558053  0.69324049  1
  Se  Se249  1  0.38978483  0.60314962  0.19183818  1
  Se  Se250  1  0.41055251  0.58421370  0.69449805  1
  Se  Se251  1  0.42294897  0.91077607  0.18649327  1
  Se  Se252  1  0.42639286  0.91602376  0.68476403  1
  Se  Se253  1  0.72292645  0.28683309  0.19725812  1
  Se  Se254  1  0.76547955  0.25348622  0.68655781  1
  Se  Se255  1  0.75007541  0.57498321  0.20446395  1
  Se  Se256  1  0.75328933  0.57548364  0.69600052  1
  Se  Se257  1  0.75249618  0.91501551  0.19444706  1
  Se  Se258  1  0.75024639  0.92155586  0.70189001  1
