# generated using pymatgen
data_In86Cu29Se144
_symmetry_space_group_name_H-M   'P 1'
_cell_length_a   17.58687259
_cell_length_b   17.58649729
_cell_length_c   23.44640024
_cell_angle_alpha   90.03640008
_cell_angle_beta   90.02044718
_cell_angle_gamma   89.98469673
_symmetry_Int_Tables_number   1
_chemical_formula_structural   In86Cu29Se144
_chemical_formula_sum   'In86 Cu29 Se144'
_cell_volume   7251.76981393
_cell_formula_units_Z   1
loop_
 _symmetry_equiv_pos_site_id
 _symmetry_equiv_pos_as_xyz
  1  'x, y, z'
loop_
 _atom_site_type_symbol
 _atom_site_label
 _atom_site_symmetry_multiplicity
 _atom_site_fract_x
 _atom_site_fract_y
 _atom_site_fract_z
 _atom_site_occupancy
  In  In0  1  -0.00544732  0.15874336  0.12651133  1
  In  In1  1  0.00567431  0.16398129  0.61523876  1
  In  In2  1  0.01453518  0.50107582  0.11915922  1
  In  In3  1  0.00725660  0.49672795  0.63493604  1
  In  In4  1  -0.00106658  0.83544944  0.12415888  1
  In  In5  1  -0.00682385  0.83383203  0.63083296  1
  In  In6  1  0.32037206  0.15676669  0.12661875  1
  In  In7  1  0.33146418  0.17645381  0.63046152  1
  In  In8  1  0.33970550  0.50348398  0.11636831  1
  In  In9  1  0.32309556  0.50854287  0.63578347  1
  In  In10  1  0.31256706  0.84975068  0.13069651  1
  In  In11  1  0.33062416  0.82022641  0.62479562  1
  In  In12  1  0.69236240  0.14172119  0.15604385  1
  In  In13  1  0.67026282  0.14525683  0.62398381  1
  In  In14  1  0.66098234  0.51002684  0.12843181  1
  In  In15  1  0.66711582  0.50078668  0.62261088  1
  In  In16  1  0.66830304  0.83161485  0.12940022  1
  In  In17  1  0.68402701  0.85205470  0.61028649  1
  In  In18  1  0.16796287  0.00853240  0.36450033  1
  In  In19  1  0.17183821  -0.00132764  0.89352233  1
  In  In20  1  0.15372085  0.32292582  0.37365102  1
  In  In21  1  0.16637675  0.33139309  0.87619235  1
  In  In22  1  0.16836874  0.67202858  0.36385965  1
  In  In23  1  0.16307203  0.66830671  0.87913981  1
  In  In24  1  0.49386967  -0.00621405  0.36421330  1
  In  In25  1  0.50730681  -0.01149643  0.87519442  1
  In  In26  1  0.50281391  0.31201052  0.36899946  1
  In  In27  1  0.49990246  0.34796077  0.87980082  1
  In  In28  1  0.50969672  0.68271419  0.36553546  1
  In  In29  1  0.48467288  0.66676777  0.87720042  1
  In  In30  1  0.83215132  0.00297488  0.36826384  1
  In  In31  1  0.83235931  0.00252246  0.88262714  1
  In  In32  1  0.82081152  0.32870834  0.36990468  1
  In  In33  1  0.83524043  0.31475617  0.87647935  1
  In  In34  1  0.84402012  0.68107070  0.36454975  1
  In  In35  1  0.84916236  0.67353535  0.87382422  1
  In  In36  1  0.00539782  0.15101248  0.37552369  1
  In  In37  1  -0.00302211  0.16566964  0.88066432  1
  In  In38  1  -0.01001038  0.50193704  0.36943713  1
  In  In39  1  0.01481179  0.51124628  0.87062566  1
  In  In40  1  -0.00651576  0.83298670  0.37043675  1
  In  In41  1  0.00626273  0.82892458  0.88230213  1
  In  In42  1  0.32867696  0.15294884  0.36751279  1
  In  In43  1  0.31301550  0.16473784  0.87965634  1
  In  In44  1  0.32077002  0.50590124  0.37368439  1
  In  In45  1  0.33110394  0.50079736  0.87997265  1
  In  In46  1  0.34034350  0.84481636  0.36658902  1
  In  In47  1  0.33217099  0.82267180  0.87526230  1
  In  In48  1  0.67840515  0.17243910  0.35366295  1
  In  In49  1  0.68227476  0.16319479  0.88187043  1
  In  In50  1  0.66026603  0.49974356  0.36650494  1
  In  In51  1  0.66275292  0.48920248  0.88265773  1
  In  In52  1  0.67000548  0.83797497  0.36978405  1
  In  In53  1  0.67016035  0.84863747  0.87482031  1
  In  In54  1  0.16581929  -0.00239729  0.12411046  1
  In  In55  1  0.15024505  0.00717699  0.62329715  1
  In  In56  1  0.16008285  0.32641524  0.11200137  1
  In  In57  1  0.16903035  0.32592641  0.63339946  1
  In  In58  1  0.16608073  0.67119706  0.12422014  1
  In  In59  1  0.16971047  0.67412553  0.64145435  1
  In  In60  1  0.49959810  0.00768929  0.13981178  1
  In  In61  1  0.51613288  0.00304826  0.62337449  1
  In  In62  1  0.50327185  0.34133181  0.12528005  1
  In  In63  1  0.49187407  0.32160495  0.62809887  1
  In  In64  1  0.50097090  0.66066263  0.12624269  1
  In  In65  1  0.48952352  0.67059742  0.62460407  1
  In  In66  1  0.84080898  0.00229997  0.12926939  1
  In  In67  1  0.83424573  -0.01600697  0.61204985  1
  In  In68  1  0.83205950  0.31618615  0.12739927  1
  In  In69  1  0.84719285  0.33357925  0.62455535  1
  In  In70  1  0.82356932  0.68281130  0.12888173  1
  In  In71  1  0.83904756  0.68654148  0.62404874  1
  In  In72  1  0.66598812  0.33033309  0.75025165  1
  In  In73  1  0.83695752  0.50240800  -0.00452587  1
  In  In74  1  -0.00306060  0.33508252  0.24193146  1
  In  In75  1  0.16255159  0.84032463  0.50332598  1
  In  In76  1  0.49252217  0.83334420  0.00139232  1
  In  In77  1  0.49695964  0.50187363  0.50465983  1
  In  In78  1  0.33468326  -0.00631707  0.75991450  1
  In  In79  1  0.50216992  0.15467323  0.49119245  1
  In  In80  1  0.50069892  0.17104978  0.01702533  1
  In  In81  1  0.33712051  0.33504174  0.24749546  1
  In  In82  1  -0.00050808  -0.00597462  0.74899719  1
  In  In83  1  0.83027150  0.49986956  0.49642769  1
  In  In84  1  0.66914152  0.66952138  0.74816059  1
  In  In85  1  0.16560887  0.50102355  0.50969185  1
  Cu  Cu86  1  0.49451784  0.82361739  0.24626695  1
  Cu  Cu87  1  0.67285174  -0.00500908  0.49149616  1
  Cu  Cu88  1  0.33541610  -0.00093239  0.49255742  1
  Cu  Cu89  1  0.16018261  0.83664352  0.24802397  1
  Cu  Cu90  1  0.00195259  0.67246029  0.00033137  1
  Cu  Cu91  1  0.16938562  0.49716663  0.75879025  1
  Cu  Cu92  1  0.84297643  0.49783726  0.75077874  1
  Cu  Cu93  1  0.66834515  0.33039168  0.00531664  1
  Cu  Cu94  1  0.33367091  0.33198795  -0.00009485  1
  Cu  Cu95  1  0.67136515  0.67982809  0.49187657  1
  Cu  Cu96  1  0.49462460  0.50545842  0.24708260  1
  Cu  Cu97  1  0.34157600  0.67857976  0.49649333  1
  Cu  Cu98  1  0.00356348  0.33065743  -0.00129274  1
  Cu  Cu99  1  0.66394654  0.32064014  0.49154180  1
  Cu  Cu100  1  -0.00135835  0.66488429  0.49737005  1
  Cu  Cu101  1  -0.00251302  0.31518488  0.49842331  1
  Cu  Cu102  1  0.83437569  0.83648512  0.24790997  1
  Cu  Cu103  1  0.83619984  0.15836650  0.75327687  1
  Cu  Cu104  1  0.49881753  0.16873751  0.75093932  1
  Cu  Cu105  1  0.67028678  0.00462359  0.00772778  1
  Cu  Cu106  1  0.83169346  0.51038330  0.24703394  1
  Cu  Cu107  1  0.32224230  0.32560676  0.50664989  1
  Cu  Cu108  1  0.50722006  0.83468411  0.74871462  1
  Cu  Cu109  1  0.66383928  0.67004796  0.00540328  1
  Cu  Cu110  1  0.32836021  0.66491287  0.00144362  1
  Cu  Cu111  1  -0.00420287  0.00210166  0.00471449  1
  Cu  Cu112  1  0.49090837  0.50337304  0.75392354  1
  Cu  Cu113  1  0.17151759  0.50649698  0.24188006  1
  Cu  Cu114  1  0.16106231  0.16727917  0.75237124  1
  Se  Se115  1  0.08186271  0.08470236  0.05651427  1
  Se  Se116  1  0.07588106  0.07377039  0.54531977  1
  Se  Se117  1  0.08734636  0.41975345  0.04513455  1
  Se  Se118  1  0.07255905  0.40270671  0.55816473  1
  Se  Se119  1  0.08513615  0.75505607  0.05479489  1
  Se  Se120  1  0.08259054  0.73726376  0.56042824  1
  Se  Se121  1  0.41019018  0.06860267  0.06018848  1
  Se  Se122  1  0.40935598  0.07857641  0.56086035  1
  Se  Se123  1  0.42026577  0.41395501  0.05137575  1
  Se  Se124  1  0.40246919  0.41040850  0.56243129  1
  Se  Se125  1  0.40479139  0.74705524  0.06399107  1
  Se  Se126  1  0.42382435  0.75972837  0.55085980  1
  Se  Se127  1  0.75072975  0.08744435  0.06338307  1
  Se  Se128  1  0.75261984  0.07780461  0.54903419  1
  Se  Se129  1  0.75049307  0.41683137  0.06161877  1
  Se  Se130  1  0.73924680  0.40392624  0.55468276  1
  Se  Se131  1  0.74703929  0.75735011  0.05211757  1
  Se  Se132  1  0.75928011  0.75498190  0.54724907  1
  Se  Se133  1  0.25409129  0.24528358  0.05217504  1
  Se  Se134  1  0.24048864  0.24133273  0.55810296  1
  Se  Se135  1  0.24453076  0.58203151  0.05488051  1
  Se  Se136  1  0.25908716  0.60035033  0.55781271  1
  Se  Se137  1  0.24165904  0.91529762  0.04981724  1
  Se  Se138  1  0.25855135  0.92764501  0.56258593  1
  Se  Se139  1  0.60206924  0.24950717  0.07297775  1
  Se  Se140  1  0.58613745  0.24830390  0.55857513  1
  Se  Se141  1  0.58055281  0.58272795  0.05192237  1
  Se  Se142  1  0.59539782  0.59759053  0.55430617  1
  Se  Se143  1  0.58236187  0.92511672  0.06199695  1
  Se  Se144  1  0.58240869  0.91988760  0.54679088  1
  Se  Se145  1  0.92129698  0.25052928  0.05506936  1
  Se  Se146  1  0.90748804  0.24154501  0.55237888  1
  Se  Se147  1  0.91866823  0.59312295  0.06060620  1
  Se  Se148  1  0.92391154  0.58196160  0.55986736  1
  Se  Se149  1  0.91221433  0.91640070  0.05569807  1
  Se  Se150  1  0.93703508  0.91655701  0.55213103  1
  Se  Se151  1  0.08600644  0.23817494  0.44633032  1
  Se  Se152  1  0.08672789  0.24572425  0.94584505  1
  Se  Se153  1  0.08063704  0.58523825  0.43909733  1
  Se  Se154  1  0.08405869  0.58357283  0.95129264  1
  Se  Se155  1  0.08113254  0.92306271  0.43476957  1
  Se  Se156  1  0.07923561  0.91673820  0.95325030  1
  Se  Se157  1  0.40517970  0.25269098  0.44278628  1
  Se  Se158  1  0.41668113  0.25029716  0.94204200  1
  Se  Se159  1  0.41427333  0.59035259  0.43808269  1
  Se  Se160  1  0.41642485  0.58224867  0.95073737  1
  Se  Se161  1  0.42064040  0.91684638  0.44285102  1
  Se  Se162  1  0.40487097  0.92580076  0.94143658  1
  Se  Se163  1  0.74735977  0.23993881  0.43945852  1
  Se  Se164  1  0.75434892  0.24826507  0.95432033  1
  Se  Se165  1  0.74560394  0.59129543  0.43408908  1
  Se  Se166  1  0.74299932  0.59479492  0.93841336  1
  Se  Se167  1  0.75838899  0.91177965  0.43995254  1
  Se  Se168  1  0.74843407  0.91881951  0.95195930  1
  Se  Se169  1  0.24916994  0.08067112  0.44267436  1
  Se  Se170  1  0.24994217  0.08747494  0.95823216  1
  Se  Se171  1  0.24966008  0.40854860  0.44361215  1
  Se  Se172  1  0.24892556  0.41424974  0.94618176  1
  Se  Se173  1  0.25185484  0.75163739  0.43897725  1
  Se  Se174  1  0.24846160  0.75083843  0.94834711  1
  Se  Se175  1  0.59547784  0.07541172  0.42944242  1
  Se  Se176  1  0.58548513  0.08025913  0.94714056  1
  Se  Se177  1  0.58166655  0.40815083  0.44076519  1
  Se  Se178  1  0.58308098  0.41534762  0.95658784  1
  Se  Se179  1  0.58256972  0.75932706  0.44184468  1
  Se  Se180  1  0.58678499  0.74771245  0.93878103  1
  Se  Se181  1  0.90273687  0.09156055  0.43986049  1
  Se  Se182  1  0.91306109  0.08698861  0.95073033  1
  Se  Se183  1  0.92321125  0.40471893  0.44074141  1
  Se  Se184  1  0.92439548  0.41030925  0.93585687  1
  Se  Se185  1  0.91819898  0.74979242  0.44503260  1
  Se  Se186  1  0.91324606  0.75480022  0.95192968  1
  Se  Se187  1  0.24195434  0.24605372  0.30392480  1
  Se  Se188  1  0.24821302  0.24886440  0.80382904  1
  Se  Se189  1  0.25362664  0.58777466  0.29783672  1
  Se  Se190  1  0.24971960  0.58447021  0.81125192  1
  Se  Se191  1  0.24857946  0.91821804  0.29988930  1
  Se  Se192  1  0.23621909  0.90944557  0.81401644  1
  Se  Se193  1  0.59395035  0.26419070  0.29346234  1
  Se  Se194  1  0.58003170  0.24428302  0.81632854  1
  Se  Se195  1  0.58134780  0.58695369  0.30024139  1
  Se  Se196  1  0.58078146  0.57695371  0.81071987  1
  Se  Se197  1  0.57799692  0.90783313  0.29930466  1
  Se  Se198  1  0.58938003  0.92085173  0.79892892  1
  Se  Se199  1  0.91770758  0.24842447  0.30967186  1
  Se  Se200  1  0.91978182  0.24353334  0.80361133  1
  Se  Se201  1  0.92122062  0.58877882  0.29805578  1
  Se  Se202  1  0.92045361  0.58446715  0.80444813  1
  Se  Se203  1  0.91874114  0.91977291  0.30036830  1
  Se  Se204  1  0.91192793  0.91101750  0.81399456  1
  Se  Se205  1  0.08100207  0.08476600  0.29581006  1
  Se  Se206  1  0.09044041  0.08048685  0.81339645  1
  Se  Se207  1  0.09211718  0.42672233  0.30400520  1
  Se  Se208  1  0.08188133  0.41151014  0.80571879  1
  Se  Se209  1  0.07816042  0.75105394  0.30123878  1
  Se  Se210  1  0.07309352  0.74101770  0.80969606  1
  Se  Se211  1  0.43223566  0.09981598  0.30271523  1
  Se  Se212  1  0.42308268  0.09113432  0.81655523  1
  Se  Se213  1  0.42356896  0.42456919  0.31407881  1
  Se  Se214  1  0.41289433  0.41708241  0.80774450  1
  Se  Se215  1  0.40699936  0.74501877  0.30086092  1
  Se  Se216  1  0.42197784  0.75491415  0.80236557  1
  Se  Se217  1  0.73929031  0.06612107  0.29450687  1
  Se  Se218  1  0.75071524  0.07947334  0.80717944  1
  Se  Se219  1  0.75394516  0.42432179  0.30241258  1
  Se  Se220  1  0.75848084  0.42136620  0.80985143  1
  Se  Se221  1  0.74849487  0.75128183  0.29908102  1
  Se  Se222  1  0.75670632  0.75855674  0.80855800  1
  Se  Se223  1  0.24991837  0.07253991  0.19804004  1
  Se  Se224  1  0.24435317  0.08362573  0.69568139  1
  Se  Se225  1  0.24389617  0.41787682  0.18403334  1
  Se  Se226  1  0.24887358  0.41480079  0.69946779  1
  Se  Se227  1  0.24606771  0.75156707  0.19734443  1
  Se  Se228  1  0.26146400  0.75024948  0.70454635  1
  Se  Se229  1  0.57841066  0.08566909  0.21076544  1
  Se  Se230  1  0.58350253  0.08459981  0.70109799  1
  Se  Se231  1  0.58137239  0.42328063  0.19665027  1
  Se  Se232  1  0.57246602  0.42538680  0.69158191  1
  Se  Se233  1  0.58309997  0.74537704  0.19345002  1
  Se  Se234  1  0.58536757  0.75844168  0.68333185  1
  Se  Se235  1  0.90537597  0.09709942  0.20000564  1
  Se  Se236  1  0.91281860  0.08354354  0.68680650  1
  Se  Se237  1  0.90778439  0.42998430  0.18326866  1
  Se  Se238  1  0.92255777  0.40980892  0.69933262  1
  Se  Se239  1  0.91863788  0.75147537  0.19587359  1
  Se  Se240  1  0.92522485  0.74257489  0.70052258  1
  Se  Se241  1  0.09310330  0.24438002  0.19075908  1
  Se  Se242  1  0.07632739  0.24273292  0.69397143  1
  Se  Se243  1  0.08109292  0.58696983  0.19353657  1
  Se  Se244  1  0.08842444  0.58055026  0.70161152  1
  Se  Se245  1  0.07754111  0.92009273  0.19439057  1
  Se  Se246  1  0.09834208  0.90492244  0.69487798  1
  Se  Se247  1  0.42072986  0.24330583  0.18626943  1
  Se  Se248  1  0.41174383  0.25303965  0.70455679  1
  Se  Se249  1  0.40916453  0.58428720  0.19362060  1
  Se  Se250  1  0.41502640  0.58965702  0.69792588  1
  Se  Se251  1  0.41390365  0.91355020  0.19659926  1
  Se  Se252  1  0.42437487  0.91529594  0.68907754  1
  Se  Se253  1  0.74834701  0.26068233  0.20621948  1
  Se  Se254  1  0.75630553  0.24070940  0.69054472  1
  Se  Se255  1  0.74587973  0.59232066  0.19511155  1
  Se  Se256  1  0.76166766  0.57516447  0.68910342  1
  Se  Se257  1  0.75020562  0.91868715  0.19443200  1
  Se  Se258  1  0.75359111  0.92005680  0.69090345  1
