# generated using pymatgen
data_In86Cu29Se144
_symmetry_space_group_name_H-M   'P 1'
_cell_length_a   17.57421325
_cell_length_b   17.57494742
_cell_length_c   23.43739012
_cell_angle_alpha   90.02075532
_cell_angle_beta   90.02759089
_cell_angle_gamma   90.00372229
_symmetry_Int_Tables_number   1
_chemical_formula_structural   In86Cu29Se144
_chemical_formula_sum   'In86 Cu29 Se144'
_cell_volume   7239.00864861
_cell_formula_units_Z   1
loop_
 _symmetry_equiv_pos_site_id
 _symmetry_equiv_pos_as_xyz
  1  'x, y, z'
loop_
 _atom_site_type_symbol
 _atom_site_label
 _atom_site_symmetry_multiplicity
 _atom_site_fract_x
 _atom_site_fract_y
 _atom_site_fract_z
 _atom_site_occupancy
  In  In0  1  0.00411399  0.17239481  0.11538025  1
  In  In1  1  0.00180180  0.16533142  0.63435799  1
  In  In2  1  0.00504397  0.50172797  0.12227615  1
  In  In3  1  -0.01046743  0.50671584  0.63332186  1
  In  In4  1  -0.00802317  0.82435575  0.12658689  1
  In  In5  1  -0.01734513  0.85106465  0.62789151  1
  In  In6  1  0.32946091  0.17302976  0.12955987  1
  In  In7  1  0.33346022  0.15971517  0.62818040  1
  In  In8  1  0.33760875  0.49786792  0.12152461  1
  In  In9  1  0.34168847  0.48925049  0.62483267  1
  In  In10  1  0.34326322  0.82594845  0.12852646  1
  In  In11  1  0.34444413  0.83705424  0.62654939  1
  In  In12  1  0.66619432  0.15556003  0.12322501  1
  In  In13  1  0.65952474  0.17706225  0.63224454  1
  In  In14  1  0.67582287  0.50812085  0.11956320  1
  In  In15  1  0.66803181  0.49772136  0.62660257  1
  In  In16  1  0.65899114  0.83643270  0.13001461  1
  In  In17  1  0.67766111  0.82360391  0.63172336  1
  In  In18  1  0.16910601  -0.00728634  0.37010155  1
  In  In19  1  0.17257251  0.01009283  0.87146849  1
  In  In20  1  0.17051846  0.33010195  0.36918901  1
  In  In21  1  0.15574451  0.34495309  0.88664776  1
  In  In22  1  0.16379871  0.66097962  0.35644855  1
  In  In23  1  0.16132113  0.65388354  0.88298077  1
  In  In24  1  0.50436335  0.00207648  0.37102616  1
  In  In25  1  0.49339368  -0.00325772  0.87011429  1
  In  In26  1  0.49699313  0.34092779  0.37623681  1
  In  In27  1  0.50776760  0.33071146  0.87756701  1
  In  In28  1  0.50305958  0.66329750  0.36929204  1
  In  In29  1  0.50805034  0.66002736  0.88286102  1
  In  In30  1  0.81259776  0.00856521  0.37632510  1
  In  In31  1  0.84132173  0.00825962  0.86395218  1
  In  In32  1  0.84225022  0.33887577  0.37734751  1
  In  In33  1  0.83144309  0.33431381  0.87482462  1
  In  In34  1  0.82899815  0.66574398  0.37577278  1
  In  In35  1  0.82008143  0.66913532  0.87552024  1
  In  In36  1  -0.00437883  0.17609709  0.37499083  1
  In  In37  1  -0.00380257  0.16765998  0.87384937  1
  In  In38  1  -0.01432591  0.49915507  0.37739592  1
  In  In39  1  0.01107805  0.48297881  0.88204680  1
  In  In40  1  0.00019519  0.82627671  0.37727039  1
  In  In41  1  -0.01269104  0.83130384  0.87142649  1
  In  In42  1  0.34162953  0.17575819  0.36318296  1
  In  In43  1  0.33314751  0.15015851  0.88482964  1
  In  In44  1  0.34426209  0.51348912  0.35704606  1
  In  In45  1  0.33181224  0.49680578  0.89062779  1
  In  In46  1  0.33346646  0.82938255  0.36334834  1
  In  In47  1  0.33706068  0.85716226  0.88328445  1
  In  In48  1  0.66647282  0.14441436  0.37261711  1
  In  In49  1  0.67530946  0.17804252  0.86652418  1
  In  In50  1  0.65889402  0.51072775  0.38732576  1
  In  In51  1  0.66656475  0.50254599  0.87583243  1
  In  In52  1  0.67001290  0.83356378  0.37435808  1
  In  In53  1  0.65592082  0.82817469  0.86745675  1
  In  In54  1  0.17658991  0.01791981  0.11476944  1
  In  In55  1  0.15977977  0.00715926  0.63520391  1
  In  In56  1  0.20132824  0.35467421  0.09384729  1
  In  In57  1  0.16932709  0.32490229  0.63498174  1
  In  In58  1  0.18538458  0.63904455  0.14861945  1
  In  In59  1  0.15701226  0.66369204  0.62506190  1
  In  In60  1  0.50893775  -0.01006466  0.12726401  1
  In  In61  1  0.49125753  0.00922440  0.63033242  1
  In  In62  1  0.47938389  0.33643526  0.11974415  1
  In  In63  1  0.51127696  0.34621345  0.61764699  1
  In  In64  1  0.50243254  0.66509751  0.12455016  1
  In  In65  1  0.51976258  0.66804893  0.62036100  1
  In  In66  1  0.82277423  0.00134782  0.12416925  1
  In  In67  1  0.83923629  -0.00993777  0.62858451  1
  In  In68  1  0.83113049  0.33385792  0.11492576  1
  In  In69  1  0.82765335  0.34335963  0.63637459  1
  In  In70  1  0.84281924  0.65880683  0.13667866  1
  In  In71  1  0.80923984  0.65053717  0.60755558  1
  In  In72  1  0.33780470  0.66818068  0.76210725  1
  In  In73  1  0.16927395  0.16459247  0.51044089  1
  In  In74  1  0.00389342  0.33433584  0.24960817  1
  In  In75  1  0.66509243  0.33184185  0.24614362  1
  In  In76  1  0.16704859  0.49868118  0.49546989  1
  In  In77  1  0.16629608  0.83484461  0.49227495  1
  In  In78  1  0.50086032  0.16757220  0.00135330  1
  In  In79  1  0.16424230  0.82637273  0.00541868  1
  In  In80  1  0.50581493  0.83298644  0.49281565  1
  In  In81  1  0.00094075  -0.00393515  0.24676396  1
  In  In82  1  0.33348534  0.33144994  0.76063901  1
  In  In83  1  0.82761104  0.83274791  -0.00200289  1
  In  In84  1  0.82738907  0.16588225  0.50038983  1
  In  In85  1  -0.00432351  0.66900240  0.74836431  1
  Cu  Cu86  1  0.83236395  0.16649873  0.74995656  1
  Cu  Cu87  1  0.00015327  0.65152021  0.00817377  1
  Cu  Cu88  1  0.82828817  0.83173655  0.25159850  1
  Cu  Cu89  1  0.66693182  0.33953198  -0.00513643  1
  Cu  Cu90  1  0.00018826  0.00252592  -0.00785873  1
  Cu  Cu91  1  0.66579797  0.33020346  0.50503519  1
  Cu  Cu92  1  0.83268786  0.50072285  0.75327229  1
  Cu  Cu93  1  0.16932878  0.17070110  0.24221183  1
  Cu  Cu94  1  0.34676685  0.33613029  0.49194567  1
  Cu  Cu95  1  0.16202585  0.16644833  0.75624779  1
  Cu  Cu96  1  0.65970912  -0.00258021  0.50199164  1
  Cu  Cu97  1  -0.00177772  0.33739875  0.50690343  1
  Cu  Cu98  1  0.50958656  0.50768749  0.75029454  1
  Cu  Cu99  1  0.82930153  0.50602708  0.25253013  1
  Cu  Cu100  1  0.50029511  0.17081848  0.75297748  1
  Cu  Cu101  1  0.33875137  0.65789611  0.49091552  1
  Cu  Cu102  1  0.17060951  0.83852847  0.24534987  1
  Cu  Cu103  1  0.33079958  0.00504335  0.50212807  1
  Cu  Cu104  1  0.17165083  0.83671516  0.75081934  1
  Cu  Cu105  1  0.66637710  0.66474635  0.00128038  1
  Cu  Cu106  1  0.50092307  0.16036698  0.24441034  1
  Cu  Cu107  1  0.82764151  0.83477765  0.74820462  1
  Cu  Cu108  1  0.50002881  0.50031704  0.24811651  1
  Cu  Cu109  1  0.50234006  0.82720446  0.24998814  1
  Cu  Cu110  1  0.50086975  0.84182578  0.74864281  1
  Cu  Cu111  1  -0.00858493  0.67295691  0.50020447  1
  Cu  Cu112  1  0.33609884  0.66887661  0.00799194  1
  Cu  Cu113  1  -0.00810748  0.32667681  -0.00330206  1
  Cu  Cu114  1  0.66791378  0.00226738  -0.00208588  1
  Se  Se115  1  0.08241448  0.08498107  0.04663381  1
  Se  Se116  1  0.06975491  0.07360339  0.55787257  1
  Se  Se117  1  0.07373200  0.40783916  0.05366634  1
  Se  Se118  1  0.08352399  0.41353027  0.56546780  1
  Se  Se119  1  0.08059922  0.73357318  0.06647326  1
  Se  Se120  1  0.07468941  0.75175450  0.55900506  1
  Se  Se121  1  0.41727795  0.07910293  0.06494846  1
  Se  Se122  1  0.41572749  0.08744174  0.55359816  1
  Se  Se123  1  0.41136279  0.41740406  0.04535022  1
  Se  Se124  1  0.42290324  0.42314314  0.54827625  1
  Se  Se125  1  0.42430433  0.75285300  0.05392450  1
  Se  Se126  1  0.41115434  0.74274471  0.55392853  1
  Se  Se127  1  0.75249779  0.08530227  0.04912096  1
  Se  Se128  1  0.73968631  0.07864195  0.56364482  1
  Se  Se129  1  0.75135735  0.42144204  0.04909091  1
  Se  Se130  1  0.75140181  0.41201535  0.55735245  1
  Se  Se131  1  0.74809191  0.74253021  0.06400396  1
  Se  Se132  1  0.74775770  0.75794405  0.54959128  1
  Se  Se133  1  0.24087786  0.22656918  0.05093851  1
  Se  Se134  1  0.26479223  0.26442148  0.55792911  1
  Se  Se135  1  0.24859465  0.58639102  0.05730982  1
  Se  Se136  1  0.25778463  0.58921877  0.55870472  1
  Se  Se137  1  0.25935437  0.91637790  0.05829587  1
  Se  Se138  1  0.25165117  0.92330569  0.56079891  1
  Se  Se139  1  0.59085831  0.26126901  0.06112759  1
  Se  Se140  1  0.57991652  0.24525730  0.55360761  1
  Se  Se141  1  0.58155699  0.58085885  0.05309146  1
  Se  Se142  1  0.58631337  0.57578103  0.55397349  1
  Se  Se143  1  0.58969688  0.91575707  0.05158336  1
  Se  Se144  1  0.58217694  0.91887682  0.56519097  1
  Se  Se145  1  0.90809363  0.24300500  0.04904959  1
  Se  Se146  1  0.91856106  0.25335709  0.56352751  1
  Se  Se147  1  0.90683888  0.57609357  0.05826099  1
  Se  Se148  1  0.91961739  0.58057792  0.55432884  1
  Se  Se149  1  0.92349122  0.92297694  0.05585889  1
  Se  Se150  1  0.90830441  0.91710991  0.54844900  1
  Se  Se151  1  0.08066262  0.25965869  0.44757153  1
  Se  Se152  1  0.07966729  0.24530356  0.94576446  1
  Se  Se153  1  0.07787742  0.59647473  0.44058086  1
  Se  Se154  1  0.08564346  0.57169992  0.95385590  1
  Se  Se155  1  0.07251679  0.93091992  0.44216994  1
  Se  Se156  1  0.07704223  0.91314839  0.93828845  1
  Se  Se157  1  0.42179781  0.24390797  0.44122189  1
  Se  Se158  1  0.40863839  0.25730145  0.94303658  1
  Se  Se159  1  0.42215237  0.57688738  0.43854314  1
  Se  Se160  1  0.41749379  0.58636100  0.95080506  1
  Se  Se161  1  0.40409527  0.92026483  0.44035040  1
  Se  Se162  1  0.42772262  0.92426550  0.95218858  1
  Se  Se163  1  0.73993923  0.25465534  0.43618978  1
  Se  Se164  1  0.74879198  0.25077596  0.94553644  1
  Se  Se165  1  0.76843934  0.56808878  0.44554109  1
  Se  Se166  1  0.75073349  0.58293347  0.94793254  1
  Se  Se167  1  0.74473657  0.91858363  0.44755272  1
  Se  Se168  1  0.74547653  0.92303153  0.93348345  1
  Se  Se169  1  0.25289855  0.08354837  0.43856921  1
  Se  Se170  1  0.24885342  0.07166551  0.95279235  1
  Se  Se171  1  0.26166381  0.41478557  0.43494290  1
  Se  Se172  1  0.25017531  0.41142570  0.95521634  1
  Se  Se173  1  0.25422295  0.73780860  0.43558248  1
  Se  Se174  1  0.25917682  0.74370927  0.93983750  1
  Se  Se175  1  0.57835225  0.08100163  0.44793018  1
  Se  Se176  1  0.59125306  0.08465431  0.93611848  1
  Se  Se177  1  0.58407618  0.41246888  0.44807306  1
  Se  Se178  1  0.58014795  0.42214049  0.94541449  1
  Se  Se179  1  0.59549261  0.73565069  0.44298385  1
  Se  Se180  1  0.58739761  0.75245731  0.94781750  1
  Se  Se181  1  0.92059988  0.08003586  0.43957456  1
  Se  Se182  1  0.91113756  0.08378185  0.94297998  1
  Se  Se183  1  0.91436589  0.41852084  0.45346707  1
  Se  Se184  1  0.91141526  0.41691795  0.94681480  1
  Se  Se185  1  0.90980327  0.75426695  0.44518509  1
  Se  Se186  1  0.92519210  0.73643938  0.94693735  1
  Se  Se187  1  0.25166102  0.25459821  0.29735337  1
  Se  Se188  1  0.24344780  0.24189151  0.81931002  1
  Se  Se189  1  0.24689856  0.57915004  0.29176491  1
  Se  Se190  1  0.24610090  0.57126687  0.81213123  1
  Se  Se191  1  0.25421641  0.92109336  0.29881059  1
  Se  Se192  1  0.25282999  0.91970431  0.80544129  1
  Se  Se193  1  0.57842211  0.24110142  0.30884866  1
  Se  Se194  1  0.58429808  0.25793228  0.80082616  1
  Se  Se195  1  0.58767816  0.57691718  0.30327804  1
  Se  Se196  1  0.58934552  0.59205847  0.80533700  1
  Se  Se197  1  0.58306403  0.91214963  0.30596862  1
  Se  Se198  1  0.58585085  0.92476292  0.80148272  1
  Se  Se199  1  0.90393303  0.24241441  0.30239978  1
  Se  Se200  1  0.91385649  0.25100510  0.80487018  1
  Se  Se201  1  0.91689852  0.58625803  0.30516225  1
  Se  Se202  1  0.91418389  0.57951739  0.81493718  1
  Se  Se203  1  0.90834991  0.91483619  0.31168424  1
  Se  Se204  1  0.91775759  0.91465824  0.79776113  1
  Se  Se205  1  0.08877174  0.09532774  0.30661915  1
  Se  Se206  1  0.07682088  0.07933450  0.80507467  1
  Se  Se207  1  0.08832626  0.42890194  0.31071408  1
  Se  Se208  1  0.08368143  0.41072432  0.80430541  1
  Se  Se209  1  0.08408627  0.76113979  0.30081306  1
  Se  Se210  1  0.09383948  0.75393675  0.81091815  1
  Se  Se211  1  0.41734924  0.07882568  0.30123835  1
  Se  Se212  1  0.41461356  0.08857796  0.80463844  1
  Se  Se213  1  0.41879331  0.41123459  0.29843089  1
  Se  Se214  1  0.42590677  0.43054682  0.81131981  1
  Se  Se215  1  0.41702924  0.74206254  0.30043559  1
  Se  Se216  1  0.42598784  0.76379015  0.81634391  1
  Se  Se217  1  0.75126631  0.08482842  0.29542279  1
  Se  Se218  1  0.74588858  0.08255645  0.79971328  1
  Se  Se219  1  0.75173633  0.42054827  0.31064680  1
  Se  Se220  1  0.74740801  0.41821046  0.80631728  1
  Se  Se221  1  0.74645899  0.74663908  0.30451994  1
  Se  Se222  1  0.74683978  0.74902072  0.80126281  1
  Se  Se223  1  0.25282338  0.07992772  0.19717291  1
  Se  Se224  1  0.24843821  0.08721912  0.70056681  1
  Se  Se225  1  0.24944060  0.41423728  0.18645828  1
  Se  Se226  1  0.24742842  0.42472537  0.69732915  1
  Se  Se227  1  0.25566215  0.75038481  0.19874722  1
  Se  Se228  1  0.24707955  0.75211871  0.69093502  1
  Se  Se229  1  0.58846151  0.07731547  0.19653822  1
  Se  Se230  1  0.58066357  0.08622958  0.69782741  1
  Se  Se231  1  0.57720249  0.42104339  0.18415382  1
  Se  Se232  1  0.58496767  0.41616997  0.69781936  1
  Se  Se233  1  0.58625812  0.74396988  0.19706138  1
  Se  Se234  1  0.58080618  0.75244305  0.69819499  1
  Se  Se235  1  0.91654974  0.08869327  0.18685908  1
  Se  Se236  1  0.91484575  0.08097012  0.69710438  1
  Se  Se237  1  0.90557279  0.42053154  0.19249001  1
  Se  Se238  1  0.92033926  0.41719637  0.70388951  1
  Se  Se239  1  0.91829068  0.75045146  0.20384597  1
  Se  Se240  1  0.90180519  0.74891022  0.68569415  1
  Se  Se241  1  0.09194186  0.25320881  0.18363574  1
  Se  Se242  1  0.08074551  0.25148793  0.70296090  1
  Se  Se243  1  0.06578744  0.58862819  0.19833186  1
  Se  Se244  1  0.09468195  0.57335177  0.70029619  1
  Se  Se245  1  0.09298957  0.91457128  0.18088924  1
  Se  Se246  1  0.08178349  0.91230946  0.69685552  1
  Se  Se247  1  0.41853688  0.25061955  0.19748631  1
  Se  Se248  1  0.42145776  0.25281953  0.69045601  1
  Se  Se249  1  0.41743596  0.58277476  0.19262221  1
  Se  Se250  1  0.42291138  0.58384526  0.69174869  1
  Se  Se251  1  0.42127389  0.91388071  0.19728633  1
  Se  Se252  1  0.41105936  0.92289518  0.70011123  1
  Se  Se253  1  0.75718336  0.24343014  0.18816981  1
  Se  Se254  1  0.74792463  0.25329030  0.70041767  1
  Se  Se255  1  0.74314009  0.58627583  0.19936875  1
  Se  Se256  1  0.75160535  0.58289851  0.69558410  1
  Se  Se257  1  0.75004117  0.91637963  0.19551880  1
  Se  Se258  1  0.74456535  0.92218138  0.69792989  1
