# generated using pymatgen
data_In86Cu29Se144
_symmetry_space_group_name_H-M   'P 1'
_cell_length_a   17.59314690
_cell_length_b   17.59242777
_cell_length_c   23.44880384
_cell_angle_alpha   89.97933654
_cell_angle_beta   90.01334091
_cell_angle_gamma   90.00934583
_symmetry_Int_Tables_number   1
_chemical_formula_structural   In86Cu29Se144
_chemical_formula_sum   'In86 Cu29 Se144'
_cell_volume   7257.54861220
_cell_formula_units_Z   1
loop_
 _symmetry_equiv_pos_site_id
 _symmetry_equiv_pos_as_xyz
  1  'x, y, z'
loop_
 _atom_site_type_symbol
 _atom_site_label
 _atom_site_symmetry_multiplicity
 _atom_site_fract_x
 _atom_site_fract_y
 _atom_site_fract_z
 _atom_site_occupancy
  In  In0  1  0.01562321  0.17017163  0.11767886  1
  In  In1  1  0.00423009  0.15835243  0.63474955  1
  In  In2  1  -0.00133244  0.48714423  0.12386647  1
  In  In3  1  -0.00192683  0.49349149  0.62914826  1
  In  In4  1  0.00225720  0.83606975  0.11089610  1
  In  In5  1  0.00385126  0.84161405  0.62171157  1
  In  In6  1  0.33374804  0.16532366  0.12015099  1
  In  In7  1  0.33554704  0.16703741  0.63641500  1
  In  In8  1  0.31951326  0.50091299  0.12153541  1
  In  In9  1  0.33918292  0.49288198  0.63580705  1
  In  In10  1  0.34431568  0.84254089  0.11278889  1
  In  In11  1  0.31526102  0.83915186  0.64759213  1
  In  In12  1  0.64538821  0.16566749  0.11752317  1
  In  In13  1  0.67711475  0.15772004  0.63476189  1
  In  In14  1  0.67922580  0.50602683  0.12779273  1
  In  In15  1  0.65105141  0.51473443  0.63243323  1
  In  In16  1  0.66715382  0.83359366  0.12373763  1
  In  In17  1  0.68326202  0.82147442  0.64354089  1
  In  In18  1  0.17137590  -0.01260201  0.37297567  1
  In  In19  1  0.17100332  -0.00394958  0.87273983  1
  In  In20  1  0.16528719  0.32833667  0.36612348  1
  In  In21  1  0.16749706  0.33060382  0.87529691  1
  In  In22  1  0.17683705  0.67827442  0.37953939  1
  In  In23  1  0.17308380  0.66270297  0.87620815  1
  In  In24  1  0.50159724  -0.00192259  0.36869196  1
  In  In25  1  0.49621394  0.00056896  0.87778888  1
  In  In26  1  0.50196376  0.34785284  0.37431146  1
  In  In27  1  0.49318026  0.32854306  0.87656823  1
  In  In28  1  0.49843449  0.65495035  0.37781330  1
  In  In29  1  0.50814135  0.67282664  0.87061988  1
  In  In30  1  0.82898264  0.00318985  0.37165043  1
  In  In31  1  0.81862597  -0.02125959  0.86006725  1
  In  In32  1  0.83526692  0.32301902  0.37102467  1
  In  In33  1  0.83412760  0.33290436  0.86912570  1
  In  In34  1  0.83610503  0.68061731  0.37742813  1
  In  In35  1  0.82983786  0.68884442  0.86774784  1
  In  In36  1  -0.00843873  0.16823682  0.37041161  1
  In  In37  1  0.01038987  0.17060281  0.87241066  1
  In  In38  1  0.00648018  0.49519371  0.37432484  1
  In  In39  1  0.02020147  0.49826862  0.87185791  1
  In  In40  1  0.00217328  0.83833539  0.38732778  1
  In  In41  1  -0.00838794  0.84332428  0.87234118  1
  In  In42  1  0.33115817  0.16471076  0.36727227  1
  In  In43  1  0.33195491  0.16373904  0.87804607  1
  In  In44  1  0.34412113  0.50372362  0.37469012  1
  In  In45  1  0.31236241  0.49165846  0.85635688  1
  In  In46  1  0.32400684  0.83397765  0.37586291  1
  In  In47  1  0.33161250  0.83802338  0.87358961  1
  In  In48  1  0.67617683  0.16090030  0.36955475  1
  In  In49  1  0.65701135  0.16257633  0.87673951  1
  In  In50  1  0.65581397  0.50009840  0.37765385  1
  In  In51  1  0.66745609  0.50127242  0.86668746  1
  In  In52  1  0.66990714  0.83611861  0.36866606  1
  In  In53  1  0.66272351  0.83066038  0.87312249  1
  In  In54  1  0.17532210  0.01104535  0.11140940  1
  In  In55  1  0.16264588  -0.00747188  0.63566663  1
  In  In56  1  0.16920004  0.33352227  0.12189926  1
  In  In57  1  0.17246254  0.33408202  0.64263097  1
  In  In58  1  0.16894962  0.66875408  0.11125248  1
  In  In59  1  0.15885140  0.68046735  0.63620348  1
  In  In60  1  0.49925855  -0.00142479  0.12202515  1
  In  In61  1  0.50307620  -0.00793467  0.63611968  1
  In  In62  1  0.50123624  0.31250732  0.11811424  1
  In  In63  1  0.48979886  0.34389534  0.63329411  1
  In  In64  1  0.50274754  0.68059523  0.12139779  1
  In  In65  1  0.50933845  0.66045539  0.62761174  1
  In  In66  1  0.83321345  -0.01442045  0.12121097  1
  In  In67  1  0.85491360  -0.02976297  0.65326409  1
  In  In68  1  0.83860422  0.34710911  0.12671291  1
  In  In69  1  0.83438683  0.32771299  0.63602060  1
  In  In70  1  0.81830291  0.66383732  0.12645313  1
  In  In71  1  0.81362497  0.67202319  0.62392358  1
  In  In72  1  0.16940282  0.15930606  0.51618647  1
  In  In73  1  0.49503359  0.50179727  -0.00933267  1
  In  In74  1  0.83338994  0.50425958  0.00580280  1
  In  In75  1  0.50123927  0.82695616  0.50642172  1
  In  In76  1  0.82792988  0.50291814  0.50264396  1
  In  In77  1  0.33591971  0.66895479  0.25121344  1
  In  In78  1  0.66249626  0.32915442  0.24563283  1
  In  In79  1  0.83456228  0.16110049  -0.01107013  1
  In  In80  1  0.50092057  0.17108488  0.50412202  1
  In  In81  1  -0.00479497  0.66228288  0.25369934  1
  In  In82  1  -0.00115236  0.66226184  0.75170897  1
  In  In83  1  0.83380174  0.15804671  0.49493994  1
  In  In84  1  0.00451004  0.00356197  0.24802363  1
  In  In85  1  0.16851386  0.50713606  0.50278011  1
  Cu  Cu86  1  0.82895312  0.82992666  0.24714716  1
  Cu  Cu87  1  0.00315144  0.32463670  0.50143132  1
  Cu  Cu88  1  0.66741359  0.67423081  -0.00189769  1
  Cu  Cu89  1  0.33132813  0.67418751  0.50695687  1
  Cu  Cu90  1  0.83553777  0.49550055  0.74811244  1
  Cu  Cu91  1  0.49713224  0.83991896  0.75463485  1
  Cu  Cu92  1  0.49772621  0.49662619  0.25051549  1
  Cu  Cu93  1  0.32886404  0.33175531  -0.00421629  1
  Cu  Cu94  1  0.00178696  0.67125461  -0.01000345  1
  Cu  Cu95  1  0.49224649  0.15973468  0.24466075  1
  Cu  Cu96  1  0.49841791  0.17151506  0.75704556  1
  Cu  Cu97  1  0.32939432  -0.00614378  0.50866152  1
  Cu  Cu98  1  0.33939041  0.34337830  0.50318307  1
  Cu  Cu99  1  0.17169253  0.83725462  0.24659961  1
  Cu  Cu100  1  0.50313198  0.50142795  0.75445664  1
  Cu  Cu101  1  0.16759287  0.16477072  0.75636154  1
  Cu  Cu102  1  0.83439755  0.16646723  0.24677747  1
  Cu  Cu103  1  0.16218845  0.49238415  0.24676196  1
  Cu  Cu104  1  0.83250300  0.16688286  0.75852813  1
  Cu  Cu105  1  -0.00244337  0.67905706  0.50589593  1
  Cu  Cu106  1  0.65878112  0.34148974  0.50593226  1
  Cu  Cu107  1  0.66337102  -0.00495274  -0.00421738  1
  Cu  Cu108  1  0.17402353  0.17030853  0.23974706  1
  Cu  Cu109  1  0.50663400  0.83761738  0.24418959  1
  Cu  Cu110  1  0.67296165  -0.00625777  0.49911647  1
  Cu  Cu111  1  0.00579897  0.33481621  -0.00245216  1
  Cu  Cu112  1  0.33292588  -0.00045975  -0.00387693  1
  Cu  Cu113  1  0.33348533  0.66794453  -0.00720174  1
  Cu  Cu114  1  0.00018391  -0.00246542  -0.00820833  1
  Se  Se115  1  0.08156124  0.08342376  0.04415293  1
  Se  Se116  1  0.06996365  0.06685173  0.56014079  1
  Se  Se117  1  0.08683962  0.41903550  0.05242449  1
  Se  Se118  1  0.08387869  0.40588183  0.55925707  1
  Se  Se119  1  0.08676600  0.75350389  0.04505205  1
  Se  Se120  1  0.08945764  0.75435928  0.55647052  1
  Se  Se121  1  0.41658905  0.08098918  0.05263145  1
  Se  Se122  1  0.41283818  0.07666349  0.56232892  1
  Se  Se123  1  0.41057956  0.41227078  0.05702673  1
  Se  Se124  1  0.42038603  0.42620522  0.55652876  1
  Se  Se125  1  0.41841395  0.74818302  0.04709994  1
  Se  Se126  1  0.40629606  0.75185765  0.57221500  1
  Se  Se127  1  0.74529381  0.07691273  0.05604028  1
  Se  Se128  1  0.75054355  0.07297657  0.56052467  1
  Se  Se129  1  0.73834946  0.40689095  0.05491123  1
  Se  Se130  1  0.74559723  0.41207043  0.56693321  1
  Se  Se131  1  0.75302734  0.75249460  0.05369621  1
  Se  Se132  1  0.74217457  0.75875001  0.55472124  1
  Se  Se133  1  0.24826758  0.24836656  0.05265793  1
  Se  Se134  1  0.26072760  0.26232429  0.56292670  1
  Se  Se135  1  0.25109477  0.58214782  0.04558751  1
  Se  Se136  1  0.25374263  0.59170505  0.56791475  1
  Se  Se137  1  0.24768401  0.91363063  0.04788451  1
  Se  Se138  1  0.24883626  0.91408833  0.56513838  1
  Se  Se139  1  0.58313337  0.24947846  0.04176694  1
  Se  Se140  1  0.58962685  0.25493773  0.56803732  1
  Se  Se141  1  0.58984670  0.58690141  0.05570284  1
  Se  Se142  1  0.58724852  0.58846558  0.55141555  1
  Se  Se143  1  0.58244876  0.91353509  0.05450015  1
  Se  Se144  1  0.59037394  0.92102995  0.56160656  1
  Se  Se145  1  0.91859393  0.25671963  0.05490596  1
  Se  Se146  1  0.92064565  0.24806601  0.56036080  1
  Se  Se147  1  0.92788981  0.59623128  0.06091562  1
  Se  Se148  1  0.92367124  0.59015516  0.56206911  1
  Se  Se149  1  0.91419107  0.91671500  0.04531687  1
  Se  Se150  1  0.90521149  0.91430602  0.56010576  1
  Se  Se151  1  0.08434820  0.24571220  0.44303715  1
  Se  Se152  1  0.08725660  0.24766852  0.94764936  1
  Se  Se153  1  0.07402128  0.59771301  0.44269884  1
  Se  Se154  1  0.08753942  0.58274950  0.94647800  1
  Se  Se155  1  0.09512333  0.91588382  0.44776028  1
  Se  Se156  1  0.08503879  0.91327863  0.94128768  1
  Se  Se157  1  0.41015316  0.25718753  0.44102714  1
  Se  Se158  1  0.41537698  0.24685066  0.94836633  1
  Se  Se159  1  0.40874545  0.58864967  0.45072504  1
  Se  Se160  1  0.40579642  0.58633573  0.92882103  1
  Se  Se161  1  0.41320965  0.92257322  0.44479113  1
  Se  Se162  1  0.41733185  0.91374242  0.94677617  1
  Se  Se163  1  0.73747598  0.25940936  0.44522101  1
  Se  Se164  1  0.74387553  0.25897920  0.94075170  1
  Se  Se165  1  0.74291001  0.59219404  0.44124326  1
  Se  Se166  1  0.74777972  0.59153899  0.93950006  1
  Se  Se167  1  0.75287515  0.91576683  0.43999985  1
  Se  Se168  1  0.74813698  0.91249478  0.94380136  1
  Se  Se169  1  0.25799698  0.07930947  0.44586903  1
  Se  Se170  1  0.24609978  0.08226823  0.94590213  1
  Se  Se171  1  0.25220460  0.41203737  0.44024434  1
  Se  Se172  1  0.25086717  0.41931446  0.94180299  1
  Se  Se173  1  0.24997836  0.75848281  0.45345496  1
  Se  Se174  1  0.24912517  0.75362713  0.94338525  1
  Se  Se175  1  0.59129682  0.07872589  0.44328649  1
  Se  Se176  1  0.57890736  0.08254078  0.94944244  1
  Se  Se177  1  0.57627651  0.42213500  0.45137736  1
  Se  Se178  1  0.59241158  0.41331583  0.93940737  1
  Se  Se179  1  0.58743823  0.74580954  0.43857858  1
  Se  Se180  1  0.57934689  0.75351764  0.94703243  1
  Se  Se181  1  0.93179740  0.06868474  0.44057978  1
  Se  Se182  1  0.91804225  0.06967407  0.92797719  1
  Se  Se183  1  0.92109287  0.40664653  0.44476469  1
  Se  Se184  1  0.92174513  0.41608014  0.94149459  1
  Se  Se185  1  0.91246467  0.75792676  0.45160674  1
  Se  Se186  1  0.91408505  0.75495366  0.94323583  1
  Se  Se187  1  0.25400075  0.25207774  0.29932500  1
  Se  Se188  1  0.25295849  0.24834445  0.80716560  1
  Se  Se189  1  0.23942914  0.57649261  0.30783914  1
  Se  Se190  1  0.25752208  0.60341183  0.79610490  1
  Se  Se191  1  0.25743371  0.91818019  0.29915239  1
  Se  Se192  1  0.25993688  0.92536257  0.80178759  1
  Se  Se193  1  0.57170877  0.23967244  0.30935635  1
  Se  Se194  1  0.58421104  0.25431240  0.80774557  1
  Se  Se195  1  0.57961487  0.58084855  0.30335351  1
  Se  Se196  1  0.58857910  0.58915440  0.80083333  1
  Se  Se197  1  0.58779252  0.92052013  0.30087057  1
  Se  Se198  1  0.58203723  0.92194650  0.80795685  1
  Se  Se199  1  0.91857960  0.25088784  0.29713940  1
  Se  Se200  1  0.92167704  0.25057174  0.80551910  1
  Se  Se201  1  0.90614071  0.57324496  0.31435524  1
  Se  Se202  1  0.90819639  0.57454524  0.81551691  1
  Se  Se203  1  0.91600989  0.90790695  0.30559245  1
  Se  Se204  1  0.91158029  0.90844754  0.79305567  1
  Se  Se205  1  0.09720801  0.09377039  0.30770585  1
  Se  Se206  1  0.08315301  0.07851849  0.80493551  1
  Se  Se207  1  0.07818297  0.41184677  0.30158255  1
  Se  Se208  1  0.08556555  0.40847765  0.80252502  1
  Se  Se209  1  0.09035900  0.75910687  0.30718366  1
  Se  Se210  1  0.08463303  0.75310141  0.81172433  1
  Se  Se211  1  0.41324911  0.07745430  0.30300703  1
  Se  Se212  1  0.41554434  0.08432953  0.80715780  1
  Se  Se213  1  0.41196512  0.41484517  0.30179630  1
  Se  Se214  1  0.41936614  0.41617021  0.80526231  1
  Se  Se215  1  0.42770040  0.76030839  0.31013994  1
  Se  Se216  1  0.41754418  0.75301234  0.80674264  1
  Se  Se217  1  0.75113789  0.08033680  0.29653248  1
  Se  Se218  1  0.74377032  0.08517854  0.80718746  1
  Se  Se219  1  0.74855999  0.41594519  0.31091403  1
  Se  Se220  1  0.74970106  0.41442679  0.80142036  1
  Se  Se221  1  0.74963875  0.74584496  0.30199119  1
  Se  Se222  1  0.74177904  0.75479585  0.79708310  1
  Se  Se223  1  0.25222102  0.07965492  0.19047840  1
  Se  Se224  1  0.24693846  0.08341867  0.69759400  1
  Se  Se225  1  0.25134099  0.41474775  0.19465062  1
  Se  Se226  1  0.25462129  0.41804733  0.70613311  1
  Se  Se227  1  0.24878093  0.75452381  0.18610677  1
  Se  Se228  1  0.25718311  0.73008823  0.70952838  1
  Se  Se229  1  0.58182791  0.08122869  0.19395872  1
  Se  Se230  1  0.57687799  0.08952228  0.69830062  1
  Se  Se231  1  0.57387361  0.42037776  0.18394261  1
  Se  Se232  1  0.58481061  0.41657676  0.69902929  1
  Se  Se233  1  0.58753788  0.74813367  0.19554368  1
  Se  Se234  1  0.57614159  0.75377151  0.69888912  1
  Se  Se235  1  0.91466299  0.08942110  0.18346933  1
  Se  Se236  1  0.91711180  0.08482104  0.70492886  1
  Se  Se237  1  0.91251679  0.42612612  0.19930189  1
  Se  Se238  1  0.92192863  0.41089710  0.70026240  1
  Se  Se239  1  0.91698787  0.75761381  0.18778392  1
  Se  Se240  1  0.91356622  0.74772395  0.68658149  1
  Se  Se241  1  0.08393519  0.25256579  0.19295490  1
  Se  Se242  1  0.08316306  0.24660774  0.70080592  1
  Se  Se243  1  0.09151631  0.58309935  0.18878792  1
  Se  Se244  1  0.09179591  0.56911252  0.69534676  1
  Se  Se245  1  0.09033908  0.91403846  0.18501128  1
  Se  Se246  1  0.08221208  0.90573545  0.70136430  1
  Se  Se247  1  0.41448546  0.24859016  0.19276246  1
  Se  Se248  1  0.41488862  0.25457083  0.70194898  1
  Se  Se249  1  0.42231546  0.57917782  0.18697099  1
  Se  Se250  1  0.42273969  0.58360857  0.69741550  1
  Se  Se251  1  0.41639937  0.91482705  0.19257531  1
  Se  Se252  1  0.41026795  0.92349339  0.70481330  1
  Se  Se253  1  0.75337554  0.24166414  0.18260434  1
  Se  Se254  1  0.74817272  0.24935186  0.70357043  1
  Se  Se255  1  0.75381832  0.58125951  0.20206787  1
  Se  Se256  1  0.75205287  0.58105986  0.69761605  1
  Se  Se257  1  0.74857779  0.91739746  0.19526782  1
  Se  Se258  1  0.72389278  0.94306027  0.69633395  1
