# generated using pymatgen
data_In86Cu29Se144
_symmetry_space_group_name_H-M   'P 1'
_cell_length_a   17.58748329
_cell_length_b   17.58283417
_cell_length_c   23.44730775
_cell_angle_alpha   89.99517056
_cell_angle_beta   90.00918717
_cell_angle_gamma   89.98994343
_symmetry_Int_Tables_number   1
_chemical_formula_structural   In86Cu29Se144
_chemical_formula_sum   'In86 Cu29 Se144'
_cell_volume   7250.79368303
_cell_formula_units_Z   1
loop_
 _symmetry_equiv_pos_site_id
 _symmetry_equiv_pos_as_xyz
  1  'x, y, z'
loop_
 _atom_site_type_symbol
 _atom_site_label
 _atom_site_symmetry_multiplicity
 _atom_site_fract_x
 _atom_site_fract_y
 _atom_site_fract_z
 _atom_site_occupancy
  In  In0  1  0.00864784  0.16222359  0.12525641  1
  In  In1  1  0.01005203  0.18919268  0.61002695  1
  In  In2  1  0.01014161  0.50219452  0.12236617  1
  In  In3  1  -0.00914146  0.49776619  0.61639500  1
  In  In4  1  -0.00686465  0.81598592  0.12721662  1
  In  In5  1  -0.01380691  0.82745749  0.62575525  1
  In  In6  1  0.32912807  0.16884179  0.13418216  1
  In  In7  1  0.32595182  0.18324093  0.62015544  1
  In  In8  1  0.33370206  0.50308441  0.13185433  1
  In  In9  1  0.34207254  0.50026376  0.61406982  1
  In  In10  1  0.34427895  0.82356338  0.13412570  1
  In  In11  1  0.33642244  0.81587588  0.62233791  1
  In  In12  1  0.66340319  0.18595712  0.12075396  1
  In  In13  1  0.67488922  0.15974079  0.63158626  1
  In  In14  1  0.64360477  0.47166563  0.09733438  1
  In  In15  1  0.66530406  0.50013519  0.62662145  1
  In  In16  1  0.64920169  0.83567353  0.11568220  1
  In  In17  1  0.65955497  0.84101342  0.63319024  1
  In  In18  1  0.18225642  0.00617621  0.37095445  1
  In  In19  1  0.17708927  0.00218565  0.87683093  1
  In  In20  1  0.16941311  0.33376075  0.38042010  1
  In  In21  1  0.16050731  0.33880211  0.88417100  1
  In  In22  1  0.15351093  0.65435869  0.36819737  1
  In  In23  1  0.15531435  0.65374608  0.86861161  1
  In  In24  1  0.48804358  0.00081747  0.37178416  1
  In  In25  1  0.51845078  -0.00852490  0.89317094  1
  In  In26  1  0.50366864  0.34334125  0.35725089  1
  In  In27  1  0.51974767  0.32271210  0.89498266  1
  In  In28  1  0.50723502  0.66861484  0.38049620  1
  In  In29  1  0.51415264  0.65448693  0.88506696  1
  In  In30  1  0.84503323  0.00346219  0.37644151  1
  In  In31  1  0.82678081  0.01303610  0.87183057  1
  In  In32  1  0.82662914  0.34497619  0.39434919  1
  In  In33  1  0.84602406  0.34090191  0.86475030  1
  In  In34  1  0.83056627  0.64531073  0.38726774  1
  In  In35  1  0.82336326  0.65606683  0.86350693  1
  In  In36  1  -0.00221961  0.18247856  0.39057657  1
  In  In37  1  -0.00733657  0.17980467  0.87539980  1
  In  In38  1  -0.01089555  0.50591581  0.39661973  1
  In  In39  1  0.00199225  0.49513943  0.87316452  1
  In  In40  1  0.01024257  0.83161709  0.37509932  1
  In  In41  1  0.00841817  0.81430222  0.87138666  1
  In  In42  1  0.32235188  0.16706069  0.36052800  1
  In  In43  1  0.33575147  0.17155650  0.88739123  1
  In  In44  1  0.33458498  0.49982222  0.36718118  1
  In  In45  1  0.33945136  0.49058425  0.88594589  1
  In  In46  1  0.34111601  0.83928464  0.36918854  1
  In  In47  1  0.33928141  0.84265873  0.87936096  1
  In  In48  1  0.65978631  0.18279320  0.37383253  1
  In  In49  1  0.66450841  0.16552285  0.86655101  1
  In  In50  1  0.66865969  0.49751410  0.38336314  1
  In  In51  1  0.66966682  0.50106012  0.87422746  1
  In  In52  1  0.65727412  0.80895236  0.38149203  1
  In  In53  1  0.66519781  0.83186759  0.87002092  1
  In  In54  1  0.17612520  0.01664844  0.12712303  1
  In  In55  1  0.15608648  0.01223996  0.62335162  1
  In  In56  1  0.16660150  0.33596465  0.12547489  1
  In  In57  1  0.15791690  0.33567893  0.60768654  1
  In  In58  1  0.17682926  0.65635030  0.13680865  1
  In  In59  1  0.14747261  0.63939036  0.60954333  1
  In  In60  1  0.49162832  -0.00873175  0.11716825  1
  In  In61  1  0.51652773  0.00221890  0.62616302  1
  In  In62  1  0.50291869  0.33384734  0.12471016  1
  In  In63  1  0.50218916  0.34748428  0.62645945  1
  In  In64  1  0.48857265  0.65680623  0.11987646  1
  In  In65  1  0.50986779  0.67820023  0.60811872  1
  In  In66  1  0.82878076  0.01276312  0.12433715  1
  In  In67  1  0.82218679  -0.00309187  0.62768374  1
  In  In68  1  0.81241296  0.34300144  0.12455112  1
  In  In69  1  0.82889085  0.33655367  0.62076768  1
  In  In70  1  0.84267418  0.64950301  0.12943739  1
  In  In71  1  0.84290624  0.65220117  0.62833312  1
  In  In72  1  0.66524652  -0.00142899  0.24218573  1
  In  In73  1  0.17311120  0.83598865  0.50303775  1
  In  In74  1  0.17153783  0.82959205  -0.00229713  1
  In  In75  1  0.33775819  -0.00134681  0.75920041  1
  In  In76  1  0.82899946  0.17364225  0.00181648  1
  In  In77  1  0.33426941  0.66217525  0.75244112  1
  In  In78  1  0.01745515  -0.00232082  0.25633955  1
  In  In79  1  0.49820203  0.17037495  0.49698813  1
  In  In80  1  -0.01248984  0.00356848  0.75131039  1
  In  In81  1  0.82985213  0.83146913  -0.00867166  1
  In  In82  1  0.82822974  0.83216977  0.50147866  1
  In  In83  1  0.00586433  0.33384070  0.25474854  1
  In  In84  1  0.66793967  0.65108857  0.25274681  1
  In  In85  1  0.33687551  0.33816213  0.75052834  1
  Cu  Cu86  1  0.66601525  -0.00588069  0.50320788  1
  Cu  Cu87  1  0.51049151  0.50426626  0.75172703  1
  Cu  Cu88  1  0.83390779  0.17043114  0.25431143  1
  Cu  Cu89  1  0.83610105  0.49754141  0.74525619  1
  Cu  Cu90  1  0.83464825  0.17666005  0.74551203  1
  Cu  Cu91  1  0.16946347  0.83218452  0.25220315  1
  Cu  Cu92  1  0.16351913  0.17421273  0.74657952  1
  Cu  Cu93  1  0.00432736  0.65067608  0.00026739  1
  Cu  Cu94  1  0.33705294  0.00279286  0.49505041  1
  Cu  Cu95  1  0.00107515  0.33256196  -0.00043426  1
  Cu  Cu96  1  0.83360645  0.82137227  0.24526754  1
  Cu  Cu97  1  0.66601634  0.33520480  0.49903653  1
  Cu  Cu98  1  0.33122370  0.33430804  0.48945727  1
  Cu  Cu99  1  0.50120786  0.82940760  0.25145886  1
  Cu  Cu100  1  0.00266321  0.01733591  0.49860068  1
  Cu  Cu101  1  0.00355202  -0.00335552  0.00808348  1
  Cu  Cu102  1  0.82749524  0.82841533  0.74844012  1
  Cu  Cu103  1  0.15698833  0.81713103  0.74360410  1
  Cu  Cu104  1  0.33265939  0.66732300  0.00776357  1
  Cu  Cu105  1  0.15658278  0.49192933  0.74290544  1
  Cu  Cu106  1  0.16269045  0.50458276  0.25157222  1
  Cu  Cu107  1  0.67279290  0.67149423  -0.00489407  1
  Cu  Cu108  1  0.49815195  0.17214083  0.24782431  1
  Cu  Cu109  1  0.50167729  0.83248466  0.75141499  1
  Cu  Cu110  1  0.33722888  0.66983570  0.49000684  1
  Cu  Cu111  1  0.33216113  0.00631208  0.00314293  1
  Cu  Cu112  1  0.33024277  0.33674900  0.01140636  1
  Cu  Cu113  1  0.83389202  0.49174718  0.25921759  1
  Cu  Cu114  1  0.50995044  0.16934264  0.75737100  1
  Se  Se115  1  0.08864349  0.08434605  0.05290556  1
  Se  Se116  1  0.09356265  0.09619164  0.54744162  1
  Se  Se117  1  0.08551902  0.41491307  0.05315158  1
  Se  Se118  1  0.10475828  0.44992577  0.55340265  1
  Se  Se119  1  0.08193279  0.73775399  0.05749079  1
  Se  Se120  1  0.07161531  0.74960075  0.55355934  1
  Se  Se121  1  0.41071246  0.08908909  0.06010963  1
  Se  Se122  1  0.41204637  0.07997958  0.56352929  1
  Se  Se123  1  0.41491693  0.42145398  0.06073160  1
  Se  Se124  1  0.41735176  0.40764639  0.54800588  1
  Se  Se125  1  0.41839618  0.75533467  0.05299122  1
  Se  Se126  1  0.41725685  0.75677245  0.54261116  1
  Se  Se127  1  0.73501738  0.07926931  0.05498068  1
  Se  Se128  1  0.74702032  0.07962378  0.55478062  1
  Se  Se129  1  0.75867647  0.41972805  0.04103857  1
  Se  Se130  1  0.74600453  0.42138554  0.55231917  1
  Se  Se131  1  0.75078672  0.74461897  0.06312082  1
  Se  Se132  1  0.74798816  0.74958976  0.57060379  1
  Se  Se133  1  0.24746784  0.24772811  0.05967507  1
  Se  Se134  1  0.24775062  0.25168758  0.54352229  1
  Se  Se135  1  0.24908495  0.58307591  0.05822907  1
  Se  Se136  1  0.26037306  0.58933724  0.55003472  1
  Se  Se137  1  0.25583475  0.91763176  0.06176271  1
  Se  Se138  1  0.26045095  0.92853586  0.56498961  1
  Se  Se139  1  0.59006121  0.26605580  0.04866017  1
  Se  Se140  1  0.58805357  0.25255021  0.56170391  1
  Se  Se141  1  0.58759868  0.59400147  0.05185892  1
  Se  Se142  1  0.55439107  0.55360163  0.56362701  1
  Se  Se143  1  0.58641257  0.92809106  0.04674320  1
  Se  Se144  1  0.58058183  0.91212033  0.55371243  1
  Se  Se145  1  0.92229792  0.25743411  0.06538799  1
  Se  Se146  1  0.90337427  0.24796117  0.55071317  1
  Se  Se147  1  0.91590209  0.57278477  0.05276863  1
  Se  Se148  1  0.91480453  0.58708048  0.54734694  1
  Se  Se149  1  0.91831587  0.91920223  0.06202955  1
  Se  Se150  1  0.92381621  0.92999326  0.55562316  1
  Se  Se151  1  0.08198402  0.26535488  0.45360772  1
  Se  Se152  1  0.08197223  0.24451495  0.94860828  1
  Se  Se153  1  0.08298015  0.59400518  0.45168647  1
  Se  Se154  1  0.08996642  0.57224868  0.94544413  1
  Se  Se155  1  0.08237653  0.93080849  0.44212596  1
  Se  Se156  1  0.07446758  0.91960108  0.93925500  1
  Se  Se157  1  0.41343252  0.25302979  0.43055191  1
  Se  Se158  1  0.41422145  0.25649975  0.95501803  1
  Se  Se159  1  0.41651544  0.58084345  0.43950446  1
  Se  Se160  1  0.41414045  0.58655926  0.94881627  1
  Se  Se161  1  0.41914672  0.91632558  0.44604406  1
  Se  Se162  1  0.41570922  0.91926009  0.95278762  1
  Se  Se163  1  0.74565209  0.24372771  0.45010093  1
  Se  Se164  1  0.75201503  0.25793438  0.93138772  1
  Se  Se165  1  0.73032992  0.59235965  0.45466015  1
  Se  Se166  1  0.75439811  0.58463357  0.94461843  1
  Se  Se167  1  0.74148483  0.92029004  0.43456269  1
  Se  Se168  1  0.74202183  0.93043268  0.94048421  1
  Se  Se169  1  0.25726702  0.08840478  0.44342420  1
  Se  Se170  1  0.24616454  0.08601971  0.94974024  1
  Se  Se171  1  0.25076251  0.42601439  0.44252546  1
  Se  Se172  1  0.24806780  0.41645639  0.95213482  1
  Se  Se173  1  0.25110070  0.74945342  0.43357642  1
  Se  Se174  1  0.25632131  0.73663140  0.93487942  1
  Se  Se175  1  0.58889225  0.07539282  0.43854721  1
  Se  Se176  1  0.57499159  0.10744284  0.94277548  1
  Se  Se177  1  0.57722410  0.40709717  0.44127249  1
  Se  Se178  1  0.56868115  0.44332855  0.94372653  1
  Se  Se179  1  0.58977261  0.73520397  0.45908152  1
  Se  Se180  1  0.58687890  0.75631609  0.94576586  1
  Se  Se181  1  0.90916583  0.09140317  0.44916063  1
  Se  Se182  1  0.92351525  0.07681358  0.94575808  1
  Se  Se183  1  0.92660460  0.40485743  0.46042313  1
  Se  Se184  1  0.91962243  0.41375836  0.94411390  1
  Se  Se185  1  0.92141883  0.74818233  0.44091202  1
  Se  Se186  1  0.92363581  0.73392952  0.94150427  1
  Se  Se187  1  0.24851700  0.26615559  0.30242233  1
  Se  Se188  1  0.24751207  0.24581832  0.81058283  1
  Se  Se189  1  0.25034842  0.58845586  0.30108175  1
  Se  Se190  1  0.24503587  0.56253820  0.80609152  1
  Se  Se191  1  0.25374202  0.91870387  0.30066905  1
  Se  Se192  1  0.23668310  0.89880480  0.80438352  1
  Se  Se193  1  0.58876766  0.25378009  0.29458386  1
  Se  Se194  1  0.58531374  0.26331821  0.80602202  1
  Se  Se195  1  0.57314750  0.56726565  0.31036164  1
  Se  Se196  1  0.59102434  0.59069754  0.80389770  1
  Se  Se197  1  0.58485642  0.90800273  0.31088333  1
  Se  Se198  1  0.57853571  0.92049370  0.80652360  1
  Se  Se199  1  0.90780270  0.25264332  0.31507091  1
  Se  Se200  1  0.92588365  0.25396275  0.79534463  1
  Se  Se201  1  0.91548261  0.57489407  0.31386981  1
  Se  Se202  1  0.91908701  0.57775301  0.80315932  1
  Se  Se203  1  0.91101304  0.90647218  0.30397722  1
  Se  Se204  1  0.90806037  0.90464982  0.81437716  1
  Se  Se205  1  0.08636386  0.09999233  0.31719827  1
  Se  Se206  1  0.08929454  0.08839398  0.80801311  1
  Se  Se207  1  0.08150768  0.43171367  0.31645725  1
  Se  Se208  1  0.08399977  0.40796999  0.80437358  1
  Se  Se209  1  0.08072740  0.75058574  0.30071286  1
  Se  Se210  1  0.07559012  0.73234748  0.79518523  1
  Se  Se211  1  0.41731511  0.08523839  0.29971597  1
  Se  Se212  1  0.42451648  0.09191849  0.81629270  1
  Se  Se213  1  0.39473838  0.40010618  0.29807858  1
  Se  Se214  1  0.42924392  0.42201635  0.81129405  1
  Se  Se215  1  0.42327087  0.74609738  0.30824569  1
  Se  Se216  1  0.42367815  0.75331467  0.81363541  1
  Se  Se217  1  0.75221616  0.08524179  0.30923231  1
  Se  Se218  1  0.75287910  0.08878839  0.79643987  1
  Se  Se219  1  0.74965560  0.41224558  0.31412803  1
  Se  Se220  1  0.75208530  0.42009475  0.80290303  1
  Se  Se221  1  0.75761206  0.74662608  0.31171031  1
  Se  Se222  1  0.74226353  0.74655702  0.80056128  1
  Se  Se223  1  0.25154205  0.08230665  0.20491439  1
  Se  Se224  1  0.24881320  0.09093999  0.69417206  1
  Se  Se225  1  0.24191357  0.42102813  0.19593134  1
  Se  Se226  1  0.24882403  0.42146243  0.68477620  1
  Se  Se227  1  0.25433487  0.74818134  0.20104667  1
  Se  Se228  1  0.23761835  0.73829177  0.68426966  1
  Se  Se229  1  0.57667937  0.09120193  0.18550936  1
  Se  Se230  1  0.58682667  0.08215333  0.70160167  1
  Se  Se231  1  0.59271791  0.41655270  0.18969204  1
  Se  Se232  1  0.58832216  0.41394938  0.70033814  1
  Se  Se233  1  0.58248433  0.74961996  0.19236408  1
  Se  Se234  1  0.57600073  0.74646294  0.69346643  1
  Se  Se235  1  0.91535213  0.08696782  0.19927602  1
  Se  Se236  1  0.91452627  0.09464850  0.68267637  1
  Se  Se237  1  0.91308531  0.41848376  0.19136716  1
  Se  Se238  1  0.91757730  0.41417183  0.69021585  1
  Se  Se239  1  0.92031659  0.73417253  0.20056518  1
  Se  Se240  1  0.91464893  0.74607873  0.69911498  1
  Se  Se241  1  0.09266984  0.23965146  0.19729745  1
  Se  Se242  1  0.08917837  0.25790045  0.68793678  1
  Se  Se243  1  0.07552768  0.58610408  0.19940222  1
  Se  Se244  1  0.07430425  0.57792908  0.69276099  1
  Se  Se245  1  0.09086983  0.90641747  0.18444801  1
  Se  Se246  1  0.08425027  0.91274898  0.69103747  1
  Se  Se247  1  0.41614554  0.25719173  0.19572331  1
  Se  Se248  1  0.42699930  0.24109908  0.69253193  1
  Se  Se249  1  0.41447298  0.59049996  0.19862467  1
  Se  Se250  1  0.42483939  0.57831177  0.69009163  1
  Se  Se251  1  0.42209434  0.91789865  0.19813711  1
  Se  Se252  1  0.41848822  0.90928661  0.69025691  1
  Se  Se253  1  0.75066202  0.24936819  0.19725643  1
  Se  Se254  1  0.74686588  0.25713154  0.69454900  1
  Se  Se255  1  0.75463067  0.56205338  0.19185538  1
  Se  Se256  1  0.74924592  0.58233967  0.69633346  1
  Se  Se257  1  0.75857603  0.90349571  0.18549173  1
  Se  Se258  1  0.74616030  0.91975622  0.70260870  1
