# generated using pymatgen
data_In86Cu29Se144
_symmetry_space_group_name_H-M   'P 1'
_cell_length_a   17.59299404
_cell_length_b   17.59383724
_cell_length_c   23.45756495
_cell_angle_alpha   90.00320677
_cell_angle_beta   90.01116903
_cell_angle_gamma   89.99007077
_symmetry_Int_Tables_number   1
_chemical_formula_structural   In86Cu29Se144
_chemical_formula_sum   'In86 Cu29 Se144'
_cell_volume   7260.77932649
_cell_formula_units_Z   1
loop_
 _symmetry_equiv_pos_site_id
 _symmetry_equiv_pos_as_xyz
  1  'x, y, z'
loop_
 _atom_site_type_symbol
 _atom_site_label
 _atom_site_symmetry_multiplicity
 _atom_site_fract_x
 _atom_site_fract_y
 _atom_site_fract_z
 _atom_site_occupancy
  In  In0  1  0.00503806  0.17808785  0.11711829  1
  In  In1  1  -0.01142192  0.16372686  0.62701717  1
  In  In2  1  0.00025861  0.48402997  0.13116434  1
  In  In3  1  -0.02253888  0.47700602  0.59077648  1
  In  In4  1  0.00027490  0.83920128  0.11443410  1
  In  In5  1  -0.00181170  0.83785869  0.63514449  1
  In  In6  1  0.33931244  0.17843700  0.11156957  1
  In  In7  1  0.33973922  0.14796736  0.62940907  1
  In  In8  1  0.32965718  0.50592404  0.13472608  1
  In  In9  1  0.32732731  0.49495596  0.61387571  1
  In  In10  1  0.32502839  0.83402594  0.12254932  1
  In  In11  1  0.34733850  0.83839525  0.63110789  1
  In  In12  1  0.66525519  0.16678380  0.12423668  1
  In  In13  1  0.67061566  0.16667263  0.62208018  1
  In  In14  1  0.65626587  0.49680259  0.12966116  1
  In  In15  1  0.66487805  0.49422054  0.62274693  1
  In  In16  1  0.68174446  0.83918681  0.11818235  1
  In  In17  1  0.63541392  0.85097712  0.65090887  1
  In  In18  1  0.16135480  0.00238813  0.37597627  1
  In  In19  1  0.16244939  0.00565706  0.87249203  1
  In  In20  1  0.18024313  0.33792889  0.36488406  1
  In  In21  1  0.18168317  0.32657090  0.89577656  1
  In  In22  1  0.16826790  0.63845038  0.37742097  1
  In  In23  1  0.17395135  0.66191743  0.88436194  1
  In  In24  1  0.51988965  -0.01193453  0.38945365  1
  In  In25  1  0.51657765  0.00853794  0.86053198  1
  In  In26  1  0.50184853  0.32908772  0.37657470  1
  In  In27  1  0.50128650  0.31462106  0.87771394  1
  In  In28  1  0.49384453  0.67175980  0.38082265  1
  In  In29  1  0.51287298  0.67531349  0.86311668  1
  In  In30  1  0.82643717  0.02117188  0.38768348  1
  In  In31  1  0.84029003  0.00494508  0.87154759  1
  In  In32  1  0.83562881  0.33532602  0.37495100  1
  In  In33  1  0.81831330  0.33096302  0.87418287  1
  In  In34  1  0.82538248  0.66579535  0.38355520  1
  In  In35  1  0.83568640  0.68983056  0.86662406  1
  In  In36  1  -0.01439625  0.16877723  0.37825513  1
  In  In37  1  0.00957989  0.15397106  0.88159112  1
  In  In38  1  0.02008404  0.47883942  0.39863054  1
  In  In39  1  0.00886239  0.50556811  0.87558146  1
  In  In40  1  -0.00730978  0.83665137  0.37279197  1
  In  In41  1  -0.00505293  0.84386758  0.88044826  1
  In  In42  1  0.33667241  0.17775153  0.36926567  1
  In  In43  1  0.34095237  0.16587585  0.88290894  1
  In  In44  1  0.33724819  0.49810884  0.37376361  1
  In  In45  1  0.32996868  0.48892939  0.88150696  1
  In  In46  1  0.34894906  0.83420714  0.37389768  1
  In  In47  1  0.32044344  0.83212774  0.87569441  1
  In  In48  1  0.66413884  0.16810547  0.37609286  1
  In  In49  1  0.66846813  0.16821962  0.87471926  1
  In  In50  1  0.67770213  0.48720385  0.38660101  1
  In  In51  1  0.66800856  0.49913130  0.86314740  1
  In  In52  1  0.66070899  0.82935783  0.37604482  1
  In  In53  1  0.70390852  0.87209025  0.82655243  1
  In  In54  1  0.16521012  0.00003368  0.11401556  1
  In  In55  1  0.17250074  0.00020918  0.64626337  1
  In  In56  1  0.16639690  0.33289665  0.12437869  1
  In  In57  1  0.15205684  0.33258354  0.61953762  1
  In  In58  1  0.17493133  0.67532067  0.12063435  1
  In  In59  1  0.16321372  0.65621378  0.62405924  1
  In  In60  1  0.49985024  0.01854007  0.12133127  1
  In  In61  1  0.50540704  0.00135321  0.62475107  1
  In  In62  1  0.50731407  0.32482569  0.13505081  1
  In  In63  1  0.50710445  0.34065126  0.61329710  1
  In  In64  1  0.50209680  0.65456016  0.12885728  1
  In  In65  1  0.50978061  0.67754278  0.61407811  1
  In  In66  1  0.82688619  -0.00023989  0.11569415  1
  In  In67  1  0.80660393  0.00958988  0.64293083  1
  In  In68  1  0.84137176  0.32904837  0.13492247  1
  In  In69  1  0.82909952  0.31689626  0.61282633  1
  In  In70  1  0.82671801  0.67825182  0.12067540  1
  In  In71  1  0.82915719  0.65407491  0.62471594  1
  In  In72  1  0.50307612  0.83671990  -0.01087516  1
  In  In73  1  0.00048646  0.66200146  0.74527804  1
  In  In74  1  0.33565629  0.32533329  0.75878078  1
  In  In75  1  0.49468455  0.49807110  0.00258714  1
  In  In76  1  0.82186643  0.83283775  0.51267991  1
  In  In77  1  0.00027514  0.32756963  0.74552014  1
  In  In78  1  0.17280521  0.16675026  0.50131941  1
  In  In79  1  0.00008156  0.00699478  0.23787964  1
  In  In80  1  0.66331578  0.66408284  0.25714560  1
  In  In81  1  0.17026734  0.82505595  0.51124374  1
  In  In82  1  0.83694799  0.50060889  0.00393220  1
  In  In83  1  -0.00024860  0.66315560  0.25824033  1
  In  In84  1  0.33939057  0.00407888  0.24272880  1
  In  In85  1  0.33476973  0.66723671  0.74763783  1
  Cu  Cu86  1  0.82845973  0.49504582  0.74537145  1
  Cu  Cu87  1  0.49992354  0.49720488  0.73978497  1
  Cu  Cu88  1  0.66897715  0.32823155  0.49753213  1
  Cu  Cu89  1  0.83021355  0.49840534  0.25816152  1
  Cu  Cu90  1  0.33738857  0.66444892  0.00133566  1
  Cu  Cu91  1  -0.00659503  -0.00207753  -0.00517360  1
  Cu  Cu92  1  0.66895687  0.00258237  -0.01258811  1
  Cu  Cu93  1  -0.00248581  0.33182133  0.00536745  1
  Cu  Cu94  1  0.16138810  0.83477694  0.75652620  1
  Cu  Cu95  1  0.33380673  0.33277181  0.49376783  1
  Cu  Cu96  1  0.32961786  0.66456579  0.49932400  1
  Cu  Cu97  1  0.83095051  0.16722278  0.74840993  1
  Cu  Cu98  1  0.33154912  0.00276732  -0.00290479  1
  Cu  Cu99  1  0.00796501  0.66639743  -0.00132604  1
  Cu  Cu100  1  0.50859903  0.16876366  0.74770026  1
  Cu  Cu101  1  -0.00104397  -0.00093668  0.50722251  1
  Cu  Cu102  1  0.66254468  0.32724146  0.00226955  1
  Cu  Cu103  1  0.17647829  0.82480012  0.24953407  1
  Cu  Cu104  1  0.82394778  0.17047961  0.25424120  1
  Cu  Cu105  1  0.65921450  0.66611345  0.50550707  1
  Cu  Cu106  1  0.16376249  0.17602729  0.24243613  1
  Cu  Cu107  1  0.67608333  0.67371714  -0.00911265  1
  Cu  Cu108  1  0.50477889  0.83160932  0.25444013  1
  Cu  Cu109  1  0.83612924  0.84780803  0.24430368  1
  Cu  Cu110  1  0.16177441  0.49130257  0.74824147  1
  Cu  Cu111  1  0.16699684  0.49609973  0.25185752  1
  Cu  Cu112  1  0.50337611  0.16465454  0.25162738  1
  Cu  Cu113  1  0.34505922  -0.00291037  0.50252278  1
  Cu  Cu114  1  0.49732832  0.49274061  0.25481483  1
  Se  Se115  1  0.07415656  0.08016834  0.05210271  1
  Se  Se116  1  0.08825842  0.07363168  0.56437904  1
  Se  Se117  1  0.08148717  0.41759333  0.05496620  1
  Se  Se118  1  0.09736807  0.42199588  0.54430440  1
  Se  Se119  1  0.08769046  0.75341271  0.05265912  1
  Se  Se120  1  0.06706778  0.74297194  0.56303046  1
  Se  Se121  1  0.41816494  0.08727599  0.04622607  1
  Se  Se122  1  0.42432518  0.08585071  0.55262081  1
  Se  Se123  1  0.41434976  0.41226075  0.06932706  1
  Se  Se124  1  0.41610857  0.41787901  0.54743547  1
  Se  Se125  1  0.42135642  0.74473724  0.05833573  1
  Se  Se126  1  0.40830821  0.75073659  0.55441274  1
  Se  Se127  1  0.74370838  0.08489300  0.05013142  1
  Se  Se128  1  0.76322837  0.08844144  0.55745867  1
  Se  Se129  1  0.74181336  0.41231425  0.06117659  1
  Se  Se130  1  0.74976374  0.41328449  0.55293381  1
  Se  Se131  1  0.75729284  0.75818724  0.04447455  1
  Se  Se132  1  0.73022045  0.74658229  0.57192046  1
  Se  Se133  1  0.22857581  0.23584933  0.05535153  1
  Se  Se134  1  0.26280455  0.25486426  0.56353612  1
  Se  Se135  1  0.25578808  0.58343400  0.05741344  1
  Se  Se136  1  0.24321133  0.58233829  0.54985829  1
  Se  Se137  1  0.25161854  0.91550842  0.04953904  1
  Se  Se138  1  0.25368337  0.92803927  0.56224518  1
  Se  Se139  1  0.57682980  0.24775907  0.05583448  1
  Se  Se140  1  0.58512307  0.24624044  0.55158501  1
  Se  Se141  1  0.59720238  0.59359517  0.05192543  1
  Se  Se142  1  0.57758562  0.57475958  0.55327783  1
  Se  Se143  1  0.58889031  0.92680342  0.05387179  1
  Se  Se144  1  0.58742291  0.91281024  0.55985009  1
  Se  Se145  1  0.90654092  0.25223546  0.05387685  1
  Se  Se146  1  0.94733360  0.26885026  0.55777555  1
  Se  Se147  1  0.92813926  0.59195751  0.06449024  1
  Se  Se148  1  0.91300428  0.59323781  0.54758151  1
  Se  Se149  1  0.90957689  0.91437755  0.04867071  1
  Se  Se150  1  0.91522326  0.92580733  0.56777972  1
  Se  Se151  1  0.08932681  0.25078875  0.43398615  1
  Se  Se152  1  0.07907080  0.24874325  0.94983484  1
  Se  Se153  1  0.06852828  0.59961611  0.44976869  1
  Se  Se154  1  0.08914255  0.57738654  0.95033955  1
  Se  Se155  1  0.07759988  0.91901542  0.44733649  1
  Se  Se156  1  0.08655296  0.91920764  0.94575376  1
  Se  Se157  1  0.41709051  0.24529566  0.44588248  1
  Se  Se158  1  0.39446731  0.27664425  0.94508729  1
  Se  Se159  1  0.41460783  0.58232311  0.44614221  1
  Se  Se160  1  0.41818777  0.59470210  0.93501938  1
  Se  Se161  1  0.42290096  0.90895857  0.44998169  1
  Se  Se162  1  0.41217203  0.92840109  0.93294104  1
  Se  Se163  1  0.75428060  0.24829025  0.44281122  1
  Se  Se164  1  0.74938305  0.24804892  0.94895750  1
  Se  Se165  1  0.74545949  0.58527213  0.45301981  1
  Se  Se166  1  0.75265038  0.58457582  0.93529047  1
  Se  Se167  1  0.74185292  0.92107432  0.44428482  1
  Se  Se168  1  0.74341028  0.91732292  0.92869219  1
  Se  Se169  1  0.26258170  0.07314294  0.44003135  1
  Se  Se170  1  0.24675774  0.08490469  0.94399661  1
  Se  Se171  1  0.25015175  0.41697969  0.44252553  1
  Se  Se172  1  0.24696261  0.42822849  0.95777240  1
  Se  Se173  1  0.25286212  0.74649325  0.43701608  1
  Se  Se174  1  0.25208008  0.75011016  0.95177360  1
  Se  Se175  1  0.58025804  0.09343328  0.44867889  1
  Se  Se176  1  0.57972960  0.08669590  0.94182792  1
  Se  Se177  1  0.58099344  0.41239334  0.44854073  1
  Se  Se178  1  0.59102848  0.41467628  0.94128738  1
  Se  Se179  1  0.58163823  0.75108750  0.44813268  1
  Se  Se180  1  0.59861541  0.75447099  0.93155276  1
  Se  Se181  1  0.91964586  0.08885988  0.45693507  1
  Se  Se182  1  0.91038048  0.08759449  0.94793526  1
  Se  Se183  1  0.90233312  0.42498002  0.44814928  1
  Se  Se184  1  0.92201181  0.41048663  0.93918724  1
  Se  Se185  1  0.91753635  0.75364853  0.44572693  1
  Se  Se186  1  0.92176562  0.74615065  0.94543946  1
  Se  Se187  1  0.25495878  0.25006015  0.29505952  1
  Se  Se188  1  0.23871673  0.24088763  0.81386774  1
  Se  Se189  1  0.25455168  0.58004080  0.30096272  1
  Se  Se190  1  0.24434066  0.57197184  0.80599717  1
  Se  Se191  1  0.24709181  0.91572522  0.30803620  1
  Se  Se192  1  0.24751148  0.91867956  0.80554825  1
  Se  Se193  1  0.58465334  0.25071607  0.30428213  1
  Se  Se194  1  0.58905319  0.25345877  0.80280744  1
  Se  Se195  1  0.57834551  0.57225340  0.31694085  1
  Se  Se196  1  0.58066974  0.57885445  0.79695472  1
  Se  Se197  1  0.58665151  0.91656302  0.30523919  1
  Se  Se198  1  0.57113786  0.91196992  0.78945832  1
  Se  Se199  1  0.91514253  0.24985632  0.30336220  1
  Se  Se200  1  0.91159078  0.24456825  0.81127643  1
  Se  Se201  1  0.91011995  0.57671704  0.31852669  1
  Se  Se202  1  0.90728352  0.57308341  0.80848678  1
  Se  Se203  1  0.91030793  0.92761096  0.30846132  1
  Se  Se204  1  0.90849007  0.90522515  0.80589667  1
  Se  Se205  1  0.08809614  0.09349395  0.30476534  1
  Se  Se206  1  0.07156667  0.07649260  0.80241326  1
  Se  Se207  1  0.08033759  0.41969524  0.30802653  1
  Se  Se208  1  0.09138396  0.41013710  0.81315849  1
  Se  Se209  1  0.09443915  0.75549139  0.31450295  1
  Se  Se210  1  0.08818627  0.74548333  0.81360785  1
  Se  Se211  1  0.42638225  0.08087423  0.31244964  1
  Se  Se212  1  0.42066054  0.09546801  0.80560838  1
  Se  Se213  1  0.41430927  0.40790243  0.30651115  1
  Se  Se214  1  0.42781484  0.42408508  0.81032976  1
  Se  Se215  1  0.41890295  0.74693246  0.30159587  1
  Se  Se216  1  0.41873817  0.76410359  0.80428186  1
  Se  Se217  1  0.74752268  0.08158483  0.30672822  1
  Se  Se218  1  0.74933641  0.08529751  0.80464860  1
  Se  Se219  1  0.74471212  0.41268593  0.30556393  1
  Se  Se220  1  0.74708304  0.40948347  0.79751262  1
  Se  Se221  1  0.76261587  0.76046248  0.30539305  1
  Se  Se222  1  0.72915394  0.73031476  0.80064728  1
  Se  Se223  1  0.24251930  0.08885673  0.18587489  1
  Se  Se224  1  0.25561429  0.08876661  0.70625295  1
  Se  Se225  1  0.24805743  0.41359394  0.19629309  1
  Se  Se226  1  0.24711992  0.41289527  0.69121904  1
  Se  Se227  1  0.25983253  0.74454261  0.19633107  1
  Se  Se228  1  0.23768199  0.75670357  0.69039783  1
  Se  Se229  1  0.58574468  0.08205564  0.19638048  1
  Se  Se230  1  0.59009875  0.08474969  0.69375092  1
  Se  Se231  1  0.58576898  0.41397691  0.20275551  1
  Se  Se232  1  0.58377260  0.40907015  0.69287972  1
  Se  Se233  1  0.58504546  0.75654635  0.18778477  1
  Se  Se234  1  0.56982786  0.73887673  0.70203494  1
  Se  Se235  1  0.90409025  0.09716460  0.18630867  1
  Se  Se236  1  0.91451901  0.08008080  0.69900702  1
  Se  Se237  1  0.91579834  0.41660428  0.20532741  1
  Se  Se238  1  0.91306142  0.41997740  0.68503030  1
  Se  Se239  1  0.91624433  0.75935235  0.19234260  1
  Se  Se240  1  0.90283029  0.75200312  0.69490451  1
  Se  Se241  1  0.07439780  0.25759614  0.19454027  1
  Se  Se242  1  0.09484382  0.23474788  0.69271683  1
  Se  Se243  1  0.08894813  0.58091746  0.19161387  1
  Se  Se244  1  0.07947560  0.56285679  0.68596588  1
  Se  Se245  1  0.09488272  0.90614004  0.19103383  1
  Se  Se246  1  0.07724882  0.91873868  0.70544854  1
  Se  Se247  1  0.41465343  0.24028630  0.19569651  1
  Se  Se248  1  0.42538041  0.24911197  0.68913467  1
  Se  Se249  1  0.42081386  0.58323320  0.20227506  1
  Se  Se250  1  0.41690689  0.57638039  0.68304836  1
  Se  Se251  1  0.42995475  0.90844004  0.18599411  1
  Se  Se252  1  0.40471660  0.94100986  0.69415326  1
  Se  Se253  1  0.74405980  0.25232092  0.19524741  1
  Se  Se254  1  0.75168134  0.25210801  0.69308395  1
  Se  Se255  1  0.75838623  0.57982358  0.19252573  1
  Se  Se256  1  0.74391022  0.57832399  0.69460263  1
  Se  Se257  1  0.74769955  0.92518780  0.19282649  1
  Se  Se258  1  0.75044194  0.90547761  0.70712655  1
