# generated using pymatgen
data_In86Cu29Se144
_symmetry_space_group_name_H-M   'P 1'
_cell_length_a   17.57689799
_cell_length_b   17.57833521
_cell_length_c   23.43590793
_cell_angle_alpha   90.03142045
_cell_angle_beta   89.98249368
_cell_angle_gamma   89.96666998
_symmetry_Int_Tables_number   1
_chemical_formula_structural   In86Cu29Se144
_chemical_formula_sum   'In86 Cu29 Se144'
_cell_volume   7241.05087018
_cell_formula_units_Z   1
loop_
 _symmetry_equiv_pos_site_id
 _symmetry_equiv_pos_as_xyz
  1  'x, y, z'
loop_
 _atom_site_type_symbol
 _atom_site_label
 _atom_site_symmetry_multiplicity
 _atom_site_fract_x
 _atom_site_fract_y
 _atom_site_fract_z
 _atom_site_occupancy
  In  In0  1  0.00676213  0.15656448  0.13233545  1
  In  In1  1  0.01071441  0.17146129  0.61503779  1
  In  In2  1  0.02576541  0.48608892  0.14966780  1
  In  In3  1  -0.01007330  0.49240653  0.62659864  1
  In  In4  1  0.00190324  0.83610990  0.12572325  1
  In  In5  1  -0.00250157  0.84086291  0.62273078  1
  In  In6  1  0.31960414  0.18240655  0.12927767  1
  In  In7  1  0.32862726  0.15741022  0.61559239  1
  In  In8  1  0.30967891  0.46609206  0.09828039  1
  In  In9  1  0.34294073  0.49707476  0.62817542  1
  In  In10  1  0.34214544  0.84259648  0.11699195  1
  In  In11  1  0.32333449  0.83646428  0.64293920  1
  In  In12  1  0.67127375  0.16230711  0.13485070  1
  In  In13  1  0.65823376  0.15382018  0.61664863  1
  In  In14  1  0.65345505  0.49162222  0.12239996  1
  In  In15  1  0.65837446  0.50879620  0.62255113  1
  In  In16  1  0.67341348  0.84868945  0.10893107  1
  In  In17  1  0.68338705  0.84267278  0.62581729  1
  In  In18  1  0.17555753  0.01078819  0.36632816  1
  In  In19  1  0.18206925  -0.01486970  0.88750592  1
  In  In20  1  0.15253530  0.32369952  0.36265782  1
  In  In21  1  0.16463658  0.34162957  0.88929883  1
  In  In22  1  0.16004002  0.66955058  0.36862738  1
  In  In23  1  0.17026626  0.66408058  0.88128344  1
  In  In24  1  0.51400904  0.01192291  0.36385090  1
  In  In25  1  0.49222046  -0.00105473  0.87063560  1
  In  In26  1  0.50033489  0.32915448  0.37395851  1
  In  In27  1  0.49816175  0.34574263  0.88869975  1
  In  In28  1  0.48652378  0.65856168  0.37716791  1
  In  In29  1  0.48843876  0.68208382  0.88354516  1
  In  In30  1  0.83453663  0.00155863  0.37480765  1
  In  In31  1  0.82254296  -0.00479584  0.87264016  1
  In  In32  1  0.82459208  0.32594304  0.36710734  1
  In  In33  1  0.83624858  0.31936276  0.87619469  1
  In  In34  1  0.84606134  0.67250420  0.37972644  1
  In  In35  1  0.83799010  0.67783529  0.87559901  1
  In  In36  1  0.00086043  0.16459755  0.37311952  1
  In  In37  1  0.00355869  0.17852595  0.87356712  1
  In  In38  1  0.00435910  0.50284588  0.36110453  1
  In  In39  1  0.01696823  0.49943703  0.88101645  1
  In  In40  1  -0.01310020  0.82886037  0.37072402  1
  In  In41  1  -0.00016216  0.83440761  0.88589271  1
  In  In42  1  0.33416354  0.16722353  0.37326579  1
  In  In43  1  0.33782163  0.15469326  0.87790375  1
  In  In44  1  0.34467708  0.49970042  0.37397570  1
  In  In45  1  0.31949209  0.51192265  0.88968157  1
  In  In46  1  0.32126151  0.83618044  0.36990217  1
  In  In47  1  0.33082708  0.83873289  0.87102545  1
  In  In48  1  0.66804875  0.16691571  0.37481180  1
  In  In49  1  0.67136558  0.16180784  0.87511162  1
  In  In50  1  0.66065488  0.48596065  0.37188042  1
  In  In51  1  0.64650981  0.49824226  0.88259508  1
  In  In52  1  0.67135711  0.85091578  0.36987318  1
  In  In53  1  0.66311775  0.84656468  0.88443750  1
  In  In54  1  0.16861779  0.00366827  0.12322162  1
  In  In55  1  0.16300424  0.00235438  0.62542029  1
  In  In56  1  0.16781829  0.32983773  0.12389791  1
  In  In57  1  0.16747038  0.31850676  0.62233670  1
  In  In58  1  0.15788464  0.65933691  0.12326990  1
  In  In59  1  0.17021751  0.67709653  0.62904146  1
  In  In60  1  0.50642761  -0.00401704  0.12843068  1
  In  In61  1  0.49244647  0.00453089  0.62966898  1
  In  In62  1  0.49380396  0.33612858  0.13132337  1
  In  In63  1  0.50488674  0.33298708  0.61748328  1
  In  In64  1  0.49090384  0.66134540  0.11601120  1
  In  In65  1  0.49644634  0.65871359  0.62553026  1
  In  In66  1  0.83585481  -0.00131232  0.12884934  1
  In  In67  1  0.82487550  -0.00671986  0.61816179  1
  In  In68  1  0.83706930  0.33376349  0.13673877  1
  In  In69  1  0.84925165  0.33027640  0.62382012  1
  In  In70  1  0.84098637  0.68121876  0.12422156  1
  In  In71  1  0.83010847  0.67036656  0.61893458  1
  In  In72  1  0.49776566  0.16673074  0.00340875  1
  In  In73  1  0.32783578  0.66154430  0.24429029  1
  In  In74  1  0.33209112  0.32762100  0.75435970  1
  In  In75  1  0.66937735  0.67321331  0.74554851  1
  In  In76  1  0.50054046  0.83282412  0.49821881  1
  In  In77  1  0.00239907  0.66799038  0.74841807  1
  In  In78  1  0.16507866  0.49670480  0.48605383  1
  In  In79  1  0.66771251  0.32795417  0.75407497  1
  In  In80  1  0.83236160  0.16001700  -0.00014082  1
  In  In81  1  0.00251334  -0.00097432  0.74818331  1
  In  In82  1  0.82693330  0.49520364  0.49802014  1
  In  In83  1  0.83604143  0.50664048  0.01093160  1
  In  In84  1  0.66677441  0.66886585  0.23747882  1
  In  In85  1  0.16093729  0.83681292  0.50358585  1
  Cu  Cu86  1  0.49816797  0.16693197  0.25057742  1
  Cu  Cu87  1  0.00217894  0.33484452  0.00589027  1
  Cu  Cu88  1  0.00057852  0.00388666  0.49657755  1
  Cu  Cu89  1  0.34130708  0.00455870  0.49539383  1
  Cu  Cu90  1  0.16536743  0.16653901  0.24842524  1
  Cu  Cu91  1  0.16611031  0.49460704  0.76100124  1
  Cu  Cu92  1  0.49880355  0.83741682  0.24320190  1
  Cu  Cu93  1  0.66812649  0.66903539  0.00143528  1
  Cu  Cu94  1  -0.00102285  0.32905165  0.49228080  1
  Cu  Cu95  1  0.83543009  0.16308122  0.74876147  1
  Cu  Cu96  1  0.67156252  0.00398463  0.49475819  1
  Cu  Cu97  1  0.16460840  0.84306171  0.24555330  1
  Cu  Cu98  1  0.50011507  0.16295016  0.74928098  1
  Cu  Cu99  1  0.49826500  0.49247386  0.24707170  1
  Cu  Cu100  1  0.83887544  0.49010667  0.75325576  1
  Cu  Cu101  1  0.49192374  0.50613207  0.75334604  1
  Cu  Cu102  1  0.83368711  0.83956138  0.24689055  1
  Cu  Cu103  1  0.16479684  0.16351000  0.74690182  1
  Cu  Cu104  1  0.83368892  0.50193759  0.25332019  1
  Cu  Cu105  1  0.33372063  0.66148400  0.50373614  1
  Cu  Cu106  1  0.33594818  0.67210816  -0.00092208  1
  Cu  Cu107  1  0.00565643  0.66623953  0.00530085  1
  Cu  Cu108  1  0.66139691  0.66767858  0.50194570  1
  Cu  Cu109  1  0.66387892  0.32850001  0.49326363  1
  Cu  Cu110  1  0.50039573  0.83606132  0.75670682  1
  Cu  Cu111  1  0.00206278  0.00112133  0.00681871  1
  Cu  Cu112  1  0.33106114  0.00131569  0.00031008  1
  Cu  Cu113  1  0.83555566  0.16402734  0.25532565  1
  Cu  Cu114  1  0.33900615  0.32705121  0.49799343  1
  Se  Se115  1  0.08575918  0.08904174  0.05367688  1
  Se  Se116  1  0.09044516  0.08110825  0.54965892  1
  Se  Se117  1  0.08138426  0.42099839  0.05971277  1
  Se  Se118  1  0.07752210  0.41010251  0.55430541  1
  Se  Se119  1  0.08718231  0.75447761  0.05620461  1
  Se  Se120  1  0.07231027  0.73888507  0.55743945  1
  Se  Se121  1  0.40669037  0.08069829  0.06492454  1
  Se  Se122  1  0.42537877  0.08460353  0.55079234  1
  Se  Se123  1  0.43844177  0.42823401  0.05536557  1
  Se  Se124  1  0.41445164  0.41458418  0.55411635  1
  Se  Se125  1  0.42172941  0.75628363  0.04884776  1
  Se  Se126  1  0.40577387  0.75099907  0.56204020  1
  Se  Se127  1  0.73960378  0.07319622  0.05774814  1
  Se  Se128  1  0.75522679  0.08679252  0.54935597  1
  Se  Se129  1  0.74909409  0.40533541  0.06065519  1
  Se  Se130  1  0.73895993  0.40534406  0.56226824  1
  Se  Se131  1  0.75515997  0.75071259  0.05143441  1
  Se  Se132  1  0.74636561  0.75140303  0.55150919  1
  Se  Se133  1  0.24939484  0.25383195  0.05005261  1
  Se  Se134  1  0.25005322  0.24698031  0.54908766  1
  Se  Se135  1  0.25408294  0.59087680  0.05524344  1
  Se  Se136  1  0.24831725  0.58141444  0.55942870  1
  Se  Se137  1  0.24668631  0.91694822  0.05253453  1
  Se  Se138  1  0.26321020  0.92172035  0.55718315  1
  Se  Se139  1  0.58896327  0.25038271  0.06604972  1
  Se  Se140  1  0.58248899  0.24596079  0.55054613  1
  Se  Se141  1  0.58616850  0.58383532  0.05275831  1
  Se  Se142  1  0.57611665  0.58301374  0.55022904  1
  Se  Se143  1  0.56813000  0.91302270  0.04981719  1
  Se  Se144  1  0.59022282  0.92411094  0.55696434  1
  Se  Se145  1  0.92008625  0.25198117  0.06160438  1
  Se  Se146  1  0.91688159  0.24720533  0.54824696  1
  Se  Se147  1  0.93447601  0.58391178  0.07064007  1
  Se  Se148  1  0.92253495  0.58572441  0.55447486  1
  Se  Se149  1  0.91584785  0.91838544  0.05673185  1
  Se  Se150  1  0.91915471  0.91936369  0.55105176  1
  Se  Se151  1  0.08692452  0.24628860  0.44313408  1
  Se  Se152  1  0.08152289  0.24902237  0.95096184  1
  Se  Se153  1  0.06957635  0.59365525  0.44011493  1
  Se  Se154  1  0.08991672  0.58185795  0.95311908  1
  Se  Se155  1  0.08156526  0.92400561  0.43515750  1
  Se  Se156  1  0.08451722  0.91595075  0.95281435  1
  Se  Se157  1  0.42137805  0.24368611  0.44403948  1
  Se  Se158  1  0.40432480  0.25751261  0.94586395  1
  Se  Se159  1  0.41688512  0.57697857  0.45243355  1
  Se  Se160  1  0.42151862  0.58373900  0.94949324  1
  Se  Se161  1  0.41471994  0.92076282  0.43362754  1
  Se  Se162  1  0.41317804  0.91989292  0.94326971  1
  Se  Se163  1  0.75367699  0.24853523  0.44474840  1
  Se  Se164  1  0.73848674  0.25756606  0.94736608  1
  Se  Se165  1  0.73896971  0.58829262  0.43685216  1
  Se  Se166  1  0.74702673  0.58784289  0.93946744  1
  Se  Se167  1  0.75425072  0.91569570  0.44628008  1
  Se  Se168  1  0.75975728  0.91494741  0.95049042  1
  Se  Se169  1  0.25158643  0.08341614  0.44416925  1
  Se  Se170  1  0.24762295  0.08855109  0.95041610  1
  Se  Se171  1  0.25759296  0.40246050  0.43444941  1
  Se  Se172  1  0.25442904  0.41522737  0.95597247  1
  Se  Se173  1  0.25432098  0.74103590  0.44367214  1
  Se  Se174  1  0.25293926  0.75419083  0.94369413  1
  Se  Se175  1  0.58294796  0.08463190  0.44469881  1
  Se  Se176  1  0.58654342  0.07666856  0.94219856  1
  Se  Se177  1  0.57886113  0.41611111  0.44653010  1
  Se  Se178  1  0.59075825  0.40993506  0.95792504  1
  Se  Se179  1  0.58856232  0.74501750  0.43348016  1
  Se  Se180  1  0.58535105  0.75273836  0.94764394  1
  Se  Se181  1  0.91591386  0.08626707  0.44383518  1
  Se  Se182  1  0.92606206  0.07571875  0.93746070  1
  Se  Se183  1  0.92154130  0.41448378  0.43471305  1
  Se  Se184  1  0.91922458  0.41184956  0.94442095  1
  Se  Se185  1  0.91415434  0.75904614  0.45093977  1
  Se  Se186  1  0.91877648  0.74593238  0.95218829  1
  Se  Se187  1  0.25108162  0.24790678  0.30228748  1
  Se  Se188  1  0.24018885  0.24124467  0.81385654  1
  Se  Se189  1  0.24267917  0.57249293  0.30886574  1
  Se  Se190  1  0.24928270  0.58227621  0.80793720  1
  Se  Se191  1  0.25344277  0.92184692  0.29729667  1
  Se  Se192  1  0.24989362  0.92412251  0.80294980  1
  Se  Se193  1  0.58471044  0.24847964  0.30462672  1
  Se  Se194  1  0.56936649  0.24619523  0.81417406  1
  Se  Se195  1  0.57607782  0.58194100  0.30343857  1
  Se  Se196  1  0.57685764  0.58743915  0.80837925  1
  Se  Se197  1  0.58550176  0.91782599  0.29600144  1
  Se  Se198  1  0.58570519  0.91916877  0.80671141  1
  Se  Se199  1  0.92040866  0.25104746  0.30395727  1
  Se  Se200  1  0.91680965  0.24930501  0.80021490  1
  Se  Se201  1  0.91324000  0.59106496  0.30303871  1
  Se  Se202  1  0.91492066  0.57491901  0.81239682  1
  Se  Se203  1  0.91661563  0.92115122  0.30230044  1
  Se  Se204  1  0.91489520  0.90855770  0.80880681  1
  Se  Se205  1  0.08051369  0.08238327  0.30061031  1
  Se  Se206  1  0.09031861  0.08437046  0.81239137  1
  Se  Se207  1  0.08858467  0.42174333  0.29665109  1
  Se  Se208  1  0.08331091  0.40789835  0.80939682  1
  Se  Se209  1  0.08536343  0.76049143  0.30343414  1
  Se  Se210  1  0.08673269  0.75505925  0.81274464  1
  Se  Se211  1  0.41361737  0.08181571  0.30209864  1
  Se  Se212  1  0.41162920  0.08195389  0.79962697  1
  Se  Se213  1  0.41643535  0.41192108  0.30368269  1
  Se  Se214  1  0.41554462  0.42422343  0.81395709  1
  Se  Se215  1  0.42168771  0.75568680  0.30458548  1
  Se  Se216  1  0.41464577  0.75033531  0.80353632  1
  Se  Se217  1  0.74824844  0.08101813  0.30566883  1
  Se  Se218  1  0.74939948  0.08395868  0.80184867  1
  Se  Se219  1  0.74672668  0.41640838  0.30011589  1
  Se  Se220  1  0.75184410  0.42356713  0.81625204  1
  Se  Se221  1  0.75380395  0.75338877  0.30549333  1
  Se  Se222  1  0.75325051  0.76169838  0.80856346  1
  Se  Se223  1  0.25052143  0.08449296  0.19499822  1
  Se  Se224  1  0.24962177  0.08418532  0.69208420  1
  Se  Se225  1  0.25271244  0.41504542  0.19029048  1
  Se  Se226  1  0.24202073  0.41834114  0.69248627  1
  Se  Se227  1  0.24619670  0.76058063  0.18649515  1
  Se  Se228  1  0.25066048  0.74112790  0.70515246  1
  Se  Se229  1  0.58267857  0.08122133  0.19955310  1
  Se  Se230  1  0.58534813  0.08147414  0.69628879  1
  Se  Se231  1  0.58827915  0.40987124  0.20013554  1
  Se  Se232  1  0.57550950  0.42429077  0.69652949  1
  Se  Se233  1  0.57548152  0.75851444  0.18075492  1
  Se  Se234  1  0.57551032  0.76267530  0.68637302  1
  Se  Se235  1  0.91621974  0.08076710  0.19897382  1
  Se  Se236  1  0.91646668  0.08875205  0.68454852  1
  Se  Se237  1  0.91975057  0.41459022  0.20568162  1
  Se  Se238  1  0.92238195  0.40754736  0.70131619  1
  Se  Se239  1  0.92047470  0.75423129  0.19893072  1
  Se  Se240  1  0.90701475  0.75667145  0.69180484  1
  Se  Se241  1  0.08216193  0.25147702  0.19568939  1
  Se  Se242  1  0.08162122  0.24830372  0.69512293  1
  Se  Se243  1  0.08364664  0.59780948  0.20591239  1
  Se  Se244  1  0.09079567  0.57017380  0.69133325  1
  Se  Se245  1  0.08043648  0.92585656  0.19299629  1
  Se  Se246  1  0.09547105  0.90215931  0.69439471  1
  Se  Se247  1  0.41354997  0.25110453  0.19914119  1
  Se  Se248  1  0.42244056  0.24526752  0.68868691  1
  Se  Se249  1  0.41799986  0.57155934  0.18709843  1
  Se  Se250  1  0.41035040  0.58878817  0.69914724  1
  Se  Se251  1  0.41159767  0.92165955  0.19521401  1
  Se  Se252  1  0.41750469  0.91917271  0.70059120  1
  Se  Se253  1  0.75264720  0.24812377  0.20154731  1
  Se  Se254  1  0.75422376  0.24355936  0.68757488  1
  Se  Se255  1  0.75896208  0.57428375  0.18354624  1
  Se  Se256  1  0.76141956  0.57136613  0.69258663  1
  Se  Se257  1  0.74492993  0.91514572  0.19254560  1
  Se  Se258  1  0.75377000  0.92408410  0.69896526  1
