# generated using pymatgen
data_In86Cu29Se144
_symmetry_space_group_name_H-M   'P 1'
_cell_length_a   17.57550213
_cell_length_b   17.57209714
_cell_length_c   23.41771622
_cell_angle_alpha   89.99790103
_cell_angle_beta   90.02800725
_cell_angle_gamma   89.97073490
_symmetry_Int_Tables_number   1
_chemical_formula_structural   In86Cu29Se144
_chemical_formula_sum   'In86 Cu29 Se144'
_cell_volume   7232.28891619
_cell_formula_units_Z   1
loop_
 _symmetry_equiv_pos_site_id
 _symmetry_equiv_pos_as_xyz
  1  'x, y, z'
loop_
 _atom_site_type_symbol
 _atom_site_label
 _atom_site_symmetry_multiplicity
 _atom_site_fract_x
 _atom_site_fract_y
 _atom_site_fract_z
 _atom_site_occupancy
  In  In0  1  0.01282229  0.17280418  0.12413250  1
  In  In1  1  0.00230163  0.17068323  0.61523820  1
  In  In2  1  -0.00533564  0.50654975  0.13003144  1
  In  In3  1  -0.00325168  0.51165550  0.65285752  1
  In  In4  1  -0.01218434  0.82608197  0.12418996  1
  In  In5  1  -0.00973759  0.81364988  0.60631014  1
  In  In6  1  0.34793772  0.16386487  0.13055368  1
  In  In7  1  0.32267842  0.17642646  0.62747030  1
  In  In8  1  0.33976487  0.49256330  0.12828950  1
  In  In9  1  0.33814338  0.48949015  0.64370733  1
  In  In10  1  0.33087031  0.83519870  0.13086837  1
  In  In11  1  0.33103142  0.83969371  0.62816260  1
  In  In12  1  0.65399440  0.17141894  0.12450308  1
  In  In13  1  0.68078770  0.17019987  0.62013020  1
  In  In14  1  0.66740337  0.49185660  0.10983900  1
  In  In15  1  0.67069325  0.50704091  0.64299661  1
  In  In16  1  0.68012697  0.83062012  0.12586511  1
  In  In17  1  0.67330868  0.82083822  0.62989341  1
  In  In18  1  0.17305529  -0.00806836  0.37882757  1
  In  In19  1  0.17039886  -0.00177507  0.87531731  1
  In  In20  1  0.16177305  0.33028769  0.37449872  1
  In  In21  1  0.17624938  0.35381527  0.85061572  1
  In  In22  1  0.17169347  0.66600450  0.37818366  1
  In  In23  1  0.16570582  0.66331105  0.86040797  1
  In  In24  1  0.49850396  0.00004294  0.36483086  1
  In  In25  1  0.49675158  0.01471863  0.88022380  1
  In  In26  1  0.50127682  0.35037210  0.37983297  1
  In  In27  1  0.49863222  0.33455479  0.86921152  1
  In  In28  1  0.48991296  0.66502574  0.37985658  1
  In  In29  1  0.49114584  0.65227625  0.86091147  1
  In  In30  1  0.83459213  -0.00176361  0.37826110  1
  In  In31  1  0.82069093  -0.00760875  0.88081599  1
  In  In32  1  0.83283611  0.32084495  0.38166635  1
  In  In33  1  0.83866461  0.36222795  0.84649149  1
  In  In34  1  0.84906509  0.66324495  0.38061680  1
  In  In35  1  0.82396070  0.66211698  0.86124028  1
  In  In36  1  -0.00296469  0.17492538  0.38196543  1
  In  In37  1  -0.00917220  0.18483124  0.87600624  1
  In  In38  1  0.00656092  0.50512915  0.37169850  1
  In  In39  1  -0.00873383  0.50058063  0.85682969  1
  In  In40  1  0.00866051  0.81846282  0.38930238  1
  In  In41  1  -0.01480901  0.81295458  0.86775503  1
  In  In42  1  0.32561234  0.16247816  0.37223241  1
  In  In43  1  0.33753279  0.17569269  0.87046836  1
  In  In44  1  0.33891487  0.50621935  0.37458786  1
  In  In45  1  0.34339677  0.51026806  0.85326704  1
  In  In46  1  0.32574314  0.82638456  0.36976552  1
  In  In47  1  0.33048374  0.83683204  0.86856770  1
  In  In48  1  0.68291458  0.16568220  0.37696341  1
  In  In49  1  0.65423965  0.16888786  0.87770427  1
  In  In50  1  0.65976319  0.48365046  0.38628961  1
  In  In51  1  0.65784147  0.50285600  0.86356372  1
  In  In52  1  0.66097775  0.84285987  0.37678114  1
  In  In53  1  0.68049418  0.82320908  0.87486858  1
  In  In54  1  0.17611701  0.00918467  0.12787333  1
  In  In55  1  0.17028679  0.00308152  0.61424435  1
  In  In56  1  0.16667440  0.33773949  0.13230313  1
  In  In57  1  0.16828153  0.33173287  0.62874718  1
  In  In58  1  0.16615043  0.66710979  0.13294948  1
  In  In59  1  0.15839289  0.67530490  0.63299765  1
  In  In60  1  0.48643591  0.01691384  0.13194416  1
  In  In61  1  0.49580016  -0.01129801  0.62748885  1
  In  In62  1  0.49993900  0.32722540  0.11461807  1
  In  In63  1  0.49670996  0.34962597  0.64078222  1
  In  In64  1  0.50017215  0.65178903  0.12022681  1
  In  In65  1  0.50798835  0.64755844  0.64470926  1
  In  In66  1  0.84077580  -0.01947326  0.12649988  1
  In  In67  1  0.83405347  0.00084131  0.61562185  1
  In  In68  1  0.83046939  0.34440689  0.12209267  1
  In  In69  1  0.83965310  0.33584272  0.63343755  1
  In  In70  1  0.83625722  0.66926197  0.11987280  1
  In  In71  1  0.83448572  0.67200379  0.63794552  1
  In  In72  1  0.00571116  -0.00583043  0.75156086  1
  In  In73  1  0.16364295  0.50444622  0.51050904  1
  In  In74  1  0.82361811  0.17023919  -0.00138107  1
  In  In75  1  0.66024460  -0.00299673  0.75275025  1
  In  In76  1  0.16618160  0.83168675  0.00774762  1
  In  In77  1  0.49901078  0.17534785  0.50290548  1
  In  In78  1  0.16916691  0.17252712  -0.00103775  1
  In  In79  1  0.66586615  0.33019205  0.25273811  1
  In  In80  1  0.16995418  0.49917228  -0.00897104  1
  In  In81  1  0.00598797  -0.00269630  0.24868982  1
  In  In82  1  0.66599480  0.66578152  0.24709078  1
  In  In83  1  0.50108337  0.82707325  0.50556633  1
  In  In84  1  0.50338729  0.83246058  -0.00323356  1
  In  In85  1  0.83508887  0.50469768  0.51820721  1
  Cu  Cu86  1  0.49619857  0.83585511  0.25153174  1
  Cu  Cu87  1  0.33231499  -0.00159736  0.49752019  1
  Cu  Cu88  1  0.49235371  0.83222786  0.75285590  1
  Cu  Cu89  1  0.16410835  0.16300755  0.74155922  1
  Cu  Cu90  1  0.67225795  0.66024299  0.51400236  1
  Cu  Cu91  1  0.49594671  0.50090002  0.24983870  1
  Cu  Cu92  1  0.16962169  0.84163031  0.74472682  1
  Cu  Cu93  1  0.34439306  0.33372307  -0.00330959  1
  Cu  Cu94  1  -0.00282053  0.34407968  -0.01122654  1
  Cu  Cu95  1  0.49419896  0.16499340  0.74851959  1
  Cu  Cu96  1  0.67110277  0.34000547  -0.01352722  1
  Cu  Cu97  1  0.67055614  0.65532347  -0.00776865  1
  Cu  Cu98  1  -0.01727606  0.65795946  -0.00636332  1
  Cu  Cu99  1  -0.00551071  -0.01352327  -0.00240328  1
  Cu  Cu100  1  0.66331203  -0.00467859  0.00235479  1
  Cu  Cu101  1  0.84047662  0.49960506  0.24901752  1
  Cu  Cu102  1  0.33045296  0.33975014  0.51033471  1
  Cu  Cu103  1  0.83855297  0.16378684  0.25772673  1
  Cu  Cu104  1  -0.00439488  0.33927944  0.50446821  1
  Cu  Cu105  1  0.83667718  0.82870478  0.25068704  1
  Cu  Cu106  1  0.17056845  0.83033241  0.25653300  1
  Cu  Cu107  1  0.83609268  0.16870837  0.74756643  1
  Cu  Cu108  1  0.67400885  0.00289165  0.49625014  1
  Cu  Cu109  1  0.49533446  0.17018789  0.24853640  1
  Cu  Cu110  1  0.16901054  0.17402110  0.25107017  1
  Cu  Cu111  1  0.16921651  0.50070092  0.25387501  1
  Cu  Cu112  1  0.33438982  0.66019310  -0.00845179  1
  Cu  Cu113  1  0.33646652  0.66159925  0.50366392  1
  Cu  Cu114  1  0.00219241  0.00333309  0.49618970  1
  Se  Se115  1  0.07583077  0.07068137  0.05348700  1
  Se  Se116  1  0.08573321  0.08771641  0.54813899  1
  Se  Se117  1  0.07918542  0.41436786  0.05569659  1
  Se  Se118  1  0.06730586  0.41975756  0.56987341  1
  Se  Se119  1  0.07000373  0.73227949  0.05538221  1
  Se  Se120  1  0.10046804  0.75299097  0.55013502  1
  Se  Se121  1  0.42074453  0.09272188  0.05194091  1
  Se  Se122  1  0.41157898  0.07720391  0.55930261  1
  Se  Se123  1  0.42109736  0.42223655  0.05194921  1
  Se  Se124  1  0.41465756  0.41942624  0.56380160  1
  Se  Se125  1  0.40736926  0.74338343  0.05567854  1
  Se  Se126  1  0.41748588  0.73737122  0.56840599  1
  Se  Se127  1  0.74683758  0.07345003  0.06407417  1
  Se  Se128  1  0.75597296  0.08892315  0.54736735  1
  Se  Se129  1  0.75826122  0.41623418  0.04269490  1
  Se  Se130  1  0.74027182  0.41237250  0.56732795  1
  Se  Se131  1  0.74413029  0.74208116  0.05159667  1
  Se  Se132  1  0.75841856  0.74723785  0.55858831  1
  Se  Se133  1  0.25840036  0.26206523  0.05984120  1
  Se  Se134  1  0.24268093  0.25143892  0.55236222  1
  Se  Se135  1  0.25308950  0.58842285  0.05770163  1
  Se  Se136  1  0.26005813  0.58596991  0.57005431  1
  Se  Se137  1  0.26096080  0.92820260  0.05578228  1
  Se  Se138  1  0.25282325  0.91129228  0.55048375  1
  Se  Se139  1  0.59374127  0.25601314  0.04640691  1
  Se  Se140  1  0.58168880  0.26039930  0.56863270  1
  Se  Se141  1  0.58193976  0.57887762  0.04685749  1
  Se  Se142  1  0.58788987  0.57932284  0.56653693  1
  Se  Se143  1  0.58377578  0.91946072  0.06643405  1
  Se  Se144  1  0.59676525  0.92238621  0.55884556  1
  Se  Se145  1  0.92697255  0.25691572  0.05268178  1
  Se  Se146  1  0.90956513  0.25516844  0.55504624  1
  Se  Se147  1  0.90962441  0.57355615  0.05400872  1
  Se  Se148  1  0.93325441  0.59272827  0.56908743  1
  Se  Se149  1  0.91095600  0.90293810  0.04847478  1
  Se  Se150  1  0.91913677  0.91913608  0.54903179  1
  Se  Se151  1  0.08077507  0.25789824  0.45025130  1
  Se  Se152  1  0.08850016  0.26813373  0.93519451  1
  Se  Se153  1  0.07436443  0.59242481  0.44832268  1
  Se  Se154  1  0.07521660  0.58913284  0.93540974  1
  Se  Se155  1  0.08735286  0.91589879  0.44825495  1
  Se  Se156  1  0.07637022  0.91036638  0.93696438  1
  Se  Se157  1  0.40450532  0.26024913  0.44255137  1
  Se  Se158  1  0.42347377  0.24755956  0.94317203  1
  Se  Se159  1  0.42027476  0.57741477  0.45187243  1
  Se  Se160  1  0.41408739  0.57636826  0.93751725  1
  Se  Se161  1  0.41642996  0.91817005  0.44052856  1
  Se  Se162  1  0.40756068  0.92221086  0.94330562  1
  Se  Se163  1  0.73406752  0.26252310  0.44881577  1
  Se  Se164  1  0.75549448  0.26163650  0.92752686  1
  Se  Se165  1  0.74614492  0.58433407  0.44418338  1
  Se  Se166  1  0.75022843  0.57567615  0.93354368  1
  Se  Se167  1  0.75221902  0.91203674  0.44612949  1
  Se  Se168  1  0.74566658  0.90917594  0.95230131  1
  Se  Se169  1  0.24880362  0.08409831  0.44648553  1
  Se  Se170  1  0.25798696  0.08021326  0.94263278  1
  Se  Se171  1  0.25109487  0.41754749  0.44506318  1
  Se  Se172  1  0.26334100  0.41122906  0.93412767  1
  Se  Se173  1  0.25760208  0.74579852  0.44765618  1
  Se  Se174  1  0.24906202  0.74249107  0.93885919  1
  Se  Se175  1  0.58382814  0.07792767  0.44106916  1
  Se  Se176  1  0.58460748  0.08479961  0.95274322  1
  Se  Se177  1  0.57392647  0.41866847  0.45915782  1
  Se  Se178  1  0.58063014  0.41988848  0.93751267  1
  Se  Se179  1  0.59477116  0.73704752  0.44615680  1
  Se  Se180  1  0.58437039  0.73639762  0.93614254  1
  Se  Se181  1  0.91476943  0.08558228  0.44515553  1
  Se  Se182  1  0.92137983  0.07801165  0.94117162  1
  Se  Se183  1  0.91817957  0.42083118  0.44322445  1
  Se  Se184  1  0.91369241  0.42128216  0.93161005  1
  Se  Se185  1  0.90757436  0.75409212  0.45338722  1
  Se  Se186  1  0.90141872  0.74299379  0.94117349  1
  Se  Se187  1  0.25241932  0.25656137  0.30547848  1
  Se  Se188  1  0.24696759  0.24396760  0.79891534  1
  Se  Se189  1  0.25238834  0.58564383  0.30665946  1
  Se  Se190  1  0.22888398  0.56370283  0.79541730  1
  Se  Se191  1  0.25359865  0.92080614  0.30219626  1
  Se  Se192  1  0.24972784  0.92407546  0.80130668  1
  Se  Se193  1  0.57507343  0.24326512  0.31513427  1
  Se  Se194  1  0.58061451  0.24453387  0.80155797  1
  Se  Se195  1  0.58100034  0.57467410  0.31141105  1
  Se  Se196  1  0.59387368  0.59920752  0.79412684  1
  Se  Se197  1  0.58612788  0.91719411  0.29973026  1
  Se  Se198  1  0.57265127  0.90900699  0.81724426  1
  Se  Se199  1  0.91837121  0.25257001  0.30677374  1
  Se  Se200  1  0.91911739  0.25578480  0.79697866  1
  Se  Se201  1  0.91971769  0.58533068  0.30305059  1
  Se  Se202  1  0.93728988  0.61300302  0.79911791  1
  Se  Se203  1  0.92057377  0.90692041  0.31082459  1
  Se  Se204  1  0.90308685  0.91299907  0.80711851  1
  Se  Se205  1  0.08915699  0.09037457  0.31098961  1
  Se  Se206  1  0.08563288  0.09547539  0.81246180  1
  Se  Se207  1  0.08347276  0.41653225  0.30485571  1
  Se  Se208  1  0.06404688  0.40431001  0.79308749  1
  Se  Se209  1  0.08572393  0.74919490  0.30972284  1
  Se  Se210  1  0.08746891  0.75885496  0.79964289  1
  Se  Se211  1  0.41242150  0.08538535  0.30212423  1
  Se  Se212  1  0.41390295  0.08157488  0.80357011  1
  Se  Se213  1  0.41557660  0.41662083  0.30471563  1
  Se  Se214  1  0.40800326  0.40251063  0.79782550  1
  Se  Se215  1  0.41924557  0.74790996  0.30564291  1
  Se  Se216  1  0.40662746  0.74710773  0.80244711  1
  Se  Se217  1  0.75333782  0.07804130  0.30495483  1
  Se  Se218  1  0.75558692  0.09078341  0.80941855  1
  Se  Se219  1  0.75760882  0.42350298  0.31082755  1
  Se  Se220  1  0.71449964  0.39704298  0.79511318  1
  Se  Se221  1  0.75343739  0.75178923  0.31193641  1
  Se  Se222  1  0.74782681  0.75479019  0.79422470  1
  Se  Se223  1  0.25306278  0.09063682  0.19798000  1
  Se  Se224  1  0.24831946  0.07883144  0.69080194  1
  Se  Se225  1  0.25231468  0.41871104  0.19865789  1
  Se  Se226  1  0.24491395  0.40750507  0.70287533  1
  Se  Se227  1  0.25271122  0.74840200  0.19869326  1
  Se  Se228  1  0.25329620  0.75274354  0.69682429  1
  Se  Se229  1  0.58385875  0.08752502  0.19854969  1
  Se  Se230  1  0.57835838  0.08974761  0.68686546  1
  Se  Se231  1  0.58115960  0.42267011  0.18993697  1
  Se  Se232  1  0.59286216  0.41458314  0.70906286  1
  Se  Se233  1  0.57322655  0.75587692  0.18770837  1
  Se  Se234  1  0.58075681  0.75519681  0.69942749  1
  Se  Se235  1  0.91412595  0.08925508  0.18830524  1
  Se  Se236  1  0.91494845  0.08480489  0.69067552  1
  Se  Se237  1  0.91821455  0.41130711  0.19513400  1
  Se  Se238  1  0.89898963  0.42997655  0.70636113  1
  Se  Se239  1  0.91639856  0.74176025  0.19744692  1
  Se  Se240  1  0.92966487  0.75630727  0.69580196  1
  Se  Se241  1  0.08111474  0.25449269  0.19937508  1
  Se  Se242  1  0.07775516  0.24629076  0.69167921  1
  Se  Se243  1  0.08380411  0.58179169  0.19851943  1
  Se  Se244  1  0.11112863  0.57226213  0.70504629  1
  Se  Se245  1  0.09400626  0.90432058  0.18666482  1
  Se  Se246  1  0.08563252  0.91192143  0.68114564  1
  Se  Se247  1  0.42077104  0.26124026  0.19473919  1
  Se  Se248  1  0.41296076  0.25003811  0.69526200  1
  Se  Se249  1  0.41516121  0.58591235  0.19580313  1
  Se  Se250  1  0.41064040  0.58301044  0.71021962  1
  Se  Se251  1  0.41442465  0.91994988  0.19676117  1
  Se  Se252  1  0.41252793  0.92014223  0.70145583  1
  Se  Se253  1  0.75961022  0.24154664  0.19162510  1
  Se  Se254  1  0.74914555  0.24975173  0.69699818  1
  Se  Se255  1  0.75167644  0.57038307  0.18794312  1
  Se  Se256  1  0.77185403  0.57404041  0.70485578  1
  Se  Se257  1  0.75276231  0.91443461  0.20048174  1
  Se  Se258  1  0.75722912  0.91704418  0.69208677  1
