# generated using pymatgen
data_In86Cu29Se144
_symmetry_space_group_name_H-M   'P 1'
_cell_length_a   17.57775594
_cell_length_b   17.57709763
_cell_length_c   23.43833106
_cell_angle_alpha   89.97646727
_cell_angle_beta   89.99631618
_cell_angle_gamma   90.00521135
_symmetry_Int_Tables_number   1
_chemical_formula_structural   In86Cu29Se144
_chemical_formula_sum   'In86 Cu29 Se144'
_cell_volume   7241.64514852
_cell_formula_units_Z   1
loop_
 _symmetry_equiv_pos_site_id
 _symmetry_equiv_pos_as_xyz
  1  'x, y, z'
loop_
 _atom_site_type_symbol
 _atom_site_label
 _atom_site_symmetry_multiplicity
 _atom_site_fract_x
 _atom_site_fract_y
 _atom_site_fract_z
 _atom_site_occupancy
  In  In0  1  -0.00370109  0.15986727  0.11387503  1
  In  In1  1  -0.00615468  0.16184401  0.62229263  1
  In  In2  1  0.01170733  0.50697322  0.13199260  1
  In  In3  1  0.01643519  0.48875978  0.62446298  1
  In  In4  1  -0.00485487  0.83740775  0.12942455  1
  In  In5  1  -0.00164233  0.83899844  0.62254075  1
  In  In6  1  0.34347589  0.17276406  0.10675030  1
  In  In7  1  0.31857120  0.17411937  0.63963039  1
  In  In8  1  0.33696594  0.49793860  0.13264351  1
  In  In9  1  0.33236970  0.49846729  0.61989504  1
  In  In10  1  0.32875794  0.82818357  0.12826750  1
  In  In11  1  0.33386182  0.83668394  0.62614514  1
  In  In12  1  0.66998457  0.16278018  0.13045087  1
  In  In13  1  0.68056557  0.16452809  0.62655909  1
  In  In14  1  0.65825593  0.50007806  0.13549882  1
  In  In15  1  0.65080885  0.50342202  0.62190960  1
  In  In16  1  0.67474936  0.83122061  0.13550609  1
  In  In17  1  0.65756506  0.82964402  0.61597260  1
  In  In18  1  0.17244285  -0.00429481  0.38664427  1
  In  In19  1  0.19144259  0.03458908  0.83862471  1
  In  In20  1  0.18019471  0.32321602  0.38175176  1
  In  In21  1  0.17259344  0.31488879  0.86990285  1
  In  In22  1  0.16832486  0.67184722  0.38360471  1
  In  In23  1  0.17262098  0.66517693  0.87058919  1
  In  In24  1  0.49685787  -0.00951569  0.37193643  1
  In  In25  1  0.50329891  0.00779539  0.87687950  1
  In  In26  1  0.51063534  0.34048999  0.36832648  1
  In  In27  1  0.48507731  0.32288356  0.86350416  1
  In  In28  1  0.49406917  0.66776637  0.37796432  1
  In  In29  1  0.49062555  0.67550853  0.87603203  1
  In  In30  1  0.82958274  0.00765390  0.38189158  1
  In  In31  1  0.84374538  -0.00886916  0.88054577  1
  In  In32  1  0.81764371  0.33312187  0.37395447  1
  In  In33  1  0.81512497  0.32913208  0.87188442  1
  In  In34  1  0.84603579  0.67777599  0.36898513  1
  In  In35  1  0.84273140  0.68135121  0.87909429  1
  In  In36  1  0.00553370  0.16032361  0.38308847  1
  In  In37  1  0.01647615  0.14722356  0.88053771  1
  In  In38  1  0.00323052  0.51595213  0.37332919  1
  In  In39  1  0.01195689  0.50630037  0.87227962  1
  In  In40  1  0.01142653  0.82278155  0.38747283  1
  In  In41  1  -0.01304505  0.85091553  0.87520879  1
  In  In42  1  0.32641174  0.15901898  0.37287822  1
  In  In43  1  0.33445549  0.16531906  0.87407319  1
  In  In44  1  0.33849218  0.50612517  0.38475849  1
  In  In45  1  0.33797974  0.50217139  0.86714307  1
  In  In46  1  0.33367919  0.82277889  0.38799089  1
  In  In47  1  0.32861090  0.82990586  0.86582894  1
  In  In48  1  0.67047571  0.17802531  0.36521114  1
  In  In49  1  0.65511993  0.17006313  0.88446569  1
  In  In50  1  0.65220862  0.49597221  0.37113607  1
  In  In51  1  0.67136146  0.49362561  0.87529628  1
  In  In52  1  0.66902158  0.83557481  0.37306511  1
  In  In53  1  0.67317549  0.84622865  0.87900004  1
  In  In54  1  0.16170693  -0.00272044  0.12322207  1
  In  In55  1  0.16459000  0.00196577  0.62882051  1
  In  In56  1  0.17937811  0.32981453  0.12765044  1
  In  In57  1  0.17454098  0.33757724  0.61718586  1
  In  In58  1  0.17961909  0.66445071  0.14229019  1
  In  In59  1  0.20695623  0.69484574  0.58744298  1
  In  In60  1  0.49910633  0.02922191  0.12947842  1
  In  In61  1  0.49263084  -0.01577785  0.62178582  1
  In  In62  1  0.50963068  0.31094132  0.14275786  1
  In  In63  1  0.49136034  0.33706777  0.62913415  1
  In  In64  1  0.49740722  0.67333803  0.13501975  1
  In  In65  1  0.46771714  0.64790416  0.59017831  1
  In  In66  1  0.83285472  -0.00906106  0.12124095  1
  In  In67  1  0.83193042  0.00047977  0.62206305  1
  In  In68  1  0.83024432  0.31989243  0.12265810  1
  In  In69  1  0.83544100  0.31913849  0.62655457  1
  In  In70  1  0.82489363  0.67517290  0.13563282  1
  In  In71  1  0.82810571  0.67413703  0.61774218  1
  In  In72  1  0.16303787  0.83970022  -0.00240096  1
  In  In73  1  0.65700128  0.66861018  0.75279393  1
  In  In74  1  0.00113569  0.32518606  0.74697755  1
  In  In75  1  0.16809824  0.49476541  0.00987271  1
  In  In76  1  0.49887371  0.84454965  0.00511306  1
  In  In77  1  0.00094620  -0.00791312  0.24707663  1
  In  In78  1  0.83545338  0.49770168  -0.00253966  1
  In  In79  1  0.00640378  0.66793178  0.73772938  1
  In  In80  1  0.49691731  0.49547192  0.00186775  1
  In  In81  1  0.83262609  0.49871992  0.49363214  1
  In  In82  1  0.33527512  -0.00597638  0.25416367  1
  In  In83  1  0.66194997  0.00146975  0.74997763  1
  In  In84  1  0.49865277  0.16371947  0.49859012  1
  In  In85  1  -0.00330035  0.33971712  0.24806922  1
  Cu  Cu86  1  0.33767297  0.33435326  0.50241225  1
  Cu  Cu87  1  0.33364223  0.32783797  -0.00238349  1
  Cu  Cu88  1  0.00303315  0.32904050  0.49993731  1
  Cu  Cu89  1  0.00692210  0.00600799  -0.00430571  1
  Cu  Cu90  1  0.49056240  0.50589017  0.25591038  1
  Cu  Cu91  1  0.49506065  0.49964434  0.73946384  1
  Cu  Cu92  1  0.82766897  0.50130596  0.75265544  1
  Cu  Cu93  1  0.83094561  0.16400247  0.75199221  1
  Cu  Cu94  1  0.00006697  0.66548140  0.49858599  1
  Cu  Cu95  1  0.49262412  0.82327594  0.74279307  1
  Cu  Cu96  1  0.17017396  0.16567291  0.24921434  1
  Cu  Cu97  1  0.67198859  0.00433843  0.00523639  1
  Cu  Cu98  1  0.17792048  0.50051402  0.74294175  1
  Cu  Cu99  1  -0.00476060  0.32387121  -0.00566492  1
  Cu  Cu100  1  0.17331039  0.50572014  0.25840128  1
  Cu  Cu101  1  -0.00263688  -0.00145638  0.50413409  1
  Cu  Cu102  1  0.83725443  0.83382068  0.25353499  1
  Cu  Cu103  1  0.16218235  0.82795032  0.73954769  1
  Cu  Cu104  1  0.67165743  0.67729431  0.00924657  1
  Cu  Cu105  1  0.32410485  0.00291428  0.50324124  1
  Cu  Cu106  1  0.66800947  0.32949144  0.49536128  1
  Cu  Cu107  1  0.66951189  -0.00083748  0.49873618  1
  Cu  Cu108  1  0.66431360  0.67281326  0.49256004  1
  Cu  Cu109  1  0.50504895  0.83392604  0.25458707  1
  Cu  Cu110  1  0.50130840  0.16663028  0.75399269  1
  Cu  Cu111  1  0.66039719  0.32529270  0.00346602  1
  Cu  Cu112  1  -0.00227390  0.67621392  0.00618326  1
  Cu  Cu113  1  0.82482460  0.50274664  0.25562355  1
  Cu  Cu114  1  0.82688643  0.16969218  0.25201023  1
  Se  Se115  1  0.09169496  0.08489448  0.05103375  1
  Se  Se116  1  0.08240801  0.08229161  0.55618228  1
  Se  Se117  1  0.06909459  0.40209824  0.06130632  1
  Se  Se118  1  0.08832010  0.41532316  0.54661128  1
  Se  Se119  1  0.08698083  0.74482694  0.06652738  1
  Se  Se120  1  0.07739108  0.75139337  0.55448608  1
  Se  Se121  1  0.41320274  0.07157310  0.04763523  1
  Se  Se122  1  0.40690734  0.08215552  0.56292939  1
  Se  Se123  1  0.41213166  0.40354731  0.06264136  1
  Se  Se124  1  0.42355073  0.41756484  0.55243171  1
  Se  Se125  1  0.41250351  0.74285481  0.05641092  1
  Se  Se126  1  0.42864057  0.77740159  0.55200348  1
  Se  Se127  1  0.75616754  0.08651973  0.05885143  1
  Se  Se128  1  0.75135709  0.08434589  0.55142901  1
  Se  Se129  1  0.73816367  0.41453750  0.05867473  1
  Se  Se130  1  0.74632530  0.41071638  0.55907052  1
  Se  Se131  1  0.75737607  0.75866849  0.05895924  1
  Se  Se132  1  0.74778512  0.75301787  0.54766885  1
  Se  Se133  1  0.24209200  0.24916021  0.04819573  1
  Se  Se134  1  0.25691658  0.24607774  0.55392007  1
  Se  Se135  1  0.25858828  0.59010315  0.06124572  1
  Se  Se136  1  0.24429003  0.56618851  0.54602737  1
  Se  Se137  1  0.26116834  0.92301735  0.05689354  1
  Se  Se138  1  0.24493230  0.91771356  0.55852492  1
  Se  Se139  1  0.58135134  0.24330647  0.06084725  1
  Se  Se140  1  0.58950001  0.25198430  0.56036474  1
  Se  Se141  1  0.58735224  0.59213245  0.05996722  1
  Se  Se142  1  0.58583040  0.58255654  0.54365537  1
  Se  Se143  1  0.59215327  0.92536881  0.06782492  1
  Se  Se144  1  0.58030903  0.91849751  0.54788567  1
  Se  Se145  1  0.91055525  0.24537661  0.04942732  1
  Se  Se146  1  0.91556497  0.24873433  0.55142375  1
  Se  Se147  1  0.92064427  0.58774801  0.06198555  1
  Se  Se148  1  0.92349206  0.58154253  0.56045013  1
  Se  Se149  1  0.92862868  0.92105451  0.05356867  1
  Se  Se150  1  0.91019169  0.91418524  0.55270307  1
  Se  Se151  1  0.08881583  0.24581959  0.44785101  1
  Se  Se152  1  0.08654989  0.24780778  0.94364591  1
  Se  Se153  1  0.08530920  0.58049195  0.45016680  1
  Se  Se154  1  0.07951893  0.59450865  0.94892092  1
  Se  Se155  1  0.08511962  0.91641247  0.45313044  1
  Se  Se156  1  0.08718929  0.93159980  0.93173500  1
  Se  Se157  1  0.41318087  0.25501906  0.43719479  1
  Se  Se158  1  0.42045575  0.24704869  0.94455823  1
  Se  Se159  1  0.42187113  0.58716656  0.45393666  1
  Se  Se160  1  0.40721671  0.58948311  0.94547579  1
  Se  Se161  1  0.40973870  0.92560080  0.44622690  1
  Se  Se162  1  0.40771627  0.91990425  0.93668012  1
  Se  Se163  1  0.75087367  0.24327985  0.44616842  1
  Se  Se164  1  0.74922353  0.24811327  0.94966443  1
  Se  Se165  1  0.74590096  0.59001108  0.43355311  1
  Se  Se166  1  0.74288904  0.59552815  0.94235887  1
  Se  Se167  1  0.75223363  0.91426599  0.44577961  1
  Se  Se168  1  0.75389302  0.91822608  0.95273149  1
  Se  Se169  1  0.24588438  0.09164400  0.45086339  1
  Se  Se170  1  0.24225401  0.08093538  0.93439806  1
  Se  Se171  1  0.25257149  0.41604201  0.44837775  1
  Se  Se172  1  0.25530732  0.41348620  0.93973697  1
  Se  Se173  1  0.24689584  0.74913502  0.45908831  1
  Se  Se174  1  0.25557862  0.74338429  0.94376516  1
  Se  Se175  1  0.59031521  0.07896798  0.43657441  1
  Se  Se176  1  0.58101544  0.08057734  0.95340914  1
  Se  Se177  1  0.58220675  0.41527394  0.44823422  1
  Se  Se178  1  0.58464085  0.40543791  0.93993304  1
  Se  Se179  1  0.58056173  0.75720005  0.44121161  1
  Se  Se180  1  0.58987488  0.74863810  0.94385213  1
  Se  Se181  1  0.91669374  0.08530199  0.45057882  1
  Se  Se182  1  0.91454895  0.08622733  0.94705090  1
  Se  Se183  1  0.92547425  0.40769218  0.43490258  1
  Se  Se184  1  0.92587596  0.41076998  0.93348313  1
  Se  Se185  1  0.91218219  0.74999743  0.45151800  1
  Se  Se186  1  0.92012800  0.76114396  0.95079715  1
  Se  Se187  1  0.25236439  0.24849010  0.30251572  1
  Se  Se188  1  0.26210256  0.25138594  0.80001340  1
  Se  Se189  1  0.25317051  0.58750114  0.31519082  1
  Se  Se190  1  0.25378243  0.58643727  0.80043967  1
  Se  Se191  1  0.24468844  0.90668289  0.31454710  1
  Se  Se192  1  0.24554528  0.90860846  0.79599257  1
  Se  Se193  1  0.57863784  0.24930267  0.29881250  1
  Se  Se194  1  0.58794113  0.24899431  0.80498635  1
  Se  Se195  1  0.57839532  0.58914239  0.30547331  1
  Se  Se196  1  0.56911733  0.57175574  0.81163045  1
  Se  Se197  1  0.58863397  0.92108705  0.30258894  1
  Se  Se198  1  0.57139367  0.90287050  0.80637548  1
  Se  Se199  1  0.91525442  0.24387066  0.31073995  1
  Se  Se200  1  0.91267384  0.24279112  0.81353938  1
  Se  Se201  1  0.91670901  0.58402300  0.30031076  1
  Se  Se202  1  0.91128618  0.58101844  0.80802062  1
  Se  Se203  1  0.91669410  0.91150032  0.31679778  1
  Se  Se204  1  0.90688084  0.91694626  0.79850721  1
  Se  Se205  1  0.09193505  0.08317247  0.30816422  1
  Se  Se206  1  0.06843530  0.08218030  0.79126951  1
  Se  Se207  1  0.09087241  0.41850368  0.31252817  1
  Se  Se208  1  0.09426321  0.42226838  0.80309408  1
  Se  Se209  1  0.07617740  0.74008317  0.31219483  1
  Se  Se210  1  0.08362144  0.75646191  0.80981573  1
  Se  Se211  1  0.42694595  0.09228935  0.30522627  1
  Se  Se212  1  0.41964588  0.08038351  0.80469563  1
  Se  Se213  1  0.41182528  0.42002103  0.31063274  1
  Se  Se214  1  0.41372479  0.41718814  0.79706961  1
  Se  Se215  1  0.41612481  0.75740979  0.30880771  1
  Se  Se216  1  0.40987536  0.74135455  0.79893918  1
  Se  Se217  1  0.75090550  0.08071217  0.30549320  1
  Se  Se218  1  0.74992437  0.08676738  0.81494881  1
  Se  Se219  1  0.74156301  0.41577596  0.30354140  1
  Se  Se220  1  0.74292082  0.41463318  0.79920159  1
  Se  Se221  1  0.75039693  0.74979472  0.30365118  1
  Se  Se222  1  0.75357765  0.75849472  0.80736428  1
  Se  Se223  1  0.24827462  0.08291106  0.18973872  1
  Se  Se224  1  0.25465700  0.07097676  0.70099485  1
  Se  Se225  1  0.24649173  0.41951430  0.19880639  1
  Se  Se226  1  0.25644654  0.41131080  0.69165196  1
  Se  Se227  1  0.26282171  0.74992589  0.20552021  1
  Se  Se228  1  0.24750836  0.74470467  0.68783716  1
  Se  Se229  1  0.59357320  0.07949653  0.20244500  1
  Se  Se230  1  0.57302870  0.08822700  0.68586134  1
  Se  Se231  1  0.57236011  0.41992152  0.20158724  1
  Se  Se232  1  0.58502108  0.41506343  0.69487539  1
  Se  Se233  1  0.58793454  0.74870134  0.20118644  1
  Se  Se234  1  0.57008297  0.74333255  0.68227881  1
  Se  Se235  1  0.91157848  0.09094029  0.19331137  1
  Se  Se236  1  0.90992261  0.08394056  0.69363759  1
  Se  Se237  1  0.90273191  0.42781548  0.18757037  1
  Se  Se238  1  0.91043051  0.42443721  0.69154126  1
  Se  Se239  1  0.92056714  0.75071510  0.19951503  1
  Se  Se240  1  0.90350041  0.75662915  0.69244419  1
  Se  Se241  1  0.08259836  0.24066499  0.19065012  1
  Se  Se242  1  0.09285862  0.24332210  0.68574779  1
  Se  Se243  1  0.08558984  0.58612561  0.20550271  1
  Se  Se244  1  0.10196602  0.58258521  0.68256144  1
  Se  Se245  1  0.09993040  0.90136289  0.19733490  1
  Se  Se246  1  0.07722067  0.91667001  0.69522798  1
  Se  Se247  1  0.39346921  0.25081557  0.19165085  1
  Se  Se248  1  0.41819305  0.24966438  0.69920315  1
  Se  Se249  1  0.41128659  0.58948079  0.19962502  1
  Se  Se250  1  0.41820170  0.58691983  0.68442949  1
  Se  Se251  1  0.42950717  0.91264746  0.18830096  1
  Se  Se252  1  0.41243987  0.91880118  0.70018443  1
  Se  Se253  1  0.74687037  0.25630905  0.19905487  1
  Se  Se254  1  0.74891363  0.25105456  0.70102857  1
  Se  Se255  1  0.74336125  0.58577922  0.19936196  1
  Se  Se256  1  0.75154216  0.58103296  0.68980517  1
  Se  Se257  1  0.75707956  0.92070270  0.20044461  1
  Se  Se258  1  0.74482093  0.90897997  0.68875172  1
