# generated using pymatgen
data_In86Cu29Se144
_symmetry_space_group_name_H-M   'P 1'
_cell_length_a   17.58463719
_cell_length_b   17.58217061
_cell_length_c   23.44262429
_cell_angle_alpha   89.98258229
_cell_angle_beta   89.99788951
_cell_angle_gamma   89.99636377
_symmetry_Int_Tables_number   1
_chemical_formula_structural   In86Cu29Se144
_chemical_formula_sum   'In86 Cu29 Se144'
_cell_volume   7247.89859204
_cell_formula_units_Z   1
loop_
 _symmetry_equiv_pos_site_id
 _symmetry_equiv_pos_as_xyz
  1  'x, y, z'
loop_
 _atom_site_type_symbol
 _atom_site_label
 _atom_site_symmetry_multiplicity
 _atom_site_fract_x
 _atom_site_fract_y
 _atom_site_fract_z
 _atom_site_occupancy
  In  In0  1  -0.00415513  0.18095211  0.12324483  1
  In  In1  1  0.00025614  0.16808108  0.62609773  1
  In  In2  1  0.00717531  0.52059867  0.10418539  1
  In  In3  1  -0.00687879  0.49020383  0.62492626  1
  In  In4  1  0.00054328  0.81636049  0.11921716  1
  In  In5  1  -0.00134236  0.84886064  0.63048969  1
  In  In6  1  0.35103685  0.16930915  0.12549079  1
  In  In7  1  0.33483544  0.19560665  0.63017195  1
  In  In8  1  0.33532134  0.50735526  0.11998585  1
  In  In9  1  0.33228334  0.50295156  0.62424469  1
  In  In10  1  0.32884676  0.81622727  0.10806907  1
  In  In11  1  0.33162849  0.82533807  0.63397402  1
  In  In12  1  0.66058193  0.16035421  0.12061713  1
  In  In13  1  0.67540869  0.15812490  0.62178139  1
  In  In14  1  0.66841163  0.50586989  0.12244074  1
  In  In15  1  0.66741531  0.50718330  0.61917715  1
  In  In16  1  0.66175750  0.84473600  0.13299751  1
  In  In17  1  0.66155434  0.82057426  0.62350350  1
  In  In18  1  0.17910893  0.00387852  0.37919462  1
  In  In19  1  0.15741883  -0.00276764  0.87146204  1
  In  In20  1  0.17140046  0.33126545  0.38041015  1
  In  In21  1  0.17685920  0.34642394  0.86438842  1
  In  In22  1  0.16309428  0.65489092  0.37495220  1
  In  In23  1  0.19105861  0.63751129  0.90240608  1
  In  In24  1  0.51186934  -0.01205558  0.37361748  1
  In  In25  1  0.49965273  -0.00129111  0.88216076  1
  In  In26  1  0.50208410  0.35540403  0.37059378  1
  In  In27  1  0.49461061  0.33776387  0.88013978  1
  In  In28  1  0.49592332  0.65011282  0.36013744  1
  In  In29  1  0.49626033  0.66498640  0.87517689  1
  In  In30  1  0.82298875  -0.00285101  0.37910001  1
  In  In31  1  0.84873041  -0.00238153  0.87244218  1
  In  In32  1  0.83400152  0.33262069  0.38495145  1
  In  In33  1  0.83533255  0.32522110  0.87477710  1
  In  In34  1  0.81912065  0.67335090  0.38455470  1
  In  In35  1  0.81736139  0.66703979  0.87443157  1
  In  In36  1  -0.00238653  0.16850964  0.38297143  1
  In  In37  1  -0.00454438  0.15939919  0.86596792  1
  In  In38  1  0.00512380  0.49629068  0.38496513  1
  In  In39  1  0.01012916  0.49282806  0.87813173  1
  In  In40  1  -0.00930608  0.81787123  0.37762308  1
  In  In41  1  0.00424724  0.83915850  0.87411058  1
  In  In42  1  0.32332495  0.16958647  0.38025814  1
  In  In43  1  0.33697439  0.17887118  0.87145434  1
  In  In44  1  0.33352938  0.49917146  0.37219894  1
  In  In45  1  0.33952490  0.49799280  0.87922869  1
  In  In46  1  0.34672940  0.82886669  0.37157911  1
  In  In47  1  0.35743550  0.80063159  0.90097658  1
  In  In48  1  0.67779763  0.16311320  0.37956574  1
  In  In49  1  0.66519442  0.16911149  0.88371879  1
  In  In50  1  0.65894417  0.50866306  0.38159546  1
  In  In51  1  0.64964451  0.50887680  0.88322205  1
  In  In52  1  0.67710559  0.83082160  0.35533316  1
  In  In53  1  0.66296214  0.81816532  0.86804640  1
  In  In54  1  0.17958626  -0.00412595  0.12454850  1
  In  In55  1  0.15150371  -0.00352942  0.62841864  1
  In  In56  1  0.17226942  0.35501675  0.11988616  1
  In  In57  1  0.16608046  0.33743678  0.62586547  1
  In  In58  1  0.18113654  0.67549197  0.10441501  1
  In  In59  1  0.18264670  0.66688803  0.62776096  1
  In  In60  1  0.50712892  0.00326080  0.11989499  1
  In  In61  1  0.50771137  -0.00310549  0.62770787  1
  In  In62  1  0.49664460  0.33376521  0.12378264  1
  In  In63  1  0.47545660  0.33624419  0.63142689  1
  In  In64  1  0.49586980  0.66691609  0.11676285  1
  In  In65  1  0.51255840  0.66219641  0.63730024  1
  In  In66  1  0.81355067  -0.00576669  0.12599885  1
  In  In67  1  0.83796574  0.01363339  0.61485110  1
  In  In68  1  0.83946964  0.34008689  0.11821240  1
  In  In69  1  0.83987574  0.33925908  0.62230436  1
  In  In70  1  0.83484661  0.65603328  0.12507555  1
  In  In71  1  0.82221919  0.65849525  0.61963227  1
  In  In72  1  0.66975414  -0.00197423  0.74495885  1
  In  In73  1  0.50438888  0.82808137  0.49859315  1
  In  In74  1  0.15770666  0.83235214  0.50081402  1
  In  In75  1  0.00607188  0.66715143  0.75645153  1
  In  In76  1  0.32809552  -0.00410986  0.75327286  1
  In  In77  1  0.50011124  0.17573013  0.50620555  1
  In  In78  1  0.83100577  0.83576562  0.00016202  1
  In  In79  1  0.16530435  0.16646332  -0.00929809  1
  In  In80  1  0.34674125  -0.00262434  0.25034846  1
  In  In81  1  0.66458847  0.33876257  0.24553685  1
  In  In82  1  -0.00546012  0.66332722  0.24397806  1
  In  In83  1  0.66161970  0.33742966  0.75750069  1
  In  In84  1  -0.00290172  -0.00077439  0.25951587  1
  In  In85  1  0.00112605  0.33823777  0.25250806  1
  Cu  Cu86  1  0.49376087  0.50132546  0.75518019  1
  Cu  Cu87  1  0.17444137  0.82320160  0.75823962  1
  Cu  Cu88  1  0.17341898  0.49925247  0.75348855  1
  Cu  Cu89  1  0.00238717  0.33087405  0.50535203  1
  Cu  Cu90  1  -0.00592512  0.66220099  0.50425225  1
  Cu  Cu91  1  0.83662800  0.50073478  0.24952042  1
  Cu  Cu92  1  0.50667765  0.16804163  0.24710439  1
  Cu  Cu93  1  0.18086246  0.50732936  0.24545275  1
  Cu  Cu94  1  0.83864882  0.16628520  0.74748292  1
  Cu  Cu95  1  -0.00661162  0.33093803  -0.00586867  1
  Cu  Cu96  1  0.66793050  0.33606784  0.50119308  1
  Cu  Cu97  1  0.33459004  0.33280409  -0.00127473  1
  Cu  Cu98  1  0.16380362  0.16915439  0.74747522  1
  Cu  Cu99  1  -0.00604734  0.00400727  0.50287550  1
  Cu  Cu100  1  0.66748419  0.00011309  0.00022112  1
  Cu  Cu101  1  0.83614360  0.83299588  0.75103982  1
  Cu  Cu102  1  -0.00379890  0.00887985  -0.00359072  1
  Cu  Cu103  1  0.49764965  0.82100052  0.24306844  1
  Cu  Cu104  1  0.32887787  0.00876004  0.50662261  1
  Cu  Cu105  1  0.82661982  0.15803453  0.25021978  1
  Cu  Cu106  1  0.33618376  0.66022850  0.49803236  1
  Cu  Cu107  1  0.16976660  0.82818287  0.23881617  1
  Cu  Cu108  1  0.66234692  0.66599993  0.49707535  1
  Cu  Cu109  1  0.32835513  0.34523969  0.50125007  1
  Cu  Cu110  1  0.66201071  0.66621204  -0.00028332  1
  Cu  Cu111  1  0.33603023  -0.00415370  0.00249664  1
  Cu  Cu112  1  0.66715541  0.33545030  0.00302466  1
  Cu  Cu113  1  0.17711122  0.17932916  0.25478523  1
  Cu  Cu114  1  0.82782662  0.50360950  0.74504082  1
  Se  Se115  1  0.08013324  0.08114208  0.06117558  1
  Se  Se116  1  0.08185760  0.08216090  0.55549434  1
  Se  Se117  1  0.07665136  0.41262765  0.04888336  1
  Se  Se118  1  0.08411716  0.41948872  0.55518005  1
  Se  Se119  1  0.07644337  0.74358420  0.04568849  1
  Se  Se120  1  0.07389401  0.74260016  0.56595003  1
  Se  Se121  1  0.41874538  0.08338388  0.05261309  1
  Se  Se122  1  0.41031441  0.08311513  0.56771150  1
  Se  Se123  1  0.41592114  0.41583237  0.05388895  1
  Se  Se124  1  0.41779334  0.42259302  0.55338589  1
  Se  Se125  1  0.42108438  0.74764262  0.04101943  1
  Se  Se126  1  0.41134141  0.74268343  0.56005459  1
  Se  Se127  1  0.75137031  0.08406383  0.05219500  1
  Se  Se128  1  0.74587336  0.08252523  0.54603010  1
  Se  Se129  1  0.75075550  0.42072015  0.05439929  1
  Se  Se130  1  0.75136433  0.41896056  0.55590917  1
  Se  Se131  1  0.74188193  0.74748639  0.06115745  1
  Se  Se132  1  0.74619632  0.74820225  0.55101779  1
  Se  Se133  1  0.25285105  0.25051563  0.05844383  1
  Se  Se134  1  0.24931098  0.25580211  0.55337340  1
  Se  Se135  1  0.23581744  0.56298610  0.04837192  1
  Se  Se136  1  0.24790783  0.58291483  0.55187112  1
  Se  Se137  1  0.24606149  0.91418810  0.04952403  1
  Se  Se138  1  0.25392504  0.91814044  0.56200492  1
  Se  Se139  1  0.58272413  0.25188637  0.05658905  1
  Se  Se140  1  0.58858244  0.26461620  0.56900997  1
  Se  Se141  1  0.58101055  0.57887882  0.05125280  1
  Se  Se142  1  0.57663606  0.58800120  0.55413314  1
  Se  Se143  1  0.58624744  0.91419387  0.05291644  1
  Se  Se144  1  0.59346782  0.92386891  0.55449674  1
  Se  Se145  1  0.91193095  0.24810822  0.04892381  1
  Se  Se146  1  0.91533076  0.24748031  0.55571558  1
  Se  Se147  1  0.90631517  0.58902284  0.04439119  1
  Se  Se148  1  0.91282332  0.57678566  0.55717691  1
  Se  Se149  1  0.92254849  0.92651850  0.06166965  1
  Se  Se150  1  0.91559248  0.91427468  0.55385605  1
  Se  Se151  1  0.08456382  0.25038191  0.44721220  1
  Se  Se152  1  0.07817608  0.25778824  0.93143755  1
  Se  Se153  1  0.08406838  0.58541280  0.45169649  1
  Se  Se154  1  0.07067105  0.58530038  0.95008654  1
  Se  Se155  1  0.07172696  0.92522146  0.43726007  1
  Se  Se156  1  0.07964424  0.92230148  0.94757692  1
  Se  Se157  1  0.41225444  0.26296003  0.44217985  1
  Se  Se158  1  0.41779445  0.24636683  0.94868181  1
  Se  Se159  1  0.41929979  0.58267938  0.44083599  1
  Se  Se160  1  0.41953689  0.58218320  0.94704339  1
  Se  Se161  1  0.40718034  0.92776779  0.44564989  1
  Se  Se162  1  0.42419580  0.91374434  0.95325140  1
  Se  Se163  1  0.74996011  0.24892386  0.45127477  1
  Se  Se164  1  0.75011466  0.25241715  0.94852440  1
  Se  Se165  1  0.75149433  0.57714045  0.45203321  1
  Se  Se166  1  0.74636334  0.58280146  0.94789082  1
  Se  Se167  1  0.73609088  0.90725905  0.43774362  1
  Se  Se168  1  0.74292751  0.92196887  0.93371866  1
  Se  Se169  1  0.24492218  0.08995884  0.45367312  1
  Se  Se170  1  0.26059152  0.07472985  0.93709702  1
  Se  Se171  1  0.24576626  0.42573682  0.44480042  1
  Se  Se172  1  0.24933907  0.41410397  0.94548462  1
  Se  Se173  1  0.25665659  0.74808803  0.44169748  1
  Se  Se174  1  0.23507721  0.76027829  0.95258345  1
  Se  Se175  1  0.58301862  0.08006440  0.44533624  1
  Se  Se176  1  0.58190848  0.08409358  0.94929820  1
  Se  Se177  1  0.58252413  0.41849762  0.44981407  1
  Se  Se178  1  0.57899151  0.41522264  0.95045316  1
  Se  Se179  1  0.58405978  0.74087527  0.43107388  1
  Se  Se180  1  0.58289579  0.75034180  0.94432913  1
  Se  Se181  1  0.91097718  0.08157966  0.44357320  1
  Se  Se182  1  0.91325866  0.09053403  0.94392803  1
  Se  Se183  1  0.91900302  0.41479949  0.45088074  1
  Se  Se184  1  0.91268468  0.41629173  0.94088504  1
  Se  Se185  1  0.91119671  0.74793538  0.45312022  1
  Se  Se186  1  0.91605997  0.74764187  0.93670964  1
  Se  Se187  1  0.25969612  0.26077483  0.30726196  1
  Se  Se188  1  0.24970037  0.24968780  0.80025703  1
  Se  Se189  1  0.25505086  0.59197180  0.30408316  1
  Se  Se190  1  0.25177906  0.58135330  0.81135115  1
  Se  Se191  1  0.24462251  0.90795830  0.30492070  1
  Se  Se192  1  0.25282544  0.90400618  0.81976135  1
  Se  Se193  1  0.58262985  0.24633056  0.31274160  1
  Se  Se194  1  0.57488621  0.24125169  0.81173463  1
  Se  Se195  1  0.59679975  0.58034892  0.29922003  1
  Se  Se196  1  0.58188001  0.58488437  0.80341646  1
  Se  Se197  1  0.57752200  0.90937286  0.29557904  1
  Se  Se198  1  0.57798542  0.91405417  0.80738029  1
  Se  Se199  1  0.90752836  0.24248212  0.30684695  1
  Se  Se200  1  0.91877546  0.25268638  0.80051726  1
  Se  Se201  1  0.91551034  0.57647289  0.31455381  1
  Se  Se202  1  0.90927776  0.57743865  0.81040147  1
  Se  Se203  1  0.90686428  0.90303706  0.30981546  1
  Se  Se204  1  0.92338323  0.91577215  0.79942580  1
  Se  Se205  1  0.09549534  0.09499466  0.30991363  1
  Se  Se206  1  0.08365171  0.08054165  0.79860603  1
  Se  Se207  1  0.09594200  0.43010840  0.30609226  1
  Se  Se208  1  0.08032153  0.41713656  0.79855128  1
  Se  Se209  1  0.08927673  0.75499908  0.30451843  1
  Se  Se210  1  0.09847770  0.74378513  0.82174521  1
  Se  Se211  1  0.42785825  0.09229740  0.31483997  1
  Se  Se212  1  0.42290145  0.08572460  0.80842324  1
  Se  Se213  1  0.41587699  0.42241107  0.29973896  1
  Se  Se214  1  0.41402934  0.41260179  0.80544759  1
  Se  Se215  1  0.41220565  0.74345446  0.29817293  1
  Se  Se216  1  0.41137188  0.74860415  0.80811223  1
  Se  Se217  1  0.74430663  0.07755847  0.30424111  1
  Se  Se218  1  0.75618771  0.08932507  0.80909266  1
  Se  Se219  1  0.75875943  0.41906607  0.31037092  1
  Se  Se220  1  0.75160810  0.42903176  0.81402449  1
  Se  Se221  1  0.75011239  0.72935412  0.29821429  1
  Se  Se222  1  0.74937145  0.74653051  0.79595436  1
  Se  Se223  1  0.25048809  0.09171472  0.19519046  1
  Se  Se224  1  0.24567791  0.08848344  0.68738334  1
  Se  Se225  1  0.25889825  0.41847929  0.19387651  1
  Se  Se226  1  0.25303093  0.41739920  0.69444502  1
  Se  Se227  1  0.25166034  0.74514983  0.18689789  1
  Se  Se228  1  0.25729611  0.74065870  0.70545032  1
  Se  Se229  1  0.58541106  0.08023637  0.19571933  1
  Se  Se230  1  0.57660949  0.09689457  0.69456676  1
  Se  Se231  1  0.57270982  0.42992071  0.19188033  1
  Se  Se232  1  0.57608211  0.42433318  0.69159915  1
  Se  Se233  1  0.58389363  0.74347265  0.18860788  1
  Se  Se234  1  0.57966670  0.76085369  0.70122990  1
  Se  Se235  1  0.91491688  0.08719334  0.19009728  1
  Se  Se236  1  0.91792711  0.07963948  0.69364878  1
  Se  Se237  1  0.92240916  0.43085611  0.18682191  1
  Se  Se238  1  0.91332770  0.41580800  0.70016259  1
  Se  Se239  1  0.90251530  0.76048389  0.19265002  1
  Se  Se240  1  0.91395454  0.74866448  0.68984520  1
  Se  Se241  1  0.09513027  0.25097146  0.19116109  1
  Se  Se242  1  0.08163421  0.25344648  0.69380207  1
  Se  Se243  1  0.09270567  0.58133772  0.18631287  1
  Se  Se244  1  0.09101340  0.57761316  0.69148656  1
  Se  Se245  1  0.08463993  0.91369981  0.18967451  1
  Se  Se246  1  0.09164161  0.90773185  0.70482675  1
  Se  Se247  1  0.42042067  0.25249696  0.19965084  1
  Se  Se248  1  0.42028403  0.24877316  0.70896666  1
  Se  Se249  1  0.40503769  0.59933437  0.18852654  1
  Se  Se250  1  0.41444939  0.58375638  0.69608246  1
  Se  Se251  1  0.41889544  0.90488640  0.18202772  1
  Se  Se252  1  0.42654794  0.90890901  0.69507420  1
  Se  Se253  1  0.75816900  0.24701781  0.18861253  1
  Se  Se254  1  0.75233744  0.24796049  0.69390801  1
  Se  Se255  1  0.75105210  0.58084281  0.19685859  1
  Se  Se256  1  0.74187038  0.58612440  0.69574513  1
  Se  Se257  1  0.74981250  0.91665526  0.20372180  1
  Se  Se258  1  0.76060854  0.91055111  0.68470743  1
