# generated using pymatgen
data_In86Cu29Se144
_symmetry_space_group_name_H-M   'P 1'
_cell_length_a   17.58414015
_cell_length_b   17.58109553
_cell_length_c   23.44024643
_cell_angle_alpha   89.99757401
_cell_angle_beta   89.99831897
_cell_angle_gamma   89.99452702
_symmetry_Int_Tables_number   1
_chemical_formula_structural   In86Cu29Se144
_chemical_formula_sum   'In86 Cu29 Se144'
_cell_volume   7246.51575723
_cell_formula_units_Z   1
loop_
 _symmetry_equiv_pos_site_id
 _symmetry_equiv_pos_as_xyz
  1  'x, y, z'
loop_
 _atom_site_type_symbol
 _atom_site_label
 _atom_site_symmetry_multiplicity
 _atom_site_fract_x
 _atom_site_fract_y
 _atom_site_fract_z
 _atom_site_occupancy
  In  In0  1  -0.03246493  0.16877460  0.12587917  1
  In  In1  1  -0.00696362  0.17167271  0.62241346  1
  In  In2  1  0.01598870  0.49572831  0.12318653  1
  In  In3  1  0.01263478  0.50474576  0.61443875  1
  In  In4  1  0.00156468  0.83326662  0.13435478  1
  In  In5  1  -0.01133594  0.82621852  0.62724388  1
  In  In6  1  0.34972266  0.16515028  0.12210346  1
  In  In7  1  0.34746543  0.17172724  0.63023248  1
  In  In8  1  0.32345033  0.51079710  0.13238654  1
  In  In9  1  0.33402646  0.50291574  0.62512600  1
  In  In10  1  0.32399222  0.82189849  0.11823232  1
  In  In11  1  0.32824592  0.81087492  0.62876547  1
  In  In12  1  0.68250972  0.18606861  0.11397703  1
  In  In13  1  0.67820782  0.16687701  0.62202326  1
  In  In14  1  0.67240331  0.49811250  0.13642439  1
  In  In15  1  0.64820200  0.48728914  0.59719281  1
  In  In16  1  0.65797143  0.82586905  0.12193178  1
  In  In17  1  0.65740402  0.81258132  0.60460411  1
  In  In18  1  0.15908361  -0.00139401  0.36394706  1
  In  In19  1  0.15381379  -0.00681574  0.88098887  1
  In  In20  1  0.18060898  0.33677607  0.37109790  1
  In  In21  1  0.18093791  0.33467674  0.87698423  1
  In  In22  1  0.15522046  0.66129610  0.36248233  1
  In  In23  1  0.16529459  0.67076065  0.87808408  1
  In  In24  1  0.49522124  -0.01634720  0.37500877  1
  In  In25  1  0.50517953  -0.00260257  0.88295274  1
  In  In26  1  0.52086639  0.35553050  0.36603061  1
  In  In27  1  0.50009296  0.33878983  0.87463912  1
  In  In28  1  0.50162033  0.66322403  0.37553398  1
  In  In29  1  0.49559182  0.68084507  0.87646973  1
  In  In30  1  0.83139738  -0.00442249  0.37619039  1
  In  In31  1  0.83101616  0.00153740  0.88516334  1
  In  In32  1  0.81763118  0.34127270  0.38945999  1
  In  In33  1  0.82351259  0.33353251  0.87567903  1
  In  In34  1  0.83397387  0.66247494  0.37470550  1
  In  In35  1  0.84686299  0.66600664  0.87607864  1
  In  In36  1  -0.01142545  0.15535142  0.36567790  1
  In  In37  1  -0.00398644  0.15529799  0.88044201  1
  In  In38  1  -0.01058611  0.50780266  0.38220722  1
  In  In39  1  -0.00032651  0.52448835  0.87273415  1
  In  In40  1  -0.01025149  0.81659734  0.35574829  1
  In  In41  1  0.00560541  0.82355305  0.88886462  1
  In  In42  1  0.32435786  0.17000923  0.36811940  1
  In  In43  1  0.33358617  0.18633481  0.87719984  1
  In  In44  1  0.33553900  0.50105772  0.37701933  1
  In  In45  1  0.32775444  0.49411917  0.87145392  1
  In  In46  1  0.34892610  0.82530666  0.37497718  1
  In  In47  1  0.33423889  0.82568787  0.87781942  1
  In  In48  1  0.67390470  0.18441225  0.37323029  1
  In  In49  1  0.65900777  0.18251282  0.88911002  1
  In  In50  1  0.66609143  0.50423166  0.38583935  1
  In  In51  1  0.67613018  0.49269813  0.87037799  1
  In  In52  1  0.68336664  0.80754723  0.39211788  1
  In  In53  1  0.66435025  0.83670973  0.88563703  1
  In  In54  1  0.16071640  -0.01937726  0.12667574  1
  In  In55  1  0.15003928  -0.00893637  0.62918271  1
  In  In56  1  0.15752115  0.35355696  0.12034614  1
  In  In57  1  0.17207351  0.35132596  0.62393264  1
  In  In58  1  0.16711724  0.66898533  0.13013107  1
  In  In59  1  0.17999383  0.65714378  0.63705300  1
  In  In60  1  0.49867560  -0.00020078  0.11583971  1
  In  In61  1  0.51137804  0.00068278  0.62349844  1
  In  In62  1  0.51083172  0.32634972  0.13143667  1
  In  In63  1  0.49387304  0.34359310  0.63069829  1
  In  In64  1  0.48913361  0.67208749  0.13291186  1
  In  In65  1  0.49470911  0.64884936  0.61294949  1
  In  In66  1  0.84501795  0.00862682  0.13133455  1
  In  In67  1  0.83098137  -0.01183275  0.61645342  1
  In  In68  1  0.82807257  0.32592407  0.12413897  1
  In  In69  1  0.81906853  0.32760569  0.61097954  1
  In  In70  1  0.82286681  0.67444480  0.13462173  1
  In  In71  1  0.83420707  0.66426465  0.61607417  1
  In  In72  1  0.84124651  0.49626784  0.00371703  1
  In  In73  1  0.16500037  0.82916601  0.49773569  1
  In  In74  1  0.16457671  0.16606011  0.00074699  1
  In  In75  1  0.50477491  0.17321932  0.49089775  1
  In  In76  1  0.33272838  0.00002993  0.76262075  1
  In  In77  1  -0.00518539  -0.01093057  0.74942075  1
  In  In78  1  0.66382884  0.00182809  0.25141988  1
  In  In79  1  0.16562185  0.17292784  0.49186890  1
  In  In80  1  0.00299752  0.33945999  0.74492684  1
  In  In81  1  -0.00482418  0.33571945  0.24574874  1
  In  In82  1  0.33393288  -0.00389534  0.24480317  1
  In  In83  1  0.66729572  0.65852351  0.74249736  1
  In  In84  1  0.67454831  -0.00020911  0.74527780  1
  In  In85  1  0.50130137  0.49896378  0.00014072  1
  Cu  Cu86  1  0.82743097  0.17215595  0.74934581  1
  Cu  Cu87  1  0.33298783  -0.00720723  0.50066211  1
  Cu  Cu88  1  -0.00571361  -0.00285329  0.49272784  1
  Cu  Cu89  1  0.16541510  0.17191300  0.24522254  1
  Cu  Cu90  1  0.66659602  0.66662156  0.00386971  1
  Cu  Cu91  1  0.66703171  -0.00242139  0.49835039  1
  Cu  Cu92  1  0.50393724  0.18420200  0.75567382  1
  Cu  Cu93  1  0.49303692  0.83285478  0.74825484  1
  Cu  Cu94  1  0.83266535  0.49569872  0.74317265  1
  Cu  Cu95  1  0.50462458  0.82175724  0.25003669  1
  Cu  Cu96  1  0.49919214  0.50225311  0.74439244  1
  Cu  Cu97  1  0.32772373  0.66825634  0.00633352  1
  Cu  Cu98  1  0.83156609  0.82401269  0.74892062  1
  Cu  Cu99  1  0.17046557  0.50611120  0.75000090  1
  Cu  Cu100  1  0.17575599  0.16792525  0.75089192  1
  Cu  Cu101  1  0.49836516  0.49709563  0.25370173  1
  Cu  Cu102  1  0.00185191  0.67402638  0.00469529  1
  Cu  Cu103  1  0.33748416  0.34175348  0.49912706  1
  Cu  Cu104  1  0.50379520  0.17070068  0.24662439  1
  Cu  Cu105  1  0.33799474  0.33841924  0.00048682  1
  Cu  Cu106  1  0.67261662  -0.00262041  0.00738832  1
  Cu  Cu107  1  0.83125045  0.83284748  0.25382475  1
  Cu  Cu108  1  0.16816624  0.50233645  0.24958789  1
  Cu  Cu109  1  0.83357779  0.50583744  0.25946458  1
  Cu  Cu110  1  -0.00409507  -0.00456900  0.00763573  1
  Cu  Cu111  1  0.00340568  0.66985880  0.49367934  1
  Cu  Cu112  1  0.33301973  0.65822825  0.50028464  1
  Cu  Cu113  1  -0.00419551  0.33145364  0.49919470  1
  Cu  Cu114  1  0.33562295  -0.00468726  -0.00057237  1
  Se  Se115  1  0.07614183  0.08100615  0.06571839  1
  Se  Se116  1  0.07638356  0.07681090  0.55292845  1
  Se  Se117  1  0.08048818  0.42055123  0.04250884  1
  Se  Se118  1  0.08716772  0.41199711  0.54693239  1
  Se  Se119  1  0.08470882  0.75427970  0.06169254  1
  Se  Se120  1  0.08158895  0.74047233  0.56239757  1
  Se  Se121  1  0.41898635  0.08420771  0.04586659  1
  Se  Se122  1  0.41337709  0.07979554  0.55436582  1
  Se  Se123  1  0.41260106  0.41635177  0.06635411  1
  Se  Se124  1  0.41952128  0.42248582  0.55500445  1
  Se  Se125  1  0.42060724  0.74882236  0.05297979  1
  Se  Se126  1  0.41269274  0.74566864  0.55409255  1
  Se  Se127  1  0.75622498  0.08091969  0.05924407  1
  Se  Se128  1  0.75068351  0.07864758  0.55283478  1
  Se  Se129  1  0.73912949  0.41327163  0.05662407  1
  Se  Se130  1  0.76145625  0.42752340  0.54431688  1
  Se  Se131  1  0.75160712  0.74984646  0.05538565  1
  Se  Se132  1  0.76832963  0.76012535  0.54740865  1
  Se  Se133  1  0.25631030  0.25621803  0.06022550  1
  Se  Se134  1  0.26041668  0.25341293  0.55757033  1
  Se  Se135  1  0.24399066  0.58314447  0.05652759  1
  Se  Se136  1  0.24565084  0.58121635  0.55599469  1
  Se  Se137  1  0.24959758  0.91629479  0.05268821  1
  Se  Se138  1  0.25179768  0.91999080  0.56346223  1
  Se  Se139  1  0.57319463  0.24257123  0.05405487  1
  Se  Se140  1  0.58329084  0.25466856  0.56278735  1
  Se  Se141  1  0.58846879  0.58655046  0.06457835  1
  Se  Se142  1  0.61186194  0.61624616  0.55205853  1
  Se  Se143  1  0.58239575  0.91266103  0.05178135  1
  Se  Se144  1  0.58009637  0.91692004  0.55006559  1
  Se  Se145  1  0.92648803  0.26971170  0.05404510  1
  Se  Se146  1  0.91350072  0.24451437  0.54938141  1
  Se  Se147  1  0.92115968  0.59296903  0.06561007  1
  Se  Se148  1  0.92317012  0.58424805  0.54924317  1
  Se  Se149  1  0.91515348  0.91356393  0.06427247  1
  Se  Se150  1  0.92146824  0.91029278  0.55138634  1
  Se  Se151  1  0.07317945  0.25751404  0.43142036  1
  Se  Se152  1  0.07860221  0.25562443  0.93783438  1
  Se  Se153  1  0.08804367  0.58493723  0.44306389  1
  Se  Se154  1  0.08233113  0.58883768  0.95018548  1
  Se  Se155  1  0.07604256  0.91711201  0.43526857  1
  Se  Se156  1  0.08272192  0.91390623  0.95631093  1
  Se  Se157  1  0.40793890  0.25849496  0.43452148  1
  Se  Se158  1  0.42217596  0.25583646  0.94794430  1
  Se  Se159  1  0.42098900  0.57891617  0.44731257  1
  Se  Se160  1  0.40886845  0.59033751  0.94297221  1
  Se  Se161  1  0.41767186  0.90932062  0.45085550  1
  Se  Se162  1  0.41759577  0.91175786  0.94445693  1
  Se  Se163  1  0.74479969  0.24717787  0.45561273  1
  Se  Se164  1  0.76810383  0.24040956  0.94855799  1
  Se  Se165  1  0.74596166  0.59693339  0.44860229  1
  Se  Se166  1  0.74631450  0.58787891  0.94238897  1
  Se  Se167  1  0.75370740  0.91406154  0.44826718  1
  Se  Se168  1  0.75364466  0.91280515  0.95217115  1
  Se  Se169  1  0.25495203  0.07082398  0.43907523  1
  Se  Se170  1  0.25743437  0.07786977  0.93762564  1
  Se  Se171  1  0.24795839  0.41991648  0.44691749  1
  Se  Se172  1  0.25168534  0.42069938  0.94984222  1
  Se  Se173  1  0.25466384  0.73917770  0.43856676  1
  Se  Se174  1  0.24756371  0.75263525  0.94951528  1
  Se  Se175  1  0.59016710  0.07465905  0.43317521  1
  Se  Se176  1  0.59059319  0.07852869  0.94909374  1
  Se  Se177  1  0.58274689  0.41673953  0.45229727  1
  Se  Se178  1  0.59778867  0.41101596  0.94521703  1
  Se  Se179  1  0.55969301  0.76822896  0.44129192  1
  Se  Se180  1  0.58158757  0.74886542  0.95015004  1
  Se  Se181  1  0.91214130  0.08513674  0.44410985  1
  Se  Se182  1  0.91591036  0.08195546  0.95410803  1
  Se  Se183  1  0.91369897  0.42039224  0.45048165  1
  Se  Se184  1  0.92559540  0.41745447  0.93224724  1
  Se  Se185  1  0.92048087  0.75206275  0.43969736  1
  Se  Se186  1  0.90913369  0.75053186  0.95390396  1
  Se  Se187  1  0.25118052  0.25344181  0.29569184  1
  Se  Se188  1  0.25474336  0.25681922  0.80015679  1
  Se  Se189  1  0.25342398  0.58140859  0.30490954  1
  Se  Se190  1  0.25015961  0.58757934  0.80847204  1
  Se  Se191  1  0.25136536  0.90615956  0.30873951  1
  Se  Se192  1  0.23603791  0.90807568  0.81147039  1
  Se  Se193  1  0.58540476  0.25296337  0.30158741  1
  Se  Se194  1  0.59272616  0.26012713  0.80857631  1
  Se  Se195  1  0.58350014  0.57750216  0.30849315  1
  Se  Se196  1  0.57527736  0.57825702  0.81200395  1
  Se  Se197  1  0.58479999  0.90130218  0.31031591  1
  Se  Se198  1  0.57924532  0.91039615  0.80488041  1
  Se  Se199  1  0.90542133  0.25822273  0.31310745  1
  Se  Se200  1  0.91892448  0.24332409  0.80588927  1
  Se  Se201  1  0.92444676  0.58887874  0.30362939  1
  Se  Se202  1  0.90957761  0.58349467  0.79688607  1
  Se  Se203  1  0.91362211  0.92182602  0.30205546  1
  Se  Se204  1  0.90431024  0.90630883  0.81297410  1
  Se  Se205  1  0.08299763  0.08755833  0.29721818  1
  Se  Se206  1  0.08949376  0.08828735  0.80410887  1
  Se  Se207  1  0.08461488  0.42291623  0.30975003  1
  Se  Se208  1  0.09010729  0.42461344  0.81069049  1
  Se  Se209  1  0.09576267  0.76025127  0.29432775  1
  Se  Se210  1  0.06417915  0.73741544  0.81319054  1
  Se  Se211  1  0.42610689  0.08721812  0.30699330  1
  Se  Se212  1  0.42897552  0.09522338  0.81344272  1
  Se  Se213  1  0.41198809  0.41363107  0.30549692  1
  Se  Se214  1  0.41964559  0.42021910  0.80415771  1
  Se  Se215  1  0.41685716  0.74062128  0.30084120  1
  Se  Se216  1  0.41179642  0.74891183  0.80121354  1
  Se  Se217  1  0.75582647  0.09237286  0.30742561  1
  Se  Se218  1  0.75284537  0.09015017  0.81210422  1
  Se  Se219  1  0.74970827  0.42352444  0.31271137  1
  Se  Se220  1  0.75213986  0.41195950  0.79785900  1
  Se  Se221  1  0.74876558  0.74602955  0.30498951  1
  Se  Se222  1  0.74680421  0.75094633  0.81133013  1
  Se  Se223  1  0.24456468  0.08878006  0.18466263  1
  Se  Se224  1  0.24637869  0.08277733  0.68801214  1
  Se  Se225  1  0.24621085  0.41445808  0.19594331  1
  Se  Se226  1  0.25426001  0.42037520  0.69856741  1
  Se  Se227  1  0.26141272  0.74269419  0.19627197  1
  Se  Se228  1  0.24637121  0.75111012  0.70566594  1
  Se  Se229  1  0.57833333  0.08787498  0.18575355  1
  Se  Se230  1  0.57728976  0.09773541  0.69537062  1
  Se  Se231  1  0.58490787  0.41518600  0.20049124  1
  Se  Se232  1  0.58859279  0.42786073  0.68928530  1
  Se  Se233  1  0.59038255  0.74048373  0.19709829  1
  Se  Se234  1  0.57410073  0.75249021  0.68865978  1
  Se  Se235  1  0.91657297  0.08719786  0.20751168  1
  Se  Se236  1  0.90549590  0.08572791  0.69143679  1
  Se  Se237  1  0.90639109  0.43111442  0.18873847  1
  Se  Se238  1  0.91255700  0.41877595  0.67962132  1
  Se  Se239  1  0.91548751  0.74848584  0.20137660  1
  Se  Se240  1  0.91122773  0.73917484  0.69534901  1
  Se  Se241  1  0.08392229  0.24639329  0.18233813  1
  Se  Se242  1  0.09531036  0.24354716  0.68699251  1
  Se  Se243  1  0.08164149  0.58287120  0.19720890  1
  Se  Se244  1  0.07947060  0.57987529  0.69582498  1
  Se  Se245  1  0.08422064  0.91484247  0.20475571  1
  Se  Se246  1  0.08931577  0.89325253  0.69975433  1
  Se  Se247  1  0.41453399  0.25170709  0.19707986  1
  Se  Se248  1  0.41469181  0.25952923  0.70205050  1
  Se  Se249  1  0.41567936  0.58156609  0.20068502  1
  Se  Se250  1  0.41595639  0.58818175  0.69464381  1
  Se  Se251  1  0.42748409  0.90578475  0.18908566  1
  Se  Se252  1  0.41785791  0.91943443  0.68963246  1
  Se  Se253  1  0.74818590  0.25340865  0.19778172  1
  Se  Se254  1  0.74873392  0.25517402  0.69352754  1
  Se  Se255  1  0.74765649  0.58651946  0.20448693  1
  Se  Se256  1  0.74939426  0.56817197  0.67968923  1
  Se  Se257  1  0.75145024  0.91040813  0.19031222  1
  Se  Se258  1  0.74938327  0.89761376  0.68554524  1
