# generated using pymatgen
data_In86Cu29Se144
_symmetry_space_group_name_H-M   'P 1'
_cell_length_a   17.58409423
_cell_length_b   17.58821275
_cell_length_c   23.44959709
_cell_angle_alpha   89.99815899
_cell_angle_beta   90.00810316
_cell_angle_gamma   89.98528506
_symmetry_Int_Tables_number   1
_chemical_formula_structural   In86Cu29Se144
_chemical_formula_sum   'In86 Cu29 Se144'
_cell_volume   7252.32200769
_cell_formula_units_Z   1
loop_
 _symmetry_equiv_pos_site_id
 _symmetry_equiv_pos_as_xyz
  1  'x, y, z'
loop_
 _atom_site_type_symbol
 _atom_site_label
 _atom_site_symmetry_multiplicity
 _atom_site_fract_x
 _atom_site_fract_y
 _atom_site_fract_z
 _atom_site_occupancy
  In  In0  1  0.00224345  0.17904384  0.11788427  1
  In  In1  1  0.00293338  0.15217188  0.62405150  1
  In  In2  1  0.00176135  0.50478665  0.11447377  1
  In  In3  1  0.01045574  0.51194096  0.62071964  1
  In  In4  1  -0.00551028  0.83078071  0.11640221  1
  In  In5  1  -0.01369387  0.83387105  0.62599626  1
  In  In6  1  0.34886699  0.16963079  0.12440884  1
  In  In7  1  0.34567486  0.17277377  0.63169965  1
  In  In8  1  0.33193255  0.49596521  0.12693089  1
  In  In9  1  0.33181304  0.49838103  0.62692282  1
  In  In10  1  0.33238776  0.82210918  0.11973559  1
  In  In11  1  0.34061260  0.82243851  0.63054946  1
  In  In12  1  0.65335455  0.15671823  0.12034729  1
  In  In13  1  0.62782225  0.16056099  0.62696679  1
  In  In14  1  0.67025636  0.50447458  0.11822732  1
  In  In15  1  0.66541832  0.50109841  0.61586758  1
  In  In16  1  0.66693173  0.83806570  0.12069693  1
  In  In17  1  0.67191226  0.84514691  0.62490643  1
  In  In18  1  0.18947846  0.00604288  0.38554241  1
  In  In19  1  0.18600204  -0.01164571  0.86741678  1
  In  In20  1  0.17593649  0.33167552  0.38065228  1
  In  In21  1  0.18597119  0.33953461  0.87184384  1
  In  In22  1  0.17313609  0.64847989  0.37811613  1
  In  In23  1  0.16116675  0.66559629  0.86376197  1
  In  In24  1  0.50366383  -0.00988477  0.38482649  1
  In  In25  1  0.49539624  -0.00268762  0.86871870  1
  In  In26  1  0.48896236  0.34836496  0.38214627  1
  In  In27  1  0.49482747  0.33182967  0.87789235  1
  In  In28  1  0.49503254  0.67296004  0.38058600  1
  In  In29  1  0.49174405  0.67421489  0.87874057  1
  In  In30  1  0.81410808  0.00247213  0.37399175  1
  In  In31  1  0.82413783  0.00392675  0.88330956  1
  In  In32  1  0.84276210  0.33896080  0.37451924  1
  In  In33  1  0.82812883  0.33683644  0.88413715  1
  In  In34  1  0.83747980  0.66762043  0.38122168  1
  In  In35  1  0.84362571  0.66356740  0.88659410  1
  In  In36  1  0.00686263  0.17796588  0.37682451  1
  In  In37  1  -0.00912145  0.15782154  0.87342767  1
  In  In38  1  0.00227986  0.50098121  0.38209774  1
  In  In39  1  -0.00461344  0.51818145  0.88551171  1
  In  In40  1  -0.00264802  0.81798295  0.37933806  1
  In  In41  1  0.00512436  0.80730015  0.88039940  1
  In  In42  1  0.32917388  0.17281906  0.38844667  1
  In  In43  1  0.34175793  0.16728198  0.86749806  1
  In  In44  1  0.33193929  0.50235742  0.37203331  1
  In  In45  1  0.33335191  0.50129005  0.87658668  1
  In  In46  1  0.34834265  0.83201517  0.37828479  1
  In  In47  1  0.34464032  0.83807414  0.85592163  1
  In  In48  1  0.66509230  0.15049197  0.37243673  1
  In  In49  1  0.66193527  0.16340313  0.87815962  1
  In  In50  1  0.67029504  0.50121169  0.37827200  1
  In  In51  1  0.66335338  0.49677141  0.88341353  1
  In  In52  1  0.65874027  0.84224233  0.38281427  1
  In  In53  1  0.65217033  0.84545884  0.88172165  1
  In  In54  1  0.17435746  -0.01023987  0.12038770  1
  In  In55  1  0.17655976  0.01741143  0.61694228  1
  In  In56  1  0.17096879  0.34676857  0.12688656  1
  In  In57  1  0.17851527  0.34677004  0.61951658  1
  In  In58  1  0.17896580  0.66219222  0.12589241  1
  In  In59  1  0.18105643  0.65982501  0.64029902  1
  In  In60  1  0.50221364  0.01241105  0.11844561  1
  In  In61  1  0.50248588  0.00101291  0.63047325  1
  In  In62  1  0.49157615  0.32639474  0.12255777  1
  In  In63  1  0.48276860  0.32303586  0.61628800  1
  In  In64  1  0.48929854  0.65377947  0.11490468  1
  In  In65  1  0.49306600  0.65597485  0.61988891  1
  In  In66  1  0.81615925  -0.01224802  0.11646421  1
  In  In67  1  0.83237616  -0.01106923  0.62831568  1
  In  In68  1  0.83821461  0.33710833  0.11499177  1
  In  In69  1  0.81947838  0.33670686  0.62434932  1
  In  In70  1  0.83071472  0.66142145  0.11344562  1
  In  In71  1  0.83560668  0.67425797  0.62430597  1
  In  In72  1  0.16498779  0.16998971  -0.01253437  1
  In  In73  1  -0.00009613  0.66109280  0.24175420  1
  In  In74  1  0.66504010  0.33522272  0.25388300  1
  In  In75  1  0.00348796  0.33718835  0.25107765  1
  In  In76  1  0.66655878  0.66804241  0.24045055  1
  In  In77  1  0.00416036  0.33794486  0.74675347  1
  In  In78  1  0.16602935  0.83413572  0.51121724  1
  In  In79  1  0.65564389  0.33021912  0.75243873  1
  In  In80  1  -0.00543056  0.00142831  0.24828838  1
  In  In81  1  0.00777913  -0.00953026  0.75575663  1
  In  In82  1  0.16981867  0.82756657  -0.00397867  1
  In  In83  1  0.83342552  0.16651135  0.49862305  1
  In  In84  1  0.66457600  0.67021462  0.75812159  1
  In  In85  1  0.33916352  0.00023171  0.25308574  1
  Cu  Cu86  1  0.33048134  0.66022894  0.50352983  1
  Cu  Cu87  1  0.17714770  0.17129057  0.74666945  1
  Cu  Cu88  1  0.82495652  0.16131808  0.24068655  1
  Cu  Cu89  1  0.17673147  0.16697201  0.25924817  1
  Cu  Cu90  1  0.66547851  0.66901670  -0.00225365  1
  Cu  Cu91  1  0.82281246  0.16392998  0.75529556  1
  Cu  Cu92  1  0.17098557  0.50036142  0.75042920  1
  Cu  Cu93  1  0.00380153  0.33632975  0.49974807  1
  Cu  Cu94  1  0.83804084  0.50799769  0.75416730  1
  Cu  Cu95  1  0.33598640  0.33714690  0.50252566  1
  Cu  Cu96  1  0.66662618  0.34063081  0.49792153  1
  Cu  Cu97  1  0.82243131  0.83782507  0.24903996  1
  Cu  Cu98  1  0.66591855  0.67204060  0.50024285  1
  Cu  Cu99  1  0.17146632  0.82450593  0.24609813  1
  Cu  Cu100  1  -0.00272322  0.33926102  -0.00237883  1
  Cu  Cu101  1  0.50126310  0.83470761  0.25466590  1
  Cu  Cu102  1  0.50040743  0.16639317  0.24857872  1
  Cu  Cu103  1  0.00190984  -0.00402297  0.50228547  1
  Cu  Cu104  1  0.66132873  0.32870319  0.00275057  1
  Cu  Cu105  1  0.65913396  0.00299806  -0.00116940  1
  Cu  Cu106  1  0.33528063  0.66414497  -0.00378842  1
  Cu  Cu107  1  0.50284804  0.83262298  0.75011207  1
  Cu  Cu108  1  -0.00376922  -0.00120169  -0.00410983  1
  Cu  Cu109  1  -0.00573644  0.66483057  0.50344077  1
  Cu  Cu110  1  0.49640320  0.50363896  0.24866102  1
  Cu  Cu111  1  0.33598876  0.33630946  -0.00044400  1
  Cu  Cu112  1  0.66571726  -0.00041356  0.50458317  1
  Cu  Cu113  1  0.49048747  0.49623306  0.74756878  1
  Cu  Cu114  1  0.83642138  0.82885127  0.75435871  1
  Se  Se115  1  0.08105494  0.07524157  0.05589153  1
  Se  Se116  1  0.08413106  0.08711381  0.54644191  1
  Se  Se117  1  0.08545407  0.41391689  0.05258757  1
  Se  Se118  1  0.08551575  0.42076221  0.55375819  1
  Se  Se119  1  0.08066132  0.73763944  0.05748717  1
  Se  Se120  1  0.07717059  0.73939791  0.56642846  1
  Se  Se121  1  0.40950488  0.08266245  0.05088125  1
  Se  Se122  1  0.44298423  0.10455615  0.56522973  1
  Se  Se123  1  0.41819371  0.41846311  0.05562345  1
  Se  Se124  1  0.41804864  0.42587384  0.55333587  1
  Se  Se125  1  0.41830499  0.74965223  0.04829037  1
  Se  Se126  1  0.41496361  0.74639349  0.55310237  1
  Se  Se127  1  0.74626846  0.08549878  0.05185310  1
  Se  Se128  1  0.74547958  0.08358376  0.56473099  1
  Se  Se129  1  0.74760231  0.41582159  0.05060320  1
  Se  Se130  1  0.75422522  0.42093644  0.54896336  1
  Se  Se131  1  0.74734412  0.75223007  0.05296286  1
  Se  Se132  1  0.74786861  0.75320738  0.55765586  1
  Se  Se133  1  0.25127254  0.25318885  0.05716928  1
  Se  Se134  1  0.25831640  0.25165871  0.55971430  1
  Se  Se135  1  0.25521960  0.58169459  0.05345371  1
  Se  Se136  1  0.24518381  0.58230930  0.55921342  1
  Se  Se137  1  0.26551334  0.92261281  0.04910336  1
  Se  Se138  1  0.26561334  0.92204568  0.56011238  1
  Se  Se139  1  0.57545144  0.24543034  0.05386479  1
  Se  Se140  1  0.58510193  0.25681627  0.55145944  1
  Se  Se141  1  0.58409057  0.58102242  0.04954544  1
  Se  Se142  1  0.58232625  0.58444726  0.54920833  1
  Se  Se143  1  0.57891294  0.91836951  0.05434790  1
  Se  Se144  1  0.58042368  0.91633674  0.55635988  1
  Se  Se145  1  0.91628870  0.24953547  0.04650976  1
  Se  Se146  1  0.92371860  0.25638453  0.56176975  1
  Se  Se147  1  0.91838180  0.58472447  0.04796755  1
  Se  Se148  1  0.91051942  0.58161040  0.55719271  1
  Se  Se149  1  0.91403923  0.91713623  0.05136428  1
  Se  Se150  1  0.91310138  0.91727163  0.55222700  1
  Se  Se151  1  0.08794748  0.25112210  0.44917511  1
  Se  Se152  1  0.07273245  0.26300897  0.93056012  1
  Se  Se153  1  0.08220194  0.58497772  0.45111668  1
  Se  Se154  1  0.09669613  0.58846224  0.94433905  1
  Se  Se155  1  0.08140815  0.91969022  0.43827658  1
  Se  Se156  1  0.08042501  0.92348790  0.93626103  1
  Se  Se157  1  0.42196929  0.25381845  0.45067463  1
  Se  Se158  1  0.41201340  0.24684129  0.94580183  1
  Se  Se159  1  0.41428706  0.58290903  0.44432457  1
  Se  Se160  1  0.42153063  0.57919794  0.94589624  1
  Se  Se161  1  0.40431802  0.92555982  0.44966969  1
  Se  Se162  1  0.42455286  0.89964316  0.93445607  1
  Se  Se163  1  0.74287310  0.25650181  0.43618191  1
  Se  Se164  1  0.74492808  0.24808549  0.94602920  1
  Se  Se165  1  0.74943064  0.58732630  0.44657790  1
  Se  Se166  1  0.74842995  0.58242417  0.94688649  1
  Se  Se167  1  0.75118229  0.91810922  0.45047250  1
  Se  Se168  1  0.74509818  0.91652442  0.95053933  1
  Se  Se169  1  0.25507987  0.08773614  0.45965738  1
  Se  Se170  1  0.25913268  0.07467921  0.94042557  1
  Se  Se171  1  0.25397872  0.42070405  0.44682659  1
  Se  Se172  1  0.25042848  0.42053005  0.94959838  1
  Se  Se173  1  0.25177188  0.74631292  0.44403428  1
  Se  Se174  1  0.26027747  0.74511487  0.93250858  1
  Se  Se175  1  0.58478207  0.08284115  0.44896086  1
  Se  Se176  1  0.57412972  0.08077802  0.94251896  1
  Se  Se177  1  0.58295271  0.42487083  0.44617734  1
  Se  Se178  1  0.57911337  0.41178094  0.94778146  1
  Se  Se179  1  0.57920444  0.75450655  0.44858611  1
  Se  Se180  1  0.57901763  0.75122201  0.94719649  1
  Se  Se181  1  0.92383941  0.07537009  0.43634846  1
  Se  Se182  1  0.91199714  0.08788038  0.94937214  1
  Se  Se183  1  0.91638738  0.41777764  0.44874436  1
  Se  Se184  1  0.91298210  0.42387795  0.94645506  1
  Se  Se185  1  0.91186113  0.75286051  0.45388517  1
  Se  Se186  1  0.91154795  0.75808361  0.95475994  1
  Se  Se187  1  0.25858495  0.25080870  0.31015173  1
  Se  Se188  1  0.25794013  0.25432335  0.80111718  1
  Se  Se189  1  0.25486493  0.58776619  0.30139553  1
  Se  Se190  1  0.25523214  0.58338536  0.80339966  1
  Se  Se191  1  0.24389720  0.90788748  0.30924128  1
  Se  Se192  1  0.23598636  0.89473315  0.79239299  1
  Se  Se193  1  0.57531224  0.24632843  0.31379943  1
  Se  Se194  1  0.56708342  0.23576715  0.80618827  1
  Se  Se195  1  0.58032854  0.58159766  0.30697680  1
  Se  Se196  1  0.57429900  0.57170284  0.80960277  1
  Se  Se197  1  0.58288745  0.91955763  0.30666931  1
  Se  Se198  1  0.58677798  0.91807500  0.79974627  1
  Se  Se199  1  0.90658509  0.23778578  0.30243075  1
  Se  Se200  1  0.90658838  0.24978993  0.80620707  1
  Se  Se201  1  0.91266595  0.57741293  0.30862073  1
  Se  Se202  1  0.91864800  0.59091471  0.80738315  1
  Se  Se203  1  0.91022655  0.90799722  0.31072351  1
  Se  Se204  1  0.91259952  0.91076623  0.81774902  1
  Se  Se205  1  0.09176101  0.08366785  0.31154675  1
  Se  Se206  1  0.09711289  0.09298724  0.80870011  1
  Se  Se207  1  0.09324718  0.42392923  0.31135855  1
  Se  Se208  1  0.08644022  0.42560443  0.81241093  1
  Se  Se209  1  0.08882883  0.74924583  0.30690372  1
  Se  Se210  1  0.08851831  0.76139541  0.79854538  1
  Se  Se211  1  0.42315657  0.09012304  0.31562593  1
  Se  Se212  1  0.39845477  0.06461138  0.80134883  1
  Se  Se213  1  0.41592996  0.41799413  0.30227639  1
  Se  Se214  1  0.41453595  0.41446125  0.80765371  1
  Se  Se215  1  0.41778403  0.74850572  0.30365586  1
  Se  Se216  1  0.42152209  0.73923418  0.79470568  1
  Se  Se217  1  0.74435938  0.07886188  0.29556061  1
  Se  Se218  1  0.74424392  0.07954827  0.80887622  1
  Se  Se219  1  0.76226231  0.42685261  0.30508103  1
  Se  Se220  1  0.75398573  0.42304553  0.80655200  1
  Se  Se221  1  0.74956175  0.75367906  0.31112051  1
  Se  Se222  1  0.75423606  0.75660917  0.81918637  1
  Se  Se223  1  0.24480859  0.08620257  0.19106049  1
  Se  Se224  1  0.25679916  0.08384368  0.69490453  1
  Se  Se225  1  0.25980897  0.40813267  0.19891441  1
  Se  Se226  1  0.25356594  0.41444226  0.69963825  1
  Se  Se227  1  0.25881811  0.74495328  0.19609646  1
  Se  Se228  1  0.24116317  0.76556795  0.70129975  1
  Se  Se229  1  0.58102209  0.07966656  0.19803236  1
  Se  Se230  1  0.59877400  0.06301689  0.70376950  1
  Se  Se231  1  0.57916749  0.42433347  0.18964588  1
  Se  Se232  1  0.57591969  0.42261959  0.68695560  1
  Se  Se233  1  0.56991170  0.75497501  0.18593233  1
  Se  Se234  1  0.58103629  0.75087402  0.68777717  1
  Se  Se235  1  0.91144481  0.08799938  0.18131634  1
  Se  Se236  1  0.91099175  0.08569059  0.69883320  1
  Se  Se237  1  0.91475564  0.42362802  0.18871295  1
  Se  Se238  1  0.90864813  0.42529390  0.68936841  1
  Se  Se239  1  0.90371012  0.75787406  0.19061383  1
  Se  Se240  1  0.91754918  0.74690003  0.69985376  1
  Se  Se241  1  0.09404106  0.24010689  0.19490085  1
  Se  Se242  1  0.09026457  0.24390314  0.68708761  1
  Se  Se243  1  0.09504481  0.56877934  0.19126191  1
  Se  Se244  1  0.08189108  0.58290980  0.70116286  1
  Se  Se245  1  0.08838631  0.90594104  0.19101237  1
  Se  Se246  1  0.08896821  0.92048075  0.67916747  1
  Se  Se247  1  0.41574503  0.25215733  0.20081254  1
  Se  Se248  1  0.42170765  0.25967267  0.70230304  1
  Se  Se249  1  0.41361381  0.58584354  0.19451752  1
  Se  Se250  1  0.41209898  0.58581782  0.69610855  1
  Se  Se251  1  0.42164128  0.91066564  0.18863319  1
  Se  Se252  1  0.41826958  0.91419180  0.69624916  1
  Se  Se253  1  0.75049934  0.25022793  0.18491007  1
  Se  Se254  1  0.74614897  0.23955275  0.68979028  1
  Se  Se255  1  0.76301186  0.57413107  0.19216859  1
  Se  Se256  1  0.74956526  0.57890550  0.69362014  1
  Se  Se257  1  0.73980855  0.92043044  0.19663650  1
  Se  Se258  1  0.75342864  0.91392028  0.70279321  1
