# generated using pymatgen
data_In86Cu29Se144
_symmetry_space_group_name_H-M   'P 1'
_cell_length_a   17.58365649
_cell_length_b   17.58291527
_cell_length_c   23.43763776
_cell_angle_alpha   89.98420395
_cell_angle_beta   89.99616363
_cell_angle_gamma   89.97471243
_symmetry_Int_Tables_number   1
_chemical_formula_structural   In86Cu29Se144
_chemical_formula_sum   'In86 Cu29 Se144'
_cell_volume   7246.25898779
_cell_formula_units_Z   1
loop_
 _symmetry_equiv_pos_site_id
 _symmetry_equiv_pos_as_xyz
  1  'x, y, z'
loop_
 _atom_site_type_symbol
 _atom_site_label
 _atom_site_symmetry_multiplicity
 _atom_site_fract_x
 _atom_site_fract_y
 _atom_site_fract_z
 _atom_site_occupancy
  In  In0  1  0.00050037  0.17049134  0.12933317  1
  In  In1  1  0.01037276  0.17377402  0.60937627  1
  In  In2  1  -0.01036880  0.48994233  0.11671519  1
  In  In3  1  0.01494794  0.48606129  0.63812413  1
  In  In4  1  0.01269771  0.83714193  0.13194035  1
  In  In5  1  -0.02883975  0.82173576  0.61065718  1
  In  In6  1  0.31963842  0.17929917  0.13511293  1
  In  In7  1  0.32780572  0.19400352  0.62624423  1
  In  In8  1  0.32856849  0.50638390  0.12806434  1
  In  In9  1  0.32314216  0.48708047  0.61368646  1
  In  In10  1  0.33608984  0.82141133  0.13498949  1
  In  In11  1  0.33804024  0.82132713  0.61918972  1
  In  In12  1  0.68396449  0.17302183  0.12898450  1
  In  In13  1  0.66622316  0.15697157  0.62035948  1
  In  In14  1  0.67293566  0.49205887  0.13464170  1
  In  In15  1  0.66661095  0.51810543  0.62068843  1
  In  In16  1  0.65208835  0.83269475  0.12729311  1
  In  In17  1  0.66424392  0.81541319  0.60609755  1
  In  In18  1  0.17349607  0.00855635  0.37089181  1
  In  In19  1  0.17534016  0.00737629  0.88104067  1
  In  In20  1  0.16472469  0.33495083  0.37141679  1
  In  In21  1  0.16175534  0.33535607  0.87743490  1
  In  In22  1  0.16251721  0.64624291  0.37936151  1
  In  In23  1  0.15061864  0.65628199  0.86447646  1
  In  In24  1  0.48748853  -0.00096389  0.37485193  1
  In  In25  1  0.48601859  -0.00675496  0.88217523  1
  In  In26  1  0.50583337  0.34434851  0.36776670  1
  In  In27  1  0.49783919  0.34413830  0.86590807  1
  In  In28  1  0.50324319  0.66708972  0.37871183  1
  In  In29  1  0.51348498  0.66203463  0.87381244  1
  In  In30  1  0.84331471  0.00354604  0.37785311  1
  In  In31  1  0.84535172  0.01003939  0.87957451  1
  In  In32  1  0.82840271  0.32231521  0.36535523  1
  In  In33  1  0.84881884  0.32511316  0.88186318  1
  In  In34  1  0.83412090  0.67872399  0.38089769  1
  In  In35  1  0.81877054  0.66002473  0.86798471  1
  In  In36  1  -0.00242325  0.17319468  0.37361156  1
  In  In37  1  -0.00087588  0.17702269  0.88277094  1
  In  In38  1  0.01528047  0.49866241  0.38023882  1
  In  In39  1  -0.00172239  0.49530178  0.87625016  1
  In  In40  1  -0.01612344  0.83211834  0.38380453  1
  In  In41  1  0.00631750  0.83184363  0.87160506  1
  In  In42  1  0.32315220  0.16066000  0.36652175  1
  In  In43  1  0.31766991  0.16416646  0.87674918  1
  In  In44  1  0.33208300  0.50083094  0.37201506  1
  In  In45  1  0.33181220  0.48114707  0.86868242  1
  In  In46  1  0.34306236  0.83955541  0.37424495  1
  In  In47  1  0.33388950  0.84179896  0.88022061  1
  In  In48  1  0.67312423  0.17728397  0.36967947  1
  In  In49  1  0.67500319  0.18083045  0.87890138  1
  In  In50  1  0.66071484  0.49797288  0.37508750  1
  In  In51  1  0.66256578  0.51409937  0.87031449  1
  In  In52  1  0.67532732  0.82100400  0.38412973  1
  In  In53  1  0.66448452  0.81917568  0.87559587  1
  In  In54  1  0.15212282  0.01075206  0.13923079  1
  In  In55  1  0.14655879  0.01194199  0.61900517  1
  In  In56  1  0.16589039  0.33536659  0.12367396  1
  In  In57  1  0.16674304  0.33175641  0.62052752  1
  In  In58  1  0.17626525  0.66505993  0.12548220  1
  In  In59  1  0.16922157  0.64402349  0.62595041  1
  In  In60  1  0.50100290  -0.01719795  0.12818989  1
  In  In61  1  0.51101572  -0.00248460  0.61925369  1
  In  In62  1  0.49956944  0.33527707  0.13498461  1
  In  In63  1  0.47596218  0.33532563  0.62912438  1
  In  In64  1  0.49599997  0.67067438  0.13016807  1
  In  In65  1  0.50747992  0.66978819  0.61176410  1
  In  In66  1  0.83658829  0.02023201  0.13103753  1
  In  In67  1  0.83929238  -0.00043977  0.60764475  1
  In  In68  1  0.83605082  0.33312698  0.13115883  1
  In  In69  1  0.84844200  0.34250725  0.62496969  1
  In  In70  1  0.83815321  0.64836704  0.12845183  1
  In  In71  1  0.82724086  0.66681399  0.62910057  1
  In  In72  1  0.34187761  0.65531848  0.75102856  1
  In  In73  1  0.33202952  0.00474050  0.75475323  1
  In  In74  1  0.49899035  0.50046784  -0.00755387  1
  In  In75  1  0.83671891  0.50414540  0.50215046  1
  In  In76  1  0.66652580  0.00256430  0.25348022  1
  In  In77  1  -0.00191264  -0.00231793  0.74626735  1
  In  In78  1  0.17132955  0.83293119  0.50134955  1
  In  In79  1  -0.00056861  0.66730745  0.25654664  1
  In  In80  1  0.66730969  0.34035284  0.74783666  1
  In  In81  1  0.82976296  0.83371401  0.00159808  1
  In  In82  1  0.49779386  0.16917377  0.49739788  1
  In  In83  1  0.66780817  -0.00334625  0.73947564  1
  In  In84  1  0.49990743  0.16485125  0.00233969  1
  In  In85  1  0.17033141  0.83467129  0.00168879  1
  Cu  Cu86  1  0.83867086  0.50070449  0.74983637  1
  Cu  Cu87  1  0.33117120  -0.00064093  0.00837381  1
  Cu  Cu88  1  0.82950596  0.49634785  0.25271234  1
  Cu  Cu89  1  0.49755699  0.16736533  0.25258973  1
  Cu  Cu90  1  0.33907804  0.66006048  0.49788095  1
  Cu  Cu91  1  0.17150553  0.83594015  0.25694874  1
  Cu  Cu92  1  0.82955650  0.83678402  0.25712861  1
  Cu  Cu93  1  0.67168886  -0.00376633  0.49548004  1
  Cu  Cu94  1  0.16643578  0.49766025  0.24888186  1
  Cu  Cu95  1  -0.00113229  0.01224464  0.00869819  1
  Cu  Cu96  1  0.68078473  0.33644205  0.00461491  1
  Cu  Cu97  1  0.66838628  0.00150444  0.00860879  1
  Cu  Cu98  1  0.16402923  0.17340729  0.25126926  1
  Cu  Cu99  1  0.33076489  0.00597663  0.49664211  1
  Cu  Cu100  1  -0.00211313  0.65867227  -0.00532834  1
  Cu  Cu101  1  0.82580384  0.82527897  0.74375221  1
  Cu  Cu102  1  0.66394741  0.66369162  -0.00146445  1
  Cu  Cu103  1  0.00086834  0.33041002  0.49889877  1
  Cu  Cu104  1  0.83670328  0.16719424  0.74851393  1
  Cu  Cu105  1  0.00521987  0.33455251  0.00337939  1
  Cu  Cu106  1  0.33313780  0.66881202  0.00461107  1
  Cu  Cu107  1  0.50561105  0.83084541  0.74378617  1
  Cu  Cu108  1  0.33023321  0.33128667  -0.00024003  1
  Cu  Cu109  1  0.15828358  0.82597149  0.74462771  1
  Cu  Cu110  1  0.32488060  0.33441389  0.49365535  1
  Cu  Cu111  1  0.16525666  0.17483190  0.74895503  1
  Cu  Cu112  1  0.66615428  0.33124101  0.49373811  1
  Cu  Cu113  1  0.49853120  0.82487222  0.25323331  1
  Cu  Cu114  1  0.49497737  0.50626538  0.25262967  1
  Se  Se115  1  0.08875163  0.08991017  0.05908600  1
  Se  Se116  1  0.07708870  0.08161889  0.53959087  1
  Se  Se117  1  0.08899565  0.42203134  0.05251632  1
  Se  Se118  1  0.08083658  0.41574099  0.55360971  1
  Se  Se119  1  0.07452079  0.74085504  0.05626599  1
  Se  Se120  1  0.08689823  0.74404830  0.56495435  1
  Se  Se121  1  0.41236004  0.08048763  0.06806247  1
  Se  Se122  1  0.40854005  0.08348145  0.56303123  1
  Se  Se123  1  0.41416848  0.41077736  0.05744713  1
  Se  Se124  1  0.41566001  0.41132383  0.54596226  1
  Se  Se125  1  0.41599957  0.75114013  0.05718930  1
  Se  Se126  1  0.41938946  0.75203506  0.54487456  1
  Se  Se127  1  0.75323889  0.08761108  0.05447593  1
  Se  Se128  1  0.74935514  0.08610177  0.54724180  1
  Se  Se129  1  0.75688716  0.42169736  0.06049885  1
  Se  Se130  1  0.74321788  0.41013570  0.55949550  1
  Se  Se131  1  0.74369943  0.74104639  0.06245760  1
  Se  Se132  1  0.77572391  0.75735515  0.55044495  1
  Se  Se133  1  0.24820426  0.24896928  0.05414381  1
  Se  Se134  1  0.24411464  0.24783016  0.54612715  1
  Se  Se135  1  0.24901990  0.58179496  0.05203067  1
  Se  Se136  1  0.24874829  0.57947998  0.54642862  1
  Se  Se137  1  0.25033028  0.92082724  0.07032008  1
  Se  Se138  1  0.25656184  0.92814003  0.56446786  1
  Se  Se139  1  0.58969338  0.25933223  0.05972119  1
  Se  Se140  1  0.58482015  0.25821281  0.56066313  1
  Se  Se141  1  0.58542567  0.58268302  0.06088131  1
  Se  Se142  1  0.59160632  0.58873029  0.54382234  1
  Se  Se143  1  0.58189377  0.91365866  0.05086821  1
  Se  Se144  1  0.58503662  0.91538967  0.54773966  1
  Se  Se145  1  0.91989512  0.25454931  0.05935626  1
  Se  Se146  1  0.91078143  0.25302908  0.55114648  1
  Se  Se147  1  0.91177793  0.57979132  0.04870793  1
  Se  Se148  1  0.92518126  0.57744217  0.57235476  1
  Se  Se149  1  0.92336046  0.92047164  0.06238116  1
  Se  Se150  1  0.93580774  0.93031733  0.54337375  1
  Se  Se151  1  0.08640629  0.25208703  0.44328090  1
  Se  Se152  1  0.08915888  0.24853218  0.95148951  1
  Se  Se153  1  0.07465236  0.58780372  0.45458789  1
  Se  Se154  1  0.08625858  0.57870058  0.94441011  1
  Se  Se155  1  0.08584969  0.91924212  0.43733689  1
  Se  Se156  1  0.07337430  0.92837129  0.94522071  1
  Se  Se157  1  0.40974168  0.25533893  0.43380474  1
  Se  Se158  1  0.41563305  0.25743253  0.93907663  1
  Se  Se159  1  0.41958849  0.57619972  0.44266022  1
  Se  Se160  1  0.40536177  0.59068399  0.93570703  1
  Se  Se161  1  0.41647024  0.91906903  0.45139827  1
  Se  Se162  1  0.41330001  0.91308910  0.95698630  1
  Se  Se163  1  0.75303339  0.24924894  0.44548854  1
  Se  Se164  1  0.75972574  0.24815283  0.95213037  1
  Se  Se165  1  0.74284668  0.58979889  0.44340216  1
  Se  Se166  1  0.74785321  0.58130922  0.94598147  1
  Se  Se167  1  0.75776801  0.91629916  0.44234545  1
  Se  Se168  1  0.74258478  0.92519690  0.93827883  1
  Se  Se169  1  0.24825157  0.08989644  0.44626993  1
  Se  Se170  1  0.25029932  0.08503439  0.95580995  1
  Se  Se171  1  0.24416467  0.42186711  0.44117516  1
  Se  Se172  1  0.24974948  0.41682752  0.94614488  1
  Se  Se173  1  0.25705972  0.74187627  0.43822302  1
  Se  Se174  1  0.25044133  0.74007634  0.93668988  1
  Se  Se175  1  0.59045571  0.07929758  0.43631966  1
  Se  Se176  1  0.59141444  0.07674138  0.93979695  1
  Se  Se177  1  0.58023170  0.41634033  0.44692837  1
  Se  Se178  1  0.59668880  0.40718178  0.94001446  1
  Se  Se179  1  0.57396300  0.75930554  0.44773383  1
  Se  Se180  1  0.57899645  0.74933652  0.94932768  1
  Se  Se181  1  0.91581508  0.09379583  0.44528144  1
  Se  Se182  1  0.91626309  0.09269508  0.95228717  1
  Se  Se183  1  0.91773559  0.40959018  0.43880651  1
  Se  Se184  1  0.91780253  0.41710274  0.95117675  1
  Se  Se185  1  0.92657844  0.73595578  0.45409576  1
  Se  Se186  1  0.91907917  0.74632871  0.93874044  1
  Se  Se187  1  0.25158390  0.25627933  0.30118619  1
  Se  Se188  1  0.24790793  0.25273296  0.80684420  1
  Se  Se189  1  0.24694224  0.58345818  0.30187633  1
  Se  Se190  1  0.24182378  0.56846308  0.80256915  1
  Se  Se191  1  0.25715132  0.92058688  0.30646733  1
  Se  Se192  1  0.23552340  0.90664314  0.80640035  1
  Se  Se193  1  0.58290405  0.25097587  0.30246256  1
  Se  Se194  1  0.58055599  0.24315105  0.80667154  1
  Se  Se195  1  0.58282887  0.58498585  0.30576657  1
  Se  Se196  1  0.57516729  0.57893868  0.79733789  1
  Se  Se197  1  0.57924142  0.90911333  0.31197178  1
  Se  Se198  1  0.57729468  0.91398531  0.80858316  1
  Se  Se199  1  0.93205465  0.26517454  0.30098081  1
  Se  Se200  1  0.91995968  0.24591995  0.80438124  1
  Se  Se201  1  0.90972015  0.57511075  0.31525181  1
  Se  Se202  1  0.91683790  0.58456360  0.80821429  1
  Se  Se203  1  0.91816364  0.91556921  0.30633591  1
  Se  Se204  1  0.90216421  0.90754741  0.80631798  1
  Se  Se205  1  0.08408637  0.08845313  0.30581928  1
  Se  Se206  1  0.08910572  0.08684953  0.80850305  1
  Se  Se207  1  0.08035422  0.41792244  0.30162028  1
  Se  Se208  1  0.06885362  0.40279017  0.80826953  1
  Se  Se209  1  0.08980098  0.75588097  0.31758787  1
  Se  Se210  1  0.07327888  0.74614584  0.79785475  1
  Se  Se211  1  0.41462346  0.08049248  0.30121388  1
  Se  Se212  1  0.42483994  0.09352479  0.81295025  1
  Se  Se213  1  0.41240632  0.41707858  0.30107529  1
  Se  Se214  1  0.43286294  0.43574193  0.79711806  1
  Se  Se215  1  0.41419161  0.74439725  0.30791049  1
  Se  Se216  1  0.42225954  0.76007663  0.80903488  1
  Se  Se217  1  0.76330522  0.09232222  0.30389193  1
  Se  Se218  1  0.75496344  0.08739726  0.80644526  1
  Se  Se219  1  0.74395570  0.41562874  0.30620967  1
  Se  Se220  1  0.75981251  0.41996997  0.81393571  1
  Se  Se221  1  0.74967810  0.74748305  0.30501409  1
  Se  Se222  1  0.73992222  0.74674905  0.79865515  1
  Se  Se223  1  0.24944080  0.08428995  0.20216610  1
  Se  Se224  1  0.24072399  0.08794149  0.68987579  1
  Se  Se225  1  0.25082800  0.41647298  0.19373680  1
  Se  Se226  1  0.26106701  0.40018818  0.68894799  1
  Se  Se227  1  0.24510907  0.74593560  0.20210737  1
  Se  Se228  1  0.24936440  0.75037098  0.69242097  1
  Se  Se229  1  0.57753005  0.09006285  0.18819245  1
  Se  Se230  1  0.56994883  0.09379979  0.69445203  1
  Se  Se231  1  0.58023503  0.42027190  0.20167302  1
  Se  Se232  1  0.57991438  0.42270895  0.68255635  1
  Se  Se233  1  0.58579326  0.74527862  0.20048553  1
  Se  Se234  1  0.58532798  0.75026988  0.68679808  1
  Se  Se235  1  0.93284995  0.07631818  0.19945217  1
  Se  Se236  1  0.91257377  0.08849073  0.68458426  1
  Se  Se237  1  0.91909827  0.42081878  0.19858773  1
  Se  Se238  1  0.92156597  0.41012305  0.70522445  1
  Se  Se239  1  0.90915405  0.75692225  0.19225176  1
  Se  Se240  1  0.91814988  0.74621433  0.69668185  1
  Se  Se241  1  0.08362709  0.25714686  0.19565085  1
  Se  Se242  1  0.08012642  0.24804782  0.68939208  1
  Se  Se243  1  0.08248057  0.57929514  0.18937223  1
  Se  Se244  1  0.08920459  0.58010825  0.70324705  1
  Se  Se245  1  0.08158563  0.91669756  0.20782858  1
  Se  Se246  1  0.08120011  0.90547915  0.68307072  1
  Se  Se247  1  0.41429398  0.25270502  0.20035576  1
  Se  Se248  1  0.41900522  0.24284942  0.70250906  1
  Se  Se249  1  0.41190604  0.58754877  0.19658184  1
  Se  Se250  1  0.41876391  0.57913504  0.67546166  1
  Se  Se251  1  0.41665321  0.91158498  0.20094377  1
  Se  Se252  1  0.42038480  0.91287973  0.69016560  1
  Se  Se253  1  0.74742344  0.25920425  0.20160707  1
  Se  Se254  1  0.75494479  0.24468678  0.68767871  1
  Se  Se255  1  0.74892500  0.58506536  0.20177737  1
  Se  Se256  1  0.74984124  0.58077048  0.69945683  1
  Se  Se257  1  0.75514746  0.91235563  0.18865641  1
  Se  Se258  1  0.75735349  0.90949826  0.67938521  1
