# generated using pymatgen
data_In86Cu29Se144
_symmetry_space_group_name_H-M   'P 1'
_cell_length_a   17.59222456
_cell_length_b   17.59331348
_cell_length_c   23.45407425
_cell_angle_alpha   89.96005943
_cell_angle_beta   89.99441112
_cell_angle_gamma   90.01650896
_symmetry_Int_Tables_number   1
_chemical_formula_structural   In86Cu29Se144
_chemical_formula_sum   'In86 Cu29 Se144'
_cell_volume   7259.16338080
_cell_formula_units_Z   1
loop_
 _symmetry_equiv_pos_site_id
 _symmetry_equiv_pos_as_xyz
  1  'x, y, z'
loop_
 _atom_site_type_symbol
 _atom_site_label
 _atom_site_symmetry_multiplicity
 _atom_site_fract_x
 _atom_site_fract_y
 _atom_site_fract_z
 _atom_site_occupancy
  In  In0  1  -0.00066142  0.16304999  0.12388809  1
  In  In1  1  0.00048065  0.17674040  0.62411442  1
  In  In2  1  0.00231725  0.50225365  0.13244398  1
  In  In3  1  0.00243793  0.49871375  0.62689073  1
  In  In4  1  -0.01384049  0.84855852  0.13268180  1
  In  In5  1  0.00446170  0.81431574  0.63111782  1
  In  In6  1  0.32460077  0.15330352  0.11834240  1
  In  In7  1  0.33883296  0.16043633  0.63160372  1
  In  In8  1  0.34300159  0.51146394  0.12496860  1
  In  In9  1  0.33677742  0.49410217  0.62627398  1
  In  In10  1  0.33877421  0.83959048  0.13287220  1
  In  In11  1  0.31994726  0.84644605  0.64160216  1
  In  In12  1  0.66335244  0.16014311  0.12203501  1
  In  In13  1  0.65709148  0.15607714  0.62081917  1
  In  In14  1  0.67646631  0.50861627  0.12613639  1
  In  In15  1  0.65213310  0.50956472  0.61920775  1
  In  In16  1  0.66637354  0.83829555  0.12673787  1
  In  In17  1  0.67198742  0.84227000  0.63361928  1
  In  In18  1  0.15790822  -0.01143432  0.37242833  1
  In  In19  1  0.18822633  -0.00574114  0.87345478  1
  In  In20  1  0.16278428  0.34275260  0.37669240  1
  In  In21  1  0.16037451  0.32697818  0.86706576  1
  In  In22  1  0.17145966  0.67155700  0.37386844  1
  In  In23  1  0.17463844  0.68694638  0.85985693  1
  In  In24  1  0.50737308  0.00473575  0.36132335  1
  In  In25  1  0.50404120  -0.00050359  0.87554035  1
  In  In26  1  0.49241575  0.32901164  0.39020500  1
  In  In27  1  0.48550299  0.32987449  0.87114183  1
  In  In28  1  0.49144318  0.67131162  0.36868652  1
  In  In29  1  0.50511552  0.68595285  0.87203416  1
  In  In30  1  0.83172992  0.00556599  0.36624989  1
  In  In31  1  0.82738260  0.00464571  0.88349422  1
  In  In32  1  0.83391743  0.31379038  0.37151046  1
  In  In33  1  0.83870254  0.31830623  0.87725434  1
  In  In34  1  0.83762103  0.67658178  0.36757266  1
  In  In35  1  0.84502645  0.66946642  0.87640050  1
  In  In36  1  -0.01688183  0.15225842  0.36249671  1
  In  In37  1  -0.00436648  0.16933612  0.88045612  1
  In  In38  1  0.00504806  0.50174565  0.36851496  1
  In  In39  1  0.01236274  0.51274243  0.86531734  1
  In  In40  1  0.00460756  0.83474287  0.37461511  1
  In  In41  1  0.00289820  0.82239456  0.87590295  1
  In  In42  1  0.34669327  0.16629831  0.37847122  1
  In  In43  1  0.33573218  0.16394981  0.87546333  1
  In  In44  1  0.33001862  0.50672666  0.38018064  1
  In  In45  1  0.33626280  0.50196228  0.86627583  1
  In  In46  1  0.33179852  0.82646526  0.36693187  1
  In  In47  1  0.36226056  0.86256095  0.83937546  1
  In  In48  1  0.67134526  0.15808426  0.37628692  1
  In  In49  1  0.67519417  0.15047825  0.88529867  1
  In  In50  1  0.65295912  0.49978844  0.37735281  1
  In  In51  1  0.67031799  0.50699720  0.87698059  1
  In  In52  1  0.66053527  0.84995744  0.35384423  1
  In  In53  1  0.65473056  0.84420192  0.88497487  1
  In  In54  1  0.15605271  0.00614267  0.13046922  1
  In  In55  1  0.17916039  0.00279247  0.62532843  1
  In  In56  1  0.16731226  0.31912161  0.12378645  1
  In  In57  1  0.16605935  0.33143233  0.63204647  1
  In  In58  1  0.16799825  0.67080747  0.13117883  1
  In  In59  1  0.15750380  0.68186078  0.62933020  1
  In  In60  1  0.49915903  0.00016198  0.12715298  1
  In  In61  1  0.48971699  0.00105418  0.63705833  1
  In  In62  1  0.51030771  0.32671422  0.12492517  1
  In  In63  1  0.48428511  0.32134103  0.61007793  1
  In  In64  1  0.48512044  0.69533232  0.14670967  1
  In  In65  1  0.49673596  0.65698920  0.61996887  1
  In  In66  1  0.83599311  0.00398451  0.12382159  1
  In  In67  1  0.81585571  -0.00543202  0.62607445  1
  In  In68  1  0.84769038  0.32719098  0.12889676  1
  In  In69  1  0.84661544  0.32791916  0.62457185  1
  In  In70  1  0.82095711  0.68212975  0.13534856  1
  In  In71  1  0.84526591  0.67254494  0.62600586  1
  In  In72  1  0.82992323  0.49550114  0.50683068  1
  In  In73  1  0.16989694  0.83564654  -0.00405410  1
  In  In74  1  0.49795275  0.83338970  0.49683042  1
  In  In75  1  -0.00058951  -0.00256677  0.75426793  1
  In  In76  1  0.17309650  0.49874794  0.49809108  1
  In  In77  1  0.16618568  0.50090297  -0.01219705  1
  In  In78  1  0.16878082  0.16553486  0.50185936  1
  In  In79  1  0.66966290  0.33338660  0.24816019  1
  In  In80  1  0.66954145  0.66970451  0.74629746  1
  In  In81  1  0.32647655  0.33432051  0.25563279  1
  In  In82  1  0.83675719  0.49696604  0.00277169  1
  In  In83  1  0.50526527  0.49807076  0.00058067  1
  In  In84  1  0.83427933  0.83762242  0.49862890  1
  In  In85  1  0.66760542  0.33146974  0.75228000  1
  Cu  Cu86  1  0.83728312  0.50246519  0.25187187  1
  Cu  Cu87  1  -0.00069631  0.00434422  0.00504020  1
  Cu  Cu88  1  0.66014849  0.00570965  0.49793335  1
  Cu  Cu89  1  0.49880571  0.16914303  0.24933491  1
  Cu  Cu90  1  0.16576293  0.49998576  0.74498051  1
  Cu  Cu91  1  0.66344326  -0.00157371  0.00575308  1
  Cu  Cu92  1  0.66180669  0.67840480  0.00881738  1
  Cu  Cu93  1  -0.00555782  0.67585202  0.00378513  1
  Cu  Cu94  1  0.83576129  0.16498723  0.75691700  1
  Cu  Cu95  1  0.17236612  0.16501345  0.74993894  1
  Cu  Cu96  1  0.49543553  0.49625025  0.74527731  1
  Cu  Cu97  1  0.33905830  0.67538692  0.00077361  1
  Cu  Cu98  1  0.16877879  0.83305961  0.25120126  1
  Cu  Cu99  1  0.16860692  0.50333322  0.25270057  1
  Cu  Cu100  1  0.33534544  0.32020256  -0.00146286  1
  Cu  Cu101  1  0.83712211  0.83724028  0.24666942  1
  Cu  Cu102  1  -0.00573436  0.32445048  0.49563890  1
  Cu  Cu103  1  0.33358062  0.67102709  0.49667107  1
  Cu  Cu104  1  0.84372329  0.49749712  0.74815642  1
  Cu  Cu105  1  0.33905222  -0.00231724  0.50543704  1
  Cu  Cu106  1  0.15999950  0.16277501  0.24600064  1
  Cu  Cu107  1  0.66436329  0.32602156  0.49588006  1
  Cu  Cu108  1  -0.00560148  -0.00279818  0.49305505  1
  Cu  Cu109  1  0.66661112  0.31997683  -0.00014528  1
  Cu  Cu110  1  0.49830500  0.51274073  0.25366185  1
  Cu  Cu111  1  0.33947701  -0.00074297  -0.00453553  1
  Cu  Cu112  1  0.66587859  0.67048641  0.49480666  1
  Cu  Cu113  1  0.50133187  0.16310413  0.74974800  1
  Cu  Cu114  1  0.00253884  0.32973768  -0.00159056  1
  Se  Se115  1  0.08781552  0.08677060  0.05303768  1
  Se  Se116  1  0.07447298  0.07385420  0.55865571  1
  Se  Se117  1  0.08034214  0.41554401  0.05611705  1
  Se  Se118  1  0.07664519  0.40426799  0.55422271  1
  Se  Se119  1  0.07891254  0.75342907  0.06255480  1
  Se  Se120  1  0.08338520  0.75399387  0.55134178  1
  Se  Se121  1  0.41957158  0.08133093  0.05355771  1
  Se  Se122  1  0.42019391  0.08084718  0.55928949  1
  Se  Se123  1  0.40931130  0.40638749  0.05882255  1
  Se  Se124  1  0.42544520  0.43054716  0.55241646  1
  Se  Se125  1  0.41657983  0.75601192  0.06000076  1
  Se  Se126  1  0.40731114  0.75218669  0.56129558  1
  Se  Se127  1  0.75080680  0.08387483  0.05328005  1
  Se  Se128  1  0.74930832  0.08218221  0.55215064  1
  Se  Se129  1  0.74293029  0.40411615  0.06017458  1
  Se  Se130  1  0.73728711  0.40350790  0.56400423  1
  Se  Se131  1  0.75413850  0.75798295  0.05559340  1
  Se  Se132  1  0.74148922  0.74559918  0.55951102  1
  Se  Se133  1  0.24667571  0.24355627  0.05123419  1
  Se  Se134  1  0.25631230  0.25425228  0.56251675  1
  Se  Se135  1  0.25457706  0.59162613  0.05343920  1
  Se  Se136  1  0.25421382  0.59258840  0.56014742  1
  Se  Se137  1  0.25511996  0.92549759  0.05990761  1
  Se  Se138  1  0.25389786  0.91452121  0.55603369  1
  Se  Se139  1  0.57852550  0.24215220  0.05198000  1
  Se  Se140  1  0.58166776  0.24302454  0.55136039  1
  Se  Se141  1  0.58261026  0.59190731  0.06486170  1
  Se  Se142  1  0.57887773  0.58685630  0.54327437  1
  Se  Se143  1  0.57884718  0.91496376  0.05714413  1
  Se  Se144  1  0.58623153  0.92225406  0.56013509  1
  Se  Se145  1  0.91848577  0.24864917  0.05254090  1
  Se  Se146  1  0.91191117  0.24142835  0.54898161  1
  Se  Se147  1  0.91903610  0.59210077  0.06368911  1
  Se  Se148  1  0.92701139  0.58973436  0.55423818  1
  Se  Se149  1  0.91426691  0.91714844  0.05171742  1
  Se  Se150  1  0.92204766  0.92252578  0.56346902  1
  Se  Se151  1  0.07658685  0.24645039  0.43616682  1
  Se  Se152  1  0.08831906  0.24939499  0.94478570  1
  Se  Se153  1  0.07915695  0.58765853  0.44267021  1
  Se  Se154  1  0.07942547  0.60506526  0.94050323  1
  Se  Se155  1  0.08340495  0.91262548  0.44948765  1
  Se  Se156  1  0.07710446  0.92799404  0.93899606  1
  Se  Se157  1  0.41213231  0.24431560  0.45597091  1
  Se  Se158  1  0.42347006  0.24266716  0.94638039  1
  Se  Se159  1  0.41845714  0.58955242  0.44399154  1
  Se  Se160  1  0.41464698  0.58797258  0.94108819  1
  Se  Se161  1  0.41342227  0.92553988  0.43547246  1
  Se  Se162  1  0.41163433  0.91205125  0.93703000  1
  Se  Se163  1  0.75027138  0.24435823  0.44550302  1
  Se  Se164  1  0.75642511  0.24333703  0.94828116  1
  Se  Se165  1  0.75025032  0.58888107  0.43964755  1
  Se  Se166  1  0.74254679  0.59527998  0.94987063  1
  Se  Se167  1  0.73746464  0.92095846  0.43830985  1
  Se  Se168  1  0.74808647  0.91723729  0.95134494  1
  Se  Se169  1  0.25516554  0.07279004  0.44165239  1
  Se  Se170  1  0.25193504  0.08316841  0.94699827  1
  Se  Se171  1  0.26477276  0.40119406  0.44652602  1
  Se  Se172  1  0.26169206  0.40650446  0.93830025  1
  Se  Se173  1  0.25160685  0.75512423  0.44378829  1
  Se  Se174  1  0.26269458  0.75165498  0.93648924  1
  Se  Se175  1  0.57559744  0.08321094  0.44084855  1
  Se  Se176  1  0.57913243  0.08066405  0.95071022  1
  Se  Se177  1  0.58193190  0.41613421  0.44999729  1
  Se  Se178  1  0.59346174  0.40537005  0.93848571  1
  Se  Se179  1  0.59372970  0.75470842  0.43314192  1
  Se  Se180  1  0.57519836  0.75511773  0.95329596  1
  Se  Se181  1  0.91019534  0.08059386  0.44275474  1
  Se  Se182  1  0.91505827  0.08642313  0.94931429  1
  Se  Se183  1  0.91882728  0.41291158  0.43888353  1
  Se  Se184  1  0.92917267  0.41658946  0.93760145  1
  Se  Se185  1  0.92395753  0.74214610  0.44542461  1
  Se  Se186  1  0.91195208  0.75748031  0.95002888  1
  Se  Se187  1  0.23802208  0.23888057  0.31264501  1
  Se  Se188  1  0.25470862  0.24860148  0.80482433  1
  Se  Se189  1  0.25307183  0.58409672  0.30647479  1
  Se  Se190  1  0.24501402  0.58064284  0.80334532  1
  Se  Se191  1  0.25080595  0.91874264  0.30371276  1
  Se  Se192  1  0.22940912  0.89587650  0.79977305  1
  Se  Se193  1  0.57381146  0.25244839  0.31091737  1
  Se  Se194  1  0.58217986  0.23965162  0.81348565  1
  Se  Se195  1  0.58647552  0.58973282  0.30655179  1
  Se  Se196  1  0.57674013  0.57496545  0.80599904  1
  Se  Se197  1  0.55691885  0.90538230  0.28700039  1
  Se  Se198  1  0.57191766  0.90445110  0.80668348  1
  Se  Se199  1  0.92206907  0.25465151  0.29770899  1
  Se  Se200  1  0.92321986  0.24996247  0.80282387  1
  Se  Se201  1  0.92034850  0.58716233  0.30398357  1
  Se  Se202  1  0.91736182  0.58852853  0.80159604  1
  Se  Se203  1  0.91805757  0.91508697  0.30704747  1
  Se  Se204  1  0.90916550  0.91273317  0.81577925  1
  Se  Se205  1  0.08249108  0.07741118  0.30343011  1
  Se  Se206  1  0.09243977  0.08748359  0.81298618  1
  Se  Se207  1  0.08513401  0.41523306  0.30063552  1
  Se  Se208  1  0.08277924  0.41700425  0.80064147  1
  Se  Se209  1  0.08471091  0.74993804  0.30521878  1
  Se  Se210  1  0.06885783  0.74493111  0.79785533  1
  Se  Se211  1  0.41198709  0.08683748  0.30028539  1
  Se  Se212  1  0.41813180  0.08184075  0.80597886  1
  Se  Se213  1  0.42431098  0.42237110  0.31116038  1
  Se  Se214  1  0.41268942  0.41231656  0.79853769  1
  Se  Se215  1  0.42302941  0.75804214  0.29727144  1
  Se  Se216  1  0.40284413  0.72991076  0.80284574  1
  Se  Se217  1  0.73254172  0.07149419  0.30123915  1
  Se  Se218  1  0.75030550  0.08105275  0.80596293  1
  Se  Se219  1  0.75608915  0.42352715  0.31330667  1
  Se  Se220  1  0.76213706  0.42413463  0.81123364  1
  Se  Se221  1  0.75116994  0.75651483  0.30087317  1
  Se  Se222  1  0.74652809  0.75247177  0.81813409  1
  Se  Se223  1  0.24987274  0.08167535  0.19708409  1
  Se  Se224  1  0.25583915  0.07849612  0.70080327  1
  Se  Se225  1  0.24530960  0.42519226  0.18699881  1
  Se  Se226  1  0.25135075  0.41531027  0.69603066  1
  Se  Se227  1  0.25337258  0.75192659  0.19683660  1
  Se  Se228  1  0.25874818  0.73665673  0.69731940  1
  Se  Se229  1  0.58186535  0.08673794  0.19577271  1
  Se  Se230  1  0.58667579  0.07951294  0.69886814  1
  Se  Se231  1  0.57523663  0.42992417  0.19298065  1
  Se  Se232  1  0.57836679  0.41634055  0.68849506  1
  Se  Se233  1  0.61132893  0.73082794  0.19202786  1
  Se  Se234  1  0.57289335  0.75350948  0.68852182  1
  Se  Se235  1  0.93051215  0.07085530  0.19283259  1
  Se  Se236  1  0.91205051  0.08751999  0.69042430  1
  Se  Se237  1  0.91773035  0.41818098  0.19785792  1
  Se  Se238  1  0.92288711  0.41165201  0.69473192  1
  Se  Se239  1  0.92247204  0.74792797  0.19915086  1
  Se  Se240  1  0.89616790  0.76857752  0.69745443  1
  Se  Se241  1  0.08007508  0.25047705  0.19483386  1
  Se  Se242  1  0.08387336  0.24624713  0.69880790  1
  Se  Se243  1  0.08541376  0.58670268  0.19829048  1
  Se  Se244  1  0.08189029  0.58457500  0.69320912  1
  Se  Se245  1  0.08350636  0.91602563  0.19908531  1
  Se  Se246  1  0.08845472  0.91505306  0.68920146  1
  Se  Se247  1  0.41545699  0.24826421  0.19027345  1
  Se  Se248  1  0.42248712  0.25001506  0.69573568  1
  Se  Se249  1  0.40898633  0.59073316  0.20227931  1
  Se  Se250  1  0.41511497  0.58344559  0.69416122  1
  Se  Se251  1  0.42958207  0.91324649  0.20171211  1
  Se  Se252  1  0.41949700  0.91125694  0.70629852  1
  Se  Se253  1  0.75754730  0.23982977  0.19255904  1
  Se  Se254  1  0.75608072  0.24184230  0.69143041  1
  Se  Se255  1  0.75080736  0.58439147  0.20146549  1
  Se  Se256  1  0.75825644  0.57167457  0.68725393  1
  Se  Se257  1  0.75299167  0.92077550  0.19388995  1
  Se  Se258  1  0.75267376  0.91651612  0.70501158  1
