# generated using pymatgen
data_In86Cu29Se144
_symmetry_space_group_name_H-M   'P 1'
_cell_length_a   17.57805086
_cell_length_b   17.57669051
_cell_length_c   23.43731183
_cell_angle_alpha   89.99537501
_cell_angle_beta   90.00142944
_cell_angle_gamma   90.01030207
_symmetry_Int_Tables_number   1
_chemical_formula_structural   In86Cu29Se144
_chemical_formula_sum   'In86 Cu29 Se144'
_cell_volume   7241.28452477
_cell_formula_units_Z   1
loop_
 _symmetry_equiv_pos_site_id
 _symmetry_equiv_pos_as_xyz
  1  'x, y, z'
loop_
 _atom_site_type_symbol
 _atom_site_label
 _atom_site_symmetry_multiplicity
 _atom_site_fract_x
 _atom_site_fract_y
 _atom_site_fract_z
 _atom_site_occupancy
  In  In0  1  0.01299607  0.15513063  0.12958369  1
  In  In1  1  0.00228213  0.16270135  0.62240105  1
  In  In2  1  -0.00140781  0.49255053  0.12334113  1
  In  In3  1  -0.01045085  0.48701307  0.62392300  1
  In  In4  1  0.01386984  0.84209900  0.11894528  1
  In  In5  1  0.00525703  0.85389859  0.62336097  1
  In  In6  1  0.32653661  0.17520249  0.13099311  1
  In  In7  1  0.32853045  0.17692191  0.63231996  1
  In  In8  1  0.32049286  0.49801102  0.12561890  1
  In  In9  1  0.33392459  0.48451134  0.62059627  1
  In  In10  1  0.33737836  0.84129533  0.12101980  1
  In  In11  1  0.34825988  0.84288202  0.61957082  1
  In  In12  1  0.66706370  0.16783755  0.13435383  1
  In  In13  1  0.68211443  0.14657724  0.64254897  1
  In  In14  1  0.68268814  0.49490661  0.14425377  1
  In  In15  1  0.65859528  0.49823124  0.61740318  1
  In  In16  1  0.65810671  0.84037465  0.13506208  1
  In  In17  1  0.67161137  0.84249705  0.61464079  1
  In  In18  1  0.17708391  0.00790572  0.36631410  1
  In  In19  1  0.16763044  0.00104646  0.87947791  1
  In  In20  1  0.15320112  0.32202863  0.36689794  1
  In  In21  1  0.16650086  0.32652531  0.87680906  1
  In  In22  1  0.16422184  0.66718897  0.37243757  1
  In  In23  1  0.16213476  0.66756511  0.89135458  1
  In  In24  1  0.49049110  -0.00781038  0.37299966  1
  In  In25  1  0.49383815  -0.00749265  0.86632150  1
  In  In26  1  0.50944458  0.33645033  0.37407683  1
  In  In27  1  0.48105078  0.31339905  0.84906623  1
  In  In28  1  0.50346542  0.65254524  0.38882635  1
  In  In29  1  0.51315277  0.67724579  0.87945746  1
  In  In30  1  0.83178607  0.00264114  0.37525013  1
  In  In31  1  0.84093576  0.01445397  0.85516666  1
  In  In32  1  0.82422917  0.32720574  0.37095916  1
  In  In33  1  0.82588161  0.31559889  0.86147506  1
  In  In34  1  0.84097701  0.68998421  0.37728794  1
  In  In35  1  0.82574127  0.66672002  0.87309267  1
  In  In36  1  -0.00050032  0.16451440  0.37660737  1
  In  In37  1  0.00395174  0.17193031  0.87042359  1
  In  In38  1  0.00771525  0.49949922  0.37190094  1
  In  In39  1  0.01463997  0.48840576  0.88335070  1
  In  In40  1  -0.02001235  0.83458424  0.37697411  1
  In  In41  1  0.00148811  0.84317821  0.87941114  1
  In  In42  1  0.32630629  0.16122153  0.37072769  1
  In  In43  1  0.32496900  0.15035276  0.86282467  1
  In  In44  1  0.35087136  0.49754056  0.37817460  1
  In  In45  1  0.32584415  0.48869977  0.87669670  1
  In  In46  1  0.32749193  0.84170142  0.37713603  1
  In  In47  1  0.32542789  0.84411090  0.88272332  1
  In  In48  1  0.67533615  0.17524729  0.37338326  1
  In  In49  1  0.65477547  0.15669538  0.85200681  1
  In  In50  1  0.66156755  0.48744765  0.36889676  1
  In  In51  1  0.67111052  0.49120406  0.88013566  1
  In  In52  1  0.66602607  0.83886023  0.37407609  1
  In  In53  1  0.65617507  0.83585316  0.87999091  1
  In  In54  1  0.16621026  0.00730178  0.12141714  1
  In  In55  1  0.15274103  0.01534730  0.63543365  1
  In  In56  1  0.16348939  0.32848023  0.12490006  1
  In  In57  1  0.17916704  0.32386451  0.63015765  1
  In  In58  1  0.16138537  0.66940850  0.11006012  1
  In  In59  1  0.16753800  0.66820661  0.62692842  1
  In  In60  1  0.50434091  -0.00505392  0.13173055  1
  In  In61  1  0.50805076  -0.00347123  0.62988987  1
  In  In62  1  0.50073409  0.33110401  0.13235883  1
  In  In63  1  0.49823025  0.32981401  0.62985900  1
  In  In64  1  0.50244305  0.67933103  0.12845096  1
  In  In65  1  0.50129753  0.67278840  0.60550833  1
  In  In66  1  0.83498275  -0.00107286  0.13262468  1
  In  In67  1  0.83606794  0.00546816  0.62132790  1
  In  In68  1  0.84119323  0.33309190  0.13491379  1
  In  In69  1  0.85007622  0.30830420  0.63979848  1
  In  In70  1  0.83195332  0.65126164  0.13568708  1
  In  In71  1  0.82429008  0.66803489  0.61643795  1
  In  In72  1  0.49920748  0.50212182  0.00168493  1
  In  In73  1  0.83797452  0.83317822  0.00101647  1
  In  In74  1  0.83943629  0.49703436  0.00884097  1
  In  In75  1  0.66512280  0.66430291  0.74489342  1
  In  In76  1  0.17250824  0.49948579  0.49269827  1
  In  In77  1  0.33248460  0.66657129  0.74884152  1
  In  In78  1  0.16356953  0.83526634  0.49817866  1
  In  In79  1  0.33497803  0.66605514  0.24898908  1
  In  In80  1  0.82957770  0.49955528  0.49705236  1
  In  In81  1  -0.00097562  0.66750840  0.75357789  1
  In  In82  1  0.49332248  0.15928559  -0.01200042  1
  In  In83  1  0.50601252  0.16507049  0.50819990  1
  In  In84  1  0.83631807  0.16568349  -0.00982692  1
  In  In85  1  -0.00219399  0.67044186  0.24811513  1
  Cu  Cu86  1  0.16783144  0.84442266  0.24448146  1
  Cu  Cu87  1  0.66297924  0.67288544  0.01040177  1
  Cu  Cu88  1  0.16720584  0.48751905  0.24716967  1
  Cu  Cu89  1  0.50026569  0.83720442  0.74846464  1
  Cu  Cu90  1  0.16536585  0.16617826  0.75171052  1
  Cu  Cu91  1  0.33404940  -0.00028958  -0.00118003  1
  Cu  Cu92  1  0.83862001  0.48828464  0.75017074  1
  Cu  Cu93  1  0.17258206  0.84740597  0.75554638  1
  Cu  Cu94  1  0.00226227  0.33032138  -0.00009977  1
  Cu  Cu95  1  0.82974996  0.84167082  0.25123951  1
  Cu  Cu96  1  0.67272996  -0.00607286  0.00223720  1
  Cu  Cu97  1  0.65855515  0.33058329  -0.00168363  1
  Cu  Cu98  1  0.67030837  0.33352053  0.49918493  1
  Cu  Cu99  1  0.33616508  0.32785125  0.50308491  1
  Cu  Cu100  1  -0.00347909  0.00458512  0.49898800  1
  Cu  Cu101  1  0.66842684  0.67512781  0.49295746  1
  Cu  Cu102  1  0.50133892  0.83192188  0.25406291  1
  Cu  Cu103  1  0.16273793  0.49060792  0.75329108  1
  Cu  Cu104  1  0.00309477  0.32499336  0.50049511  1
  Cu  Cu105  1  0.49555293  0.50060003  0.74490518  1
  Cu  Cu106  1  0.83370713  0.83998261  0.74123910  1
  Cu  Cu107  1  0.33737861  0.66898696  0.00554022  1
  Cu  Cu108  1  0.32687698  0.00490908  0.49744805  1
  Cu  Cu109  1  0.50018614  0.16386747  0.25537676  1
  Cu  Cu110  1  0.66617244  -0.00118000  0.50060021  1
  Cu  Cu111  1  0.83560263  0.16711332  0.25395531  1
  Cu  Cu112  1  0.16254124  0.16802369  0.24745794  1
  Cu  Cu113  1  0.31908524  0.33047164  -0.00002980  1
  Cu  Cu114  1  0.50464452  0.49414463  0.25392972  1
  Se  Se115  1  0.08689436  0.08955479  0.05016087  1
  Se  Se116  1  0.08648844  0.08294082  0.55079152  1
  Se  Se117  1  0.08302471  0.41449306  0.05458630  1
  Se  Se118  1  0.08447563  0.40944300  0.55696197  1
  Se  Se119  1  0.08193121  0.75713460  0.04627676  1
  Se  Se120  1  0.07490097  0.74528865  0.56109172  1
  Se  Se121  1  0.41306865  0.07932576  0.06149062  1
  Se  Se122  1  0.40749706  0.07814581  0.56268120  1
  Se  Se123  1  0.40841522  0.40568919  0.05755678  1
  Se  Se124  1  0.42326520  0.41016125  0.55243158  1
  Se  Se125  1  0.42112131  0.75339153  0.05558828  1
  Se  Se126  1  0.40859358  0.75326269  0.54713882  1
  Se  Se127  1  0.74645978  0.08180093  0.05890399  1
  Se  Se128  1  0.74583620  0.08572301  0.55424287  1
  Se  Se129  1  0.74034787  0.40537115  0.05985776  1
  Se  Se130  1  0.75517492  0.40591475  0.56384951  1
  Se  Se131  1  0.75047278  0.74786349  0.06760737  1
  Se  Se132  1  0.75244253  0.75591006  0.54721784  1
  Se  Se133  1  0.24339075  0.24294461  0.05466267  1
  Se  Se134  1  0.24963804  0.24492192  0.55258480  1
  Se  Se135  1  0.25177058  0.58138340  0.05134716  1
  Se  Se136  1  0.25663188  0.58832760  0.55957065  1
  Se  Se137  1  0.24951239  0.91892535  0.05427335  1
  Se  Se138  1  0.24602299  0.92747049  0.56206256  1
  Se  Se139  1  0.58118126  0.24639276  0.05675627  1
  Se  Se140  1  0.59842062  0.25265853  0.56540425  1
  Se  Se141  1  0.59180380  0.58120809  0.06805178  1
  Se  Se142  1  0.58981309  0.58586823  0.54534396  1
  Se  Se143  1  0.58538059  0.91754747  0.05710467  1
  Se  Se144  1  0.57647455  0.91822156  0.55067656  1
  Se  Se145  1  0.91882973  0.25179410  0.05930259  1
  Se  Se146  1  0.91574833  0.24523005  0.55329269  1
  Se  Se147  1  0.92766311  0.59806165  0.05835740  1
  Se  Se148  1  0.92530315  0.58772176  0.55646043  1
  Se  Se149  1  0.92295610  0.93216656  0.05538641  1
  Se  Se150  1  0.91514276  0.91810512  0.55082666  1
  Se  Se151  1  0.08775345  0.24383401  0.44671014  1
  Se  Se152  1  0.08329862  0.24479061  0.94678172  1
  Se  Se153  1  0.07366923  0.59486497  0.44492618  1
  Se  Se154  1  0.07800607  0.58026731  0.95244732  1
  Se  Se155  1  0.07754689  0.92593600  0.43589071  1
  Se  Se156  1  0.09712465  0.90560114  0.94656847  1
  Se  Se157  1  0.41678847  0.24812484  0.44091835  1
  Se  Se158  1  0.40319516  0.25747604  0.93701212  1
  Se  Se159  1  0.40958681  0.58160783  0.45502818  1
  Se  Se160  1  0.41127217  0.59204912  0.93758266  1
  Se  Se161  1  0.41092580  0.91839182  0.44913959  1
  Se  Se162  1  0.42238696  0.91921155  0.94649256  1
  Se  Se163  1  0.75487442  0.24852637  0.44952244  1
  Se  Se164  1  0.73236572  0.24726073  0.93664572  1
  Se  Se165  1  0.74612147  0.59048593  0.43345338  1
  Se  Se166  1  0.74083043  0.59068227  0.95033477  1
  Se  Se167  1  0.75071933  0.91777636  0.44510946  1
  Se  Se168  1  0.75450619  0.92444031  0.93584517  1
  Se  Se169  1  0.24398805  0.08788570  0.44560565  1
  Se  Se170  1  0.25373309  0.08668657  0.94648692  1
  Se  Se171  1  0.25718338  0.40181270  0.43599303  1
  Se  Se172  1  0.23964591  0.41854590  0.94824692  1
  Se  Se173  1  0.25493158  0.73963647  0.44281328  1
  Se  Se174  1  0.25432419  0.75149938  0.95036851  1
  Se  Se175  1  0.58703491  0.07889386  0.43854993  1
  Se  Se176  1  0.59547442  0.07300621  0.93767565  1
  Se  Se177  1  0.58513458  0.41694411  0.44882155  1
  Se  Se178  1  0.57453604  0.40480513  0.93743983  1
  Se  Se179  1  0.58013405  0.75697243  0.44329383  1
  Se  Se180  1  0.58254598  0.75677049  0.95631773  1
  Se  Se181  1  0.91176899  0.08700159  0.44589509  1
  Se  Se182  1  0.92653546  0.07083765  0.93789665  1
  Se  Se183  1  0.92601489  0.40941529  0.44123963  1
  Se  Se184  1  0.91174809  0.40045022  0.93975165  1
  Se  Se185  1  0.92047005  0.75302620  0.45593100  1
  Se  Se186  1  0.92128473  0.73821288  0.93917594  1
  Se  Se187  1  0.24865752  0.24903718  0.30193092  1
  Se  Se188  1  0.25018476  0.25096990  0.80394264  1
  Se  Se189  1  0.24453353  0.57115983  0.30818613  1
  Se  Se190  1  0.23748973  0.58143496  0.81025659  1
  Se  Se191  1  0.25676494  0.91889142  0.29944278  1
  Se  Se192  1  0.25920628  0.92775596  0.80679813  1
  Se  Se193  1  0.58579368  0.25001439  0.30436920  1
  Se  Se194  1  0.60449174  0.27580812  0.79992806  1
  Se  Se195  1  0.57880801  0.58347358  0.30910691  1
  Se  Se196  1  0.57637813  0.57451446  0.80957814  1
  Se  Se197  1  0.58269856  0.92081710  0.30423924  1
  Se  Se198  1  0.58894903  0.91513361  0.80196426  1
  Se  Se199  1  0.91906112  0.25066389  0.30725600  1
  Se  Se200  1  0.90891449  0.23156311  0.79846668  1
  Se  Se201  1  0.91107983  0.58431010  0.31227858  1
  Se  Se202  1  0.91148497  0.57150781  0.81297620  1
  Se  Se203  1  0.91668017  0.92274524  0.30284377  1
  Se  Se204  1  0.91974847  0.91024770  0.80217105  1
  Se  Se205  1  0.08184961  0.08439426  0.30393020  1
  Se  Se206  1  0.08653406  0.08122219  0.80742128  1
  Se  Se207  1  0.07634149  0.41274865  0.29948525  1
  Se  Se208  1  0.08014144  0.40731820  0.80626028  1
  Se  Se209  1  0.08890078  0.76449858  0.30691214  1
  Se  Se210  1  0.09621566  0.75453275  0.80945157  1
  Se  Se211  1  0.41320866  0.08004347  0.30436534  1
  Se  Se212  1  0.44482763  0.10699401  0.80848965  1
  Se  Se213  1  0.41818725  0.41146174  0.30446117  1
  Se  Se214  1  0.40814673  0.42367963  0.79942719  1
  Se  Se215  1  0.42045403  0.75137400  0.31448786  1
  Se  Se216  1  0.42293690  0.75618998  0.81028495  1
  Se  Se217  1  0.74888135  0.08426309  0.30493723  1
  Se  Se218  1  0.74454003  0.07846155  0.78924939  1
  Se  Se219  1  0.75436541  0.41835415  0.30239692  1
  Se  Se220  1  0.74761702  0.41702765  0.80495735  1
  Se  Se221  1  0.75098382  0.75560575  0.30496724  1
  Se  Se222  1  0.75368748  0.76053353  0.80327994  1
  Se  Se223  1  0.24832085  0.08376304  0.19577305  1
  Se  Se224  1  0.25256875  0.08413021  0.69909078  1
  Se  Se225  1  0.25316721  0.40678750  0.19519609  1
  Se  Se226  1  0.25229097  0.41765101  0.69754786  1
  Se  Se227  1  0.24133217  0.75215073  0.18827983  1
  Se  Se228  1  0.24549908  0.76453931  0.69165404  1
  Se  Se229  1  0.58352120  0.08244592  0.19905631  1
  Se  Se230  1  0.56706795  0.09459745  0.69810837  1
  Se  Se231  1  0.58703095  0.41014421  0.20000876  1
  Se  Se232  1  0.58293091  0.42208617  0.69236274  1
  Se  Se233  1  0.58585716  0.74709726  0.20376077  1
  Se  Se234  1  0.57613798  0.75516060  0.68588112  1
  Se  Se235  1  0.91738249  0.08570545  0.19718103  1
  Se  Se236  1  0.92426908  0.07744729  0.69145551  1
  Se  Se237  1  0.89998273  0.44204622  0.19415483  1
  Se  Se238  1  0.92665603  0.40609289  0.70195136  1
  Se  Se239  1  0.91125892  0.76467208  0.18703515  1
  Se  Se240  1  0.91234523  0.75266906  0.68644473  1
  Se  Se241  1  0.07715496  0.25402045  0.19712884  1
  Se  Se242  1  0.08520844  0.24723981  0.69295844  1
  Se  Se243  1  0.09398852  0.58046086  0.19053107  1
  Se  Se244  1  0.08644972  0.57239998  0.69173583  1
  Se  Se245  1  0.08176645  0.92590137  0.19360910  1
  Se  Se246  1  0.08019160  0.92153339  0.70323425  1
  Se  Se247  1  0.41833332  0.24782877  0.19936734  1
  Se  Se248  1  0.41051674  0.25874066  0.70008476  1
  Se  Se249  1  0.42576871  0.57253367  0.18962261  1
  Se  Se250  1  0.42369715  0.58506762  0.68345503  1
  Se  Se251  1  0.41700611  0.91203531  0.19802691  1
  Se  Se252  1  0.41456831  0.92115360  0.69844668  1
  Se  Se253  1  0.75275966  0.25109582  0.19899598  1
  Se  Se254  1  0.73351487  0.26431655  0.69631282  1
  Se  Se255  1  0.73934211  0.59803229  0.20911875  1
  Se  Se256  1  0.76079338  0.57107092  0.69031689  1
  Se  Se257  1  0.74404329  0.92486612  0.19974015  1
  Se  Se258  1  0.74810770  0.92003675  0.68872058  1
