# generated using pymatgen
data_In86Cu29Se144
_symmetry_space_group_name_H-M   'P 1'
_cell_length_a   17.57918601
_cell_length_b   17.58154328
_cell_length_c   23.44353434
_cell_angle_alpha   90.00706461
_cell_angle_beta   90.03748027
_cell_angle_gamma   90.00896270
_symmetry_Int_Tables_number   1
_chemical_formula_structural   In86Cu29Se144
_chemical_formula_sum   'In86 Cu29 Se144'
_cell_volume   7245.67316982
_cell_formula_units_Z   1
loop_
 _symmetry_equiv_pos_site_id
 _symmetry_equiv_pos_as_xyz
  1  'x, y, z'
loop_
 _atom_site_type_symbol
 _atom_site_label
 _atom_site_symmetry_multiplicity
 _atom_site_fract_x
 _atom_site_fract_y
 _atom_site_fract_z
 _atom_site_occupancy
  In  In0  1  0.01037291  0.15846837  0.12736021  1
  In  In1  1  0.01585864  0.15061065  0.63366615  1
  In  In2  1  0.00689271  0.51244648  0.12407024  1
  In  In3  1  -0.00848804  0.49913641  0.62581736  1
  In  In4  1  0.00493675  0.83685869  0.12674698  1
  In  In5  1  0.00926537  0.82944030  0.62739273  1
  In  In6  1  0.31591212  0.15868553  0.12078041  1
  In  In7  1  0.32936459  0.16753262  0.61966372  1
  In  In8  1  0.34788514  0.49349327  0.12604366  1
  In  In9  1  0.33870429  0.48301829  0.61952111  1
  In  In10  1  0.33497565  0.83983699  0.13620173  1
  In  In11  1  0.33539700  0.83734691  0.62268929  1
  In  In12  1  0.66909855  0.16759980  0.13908231  1
  In  In13  1  0.64927601  0.17038291  0.61207449  1
  In  In14  1  0.64800299  0.52090504  0.14348327  1
  In  In15  1  0.64868987  0.46388161  0.59300305  1
  In  In16  1  0.65342469  0.83952374  0.14419805  1
  In  In17  1  0.64852911  0.84031496  0.61700909  1
  In  In18  1  0.16625610  -0.00016659  0.37609368  1
  In  In19  1  0.17346153  -0.00357758  0.87700714  1
  In  In20  1  0.17046500  0.32437977  0.38499726  1
  In  In21  1  0.16013257  0.32204082  0.86228409  1
  In  In22  1  0.18511021  0.68348209  0.36429585  1
  In  In23  1  0.16429732  0.68469809  0.87326529  1
  In  In24  1  0.49573318  0.00113882  0.37368404  1
  In  In25  1  0.47515169  -0.00665919  0.87174809  1
  In  In26  1  0.52209064  0.31690038  0.39585527  1
  In  In27  1  0.50318706  0.33751510  0.87311046  1
  In  In28  1  0.49858275  0.67428523  0.36943379  1
  In  In29  1  0.48971981  0.66879176  0.88863200  1
  In  In30  1  0.82711081  -0.00580857  0.36605432  1
  In  In31  1  0.84423442  -0.01364464  0.87622221  1
  In  In32  1  0.82767716  0.35168633  0.38908281  1
  In  In33  1  0.83651076  0.32656415  0.87018031  1
  In  In34  1  0.82475034  0.66028710  0.36650222  1
  In  In35  1  0.83528339  0.66004913  0.87737353  1
  In  In36  1  0.00886603  0.16181485  0.37978250  1
  In  In37  1  0.00724659  0.16538933  0.86870330  1
  In  In38  1  -0.00541268  0.50463046  0.37989106  1
  In  In39  1  0.00466927  0.50328927  0.86094284  1
  In  In40  1  0.00868564  0.84275715  0.36879778  1
  In  In41  1  0.04218699  0.86223566  0.83859591  1
  In  In42  1  0.35704256  0.15288821  0.39675180  1
  In  In43  1  0.32028801  0.14162572  0.85775103  1
  In  In44  1  0.33951245  0.51043604  0.37517220  1
  In  In45  1  0.34709528  0.50363843  0.87349971  1
  In  In46  1  0.33658293  0.83537483  0.37343597  1
  In  In47  1  0.31726019  0.84498565  0.89311741  1
  In  In48  1  0.65158332  0.15583080  0.36588699  1
  In  In49  1  0.66385653  0.17129197  0.87507258  1
  In  In50  1  0.66501226  0.50019456  0.37736254  1
  In  In51  1  0.65208128  0.49292579  0.87923423  1
  In  In52  1  0.65238497  0.83637244  0.36461328  1
  In  In53  1  0.66176408  0.82376929  0.88287609  1
  In  In54  1  0.16662061  0.00044515  0.12793172  1
  In  In55  1  0.16754625  -0.00097839  0.62342597  1
  In  In56  1  0.17827598  0.32134064  0.12107245  1
  In  In57  1  0.18889027  0.31481385  0.63771464  1
  In  In58  1  0.15158858  0.68165047  0.13427274  1
  In  In59  1  0.15549657  0.66970313  0.62718748  1
  In  In60  1  0.50394624  -0.01243322  0.14270503  1
  In  In61  1  0.49230238  -0.00961110  0.61583700  1
  In  In62  1  0.49898693  0.34304278  0.12766487  1
  In  In63  1  0.46494366  0.30565997  0.56857458  1
  In  In64  1  0.49613229  0.67099309  0.13729432  1
  In  In65  1  0.50019670  0.66743649  0.61671932  1
  In  In66  1  0.83835660  -0.00020837  0.13348533  1
  In  In67  1  0.83608144  0.00773941  0.62249836  1
  In  In68  1  0.82663380  0.32248930  0.12667565  1
  In  In69  1  0.82673521  0.34042761  0.62171958  1
  In  In70  1  0.83086293  0.66995644  0.13335737  1
  In  In71  1  0.84180311  0.65956549  0.61888393  1
  In  In72  1  0.83998846  0.82993685  0.00732809  1
  In  In73  1  0.82628038  0.83113475  0.48445840  1
  In  In74  1  0.32653126  0.67256616  0.75184373  1
  In  In75  1  0.16783389  0.50306654  0.50664660  1
  In  In76  1  0.49406430  0.16250414  -0.00498683  1
  In  In77  1  0.83191701  0.16762508  0.50429058  1
  In  In78  1  0.17562542  0.50081242  0.00134100  1
  In  In79  1  0.82282916  0.49852770  -0.00223090  1
  In  In80  1  0.67515547  0.66045781  0.74470922  1
  In  In81  1  0.66919917  0.00271095  0.74041705  1
  In  In82  1  0.66473074  0.33434195  0.74408611  1
  In  In83  1  0.83538998  0.16513041  -0.00909957  1
  In  In84  1  0.33585449  0.33342019  0.25546860  1
  In  In85  1  -0.00498619  0.33674976  0.25885902  1
  Cu  Cu86  1  0.83437677  0.49856932  0.25458527  1
  Cu  Cu87  1  0.33400822  -0.00858097  0.00560910  1
  Cu  Cu88  1  0.16616194  0.83799973  0.25148161  1
  Cu  Cu89  1  0.83591418  0.50096794  0.74212351  1
  Cu  Cu90  1  0.17348230  0.16393198  0.74822558  1
  Cu  Cu91  1  0.65313841  0.34499734  0.00753237  1
  Cu  Cu92  1  0.49534499  0.83945638  0.75204362  1
  Cu  Cu93  1  0.33712471  0.66738228  0.01145034  1
  Cu  Cu94  1  0.83861344  0.83620701  0.24961987  1
  Cu  Cu95  1  0.50269091  0.49610490  0.25780936  1
  Cu  Cu96  1  0.67110715  0.66784277  0.48986705  1
  Cu  Cu97  1  0.82959134  0.17185163  0.25548650  1
  Cu  Cu98  1  0.84332599  0.82693524  0.74404142  1
  Cu  Cu99  1  0.33472896  0.67628168  0.49629573  1
  Cu  Cu100  1  0.00649604  0.66967551  0.49915869  1
  Cu  Cu101  1  0.64634518  0.66968243  0.01186379  1
  Cu  Cu102  1  0.83785518  0.16559705  0.74926818  1
  Cu  Cu103  1  0.01015368  0.32856978  0.50798338  1
  Cu  Cu104  1  0.00277775  -0.00691433  0.50158117  1
  Cu  Cu105  1  0.33357762  0.32726235  -0.00571728  1
  Cu  Cu106  1  0.16643529  0.49720957  0.74219382  1
  Cu  Cu107  1  0.49202292  0.16860541  0.25683002  1
  Cu  Cu108  1  0.16961769  0.15886785  0.25517342  1
  Cu  Cu109  1  0.66040238  -0.00082637  0.01052967  1
  Cu  Cu110  1  0.00157146  0.67632726  -0.00367457  1
  Cu  Cu111  1  0.32949949  -0.00354676  0.49862233  1
  Cu  Cu112  1  0.16472900  0.50590161  0.25172585  1
  Cu  Cu113  1  0.50216327  0.50171635  0.74623421  1
  Cu  Cu114  1  0.00665538  0.32978182  -0.00784864  1
  Se  Se115  1  0.09915706  0.09402972  0.05685857  1
  Se  Se116  1  0.08455651  0.08093932  0.55126998  1
  Se  Se117  1  0.07848703  0.40841440  0.05931222  1
  Se  Se118  1  0.08842370  0.40819010  0.56928637  1
  Se  Se119  1  0.08343141  0.75555588  0.05322682  1
  Se  Se120  1  0.08777996  0.75407484  0.55126695  1
  Se  Se121  1  0.41680676  0.07258159  0.06409849  1
  Se  Se122  1  0.41226722  0.08118072  0.55114669  1
  Se  Se123  1  0.41345478  0.40795149  0.05094615  1
  Se  Se124  1  0.43733375  0.44812984  0.54434586  1
  Se  Se125  1  0.41502214  0.75228595  0.06654893  1
  Se  Se126  1  0.41958715  0.75641173  0.55326727  1
  Se  Se127  1  0.74547346  0.08304631  0.06065253  1
  Se  Se128  1  0.73537306  0.07147190  0.55381508  1
  Se  Se129  1  0.73901394  0.41829866  0.06770610  1
  Se  Se130  1  0.76623243  0.41329587  0.53895174  1
  Se  Se131  1  0.73936310  0.74720403  0.06387860  1
  Se  Se132  1  0.74507422  0.74742804  0.55799309  1
  Se  Se133  1  0.24842124  0.24353721  0.04444157  1
  Se  Se134  1  0.24581121  0.25104250  0.55026794  1
  Se  Se135  1  0.25255199  0.58884106  0.07086672  1
  Se  Se136  1  0.26107510  0.59629909  0.56362841  1
  Se  Se137  1  0.25016700  0.91276789  0.06177783  1
  Se  Se138  1  0.24734119  0.91368540  0.55354008  1
  Se  Se139  1  0.58557720  0.24802260  0.06169331  1
  Se  Se140  1  0.61006299  0.28341361  0.55040704  1
  Se  Se141  1  0.56857523  0.58004511  0.06263074  1
  Se  Se142  1  0.59342388  0.59124226  0.55321662  1
  Se  Se143  1  0.58147956  0.91422677  0.06486690  1
  Se  Se144  1  0.58021162  0.92033805  0.54344748  1
  Se  Se145  1  0.92315741  0.25503419  0.05555280  1
  Se  Se146  1  0.92792414  0.24819885  0.56679294  1
  Se  Se147  1  0.91873466  0.59288002  0.05299039  1
  Se  Se148  1  0.92377710  0.58113480  0.54727822  1
  Se  Se149  1  0.92665615  0.93239575  0.05761928  1
  Se  Se150  1  0.91437957  0.91353027  0.55477420  1
  Se  Se151  1  0.08620946  0.24298782  0.45210927  1
  Se  Se152  1  0.08825747  0.24595467  0.94083724  1
  Se  Se153  1  0.09102568  0.59387863  0.43732158  1
  Se  Se154  1  0.07765910  0.58458111  0.94136090  1
  Se  Se155  1  0.08663059  0.91279344  0.44671536  1
  Se  Se156  1  0.08640550  0.90547060  0.93676348  1
  Se  Se157  1  0.40720395  0.26705611  0.45487811  1
  Se  Se158  1  0.40719406  0.24720638  0.93054079  1
  Se  Se159  1  0.41878086  0.59353727  0.44451006  1
  Se  Se160  1  0.41216082  0.57937701  0.95528733  1
  Se  Se161  1  0.41619296  0.91690629  0.44516969  1
  Se  Se162  1  0.42313107  0.91121460  0.95435118  1
  Se  Se163  1  0.74412871  0.24407901  0.43502702  1
  Se  Se164  1  0.73669829  0.26825124  0.94630254  1
  Se  Se165  1  0.75660459  0.58111512  0.44432592  1
  Se  Se166  1  0.72764570  0.59639350  0.94515927  1
  Se  Se167  1  0.73289419  0.92819330  0.43786700  1
  Se  Se168  1  0.74287440  0.92246060  0.94750130  1
  Se  Se169  1  0.24562522  0.08372834  0.44779412  1
  Se  Se170  1  0.26005089  0.07816237  0.94606631  1
  Se  Se171  1  0.25822773  0.41774493  0.44388278  1
  Se  Se172  1  0.25345918  0.41015391  0.93411658  1
  Se  Se173  1  0.24880967  0.75853074  0.44615030  1
  Se  Se174  1  0.24958423  0.74057813  0.95313092  1
  Se  Se175  1  0.55869743  0.10267669  0.44095033  1
  Se  Se176  1  0.58835074  0.07093545  0.93856605  1
  Se  Se177  1  0.57488284  0.43304479  0.44951613  1
  Se  Se178  1  0.56781220  0.42192960  0.95196577  1
  Se  Se179  1  0.58552717  0.75206446  0.44096748  1
  Se  Se180  1  0.57203987  0.75647626  0.95393562  1
  Se  Se181  1  0.91692475  0.07090072  0.44298188  1
  Se  Se182  1  0.93149900  0.07190563  0.94184001  1
  Se  Se183  1  0.93137939  0.41338206  0.45275919  1
  Se  Se184  1  0.92298276  0.41352770  0.93899153  1
  Se  Se185  1  0.92539345  0.74211205  0.43317215  1
  Se  Se186  1  0.92285199  0.75332762  0.93473690  1
  Se  Se187  1  0.25090110  0.23906873  0.31490589  1
  Se  Se188  1  0.25874931  0.25148326  0.79845671  1
  Se  Se189  1  0.25584271  0.58300756  0.30170578  1
  Se  Se190  1  0.24017032  0.57524054  0.81103658  1
  Se  Se191  1  0.24911637  0.91938285  0.30635978  1
  Se  Se192  1  0.26169405  0.91607800  0.80910695  1
  Se  Se193  1  0.57702380  0.25669385  0.30397921  1
  Se  Se194  1  0.57506645  0.24069544  0.80251990  1
  Se  Se195  1  0.58541812  0.58399122  0.30701386  1
  Se  Se196  1  0.57518550  0.58406134  0.80967848  1
  Se  Se197  1  0.56811471  0.91875266  0.29774468  1
  Se  Se198  1  0.58603586  0.91270504  0.80973705  1
  Se  Se199  1  0.90764176  0.24749880  0.32064298  1
  Se  Se200  1  0.92049350  0.24963387  0.80196153  1
  Se  Se201  1  0.92132801  0.58223488  0.30377891  1
  Se  Se202  1  0.91102969  0.58541250  0.80081684  1
  Se  Se203  1  0.92150595  0.92226922  0.30078448  1
  Se  Se204  1  0.91756151  0.92006145  0.79526114  1
  Se  Se205  1  0.07866146  0.07930500  0.30476657  1
  Se  Se206  1  0.09289692  0.08067971  0.80457859  1
  Se  Se207  1  0.09463000  0.42212841  0.31486672  1
  Se  Se208  1  0.08237714  0.41317233  0.79639858  1
  Se  Se209  1  0.08200199  0.74964061  0.30155668  1
  Se  Se210  1  0.06991015  0.72969236  0.79758834  1
  Se  Se211  1  0.40662735  0.08593012  0.30658905  1
  Se  Se212  1  0.43245611  0.08994942  0.79789061  1
  Se  Se213  1  0.42896784  0.41168470  0.31935672  1
  Se  Se214  1  0.42117811  0.41829053  0.80214678  1
  Se  Se215  1  0.40547196  0.74554043  0.30189584  1
  Se  Se216  1  0.41998008  0.75632948  0.81319918  1
  Se  Se217  1  0.74535489  0.08128624  0.30064354  1
  Se  Se218  1  0.75797539  0.08640071  0.81189782  1
  Se  Se219  1  0.75143951  0.41694296  0.30850947  1
  Se  Se220  1  0.75409050  0.42789438  0.80868551  1
  Se  Se221  1  0.75254685  0.75903587  0.30516758  1
  Se  Se222  1  0.75780634  0.75806170  0.80729651  1
  Se  Se223  1  0.25339104  0.07861699  0.20022226  1
  Se  Se224  1  0.25329128  0.08217831  0.69130619  1
  Se  Se225  1  0.24118063  0.42137007  0.19249677  1
  Se  Se226  1  0.26021223  0.41727018  0.69857228  1
  Se  Se227  1  0.24794016  0.75086037  0.20001295  1
  Se  Se228  1  0.23814074  0.76261551  0.69307093  1
  Se  Se229  1  0.57897985  0.08802230  0.20242070  1
  Se  Se230  1  0.57241528  0.08877884  0.68583272  1
  Se  Se231  1  0.58376223  0.41152968  0.20162362  1
  Se  Se232  1  0.57546590  0.42015031  0.68440331  1
  Se  Se233  1  0.60149856  0.72781099  0.20263122  1
  Se  Se234  1  0.57663635  0.75586597  0.69555128  1
  Se  Se235  1  0.91458638  0.09534519  0.19690263  1
  Se  Se236  1  0.91748110  0.07739804  0.69799853  1
  Se  Se237  1  0.91295276  0.42353771  0.18821825  1
  Se  Se238  1  0.91484796  0.40864140  0.69471801  1
  Se  Se239  1  0.92061708  0.75321281  0.19454663  1
  Se  Se240  1  0.92062641  0.74162398  0.68933375  1
  Se  Se241  1  0.09245940  0.25023664  0.19966162  1
  Se  Se242  1  0.08487392  0.24826923  0.69955064  1
  Se  Se243  1  0.07740576  0.58759089  0.20164010  1
  Se  Se244  1  0.07959791  0.57941811  0.69336283  1
  Se  Se245  1  0.08185145  0.92104268  0.19809084  1
  Se  Se246  1  0.07276053  0.92872401  0.69198316  1
  Se  Se247  1  0.41556646  0.24132909  0.18656736  1
  Se  Se248  1  0.42066288  0.26636528  0.66829884  1
  Se  Se249  1  0.41709703  0.57399456  0.20151782  1
  Se  Se250  1  0.41902717  0.58416126  0.69046413  1
  Se  Se251  1  0.42788384  0.90096087  0.21160106  1
  Se  Se252  1  0.41537650  0.91915788  0.69468224  1
  Se  Se253  1  0.74696945  0.25875485  0.20535648  1
  Se  Se254  1  0.75301769  0.23644731  0.68683587  1
  Se  Se255  1  0.75257628  0.58659847  0.20355554  1
  Se  Se256  1  0.74995107  0.56783852  0.67878448  1
  Se  Se257  1  0.75162753  0.92191850  0.20072422  1
  Se  Se258  1  0.75710684  0.90259360  0.68465971  1
