# generated using pymatgen
data_In86Cu29Se144
_symmetry_space_group_name_H-M   'P 1'
_cell_length_a   17.58414187
_cell_length_b   17.58582304
_cell_length_c   23.44333383
_cell_angle_alpha   89.99287977
_cell_angle_beta   89.99099938
_cell_angle_gamma   90.01484745
_symmetry_Int_Tables_number   1
_chemical_formula_structural   In86Cu29Se144
_chemical_formula_sum   'In86 Cu29 Se144'
_cell_volume   7249.41941068
_cell_formula_units_Z   1
loop_
 _symmetry_equiv_pos_site_id
 _symmetry_equiv_pos_as_xyz
  1  'x, y, z'
loop_
 _atom_site_type_symbol
 _atom_site_label
 _atom_site_symmetry_multiplicity
 _atom_site_fract_x
 _atom_site_fract_y
 _atom_site_fract_z
 _atom_site_occupancy
  In  In0  1  0.00886736  0.17624101  0.11940890  1
  In  In1  1  0.00151478  0.17158766  0.61777285  1
  In  In2  1  -0.00173537  0.49407297  0.12585618  1
  In  In3  1  0.00105513  0.51020301  0.62434779  1
  In  In4  1  0.00793788  0.81708373  0.13005296  1
  In  In5  1  -0.00258148  0.82669700  0.62672106  1
  In  In6  1  0.33165996  0.15821043  0.12055171  1
  In  In7  1  0.33565564  0.17889257  0.62553769  1
  In  In8  1  0.34462809  0.51411027  0.12035919  1
  In  In9  1  0.33236581  0.49777568  0.62542044  1
  In  In10  1  0.33104236  0.82960380  0.12573208  1
  In  In11  1  0.33814438  0.82069484  0.62146883  1
  In  In12  1  0.65970635  0.16190810  0.11185438  1
  In  In13  1  0.66175187  0.15370914  0.62390665  1
  In  In14  1  0.67642881  0.51100451  0.11870465  1
  In  In15  1  0.66813779  0.49658370  0.61888287  1
  In  In16  1  0.65827836  0.83916040  0.13230559  1
  In  In17  1  0.66131003  0.84786064  0.62592699  1
  In  In18  1  0.17789766  -0.00209620  0.37221451  1
  In  In19  1  0.17227778  -0.00609403  0.88475811  1
  In  In20  1  0.15126551  0.34112864  0.37216206  1
  In  In21  1  0.17920894  0.32444617  0.88306824  1
  In  In22  1  0.16809114  0.67662770  0.35637784  1
  In  In23  1  0.15939267  0.67185856  0.88328728  1
  In  In24  1  0.48554542  -0.00666707  0.36430372  1
  In  In25  1  0.50417374  -0.00712511  0.87780308  1
  In  In26  1  0.51374910  0.33788054  0.37486187  1
  In  In27  1  0.49030609  0.34360849  0.88411508  1
  In  In28  1  0.49745221  0.66617823  0.38005606  1
  In  In29  1  0.50002556  0.66513277  0.88608594  1
  In  In30  1  0.83083192  0.01462489  0.37131226  1
  In  In31  1  0.83016835  0.01253058  0.87727346  1
  In  In32  1  0.83747346  0.33298103  0.37739491  1
  In  In33  1  0.81999163  0.33706848  0.89038381  1
  In  In34  1  0.81996502  0.65501605  0.36092370  1
  In  In35  1  0.83403090  0.65308664  0.87934484  1
  In  In36  1  -0.00912178  0.17892794  0.37822825  1
  In  In37  1  -0.00425432  0.17058342  0.88476602  1
  In  In38  1  -0.00763269  0.49792490  0.36063501  1
  In  In39  1  -0.00755755  0.51026530  0.88092078  1
  In  In40  1  0.00973013  0.81806981  0.36886018  1
  In  In41  1  0.01414517  0.82523673  0.87682951  1
  In  In42  1  0.33532328  0.15367906  0.37183942  1
  In  In43  1  0.32891691  0.17201046  0.88013731  1
  In  In44  1  0.33823739  0.51561714  0.37467187  1
  In  In45  1  0.34316174  0.48740186  0.88447216  1
  In  In46  1  0.33460917  0.83826656  0.36940026  1
  In  In47  1  0.33148338  0.83311827  0.88221420  1
  In  In48  1  0.67614106  0.17212558  0.37025222  1
  In  In49  1  0.66970642  0.16209228  0.88249339  1
  In  In50  1  0.66023830  0.50669197  0.38071479  1
  In  In51  1  0.65901246  0.50186288  0.88996180  1
  In  In52  1  0.65081314  0.82474754  0.36388199  1
  In  In53  1  0.65218777  0.83483433  0.87795081  1
  In  In54  1  0.17818694  0.00763075  0.11981813  1
  In  In55  1  0.15195998  0.00238131  0.62443008  1
  In  In56  1  0.15834082  0.32758204  0.12156434  1
  In  In57  1  0.18279111  0.33560820  0.62758571  1
  In  In58  1  0.17129296  0.66719503  0.12330134  1
  In  In59  1  0.16558677  0.65664199  0.62719426  1
  In  In60  1  0.49976067  -0.00438530  0.12187792  1
  In  In61  1  0.51431963  0.00463532  0.62479033  1
  In  In62  1  0.51865235  0.34151323  0.10372110  1
  In  In63  1  0.48605768  0.33656146  0.63415729  1
  In  In64  1  0.49627718  0.66874265  0.12752569  1
  In  In65  1  0.49206698  0.66581402  0.60908130  1
  In  In66  1  0.82147376  -0.00082222  0.12934913  1
  In  In67  1  0.81547498  0.00434335  0.62463504  1
  In  In68  1  0.84331260  0.35164958  0.11551387  1
  In  In69  1  0.83396594  0.33502654  0.61727356  1
  In  In70  1  0.84316000  0.64159921  0.14076130  1
  In  In71  1  0.84579042  0.66419292  0.62083801  1
  In  In72  1  0.50360735  0.17052473  0.50213669  1
  In  In73  1  0.67410965  0.33713177  0.24188372  1
  In  In74  1  0.83157808  0.83877030  0.49957013  1
  In  In75  1  0.65982000  0.33287182  0.75713447  1
  In  In76  1  0.00145445  0.33370569  0.76323510  1
  In  In77  1  0.33480956  0.32642992  0.23984854  1
  In  In78  1  0.16989623  0.50187835  0.49993779  1
  In  In79  1  -0.00296815  -0.00123622  0.75548119  1
  In  In80  1  0.33042302  0.66373451  0.74676594  1
  In  In81  1  0.66325901  0.66665855  0.75833944  1
  In  In82  1  0.83378509  0.82890939  0.01620397  1
  In  In83  1  0.33080668  -0.00242180  0.76029040  1
  In  In84  1  0.17101307  0.83474539  0.48943666  1
  In  In85  1  0.00093456  -0.00559595  0.25078394  1
  Cu  Cu86  1  0.66426905  0.66780581  0.00685420  1
  Cu  Cu87  1  0.66977261  0.66771624  0.49324229  1
  Cu  Cu88  1  0.33141659  -0.00132525  0.49353510  1
  Cu  Cu89  1  0.82314946  0.16264905  0.75168327  1
  Cu  Cu90  1  0.50035403  0.15936676  0.23822533  1
  Cu  Cu91  1  0.00254905  0.33789131  -0.00107077  1
  Cu  Cu92  1  0.83226057  0.17148109  0.24886300  1
  Cu  Cu93  1  0.82759370  0.83067303  0.24706908  1
  Cu  Cu94  1  0.16364184  0.50252082  0.24460099  1
  Cu  Cu95  1  0.32801793  0.33272089  0.00609660  1
  Cu  Cu96  1  -0.00277327  0.01205715  0.49820753  1
  Cu  Cu97  1  0.66663849  -0.00436574  0.00400581  1
  Cu  Cu98  1  0.49547363  0.83427853  0.24726636  1
  Cu  Cu99  1  0.00065192  0.65947288  0.49402579  1
  Cu  Cu100  1  0.33397057  0.33353571  0.50430414  1
  Cu  Cu101  1  0.33949191  -0.00179941  0.00040974  1
  Cu  Cu102  1  0.16403238  0.16775898  0.24506539  1
  Cu  Cu103  1  0.50086897  0.83458115  0.74998884  1
  Cu  Cu104  1  0.66357525  0.00255186  0.49705788  1
  Cu  Cu105  1  0.17188639  0.50011818  0.75178153  1
  Cu  Cu106  1  0.49939221  0.50665543  0.25115879  1
  Cu  Cu107  1  -0.00090589  0.33225347  0.49591518  1
  Cu  Cu108  1  0.83668152  0.50303764  0.75236639  1
  Cu  Cu109  1  0.17183450  0.16977192  0.75557064  1
  Cu  Cu110  1  0.83393465  0.83052967  0.74581566  1
  Cu  Cu111  1  0.00572829  0.00024677  0.00253718  1
  Cu  Cu112  1  0.33220476  0.66677597  0.00357577  1
  Cu  Cu113  1  0.00134336  0.66116604  0.00789614  1
  Cu  Cu114  1  0.67116516  0.33930687  0.49835798  1
  Se  Se115  1  0.08827093  0.08689076  0.05372207  1
  Se  Se116  1  0.08660611  0.08920035  0.55050561  1
  Se  Se117  1  0.08521741  0.41958415  0.05379033  1
  Se  Se118  1  0.07923128  0.40856973  0.56072109  1
  Se  Se119  1  0.08695074  0.74981413  0.05202966  1
  Se  Se120  1  0.08016231  0.74254715  0.55339921  1
  Se  Se121  1  0.42180326  0.08377317  0.05224122  1
  Se  Se122  1  0.40983310  0.07691804  0.55839877  1
  Se  Se123  1  0.41481038  0.42012979  0.05164177  1
  Se  Se124  1  0.41676369  0.41661075  0.55661319  1
  Se  Se125  1  0.41753929  0.75082414  0.05500749  1
  Se  Se126  1  0.41888483  0.75871318  0.54455680  1
  Se  Se127  1  0.75549259  0.07869956  0.05128883  1
  Se  Se128  1  0.74782808  0.08703078  0.54822060  1
  Se  Se129  1  0.73156792  0.40385158  0.05565613  1
  Se  Se130  1  0.75720115  0.42290360  0.54968244  1
  Se  Se131  1  0.74544917  0.73739898  0.07336221  1
  Se  Se132  1  0.74304997  0.74682326  0.56127091  1
  Se  Se133  1  0.24654235  0.24536241  0.05664360  1
  Se  Se134  1  0.24822545  0.24872072  0.55266800  1
  Se  Se135  1  0.24780940  0.57994931  0.05218654  1
  Se  Se136  1  0.26217892  0.59582008  0.55478495  1
  Se  Se137  1  0.25369901  0.91600165  0.05338155  1
  Se  Se138  1  0.25246851  0.92333837  0.55972750  1
  Se  Se139  1  0.58406807  0.24344658  0.03975714  1
  Se  Se140  1  0.59073218  0.26261146  0.56291618  1
  Se  Se141  1  0.57701453  0.58362227  0.05685759  1
  Se  Se142  1  0.58976331  0.58512163  0.55204091  1
  Se  Se143  1  0.58253265  0.90952046  0.05312348  1
  Se  Se144  1  0.58073608  0.91844628  0.54952803  1
  Se  Se145  1  0.91934732  0.25435131  0.05308994  1
  Se  Se146  1  0.91512412  0.24960657  0.55033732  1
  Se  Se147  1  0.91273562  0.57802474  0.05591116  1
  Se  Se148  1  0.91738812  0.57786551  0.54840096  1
  Se  Se149  1  0.92881967  0.92374720  0.06816905  1
  Se  Se150  1  0.92334373  0.92917755  0.56156805  1
  Se  Se151  1  0.08652597  0.25095736  0.44517307  1
  Se  Se152  1  0.08543981  0.24967843  0.94901872  1
  Se  Se153  1  0.08666300  0.58803929  0.43272585  1
  Se  Se154  1  0.08354398  0.58070797  0.95069693  1
  Se  Se155  1  0.07014235  0.92524911  0.43805002  1
  Se  Se156  1  0.08326171  0.91252299  0.94928230  1
  Se  Se157  1  0.41194839  0.25658918  0.43813486  1
  Se  Se158  1  0.41172838  0.25208764  0.95022102  1
  Se  Se159  1  0.42676806  0.57304074  0.44915482  1
  Se  Se160  1  0.41649998  0.58145742  0.95159127  1
  Se  Se161  1  0.41617534  0.91620611  0.44314073  1
  Se  Se162  1  0.42053898  0.91200227  0.94695281  1
  Se  Se163  1  0.74942065  0.25184685  0.44474880  1
  Se  Se164  1  0.76691157  0.22772533  0.94917729  1
  Se  Se165  1  0.75634242  0.58393114  0.44513205  1
  Se  Se166  1  0.74874369  0.58481777  0.95295861  1
  Se  Se167  1  0.74161042  0.92174496  0.43460024  1
  Se  Se168  1  0.75021891  0.91370009  0.94533669  1
  Se  Se169  1  0.24787880  0.08535664  0.44549479  1
  Se  Se170  1  0.25283305  0.08202967  0.94854683  1
  Se  Se171  1  0.25776367  0.41017403  0.43765876  1
  Se  Se172  1  0.24685989  0.41869288  0.95192382  1
  Se  Se173  1  0.25718396  0.73761849  0.43667293  1
  Se  Se174  1  0.24885696  0.75041039  0.94955583  1
  Se  Se175  1  0.58357883  0.08175206  0.43401984  1
  Se  Se176  1  0.58396678  0.07628674  0.94760276  1
  Se  Se177  1  0.58105685  0.41993743  0.45027625  1
  Se  Se178  1  0.59336376  0.40116030  0.95120426  1
  Se  Se179  1  0.58399743  0.75352096  0.44618431  1
  Se  Se180  1  0.58280825  0.75103036  0.95202619  1
  Se  Se181  1  0.91012256  0.09011587  0.44502536  1
  Se  Se182  1  0.91830020  0.07936313  0.95017378  1
  Se  Se183  1  0.92390032  0.42068026  0.44085565  1
  Se  Se184  1  0.91499684  0.42010753  0.94770513  1
  Se  Se185  1  0.91825767  0.74542136  0.44031701  1
  Se  Se186  1  0.91967391  0.74397984  0.94765663  1
  Se  Se187  1  0.24407423  0.24694217  0.30878184  1
  Se  Se188  1  0.25612280  0.25478134  0.80408159  1
  Se  Se189  1  0.25073011  0.57919235  0.29986808  1
  Se  Se190  1  0.24942786  0.57847257  0.81600948  1
  Se  Se191  1  0.23963773  0.90690941  0.30216867  1
  Se  Se192  1  0.23644968  0.90109811  0.80824914  1
  Se  Se193  1  0.57652802  0.24306706  0.29958213  1
  Se  Se194  1  0.57496315  0.24510134  0.81880141  1
  Se  Se195  1  0.58186145  0.58601241  0.30819369  1
  Se  Se196  1  0.57250732  0.57341556  0.81241315  1
  Se  Se197  1  0.58035006  0.92148468  0.29844829  1
  Se  Se198  1  0.58513383  0.91749952  0.80158181  1
  Se  Se199  1  0.91486304  0.25460948  0.30206188  1
  Se  Se200  1  0.90132435  0.24356406  0.81212736  1
  Se  Se201  1  0.93622453  0.60987204  0.30424931  1
  Se  Se202  1  0.91963699  0.58811094  0.80294632  1
  Se  Se203  1  0.90688629  0.90674444  0.31196222  1
  Se  Se204  1  0.90779688  0.90722040  0.81499153  1
  Se  Se205  1  0.08484976  0.09139155  0.31071742  1
  Se  Se206  1  0.08951249  0.09004864  0.81346854  1
  Se  Se207  1  0.08001474  0.41580444  0.29454170  1
  Se  Se208  1  0.09386274  0.42515822  0.81736134  1
  Se  Se209  1  0.08769749  0.75937664  0.28874460  1
  Se  Se210  1  0.07778874  0.73657598  0.80476052  1
  Se  Se211  1  0.41296372  0.08402031  0.29431969  1
  Se  Se212  1  0.42209677  0.08893084  0.81352590  1
  Se  Se213  1  0.42138747  0.41640874  0.30585063  1
  Se  Se214  1  0.41767734  0.41798620  0.80563863  1
  Se  Se215  1  0.42040175  0.75043362  0.30732462  1
  Se  Se216  1  0.42265578  0.75303253  0.80956576  1
  Se  Se217  1  0.74666089  0.08570499  0.29704092  1
  Se  Se218  1  0.74175146  0.07911346  0.80440269  1
  Se  Se219  1  0.75177619  0.42356403  0.31177963  1
  Se  Se220  1  0.75365010  0.42806071  0.81223443  1
  Se  Se221  1  0.74139906  0.74736287  0.29821350  1
  Se  Se222  1  0.75730832  0.75737256  0.81477601  1
  Se  Se223  1  0.25205164  0.08547973  0.19749986  1
  Se  Se224  1  0.24297707  0.08518437  0.69251805  1
  Se  Se225  1  0.24745652  0.42338413  0.18515141  1
  Se  Se226  1  0.25670691  0.41758333  0.70021629  1
  Se  Se227  1  0.26192622  0.73579190  0.19403566  1
  Se  Se228  1  0.23863889  0.75857227  0.69186309  1
  Se  Se229  1  0.58915680  0.07958802  0.18776650  1
  Se  Se230  1  0.58027321  0.08772270  0.69920691  1
  Se  Se231  1  0.57424599  0.42404969  0.18949955  1
  Se  Se232  1  0.57911270  0.42782546  0.69410670  1
  Se  Se233  1  0.58058791  0.74844523  0.19803824  1
  Se  Se234  1  0.57704529  0.75072074  0.68922223  1
  Se  Se235  1  0.91539431  0.08935194  0.19058977  1
  Se  Se236  1  0.91146802  0.09064975  0.69134484  1
  Se  Se237  1  0.90883195  0.42260725  0.19688441  1
  Se  Se238  1  0.91462948  0.41879057  0.69404683  1
  Se  Se239  1  0.91395839  0.74860691  0.19716008  1
  Se  Se240  1  0.91706879  0.74575199  0.69649433  1
  Se  Se241  1  0.07905733  0.25379012  0.19824936  1
  Se  Se242  1  0.08788793  0.24722696  0.69503886  1
  Se  Se243  1  0.08189896  0.58471714  0.18947784  1
  Se  Se244  1  0.08459822  0.57977472  0.69935739  1
  Se  Se245  1  0.09369236  0.91512683  0.18790652  1
  Se  Se246  1  0.08712753  0.90682722  0.69648775  1
  Se  Se247  1  0.43274169  0.24953698  0.17770304  1
  Se  Se248  1  0.42561177  0.23648023  0.69903408  1
  Se  Se249  1  0.41304986  0.58891347  0.20045486  1
  Se  Se250  1  0.42825960  0.58041836  0.69030917  1
  Se  Se251  1  0.41453056  0.91795221  0.19241639  1
  Se  Se252  1  0.41860813  0.91321361  0.69043311  1
  Se  Se253  1  0.75601126  0.24364746  0.18060026  1
  Se  Se254  1  0.75230594  0.24947805  0.69041326  1
  Se  Se255  1  0.74285929  0.57458318  0.20351183  1
  Se  Se256  1  0.75454434  0.58166130  0.69235530  1
  Se  Se257  1  0.74444595  0.91944175  0.20133229  1
  Se  Se258  1  0.74915094  0.91720917  0.69865320  1
