# generated using pymatgen
data_In86Cu29Se144
_symmetry_space_group_name_H-M   'P 1'
_cell_length_a   17.62377952
_cell_length_b   17.62764660
_cell_length_c   23.48104412
_cell_angle_alpha   90.03885299
_cell_angle_beta   90.00681174
_cell_angle_gamma   90.02007593
_symmetry_Int_Tables_number   1
_chemical_formula_structural   In86Cu29Se144
_chemical_formula_sum   'In86 Cu29 Se144'
_cell_volume   7294.75417203
_cell_formula_units_Z   1
loop_
 _symmetry_equiv_pos_site_id
 _symmetry_equiv_pos_as_xyz
  1  'x, y, z'
loop_
 _atom_site_type_symbol
 _atom_site_label
 _atom_site_symmetry_multiplicity
 _atom_site_fract_x
 _atom_site_fract_y
 _atom_site_fract_z
 _atom_site_occupancy
  In  In0  1  0.00770064  0.16944082  0.12232606  1
  In  In1  1  0.00431630  0.15620933  0.62366984  1
  In  In2  1  -0.00207149  0.48710128  0.12261331  1
  In  In3  1  0.01118937  0.51269151  0.61428706  1
  In  In4  1  -0.00693810  0.83951022  0.12443331  1
  In  In5  1  -0.00356003  0.83251348  0.61812099  1
  In  In6  1  0.34307991  0.15777232  0.12944052  1
  In  In7  1  0.33724991  0.16530887  0.61336013  1
  In  In8  1  0.34044080  0.48393246  0.13335833  1
  In  In9  1  0.32421417  0.51268738  0.61762759  1
  In  In10  1  0.38777251  0.79977047  0.17764343  1
  In  In11  1  0.33427055  0.82272982  0.60426054  1
  In  In12  1  0.66702339  0.16686104  0.12538742  1
  In  In13  1  0.65174876  0.16063669  0.62072389  1
  In  In14  1  0.65327561  0.51328405  0.13123234  1
  In  In15  1  0.67012447  0.48746161  0.61799159  1
  In  In16  1  0.66045422  0.83261138  0.13106061  1
  In  In17  1  0.67306397  0.83864146  0.61990482  1
  In  In18  1  0.17535476  -0.00580466  0.37879013  1
  In  In19  1  0.17462204  0.00061405  0.87916920  1
  In  In20  1  0.16927459  0.33504226  0.37256482  1
  In  In21  1  0.15911636  0.32878074  0.87675532  1
  In  In22  1  0.18234940  0.65992698  0.38826482  1
  In  In23  1  0.15687672  0.67673537  0.87193512  1
  In  In24  1  0.50953839  -0.00624878  0.36437424  1
  In  In25  1  0.50288353  -0.00638244  0.88600834  1
  In  In26  1  0.48842265  0.32430124  0.36204047  1
  In  In27  1  0.49462424  0.33152061  0.88823997  1
  In  In28  1  0.50706739  0.67736261  0.36326800  1
  In  In29  1  0.50703551  0.66182897  0.89116473  1
  In  In30  1  0.82072587  -0.00949553  0.36823557  1
  In  In31  1  0.82104708  0.01076668  0.88441125  1
  In  In32  1  0.84118529  0.33825206  0.36578496  1
  In  In33  1  0.82649534  0.33757398  0.88123134  1
  In  In34  1  0.81850343  0.67719342  0.38152204  1
  In  In35  1  0.84006355  0.66311341  0.87078093  1
  In  In36  1  0.00491293  0.17956096  0.36941882  1
  In  In37  1  0.00231687  0.16146058  0.88653207  1
  In  In38  1  0.00568044  0.49688328  0.38248316  1
  In  In39  1  -0.01166779  0.50859876  0.86994351  1
  In  In40  1  -0.00257539  0.83666006  0.38232197  1
  In  In41  1  -0.00354448  0.82014651  0.86861297  1
  In  In42  1  0.33363172  0.17011572  0.37006544  1
  In  In43  1  0.33626748  0.15688228  0.89321841  1
  In  In44  1  0.33082818  0.49202245  0.36709235  1
  In  In45  1  0.33793430  0.50692946  0.88138991  1
  In  In46  1  0.33512840  0.83491604  0.36983980  1
  In  In47  1  0.33281180  0.83786461  0.87813071  1
  In  In48  1  0.65401381  0.15729412  0.36195525  1
  In  In49  1  0.67058756  0.16180151  0.88907650  1
  In  In50  1  0.66962086  0.50752678  0.36892448  1
  In  In51  1  0.66600947  0.49775022  0.87869892  1
  In  In52  1  0.66888208  0.83137841  0.36680299  1
  In  In53  1  0.64889477  0.84522995  0.88293070  1
  In  In54  1  0.17731876  0.00904002  0.12711719  1
  In  In55  1  0.17179262  0.00163603  0.61107939  1
  In  In56  1  0.20356017  0.27439017  0.17872935  1
  In  In57  1  0.16912833  0.33503245  0.61554887  1
  In  In58  1  0.17619630  0.68219759  0.12701335  1
  In  In59  1  0.16462228  0.66455094  0.61236579  1
  In  In60  1  0.49673650  -0.00162747  0.13336938  1
  In  In61  1  0.50229400  -0.00046540  0.62002025  1
  In  In62  1  0.50352972  0.33226792  0.12579757  1
  In  In63  1  0.50998092  0.32769700  0.61928481  1
  In  In64  1  0.50782465  0.66042023  0.12005176  1
  In  In65  1  0.48699054  0.67193186  0.62028740  1
  In  In66  1  0.80864303  -0.01913173  0.12308928  1
  In  In67  1  0.82987900  -0.01033124  0.62440887  1
  In  In68  1  0.84476709  0.32850898  0.13199750  1
  In  In69  1  0.82084183  0.33516634  0.61827867  1
  In  In70  1  0.81530695  0.67685528  0.13047323  1
  In  In71  1  0.84312427  0.67772440  0.61634317  1
  In  In72  1  -0.00248641  -0.00657490  0.74131206  1
  In  In73  1  0.33144825  0.66928122  0.74057472  1
  In  In74  1  0.33325077  0.33189390  0.75819925  1
  In  In75  1  -0.00509027  0.33631068  0.75168153  1
  In  In76  1  0.33460834  -0.00544640  0.75266602  1
  In  In77  1  0.16865255  0.84353816  0.00207310  1
  In  In78  1  0.66381353  0.33483868  0.75620749  1
  In  In79  1  0.83712522  0.16831281  0.49107223  1
  In  In80  1  0.17074981  0.48971880  0.00485615  1
  In  In81  1  0.49799095  0.50354885  0.49464402  1
  In  In82  1  0.66612794  0.66769369  0.75491494  1
  In  In83  1  0.83149225  0.50148905  0.00047268  1
  In  In84  1  0.00005649  0.00216685  0.25256435  1
  In  In85  1  0.00113759  0.66047745  0.25296716  1
  Cu  Cu86  1  0.83035431  0.50124100  0.24985636  1
  Cu  Cu87  1  0.33254748  0.33278497  0.49089948  1
  Cu  Cu88  1  0.16881161  0.83159094  0.25787475  1
  Cu  Cu89  1  0.83743100  0.16526673  0.24268014  1
  Cu  Cu90  1  0.66860891  0.33425752  0.00581804  1
  Cu  Cu91  1  0.49733742  0.83483162  0.75498865  1
  Cu  Cu92  1  0.50149401  0.49931687  0.24961364  1
  Cu  Cu93  1  0.66485459  0.33110670  0.49471099  1
  Cu  Cu94  1  0.33496493  -0.00512479  0.01095006  1
  Cu  Cu95  1  0.00416652  0.00275189  0.49801315  1
  Cu  Cu96  1  0.16574446  0.50923000  0.74231033  1
  Cu  Cu97  1  0.16501556  0.16278864  0.74892683  1
  Cu  Cu98  1  0.84210010  0.51078818  0.74143457  1
  Cu  Cu99  1  0.82758816  0.83982651  0.74564255  1
  Cu  Cu100  1  0.34061253  0.66918576  0.01002683  1
  Cu  Cu101  1  0.66504402  0.67069988  0.49098640  1
  Cu  Cu102  1  0.00328828  0.33575009  0.49358896  1
  Cu  Cu103  1  0.33295870  0.32383103  0.01337375  1
  Cu  Cu104  1  0.66511229  -0.00526718  0.49117323  1
  Cu  Cu105  1  0.50267533  0.16379492  0.74877117  1
  Cu  Cu106  1  -0.00813343  0.66524496  -0.00436201  1
  Cu  Cu107  1  0.34788490  0.00379352  0.48842179  1
  Cu  Cu108  1  0.50235266  0.17114166  0.24825693  1
  Cu  Cu109  1  0.00648317  0.32215755  0.00562987  1
  Cu  Cu110  1  0.82262151  0.16727664  0.75893552  1
  Cu  Cu111  1  -0.00593921  0.66727741  0.49689093  1
  Cu  Cu112  1  0.16197081  0.50140733  0.25507487  1
  Cu  Cu113  1  -0.00969246  -0.00231387  0.00619952  1
  Cu  Cu114  1  0.65999712  -0.00154026  0.00822667  1
  Se  Se115  1  0.08199942  0.07487378  0.05670608  1
  Se  Se116  1  0.08662068  0.08962909  0.54841991  1
  Se  Se117  1  0.08864066  0.39860142  0.06546847  1
  Se  Se118  1  0.08543261  0.41815156  0.55048254  1
  Se  Se119  1  0.07492070  0.74497311  0.05502966  1
  Se  Se120  1  0.07918635  0.75171626  0.54927443  1
  Se  Se121  1  0.42275351  0.08146874  0.05586655  1
  Se  Se122  1  0.42562249  0.08501420  0.54970437  1
  Se  Se123  1  0.41902991  0.41453679  0.05559506  1
  Se  Se124  1  0.40988509  0.40993565  0.55823667  1
  Se  Se125  1  0.40749038  0.75355339  0.07198041  1
  Se  Se126  1  0.42555311  0.74755059  0.54058522  1
  Se  Se127  1  0.74846835  0.08230116  0.05611956  1
  Se  Se128  1  0.74569814  0.07835922  0.55243717  1
  Se  Se129  1  0.74917647  0.41384673  0.06532270  1
  Se  Se130  1  0.75091592  0.41545829  0.54270639  1
  Se  Se131  1  0.75348785  0.76539290  0.05916846  1
  Se  Se132  1  0.74813113  0.75061999  0.55123288  1
  Se  Se133  1  0.24981459  0.24889919  0.07204394  1
  Se  Se134  1  0.25209286  0.25076063  0.55037888  1
  Se  Se135  1  0.25592957  0.58627609  0.06254654  1
  Se  Se136  1  0.25852095  0.59545460  0.54464880  1
  Se  Se137  1  0.26149173  0.91033969  0.07091154  1
  Se  Se138  1  0.26203486  0.92545264  0.54591686  1
  Se  Se139  1  0.58330174  0.24872760  0.05534719  1
  Se  Se140  1  0.58274340  0.24557530  0.54639445  1
  Se  Se141  1  0.58808662  0.58117461  0.04847755  1
  Se  Se142  1  0.59142807  0.59070308  0.55788638  1
  Se  Se143  1  0.57700874  0.91655895  0.06169335  1
  Se  Se144  1  0.58471043  0.91587524  0.55240061  1
  Se  Se145  1  0.91443296  0.24602978  0.05581523  1
  Se  Se146  1  0.92588974  0.25614625  0.55888535  1
  Se  Se147  1  0.91938946  0.59080911  0.06327281  1
  Se  Se148  1  0.91190701  0.58066586  0.55053735  1
  Se  Se149  1  0.90648157  0.91234457  0.05501660  1
  Se  Se150  1  0.91747403  0.92302369  0.55238876  1
  Se  Se151  1  0.08715810  0.25093869  0.44389804  1
  Se  Se152  1  0.09109997  0.24397158  0.94965340  1
  Se  Se153  1  0.08388089  0.58462983  0.44963753  1
  Se  Se154  1  0.07912128  0.58407082  0.94367178  1
  Se  Se155  1  0.08650806  0.91699007  0.44676744  1
  Se  Se156  1  0.06959504  0.92260593  0.93885344  1
  Se  Se157  1  0.41891487  0.25032351  0.44187573  1
  Se  Se158  1  0.41805370  0.24413931  0.95636374  1
  Se  Se159  1  0.41614174  0.58945739  0.42905242  1
  Se  Se160  1  0.41614009  0.58088897  0.95504408  1
  Se  Se161  1  0.42545418  0.91597941  0.43573133  1
  Se  Se162  1  0.41285334  0.91278400  0.95052807  1
  Se  Se163  1  0.74341256  0.25216790  0.43193934  1
  Se  Se164  1  0.75383854  0.25288337  0.95117496  1
  Se  Se165  1  0.74786725  0.57916107  0.44661634  1
  Se  Se166  1  0.74326825  0.59527746  0.94242231  1
  Se  Se167  1  0.75055095  0.90945080  0.44312782  1
  Se  Se168  1  0.74285988  0.91976301  0.94835166  1
  Se  Se169  1  0.25601618  0.08615619  0.44233811  1
  Se  Se170  1  0.24741937  0.07537923  0.95697198  1
  Se  Se171  1  0.24984297  0.42003853  0.44311764  1
  Se  Se172  1  0.26284658  0.40048309  0.94198623  1
  Se  Se173  1  0.24328316  0.77087413  0.44187978  1
  Se  Se174  1  0.25514445  0.73954741  0.94563625  1
  Se  Se175  1  0.58356368  0.07998879  0.43950780  1
  Se  Se176  1  0.57862636  0.08386931  0.95281653  1
  Se  Se177  1  0.58233842  0.41024029  0.43411976  1
  Se  Se178  1  0.58793299  0.41493855  0.94777276  1
  Se  Se179  1  0.58403294  0.75373483  0.43870332  1
  Se  Se180  1  0.57277594  0.76117043  0.95205273  1
  Se  Se181  1  0.92438753  0.07519324  0.43201070  1
  Se  Se182  1  0.91263555  0.08534614  0.95121455  1
  Se  Se183  1  0.91257651  0.41390824  0.44479850  1
  Se  Se184  1  0.93227710  0.40933120  0.94531859  1
  Se  Se185  1  0.91112193  0.75306492  0.44712239  1
  Se  Se186  1  0.91270654  0.74980799  0.94268092  1
  Se  Se187  1  0.25167448  0.25567327  0.30165515  1
  Se  Se188  1  0.24549195  0.23373222  0.81382497  1
  Se  Se189  1  0.24721817  0.58508884  0.30575388  1
  Se  Se190  1  0.24463479  0.57929879  0.81006193  1
  Se  Se191  1  0.25275761  0.92234079  0.30150887  1
  Se  Se192  1  0.23658707  0.90428005  0.80572256  1
  Se  Se193  1  0.58886873  0.25772082  0.29743350  1
  Se  Se194  1  0.57482629  0.24333968  0.81416250  1
  Se  Se195  1  0.58500715  0.58488156  0.29966197  1
  Se  Se196  1  0.57323151  0.57588895  0.81032627  1
  Se  Se197  1  0.61078507  0.93084070  0.29544035  1
  Se  Se198  1  0.57698818  0.92311572  0.80558502  1
  Se  Se199  1  0.91828073  0.24954722  0.29754438  1
  Se  Se200  1  0.90953846  0.24385361  0.81306212  1
  Se  Se201  1  0.90901513  0.57738655  0.31509928  1
  Se  Se202  1  0.92388998  0.59348493  0.79465732  1
  Se  Se203  1  0.91117515  0.90368642  0.30368255  1
  Se  Se204  1  0.90626056  0.91792831  0.81043057  1
  Se  Se205  1  0.09374905  0.08828600  0.30917487  1
  Se  Se206  1  0.08466915  0.08408056  0.80745318  1
  Se  Se207  1  0.07937280  0.41775035  0.30735586  1
  Se  Se208  1  0.09200924  0.42841810  0.80700732  1
  Se  Se209  1  0.08701289  0.75083726  0.31549543  1
  Se  Se210  1  0.08593290  0.75477207  0.79793001  1
  Se  Se211  1  0.42257177  0.08773532  0.30502616  1
  Se  Se212  1  0.41995116  0.08917813  0.81174629  1
  Se  Se213  1  0.41221842  0.41421594  0.29516296  1
  Se  Se214  1  0.42557331  0.42337315  0.81190227  1
  Se  Se215  1  0.42403076  0.76408799  0.29780657  1
  Se  Se216  1  0.41975377  0.74942082  0.81187858  1
  Se  Se217  1  0.75694846  0.08781764  0.30177636  1
  Se  Se218  1  0.73957589  0.08438136  0.80964710  1
  Se  Se219  1  0.74788739  0.41673259  0.30277730  1
  Se  Se220  1  0.76452176  0.43092955  0.80386468  1
  Se  Se221  1  0.74596404  0.73949420  0.30061157  1
  Se  Se222  1  0.75250490  0.76226654  0.81231088  1
  Se  Se223  1  0.23487786  0.10593950  0.19762912  1
  Se  Se224  1  0.24906829  0.08844325  0.68955449  1
  Se  Se225  1  0.24012227  0.41885426  0.19691763  1
  Se  Se226  1  0.24692186  0.42141227  0.69185203  1
  Se  Se227  1  0.25150611  0.74400505  0.20779188  1
  Se  Se228  1  0.24470435  0.76007455  0.68249523  1
  Se  Se229  1  0.58446489  0.08642972  0.19551682  1
  Se  Se230  1  0.58170765  0.07872959  0.69504364  1
  Se  Se231  1  0.58552893  0.41522846  0.19623295  1
  Se  Se232  1  0.57577329  0.42279556  0.69294363  1
  Se  Se233  1  0.57013453  0.75123729  0.19461149  1
  Se  Se234  1  0.57490808  0.75426513  0.69208406  1
  Se  Se235  1  0.90965743  0.07702608  0.18291771  1
  Se  Se236  1  0.90238085  0.09373901  0.69336762  1
  Se  Se237  1  0.91874509  0.42006246  0.20013754  1
  Se  Se238  1  0.91267374  0.42142062  0.68339165  1
  Se  Se239  1  0.91331395  0.75504549  0.19584227  1
  Se  Se240  1  0.91309739  0.75888769  0.69281829  1
  Se  Se241  1  0.06178223  0.25432800  0.20213221  1
  Se  Se242  1  0.08919245  0.24795899  0.69238930  1
  Se  Se243  1  0.09049688  0.57874228  0.18586872  1
  Se  Se244  1  0.08465877  0.59140640  0.68963896  1
  Se  Se245  1  0.09195908  0.90832748  0.19274427  1
  Se  Se246  1  0.09485820  0.91394625  0.68386201  1
  Se  Se247  1  0.41849672  0.25294723  0.19504507  1
  Se  Se248  1  0.42156634  0.24492498  0.69157933  1
  Se  Se249  1  0.42075356  0.57976677  0.19153043  1
  Se  Se250  1  0.42439363  0.57112991  0.69101186  1
  Se  Se251  1  0.39250982  0.94201968  0.20022806  1
  Se  Se252  1  0.41700255  0.90457048  0.68785947  1
  Se  Se253  1  0.75062920  0.25079933  0.19446103  1
  Se  Se254  1  0.74986796  0.24400391  0.69147328  1
  Se  Se255  1  0.74701965  0.58528206  0.19896917  1
  Se  Se256  1  0.75079681  0.58239154  0.68526148  1
  Se  Se257  1  0.72972341  0.92252911  0.20600940  1
  Se  Se258  1  0.74095282  0.92263297  0.69679415  1
