# generated using pymatgen
data_In86Cu29Se144
_symmetry_space_group_name_H-M   'P 1'
_cell_length_a   17.57948199
_cell_length_b   17.57893267
_cell_length_c   23.43227347
_cell_angle_alpha   89.98865524
_cell_angle_beta   89.98663109
_cell_angle_gamma   89.97950482
_symmetry_Int_Tables_number   1
_chemical_formula_structural   In86Cu29Se144
_chemical_formula_sum   'In86 Cu29 Se144'
_cell_volume   7241.24023137
_cell_formula_units_Z   1
loop_
 _symmetry_equiv_pos_site_id
 _symmetry_equiv_pos_as_xyz
  1  'x, y, z'
loop_
 _atom_site_type_symbol
 _atom_site_label
 _atom_site_symmetry_multiplicity
 _atom_site_fract_x
 _atom_site_fract_y
 _atom_site_fract_z
 _atom_site_occupancy
  In  In0  1  -0.00252723  0.16241200  0.12864523  1
  In  In1  1  0.00087883  0.17127075  0.62057189  1
  In  In2  1  -0.01996916  0.49882430  0.12411744  1
  In  In3  1  0.00829240  0.50032763  0.63981502  1
  In  In4  1  0.01710687  0.83252575  0.13354278  1
  In  In5  1  -0.00869525  0.82676827  0.61660946  1
  In  In6  1  0.32748787  0.15815987  0.12242686  1
  In  In7  1  0.33010918  0.17572593  0.62139295  1
  In  In8  1  0.35338194  0.50535580  0.12283348  1
  In  In9  1  0.33804608  0.48892747  0.61911023  1
  In  In10  1  0.33523971  0.83840849  0.13928011  1
  In  In11  1  0.32946721  0.84666574  0.62017050  1
  In  In12  1  0.68516643  0.17233980  0.10541106  1
  In  In13  1  0.66450529  0.14877906  0.62863949  1
  In  In14  1  0.66726604  0.49886926  0.12184805  1
  In  In15  1  0.66622876  0.51215357  0.62594509  1
  In  In16  1  0.64231242  0.83880232  0.13129677  1
  In  In17  1  0.67774749  0.82363670  0.63324725  1
  In  In18  1  0.16498430  -0.00183415  0.37443163  1
  In  In19  1  0.16803328  -0.00368701  0.88516084  1
  In  In20  1  0.14872708  0.33525287  0.37032222  1
  In  In21  1  0.14951571  0.33163605  0.87452765  1
  In  In22  1  0.17528409  0.66371824  0.37030117  1
  In  In23  1  0.17000288  0.67549349  0.87309508  1
  In  In24  1  0.48613469  0.00558632  0.36362029  1
  In  In25  1  0.51064518  -0.00144041  0.88909975  1
  In  In26  1  0.51453475  0.32987287  0.36971611  1
  In  In27  1  0.51236396  0.32912684  0.89341486  1
  In  In28  1  0.49119195  0.66476685  0.36391674  1
  In  In29  1  0.50946808  0.65762494  0.88577588  1
  In  In30  1  0.84367975  -0.01026467  0.37892597  1
  In  In31  1  0.83007550  0.01515072  0.88235269  1
  In  In32  1  0.82295990  0.31984416  0.36995870  1
  In  In33  1  0.84207809  0.32543637  0.88592663  1
  In  In34  1  0.82866151  0.68970928  0.36577268  1
  In  In35  1  0.82734837  0.66081709  0.87181713  1
  In  In36  1  -0.00186675  0.16450830  0.37464623  1
  In  In37  1  -0.00861014  0.17500512  0.88289967  1
  In  In38  1  0.00733688  0.49491872  0.36944108  1
  In  In39  1  -0.00581938  0.48751632  0.86456815  1
  In  In40  1  -0.01169887  0.84525099  0.37653861  1
  In  In41  1  0.01155161  0.83485047  0.87693810  1
  In  In42  1  0.32671166  0.14654589  0.36584729  1
  In  In43  1  0.33551068  0.15641504  0.88646843  1
  In  In44  1  0.33856169  0.51566149  0.36933942  1
  In  In45  1  0.34222042  0.51014303  0.88048457  1
  In  In46  1  0.31431414  0.81758759  0.35067146  1
  In  In47  1  0.33383677  0.83508122  0.88434287  1
  In  In48  1  0.65974733  0.17374145  0.37082759  1
  In  In49  1  0.67337622  0.16765307  0.88516275  1
  In  In50  1  0.66348358  0.49371925  0.37321664  1
  In  In51  1  0.65830669  0.50634423  0.88606370  1
  In  In52  1  0.68015907  0.83659280  0.36667989  1
  In  In53  1  0.66217159  0.82378775  0.87616351  1
  In  In54  1  0.16439863  -0.00395331  0.13465767  1
  In  In55  1  0.16591956  0.00070551  0.61461111  1
  In  In56  1  0.16179127  0.31579718  0.12618615  1
  In  In57  1  0.16793645  0.32412015  0.62501155  1
  In  In58  1  0.17274087  0.68991093  0.13049042  1
  In  In59  1  0.15197414  0.66447859  0.62118484  1
  In  In60  1  0.49644275  -0.01116052  0.11274643  1
  In  In61  1  0.51402132  0.01003696  0.62808933  1
  In  In62  1  0.52903384  0.34362956  0.09713393  1
  In  In63  1  0.48694313  0.33543316  0.62349736  1
  In  In64  1  0.50464921  0.67537443  0.13602099  1
  In  In65  1  0.51566087  0.66681579  0.62541492  1
  In  In66  1  0.82703963  0.01427341  0.12427775  1
  In  In67  1  0.82788984  -0.00679977  0.62124960  1
  In  In68  1  0.83020872  0.33305845  0.12365634  1
  In  In69  1  0.84561810  0.33468260  0.62598575  1
  In  In70  1  0.83016385  0.64911974  0.12472229  1
  In  In71  1  0.83086169  0.67022022  0.63138661  1
  In  In72  1  0.33956570  -0.00071569  0.75486925  1
  In  In73  1  0.50200427  0.83279788  0.49281312  1
  In  In74  1  0.33638460  0.32862008  0.23722502  1
  In  In75  1  0.83421544  0.50270453  0.50402865  1
  In  In76  1  0.16652437  0.50387140  -0.00477874  1
  In  In77  1  0.66594971  0.00161107  0.24370442  1
  In  In78  1  0.17071343  0.49993379  0.49844018  1
  In  In79  1  -0.00278628  0.66380483  0.24937412  1
  In  In80  1  0.33338517  0.66397365  0.75594033  1
  In  In81  1  0.83124133  0.83717436  0.00551705  1
  In  In82  1  -0.00509262  0.00032336  0.75279806  1
  In  In83  1  0.33318383  0.33251700  0.74813484  1
  In  In84  1  0.49788001  0.16579020  0.49768377  1
  In  In85  1  0.67051316  0.33523626  0.76276948  1
  Cu  Cu86  1  0.82692265  0.48893553  0.24975071  1
  Cu  Cu87  1  -0.00069355  0.66758743  0.00675853  1
  Cu  Cu88  1  0.67351760  -0.00340569  0.49913228  1
  Cu  Cu89  1  0.32438137  -0.00179104  0.49313923  1
  Cu  Cu90  1  0.83439540  0.16781592  0.24739692  1
  Cu  Cu91  1  0.00097237  0.00609374  0.49722768  1
  Cu  Cu92  1  -0.00316682  0.32749108  0.49769120  1
  Cu  Cu93  1  0.66916310  0.66841590  0.50263656  1
  Cu  Cu94  1  0.15853676  0.16267311  0.25005994  1
  Cu  Cu95  1  0.16209168  0.16832735  0.74951255  1
  Cu  Cu96  1  0.16519126  0.49758235  0.24623017  1
  Cu  Cu97  1  0.50865790  0.17392115  0.23460697  1
  Cu  Cu98  1  0.65881320  0.66968759  0.00439859  1
  Cu  Cu99  1  0.83165824  0.17241326  0.75820849  1
  Cu  Cu100  1  0.33401188  0.33206303  0.49577633  1
  Cu  Cu101  1  0.33664571  0.67689071  0.00723284  1
  Cu  Cu102  1  0.32648058  -0.00648631  0.00733489  1
  Cu  Cu103  1  0.51087101  0.83339463  0.75570479  1
  Cu  Cu104  1  0.32845439  0.33096468  0.00748622  1
  Cu  Cu105  1  0.50445931  0.50012389  0.75685966  1
  Cu  Cu106  1  0.15971941  0.82751764  0.74713317  1
  Cu  Cu107  1  0.66526085  0.33110765  0.49457684  1
  Cu  Cu108  1  0.50596914  0.49616280  0.24182222  1
  Cu  Cu109  1  0.00005596  0.32975604  0.00294558  1
  Cu  Cu110  1  -0.00370915  0.67783950  0.49955602  1
  Cu  Cu111  1  0.83520179  0.50400195  0.75119161  1
  Cu  Cu112  1  0.00895812  -0.00023016  0.00600737  1
  Cu  Cu113  1  0.82867553  0.83518046  0.74865344  1
  Cu  Cu114  1  0.33733867  0.67417790  0.48931426  1
  Se  Se115  1  0.08818260  0.08300800  0.06256618  1
  Se  Se116  1  0.08380179  0.08927373  0.55187617  1
  Se  Se117  1  0.08024107  0.41462551  0.06057922  1
  Se  Se118  1  0.07542948  0.41247140  0.55714583  1
  Se  Se119  1  0.08480547  0.75219251  0.05455577  1
  Se  Se120  1  0.08783477  0.75584668  0.54964302  1
  Se  Se121  1  0.41290927  0.08151570  0.05205803  1
  Se  Se122  1  0.40798409  0.07129565  0.55769388  1
  Se  Se123  1  0.41765188  0.41875208  0.04845861  1
  Se  Se124  1  0.41983562  0.41598933  0.54523944  1
  Se  Se125  1  0.41628630  0.75441076  0.06739330  1
  Se  Se126  1  0.41353979  0.74532942  0.56013688  1
  Se  Se127  1  0.76288523  0.08105173  0.04047729  1
  Se  Se128  1  0.75044967  0.08427534  0.55336981  1
  Se  Se129  1  0.75320775  0.41884165  0.05442898  1
  Se  Se130  1  0.74122279  0.40888364  0.56053995  1
  Se  Se131  1  0.74277651  0.74567715  0.06488696  1
  Se  Se132  1  0.75405177  0.74916088  0.55607835  1
  Se  Se133  1  0.24439260  0.24359776  0.05351641  1
  Se  Se134  1  0.24863599  0.25137985  0.54900593  1
  Se  Se135  1  0.25293505  0.59112233  0.06228600  1
  Se  Se136  1  0.26151617  0.59407424  0.55641076  1
  Se  Se137  1  0.24779668  0.91207918  0.06546456  1
  Se  Se138  1  0.24345065  0.91239815  0.54622564  1
  Se  Se139  1  0.57505215  0.22478456  0.04092521  1
  Se  Se140  1  0.58758159  0.25352146  0.56135905  1
  Se  Se141  1  0.57752945  0.58911245  0.06225777  1
  Se  Se142  1  0.58317679  0.58172030  0.55002715  1
  Se  Se143  1  0.59630624  0.92103494  0.04868067  1
  Se  Se144  1  0.59128055  0.91753780  0.55913043  1
  Se  Se145  1  0.91795130  0.24756920  0.05829821  1
  Se  Se146  1  0.91102798  0.24790171  0.55148679  1
  Se  Se147  1  0.91138272  0.57970646  0.04731838  1
  Se  Se148  1  0.92932971  0.58869302  0.56295371  1
  Se  Se149  1  0.92729308  0.92054768  0.06593022  1
  Se  Se150  1  0.91800356  0.92132405  0.55207657  1
  Se  Se151  1  0.08367292  0.24860527  0.44429439  1
  Se  Se152  1  0.08554397  0.24685363  0.95092900  1
  Se  Se153  1  0.07437907  0.59156511  0.44179534  1
  Se  Se154  1  0.07368469  0.59143982  0.93760805  1
  Se  Se155  1  0.08027381  0.91799274  0.44448485  1
  Se  Se156  1  0.08672990  0.91121505  0.95260226  1
  Se  Se157  1  0.40956133  0.25083622  0.43166250  1
  Se  Se158  1  0.41106906  0.25113009  0.94977000  1
  Se  Se159  1  0.42179490  0.58599199  0.44383794  1
  Se  Se160  1  0.41639128  0.58734795  0.95528132  1
  Se  Se161  1  0.40870970  0.92004546  0.43582387  1
  Se  Se162  1  0.41557290  0.91805677  0.95093589  1
  Se  Se163  1  0.74548897  0.24303047  0.44567173  1
  Se  Se164  1  0.74049280  0.26650225  0.94990518  1
  Se  Se165  1  0.74947165  0.59031959  0.43884367  1
  Se  Se166  1  0.74661754  0.59239050  0.94929875  1
  Se  Se167  1  0.75235687  0.91032859  0.44544108  1
  Se  Se168  1  0.74274096  0.92170770  0.94199458  1
  Se  Se169  1  0.24339582  0.08858573  0.44548313  1
  Se  Se170  1  0.24561643  0.08107282  0.95380924  1
  Se  Se171  1  0.25691145  0.41189407  0.43209194  1
  Se  Se172  1  0.25588574  0.40821037  0.93826052  1
  Se  Se173  1  0.24992108  0.75359974  0.43876526  1
  Se  Se174  1  0.24891540  0.74926503  0.94876422  1
  Se  Se175  1  0.58638676  0.07063363  0.43881285  1
  Se  Se176  1  0.57488953  0.10175784  0.95339180  1
  Se  Se177  1  0.58030231  0.41528936  0.44566727  1
  Se  Se178  1  0.57958986  0.42633402  0.95711112  1
  Se  Se179  1  0.59292736  0.74300319  0.43492100  1
  Se  Se180  1  0.57695147  0.75580631  0.95198459  1
  Se  Se181  1  0.91289441  0.08595565  0.44551354  1
  Se  Se182  1  0.92336290  0.08103475  0.95187502  1
  Se  Se183  1  0.91915663  0.41249701  0.43906521  1
  Se  Se184  1  0.92474794  0.41885339  0.94749677  1
  Se  Se185  1  0.91000394  0.75366880  0.44426929  1
  Se  Se186  1  0.92021438  0.74811173  0.94269118  1
  Se  Se187  1  0.24334652  0.24889307  0.30525281  1
  Se  Se188  1  0.24811625  0.24007957  0.81138067  1
  Se  Se189  1  0.24958731  0.58192215  0.29639931  1
  Se  Se190  1  0.24153713  0.56948330  0.80934799  1
  Se  Se191  1  0.27285506  0.94565488  0.30903526  1
  Se  Se192  1  0.24093200  0.90723913  0.80741294  1
  Se  Se193  1  0.58842765  0.25255917  0.29367927  1
  Se  Se194  1  0.57540435  0.24448295  0.81344948  1
  Se  Se195  1  0.58124027  0.57618712  0.30462673  1
  Se  Se196  1  0.58649928  0.58583887  0.80780069  1
  Se  Se197  1  0.57602769  0.91327596  0.30626438  1
  Se  Se198  1  0.58497259  0.91974125  0.81235476  1
  Se  Se199  1  0.91766158  0.24937940  0.30370344  1
  Se  Se200  1  0.91950081  0.25473116  0.80643803  1
  Se  Se201  1  0.90366546  0.57407465  0.31127683  1
  Se  Se202  1  0.91941190  0.58763372  0.80394659  1
  Se  Se203  1  0.90251818  0.90684304  0.30001713  1
  Se  Se204  1  0.90575317  0.91133661  0.81484396  1
  Se  Se205  1  0.07790249  0.07916382  0.30580835  1
  Se  Se206  1  0.08824263  0.08644317  0.81322491  1
  Se  Se207  1  0.07760057  0.41442676  0.29340140  1
  Se  Se208  1  0.08750099  0.41478477  0.79876364  1
  Se  Se209  1  0.08144603  0.75279850  0.31258882  1
  Se  Se210  1  0.07859610  0.74704524  0.80281362  1
  Se  Se211  1  0.42275646  0.09643168  0.29035897  1
  Se  Se212  1  0.42733400  0.08761320  0.81387968  1
  Se  Se213  1  0.42164385  0.41802563  0.30404672  1
  Se  Se214  1  0.42496720  0.41695381  0.81383523  1
  Se  Se215  1  0.42467288  0.75748957  0.29563044  1
  Se  Se216  1  0.42452516  0.75538344  0.81329375  1
  Se  Se217  1  0.75449553  0.08689410  0.30990042  1
  Se  Se218  1  0.74790465  0.08831486  0.80849562  1
  Se  Se219  1  0.74240919  0.40777237  0.30443825  1
  Se  Se220  1  0.75932179  0.42848066  0.81854141  1
  Se  Se221  1  0.73177023  0.73950692  0.29195011  1
  Se  Se222  1  0.74870421  0.74980358  0.80470960  1
  Se  Se223  1  0.24986559  0.08564286  0.19936728  1
  Se  Se224  1  0.24489823  0.08727878  0.69187977  1
  Se  Se225  1  0.24498757  0.42392932  0.18097730  1
  Se  Se226  1  0.24217143  0.42564701  0.69073464  1
  Se  Se227  1  0.25039015  0.75529197  0.20804354  1
  Se  Se228  1  0.25000937  0.75535836  0.68930367  1
  Se  Se229  1  0.58657692  0.08992904  0.17606237  1
  Se  Se230  1  0.58358234  0.08449776  0.70520899  1
  Se  Se231  1  0.58333544  0.40922518  0.18796063  1
  Se  Se232  1  0.57888502  0.41813702  0.69268224  1
  Se  Se233  1  0.60571391  0.73676316  0.20534859  1
  Se  Se234  1  0.58805491  0.74581893  0.70071213  1
  Se  Se235  1  0.91576406  0.07841341  0.19894920  1
  Se  Se236  1  0.90758526  0.09169156  0.69269745  1
  Se  Se237  1  0.91503883  0.41064631  0.19752928  1
  Se  Se238  1  0.91636172  0.41667826  0.70008845  1
  Se  Se239  1  0.90902237  0.75006486  0.18683861  1
  Se  Se240  1  0.91719941  0.75540302  0.69635261  1
  Se  Se241  1  0.07602884  0.24953908  0.20023801  1
  Se  Se242  1  0.08006819  0.25007266  0.69500734  1
  Se  Se243  1  0.08688514  0.57819394  0.18340331  1
  Se  Se244  1  0.08872271  0.59007776  0.70121659  1
  Se  Se245  1  0.08625111  0.91476538  0.20716736  1
  Se  Se246  1  0.08576973  0.91506950  0.68881551  1
  Se  Se247  1  0.42982402  0.25299769  0.17218773  1
  Se  Se248  1  0.42696571  0.23546311  0.69537883  1
  Se  Se249  1  0.41818014  0.58567103  0.20061057  1
  Se  Se250  1  0.42345929  0.57478303  0.69165504  1
  Se  Se251  1  0.42866913  0.92462629  0.19670385  1
  Se  Se252  1  0.43000052  0.90801585  0.69230021  1
  Se  Se253  1  0.74778013  0.24396508  0.19056514  1
  Se  Se254  1  0.75304944  0.24865865  0.69238827  1
  Se  Se255  1  0.74710952  0.57590245  0.19798370  1
  Se  Se256  1  0.74859129  0.58448405  0.69870039  1
  Se  Se257  1  0.75641894  0.90921085  0.18681026  1
  Se  Se258  1  0.74699785  0.92274328  0.69805719  1
