# generated using pymatgen
data_In86Cu29Se144
_symmetry_space_group_name_H-M   'P 1'
_cell_length_a   17.57968721
_cell_length_b   17.58019954
_cell_length_c   23.43074210
_cell_angle_alpha   90.03038799
_cell_angle_beta   90.00355431
_cell_angle_gamma   89.97893775
_symmetry_Int_Tables_number   1
_chemical_formula_structural   In86Cu29Se144
_chemical_formula_sum   'In86 Cu29 Se144'
_cell_volume   7241.37263439
_cell_formula_units_Z   1
loop_
 _symmetry_equiv_pos_site_id
 _symmetry_equiv_pos_as_xyz
  1  'x, y, z'
loop_
 _atom_site_type_symbol
 _atom_site_label
 _atom_site_symmetry_multiplicity
 _atom_site_fract_x
 _atom_site_fract_y
 _atom_site_fract_z
 _atom_site_occupancy
  In  In0  1  -0.00080928  0.16232876  0.12084940  1
  In  In1  1  0.00603603  0.16364864  0.62591412  1
  In  In2  1  -0.00109860  0.48787956  0.12272420  1
  In  In3  1  -0.01157257  0.50891483  0.63103718  1
  In  In4  1  0.00784405  0.84964459  0.12651404  1
  In  In5  1  0.00010633  0.83604010  0.61378005  1
  In  In6  1  0.31936438  0.15856998  0.11783134  1
  In  In7  1  0.32746449  0.17424933  0.63074773  1
  In  In8  1  0.34306165  0.50423174  0.11753342  1
  In  In9  1  0.33709047  0.48827705  0.62916916  1
  In  In10  1  0.32341287  0.83412762  0.13795005  1
  In  In11  1  0.33821402  0.84027036  0.61934959  1
  In  In12  1  0.68178782  0.15508413  0.12630220  1
  In  In13  1  0.67872460  0.17481134  0.62294370  1
  In  In14  1  0.66445951  0.51859014  0.12713327  1
  In  In15  1  0.65992926  0.48447596  0.61352845  1
  In  In16  1  0.66406425  0.82153712  0.12745176  1
  In  In17  1  0.67152880  0.83157996  0.61486201  1
  In  In18  1  0.16208492  -0.00351115  0.38061468  1
  In  In19  1  0.17368680  0.01324968  0.86959635  1
  In  In20  1  0.15147533  0.32521908  0.38026843  1
  In  In21  1  0.16646982  0.33358754  0.87128489  1
  In  In22  1  0.18170745  0.66883052  0.37344478  1
  In  In23  1  0.15130354  0.67352922  0.87327513  1
  In  In24  1  0.47937094  -0.00255376  0.37412657  1
  In  In25  1  0.49046647  0.01110227  0.87335588  1
  In  In26  1  0.51144998  0.34133246  0.38429898  1
  In  In27  1  0.50247598  0.34640001  0.86306168  1
  In  In28  1  0.50002642  0.66379656  0.37859678  1
  In  In29  1  0.49025124  0.66184499  0.87453646  1
  In  In30  1  0.84073020  -0.00034165  0.38270707  1
  In  In31  1  0.84652868  -0.00531305  0.87664541  1
  In  In32  1  0.83223162  0.32302156  0.39156376  1
  In  In33  1  0.82546018  0.32643096  0.86631270  1
  In  In34  1  0.83184985  0.67393167  0.37791194  1
  In  In35  1  0.84316256  0.66719050  0.87167413  1
  In  In36  1  0.02277126  0.12772706  0.41817197  1
  In  In37  1  0.00168699  0.16703571  0.87203824  1
  In  In38  1  -0.00793672  0.49993229  0.38274228  1
  In  In39  1  0.00562012  0.50859973  0.86614881  1
  In  In40  1  -0.02054753  0.85250030  0.39966108  1
  In  In41  1  -0.00892321  0.82667987  0.86637145  1
  In  In42  1  0.32209273  0.15102352  0.36979057  1
  In  In43  1  0.31759517  0.15771459  0.86817236  1
  In  In44  1  0.33430027  0.51331325  0.37467901  1
  In  In45  1  0.33995965  0.49123740  0.87962605  1
  In  In46  1  0.33164454  0.83201285  0.38087625  1
  In  In47  1  0.31925997  0.84254764  0.87253704  1
  In  In48  1  0.68406072  0.17303335  0.38457679  1
  In  In49  1  0.66980927  0.18200314  0.87263869  1
  In  In50  1  0.65891511  0.49968772  0.38137718  1
  In  In51  1  0.66414528  0.48826272  0.87266920  1
  In  In52  1  0.67680652  0.81763845  0.38167568  1
  In  In53  1  0.67761181  0.84817182  0.87186771  1
  In  In54  1  0.16519132  0.00396410  0.13224747  1
  In  In55  1  0.15918602  0.00397767  0.61757534  1
  In  In56  1  0.15947171  0.32950354  0.11225911  1
  In  In57  1  0.17636725  0.32186275  0.63329298  1
  In  In58  1  0.17838937  0.67068777  0.12781449  1
  In  In59  1  0.14729133  0.67018947  0.62008062  1
  In  In60  1  0.49388782  -0.01319405  0.12838516  1
  In  In61  1  0.50125364  -0.01006942  0.62304492  1
  In  In62  1  0.48890954  0.33487015  0.11870317  1
  In  In63  1  0.49512787  0.34588499  0.63616956  1
  In  In64  1  0.50680971  0.66345003  0.13143705  1
  In  In65  1  0.50116978  0.66415684  0.61911665  1
  In  In66  1  0.85137164  0.00839809  0.11947599  1
  In  In67  1  0.85871451  0.01900633  0.60318087  1
  In  In68  1  0.84653184  0.32874717  0.12211463  1
  In  In69  1  0.83369681  0.33691605  0.62954595  1
  In  In70  1  0.81679657  0.66879775  0.13124352  1
  In  In71  1  0.84885308  0.66901921  0.60885072  1
  In  In72  1  0.66971250  0.00333969  0.74087843  1
  In  In73  1  0.50112931  0.17339148  -0.00668053  1
  In  In74  1  0.83326245  0.49543318  -0.00009677  1
  In  In75  1  0.00336524  0.67465412  0.26113179  1
  In  In76  1  0.32542202  0.33034747  0.25354502  1
  In  In77  1  0.16521228  0.83722615  0.00329561  1
  In  In78  1  0.50095065  0.16638817  0.49648191  1
  In  In79  1  0.16998298  0.49799040  0.50308315  1
  In  In80  1  0.66640334  0.33763062  0.25880031  1
  In  In81  1  -0.00511438  0.33073584  0.25097797  1
  In  In82  1  0.32624596  0.66334148  0.74169604  1
  In  In83  1  0.50268444  0.82793708  -0.00071134  1
  In  In84  1  0.67196008  0.65974675  0.74593600  1
  In  In85  1  0.66388835  -0.01197222  0.24944017  1
  Cu  Cu86  1  0.68285786  0.00185991  -0.00053810  1
  Cu  Cu87  1  0.32775212  -0.00209536  0.49847608  1
  Cu  Cu88  1  0.84194785  0.83610273  0.73580268  1
  Cu  Cu89  1  0.32870505  0.33554947  -0.00591465  1
  Cu  Cu90  1  0.49995730  0.50676582  0.25024565  1
  Cu  Cu91  1  0.83921052  0.83774076  0.25769897  1
  Cu  Cu92  1  0.49417776  0.16521341  0.25407899  1
  Cu  Cu93  1  0.00506760  0.33072461  -0.00697468  1
  Cu  Cu94  1  0.66293658  -0.01010056  0.49866876  1
  Cu  Cu95  1  0.16432919  0.49767637  0.74861822  1
  Cu  Cu96  1  0.00380304  0.00154985  -0.00279816  1
  Cu  Cu97  1  0.83961919  0.16533479  0.74440715  1
  Cu  Cu98  1  -0.00023448  0.33032026  0.51196800  1
  Cu  Cu99  1  0.16153062  0.16307972  0.74792024  1
  Cu  Cu100  1  0.33501887  0.65937918  0.00361360  1
  Cu  Cu101  1  0.33565201  0.33097143  0.50558743  1
  Cu  Cu102  1  0.49276852  0.83742047  0.74387390  1
  Cu  Cu103  1  0.33866695  0.66758664  0.50029387  1
  Cu  Cu104  1  0.16655333  0.83981203  0.25768039  1
  Cu  Cu105  1  0.16902845  0.50046498  0.24614664  1
  Cu  Cu106  1  0.49379864  0.82368806  0.25621143  1
  Cu  Cu107  1  0.66796519  0.33275386  -0.00507251  1
  Cu  Cu108  1  0.49342595  0.17236813  0.75188201  1
  Cu  Cu109  1  0.83683493  0.50237743  0.74572604  1
  Cu  Cu110  1  0.66694565  0.66215942  0.49853497  1
  Cu  Cu111  1  0.15793360  0.84468987  0.74604778  1
  Cu  Cu112  1  0.84428582  0.16518899  0.25526134  1
  Cu  Cu113  1  0.66534344  0.66702007  0.00410531  1
  Cu  Cu114  1  -0.00647046  0.66666882  -0.00579784  1
  Se  Se115  1  0.08683490  0.07889498  0.05587540  1
  Se  Se116  1  0.07124963  0.07989345  0.54724615  1
  Se  Se117  1  0.08118716  0.42055505  0.04674184  1
  Se  Se118  1  0.08462446  0.41210018  0.56855847  1
  Se  Se119  1  0.07449454  0.74158037  0.06014510  1
  Se  Se120  1  0.08703110  0.75590849  0.54505715  1
  Se  Se121  1  0.42088072  0.07773367  0.05575201  1
  Se  Se122  1  0.41032392  0.07915127  0.55857717  1
  Se  Se123  1  0.41681278  0.41671785  0.04571582  1
  Se  Se124  1  0.41904414  0.41593509  0.55450828  1
  Se  Se125  1  0.40848153  0.74672350  0.06369868  1
  Se  Se126  1  0.42074765  0.75236212  0.55406765  1
  Se  Se127  1  0.76380635  0.08855913  0.05078622  1
  Se  Se128  1  0.73903327  0.07710781  0.55414163  1
  Se  Se129  1  0.74108111  0.41054761  0.06359261  1
  Se  Se130  1  0.77438135  0.43291870  0.55741292  1
  Se  Se131  1  0.75007418  0.75129952  0.05355550  1
  Se  Se132  1  0.75241589  0.74772835  0.54767397  1
  Se  Se133  1  0.24992250  0.24924241  0.04812733  1
  Se  Se134  1  0.24932570  0.24748119  0.55360691  1
  Se  Se135  1  0.24541831  0.58144334  0.05568309  1
  Se  Se136  1  0.25937645  0.58985471  0.56471092  1
  Se  Se137  1  0.25945876  0.92288875  0.06088840  1
  Se  Se138  1  0.24604843  0.91562151  0.55375567  1
  Se  Se139  1  0.59505460  0.25227281  0.06240750  1
  Se  Se140  1  0.57844009  0.25531663  0.56407155  1
  Se  Se141  1  0.57790211  0.58463267  0.05262006  1
  Se  Se142  1  0.58230416  0.58025473  0.55160506  1
  Se  Se143  1  0.59568920  0.92417733  0.05647112  1
  Se  Se144  1  0.57760219  0.90913046  0.55081715  1
  Se  Se145  1  0.92204659  0.24933951  0.04974313  1
  Se  Se146  1  0.91419130  0.24690587  0.56273019  1
  Se  Se147  1  0.91736310  0.59052206  0.06138614  1
  Se  Se148  1  0.92447058  0.57363929  0.54550760  1
  Se  Se149  1  0.92233738  0.91503975  0.05067268  1
  Se  Se150  1  0.90542453  0.90551595  0.54460340  1
  Se  Se151  1  0.08789243  0.24967880  0.46071786  1
  Se  Se152  1  0.08862328  0.24610190  0.94137027  1
  Se  Se153  1  0.08619764  0.58836485  0.44020367  1
  Se  Se154  1  0.08012719  0.58483960  0.94446137  1
  Se  Se155  1  0.08369918  0.92024914  0.45627691  1
  Se  Se156  1  0.07884632  0.91835346  0.93492801  1
  Se  Se157  1  0.40584747  0.25267201  0.43496453  1
  Se  Se158  1  0.40960182  0.25696813  0.93120905  1
  Se  Se159  1  0.41918747  0.57846373  0.44984901  1
  Se  Se160  1  0.41921842  0.58017021  0.94830656  1
  Se  Se161  1  0.41641514  0.91421373  0.45132909  1
  Se  Se162  1  0.41128258  0.92042036  0.94323467  1
  Se  Se163  1  0.73191141  0.26482910  0.46039903  1
  Se  Se164  1  0.75592062  0.25021970  0.94708020  1
  Se  Se165  1  0.75083438  0.58319819  0.44274602  1
  Se  Se166  1  0.74429017  0.58861021  0.93909381  1
  Se  Se167  1  0.75184503  0.91334367  0.44449912  1
  Se  Se168  1  0.76130329  0.91383688  0.94691515  1
  Se  Se169  1  0.24591149  0.08568564  0.44930058  1
  Se  Se170  1  0.25540160  0.07721237  0.94728584  1
  Se  Se171  1  0.25791197  0.40820287  0.43810817  1
  Se  Se172  1  0.24292550  0.42024853  0.94369666  1
  Se  Se173  1  0.25002249  0.74862819  0.45138183  1
  Se  Se174  1  0.25608406  0.74173986  0.94364167  1
  Se  Se175  1  0.58850070  0.07227516  0.43521519  1
  Se  Se176  1  0.59689561  0.07650211  0.93928974  1
  Se  Se177  1  0.59300139  0.41160421  0.45610874  1
  Se  Se178  1  0.58068583  0.41354794  0.94495779  1
  Se  Se179  1  0.58132240  0.74803409  0.44809574  1
  Se  Se180  1  0.59513751  0.74444611  0.93334334  1
  Se  Se181  1  0.88369979  0.10975118  0.44820434  1
  Se  Se182  1  0.91968843  0.08578826  0.94446262  1
  Se  Se183  1  0.92224505  0.41020069  0.45216656  1
  Se  Se184  1  0.92175533  0.41243971  0.93473252  1
  Se  Se185  1  0.92473069  0.73520170  0.44988270  1
  Se  Se186  1  0.91246261  0.75415762  0.94464070  1
  Se  Se187  1  0.23007255  0.24055182  0.30675108  1
  Se  Se188  1  0.24588383  0.24894230  0.79993347  1
  Se  Se189  1  0.25253566  0.58325660  0.29912150  1
  Se  Se190  1  0.24166374  0.58137952  0.81101861  1
  Se  Se191  1  0.25254766  0.91926798  0.31230941  1
  Se  Se192  1  0.24729178  0.92216760  0.79861439  1
  Se  Se193  1  0.57733373  0.23820837  0.31399764  1
  Se  Se194  1  0.58357462  0.25252479  0.80132021  1
  Se  Se195  1  0.58431316  0.58285944  0.30768302  1
  Se  Se196  1  0.57605553  0.57736308  0.80639767  1
  Se  Se197  1  0.57554682  0.90554561  0.31547266  1
  Se  Se198  1  0.57503968  0.91627678  0.80491522  1
  Se  Se199  1  0.91765623  0.24348415  0.31948944  1
  Se  Se200  1  0.91811845  0.24958437  0.80216861  1
  Se  Se201  1  0.91071134  0.57654869  0.30794567  1
  Se  Se202  1  0.91847002  0.58925890  0.79813381  1
  Se  Se203  1  0.92144002  0.92018764  0.31071267  1
  Se  Se204  1  0.91652918  0.91803253  0.79790968  1
  Se  Se205  1  0.07429422  0.08662370  0.32078734  1
  Se  Se206  1  0.07808989  0.07945364  0.80137401  1
  Se  Se207  1  0.08836802  0.42640323  0.30857910  1
  Se  Se208  1  0.08036755  0.41446858  0.80188111  1
  Se  Se209  1  0.08640528  0.76609107  0.32227656  1
  Se  Se210  1  0.08072124  0.75235878  0.79687915  1
  Se  Se211  1  0.40817024  0.07754296  0.29812007  1
  Se  Se212  1  0.41089785  0.08317230  0.79925318  1
  Se  Se213  1  0.42470562  0.41902386  0.30853502  1
  Se  Se214  1  0.40951229  0.42178147  0.79900113  1
  Se  Se215  1  0.41055689  0.74345048  0.31152271  1
  Se  Se216  1  0.41531903  0.75792034  0.80606278  1
  Se  Se217  1  0.75121392  0.08584186  0.30593982  1
  Se  Se218  1  0.75628461  0.08814891  0.80763143  1
  Se  Se219  1  0.76070158  0.41805656  0.31819131  1
  Se  Se220  1  0.75246450  0.42138740  0.80042654  1
  Se  Se221  1  0.75307163  0.74962755  0.30152281  1
  Se  Se222  1  0.75927450  0.76187346  0.80006508  1
  Se  Se223  1  0.25836731  0.08026430  0.19692129  1
  Se  Se224  1  0.24398148  0.08179515  0.69065062  1
  Se  Se225  1  0.24411840  0.41824454  0.18480014  1
  Se  Se226  1  0.25181663  0.41498510  0.70002165  1
  Se  Se227  1  0.24533277  0.74868323  0.20693088  1
  Se  Se228  1  0.23858865  0.76039030  0.68731378  1
  Se  Se229  1  0.57624340  0.08833961  0.19166458  1
  Se  Se230  1  0.57340161  0.09552286  0.68744307  1
  Se  Se231  1  0.57433588  0.41888864  0.19088658  1
  Se  Se232  1  0.59492526  0.41721984  0.69777193  1
  Se  Se233  1  0.58408009  0.74872608  0.20199496  1
  Se  Se234  1  0.57956866  0.75761161  0.69109301  1
  Se  Se235  1  0.92392406  0.08365407  0.19761113  1
  Se  Se236  1  0.91980167  0.07762915  0.69343569  1
  Se  Se237  1  0.90213789  0.42727056  0.19618240  1
  Se  Se238  1  0.92247303  0.41344985  0.70011986  1
  Se  Se239  1  0.91584179  0.75836563  0.19122951  1
  Se  Se240  1  0.92210378  0.74797658  0.68551877  1
  Se  Se241  1  0.08931425  0.24626402  0.19045579  1
  Se  Se242  1  0.07932768  0.25089889  0.69816930  1
  Se  Se243  1  0.08262440  0.58027340  0.19044995  1
  Se  Se244  1  0.08346069  0.58461797  0.69665604  1
  Se  Se245  1  0.08330080  0.92200374  0.20313173  1
  Se  Se246  1  0.07534035  0.92157330  0.68746114  1
  Se  Se247  1  0.41839206  0.24393406  0.19082561  1
  Se  Se248  1  0.41056145  0.25666948  0.69878359  1
  Se  Se249  1  0.41304749  0.58415789  0.19493539  1
  Se  Se250  1  0.42884889  0.57620451  0.69421282  1
  Se  Se251  1  0.41603034  0.91224289  0.20251001  1
  Se  Se252  1  0.40985385  0.92367377  0.69522738  1
  Se  Se253  1  0.76046050  0.24544357  0.19722374  1
  Se  Se254  1  0.75118637  0.25157533  0.69969813  1
  Se  Se255  1  0.74894509  0.58109963  0.20192133  1
  Se  Se256  1  0.76128729  0.58077524  0.68065771  1
  Se  Se257  1  0.76237202  0.91097030  0.18746093  1
  Se  Se258  1  0.76034625  0.91831606  0.67948498  1
