# generated using pymatgen
data_In86Cu29Se144
_symmetry_space_group_name_H-M   'P 1'
_cell_length_a   17.57166251
_cell_length_b   17.57356148
_cell_length_c   23.42411540
_cell_angle_alpha   89.98964366
_cell_angle_beta   89.99000926
_cell_angle_gamma   90.00478424
_symmetry_Int_Tables_number   1
_chemical_formula_structural   In86Cu29Se144
_chemical_formula_sum   'In86 Cu29 Se144'
_cell_volume   7233.28908477
_cell_formula_units_Z   1
loop_
 _symmetry_equiv_pos_site_id
 _symmetry_equiv_pos_as_xyz
  1  'x, y, z'
loop_
 _atom_site_type_symbol
 _atom_site_label
 _atom_site_symmetry_multiplicity
 _atom_site_fract_x
 _atom_site_fract_y
 _atom_site_fract_z
 _atom_site_occupancy
  In  In0  1  -0.01345908  0.16561152  0.11986266  1
  In  In1  1  0.02561988  0.15202143  0.65376201  1
  In  In2  1  -0.00800850  0.51081539  0.12030928  1
  In  In3  1  0.02029143  0.49053225  0.64679255  1
  In  In4  1  0.01577813  0.83718379  0.11911311  1
  In  In5  1  0.00758086  0.82407168  0.63984469  1
  In  In6  1  0.33744720  0.16207588  0.12823100  1
  In  In7  1  0.36062999  0.14509584  0.65270410  1
  In  In8  1  0.34019901  0.49342131  0.13247224  1
  In  In9  1  0.34336644  0.48881837  0.63616784  1
  In  In10  1  0.33528691  0.83702798  0.11994506  1
  In  In11  1  0.33575808  0.83718699  0.62024646  1
  In  In12  1  0.66890259  0.16539115  0.12598488  1
  In  In13  1  0.63991939  0.18153548  0.64595576  1
  In  In14  1  0.67116964  0.49021137  0.13258550  1
  In  In15  1  0.65362354  0.50016932  0.62175995  1
  In  In16  1  0.65307331  0.84675345  0.12984990  1
  In  In17  1  0.66026686  0.85121845  0.62815649  1
  In  In18  1  0.16377331  -0.01137925  0.36792477  1
  In  In19  1  0.16181744  -0.00383972  0.86443798  1
  In  In20  1  0.17674781  0.31575854  0.37987833  1
  In  In21  1  0.16011995  0.32350498  0.85216218  1
  In  In22  1  0.17725802  0.67746520  0.37869928  1
  In  In23  1  0.18002791  0.67319679  0.86457013  1
  In  In24  1  0.49799124  0.00196474  0.37764636  1
  In  In25  1  0.49042196  -0.00327606  0.86135371  1
  In  In26  1  0.49677919  0.32390797  0.37790222  1
  In  In27  1  0.50425792  0.32344247  0.86232418  1
  In  In28  1  0.50778600  0.66479627  0.38503487  1
  In  In29  1  0.49596388  0.67949496  0.87538658  1
  In  In30  1  0.83307100  0.00003823  0.36594760  1
  In  In31  1  0.84347907  0.00924891  0.87012856  1
  In  In32  1  0.82695475  0.35152183  0.37833249  1
  In  In33  1  0.82538648  0.32962383  0.87764977  1
  In  In34  1  0.82555182  0.67953837  0.37504613  1
  In  In35  1  0.83051432  0.65444931  0.87815486  1
  In  In36  1  0.01393232  0.16003728  0.37844125  1
  In  In37  1  -0.00773074  0.15665117  0.86743419  1
  In  In38  1  -0.00260386  0.50066523  0.37958605  1
  In  In39  1  -0.00679482  0.48753842  0.86228868  1
  In  In40  1  -0.00035467  0.83780317  0.37604863  1
  In  In41  1  0.01102271  0.85195976  0.86617833  1
  In  In42  1  0.34237092  0.17494703  0.37240873  1
  In  In43  1  0.33195497  0.16343903  0.84894569  1
  In  In44  1  0.35435087  0.50331757  0.37466843  1
  In  In45  1  0.31806147  0.49296158  0.85986586  1
  In  In46  1  0.32271224  0.84718342  0.38411213  1
  In  In47  1  0.33139922  0.83309463  0.87008983  1
  In  In48  1  0.65575009  0.15348067  0.36894522  1
  In  In49  1  0.67556845  0.17525289  0.86607991  1
  In  In50  1  0.62718101  0.47172096  0.34357491  1
  In  In51  1  0.67902814  0.49387629  0.88157748  1
  In  In52  1  0.66412066  0.82799637  0.36837588  1
  In  In53  1  0.64894574  0.82977786  0.87670615  1
  In  In54  1  0.17701023  -0.01534321  0.13343420  1
  In  In55  1  0.18177170  -0.01037459  0.63257442  1
  In  In56  1  0.17523110  0.33433750  0.12439918  1
  In  In57  1  0.19511683  0.30959927  0.66473260  1
  In  In58  1  0.15899106  0.66696501  0.12166706  1
  In  In59  1  0.16102257  0.67405558  0.63531730  1
  In  In60  1  0.50533121  -0.00401484  0.12883063  1
  In  In61  1  0.50190542  -0.00067137  0.62149988  1
  In  In62  1  0.50410601  0.33037525  0.13421430  1
  In  In63  1  0.49963644  0.33569880  0.62559623  1
  In  In64  1  0.49294249  0.67807398  0.12777544  1
  In  In65  1  0.49340789  0.65815746  0.61373704  1
  In  In66  1  0.82644428  0.01232724  0.12778913  1
  In  In67  1  0.82640202  -0.00526080  0.63837030  1
  In  In68  1  0.81355703  0.32126996  0.10355574  1
  In  In69  1  0.83347903  0.32855701  0.63217328  1
  In  In70  1  0.83289913  0.65474834  0.11611230  1
  In  In71  1  0.84603877  0.67918296  0.63048878  1
  In  In72  1  0.66754011  0.66447849  0.75129064  1
  In  In73  1  -0.00540616  0.66922956  0.24858844  1
  In  In74  1  0.82700734  0.83479817  0.50708518  1
  In  In75  1  0.33572541  0.67194165  0.24915860  1
  In  In76  1  0.83335140  0.83544173  -0.00529302  1
  In  In77  1  0.82623085  0.16541715  0.50667984  1
  In  In78  1  0.16341527  0.50329327  -0.00377973  1
  In  In79  1  0.18315205  0.16209491  0.51834708  1
  In  In80  1  0.17399592  0.50073967  0.51340430  1
  In  In81  1  0.50599745  0.16707767  -0.00309275  1
  In  In82  1  -0.00473478  0.32559486  0.24599289  1
  In  In83  1  0.50053156  0.50153540  -0.00723534  1
  In  In84  1  0.16126268  0.16012002  -0.01409035  1
  In  In85  1  0.82633110  0.51487328  0.50444519  1
  Cu  Cu86  1  0.66279209  0.66455665  0.49430726  1
  Cu  Cu87  1  0.82972178  0.49565897  0.75368039  1
  Cu  Cu88  1  0.33470758  0.67464219  0.50142162  1
  Cu  Cu89  1  0.00257458  -0.00899485  0.50047418  1
  Cu  Cu90  1  0.83230185  0.83764063  0.24479570  1
  Cu  Cu91  1  0.65980877  0.66989211  0.00212054  1
  Cu  Cu92  1  0.00109516  0.32986916  0.51897044  1
  Cu  Cu93  1  0.17529269  0.83976788  0.74909710  1
  Cu  Cu94  1  0.82320842  0.49576353  0.24321148  1
  Cu  Cu95  1  0.82971222  0.16705699  0.75162821  1
  Cu  Cu96  1  0.65620170  0.32954812  0.49831861  1
  Cu  Cu97  1  0.49702223  0.16604749  0.25044405  1
  Cu  Cu98  1  0.33584251  0.00783909  0.50294786  1
  Cu  Cu99  1  0.66365585  0.00256991  0.00120831  1
  Cu  Cu100  1  0.17040755  0.15612462  0.25478736  1
  Cu  Cu101  1  0.33380799  0.32960917  -0.00738400  1
  Cu  Cu102  1  0.49183791  0.83122695  0.74629742  1
  Cu  Cu103  1  0.17291414  0.48613044  0.25306053  1
  Cu  Cu104  1  0.49642987  0.83685431  0.25245177  1
  Cu  Cu105  1  0.34136940  0.33874427  0.50546780  1
  Cu  Cu106  1  0.00998934  0.67024782  0.51405872  1
  Cu  Cu107  1  0.00441856  0.66986881  -0.00529301  1
  Cu  Cu108  1  0.33055220  0.67179588  -0.00427100  1
  Cu  Cu109  1  -0.01106769  0.33912350  -0.00637651  1
  Cu  Cu110  1  0.65853589  0.00451923  0.50194169  1
  Cu  Cu111  1  0.33338238  -0.00995298  -0.00753819  1
  Cu  Cu112  1  0.50468413  0.49865512  0.74925155  1
  Cu  Cu113  1  0.83442218  0.17183444  0.24739560  1
  Cu  Cu114  1  0.00428460  0.00109309  -0.00545859  1
  Se  Se115  1  0.08354961  0.07822825  0.05965480  1
  Se  Se116  1  0.07701835  0.07411955  0.56363880  1
  Se  Se117  1  0.07405760  0.40839170  0.05784048  1
  Se  Se118  1  0.09184188  0.40372972  0.57201258  1
  Se  Se119  1  0.08856056  0.75043256  0.04763013  1
  Se  Se120  1  0.08998478  0.76072517  0.56030552  1
  Se  Se121  1  0.41059370  0.07449377  0.05297488  1
  Se  Se122  1  0.41578377  0.09004018  0.55949214  1
  Se  Se123  1  0.41213365  0.40689826  0.05504741  1
  Se  Se124  1  0.42343958  0.42599389  0.55543631  1
  Se  Se125  1  0.41601481  0.75124881  0.05117571  1
  Se  Se126  1  0.42242630  0.75727915  0.55100982  1
  Se  Se127  1  0.74800626  0.08611183  0.05190342  1
  Se  Se128  1  0.73953107  0.07621034  0.56751218  1
  Se  Se129  1  0.75312096  0.43422997  0.05144777  1
  Se  Se130  1  0.74341502  0.40713955  0.55701100  1
  Se  Se131  1  0.74167923  0.75321324  0.06006830  1
  Se  Se132  1  0.73813859  0.73847093  0.56315713  1
  Se  Se133  1  0.25415581  0.24726431  0.05186677  1
  Se  Se134  1  0.26662888  0.26156645  0.57135530  1
  Se  Se135  1  0.26087445  0.58515566  0.06017297  1
  Se  Se136  1  0.26201593  0.59533860  0.56849303  1
  Se  Se137  1  0.24765508  0.91561941  0.05045807  1
  Se  Se138  1  0.25092638  0.92083404  0.55089021  1
  Se  Se139  1  0.58953162  0.26103262  0.05702885  1
  Se  Se140  1  0.57959500  0.24680337  0.55712084  1
  Se  Se141  1  0.58122460  0.58752017  0.06221794  1
  Se  Se142  1  0.58076625  0.57773146  0.54583443  1
  Se  Se143  1  0.57811665  0.91865600  0.05082895  1
  Se  Se144  1  0.57803640  0.91208698  0.54870086  1
  Se  Se145  1  0.91429241  0.24637595  0.04488984  1
  Se  Se146  1  0.92504020  0.23868416  0.57125001  1
  Se  Se147  1  0.91843332  0.58441837  0.04234082  1
  Se  Se148  1  0.92990660  0.58290392  0.56817694  1
  Se  Se149  1  0.92041477  0.92587652  0.05712921  1
  Se  Se150  1  0.92221772  0.91935144  0.56566499  1
  Se  Se151  1  0.08213785  0.25097726  0.45543073  1
  Se  Se152  1  0.07478926  0.26231731  0.93484920  1
  Se  Se153  1  0.08169807  0.58918312  0.44750423  1
  Se  Se154  1  0.07977897  0.58889199  0.93082085  1
  Se  Se155  1  0.08689455  0.91269866  0.44565723  1
  Se  Se156  1  0.09155926  0.92046404  0.94426994  1
  Se  Se157  1  0.41549194  0.24661024  0.45225199  1
  Se  Se158  1  0.40786687  0.24580467  0.93265204  1
  Se  Se159  1  0.41704402  0.58694827  0.45166911  1
  Se  Se160  1  0.40122244  0.58432334  0.93479911  1
  Se  Se161  1  0.41664889  0.92099742  0.44938053  1
  Se  Se162  1  0.42092636  0.91382851  0.93776044  1
  Se  Se163  1  0.74363278  0.25533101  0.43916818  1
  Se  Se164  1  0.74395252  0.24671971  0.94659728  1
  Se  Se165  1  0.73906937  0.58405203  0.43167338  1
  Se  Se166  1  0.74543306  0.58629119  0.95265594  1
  Se  Se167  1  0.74500089  0.92675747  0.44221217  1
  Se  Se168  1  0.74162506  0.92451649  0.93661814  1
  Se  Se169  1  0.25208213  0.08166001  0.43887213  1
  Se  Se170  1  0.26406776  0.07877394  0.93137513  1
  Se  Se171  1  0.25677059  0.41238967  0.44346281  1
  Se  Se172  1  0.24558287  0.40478236  0.93655696  1
  Se  Se173  1  0.24598269  0.75736397  0.45407369  1
  Se  Se174  1  0.24712183  0.75432062  0.94311949  1
  Se  Se175  1  0.57688731  0.08904876  0.44872820  1
  Se  Se176  1  0.58664114  0.07588539  0.93275331  1
  Se  Se177  1  0.58172431  0.41702637  0.44057847  1
  Se  Se178  1  0.58624096  0.40217297  0.94007587  1
  Se  Se179  1  0.58608575  0.76068579  0.44790971  1
  Se  Se180  1  0.57407777  0.75195823  0.95236106  1
  Se  Se181  1  0.92178311  0.07502238  0.44447681  1
  Se  Se182  1  0.91732333  0.08645776  0.94744586  1
  Se  Se183  1  0.92547624  0.41162864  0.45504823  1
  Se  Se184  1  0.90971147  0.42370890  0.93991574  1
  Se  Se185  1  0.92412546  0.74206494  0.44946405  1
  Se  Se186  1  0.92572753  0.75053935  0.93347753  1
  Se  Se187  1  0.25139042  0.24714150  0.30096226  1
  Se  Se188  1  0.26381921  0.26549544  0.78805426  1
  Se  Se189  1  0.24501891  0.57575639  0.31035407  1
  Se  Se190  1  0.25898658  0.59263236  0.79409614  1
  Se  Se191  1  0.25205112  0.91077181  0.30142017  1
  Se  Se192  1  0.25972436  0.92531026  0.79983903  1
  Se  Se193  1  0.58201377  0.24791948  0.30425919  1
  Se  Se194  1  0.57896262  0.23538446  0.79530121  1
  Se  Se195  1  0.59333291  0.60456738  0.30760489  1
  Se  Se196  1  0.57939059  0.57664014  0.81585212  1
  Se  Se197  1  0.58123771  0.91929065  0.30712289  1
  Se  Se198  1  0.58021769  0.90930419  0.79936252  1
  Se  Se199  1  0.91029324  0.24461414  0.31863944  1
  Se  Se200  1  0.91111364  0.25089888  0.80717583  1
  Se  Se201  1  0.90488276  0.57322576  0.30714536  1
  Se  Se202  1  0.91172699  0.58382336  0.80288623  1
  Se  Se203  1  0.91744997  0.91258194  0.30301808  1
  Se  Se204  1  0.91585542  0.92103894  0.80152651  1
  Se  Se205  1  0.07950435  0.07680400  0.30271129  1
  Se  Se206  1  0.09969400  0.10277073  0.80470070  1
  Se  Se207  1  0.08501670  0.41299915  0.31319070  1
  Se  Se208  1  0.10323324  0.43837528  0.80021535  1
  Se  Se209  1  0.08974898  0.75413121  0.30643745  1
  Se  Se210  1  0.09030072  0.75900434  0.80322302  1
  Se  Se211  1  0.41561056  0.08203234  0.30545590  1
  Se  Se212  1  0.42616238  0.08693677  0.78802543  1
  Se  Se213  1  0.41357724  0.40615957  0.30816052  1
  Se  Se214  1  0.41966262  0.41660793  0.80313710  1
  Se  Se215  1  0.41936380  0.75750480  0.31651209  1
  Se  Se216  1  0.41224115  0.74617343  0.80021507  1
  Se  Se217  1  0.75111191  0.08577971  0.30077975  1
  Se  Se218  1  0.74793800  0.07780502  0.80204924  1
  Se  Se219  1  0.74630265  0.40675517  0.29675151  1
  Se  Se220  1  0.74445386  0.41229906  0.80434586  1
  Se  Se221  1  0.75128653  0.75191458  0.29769277  1
  Se  Se222  1  0.75185997  0.75311806  0.81541579  1
  Se  Se223  1  0.25441481  0.07953051  0.19568772  1
  Se  Se224  1  0.22588753  0.10951917  0.68756587  1
  Se  Se225  1  0.25697302  0.40692204  0.19845692  1
  Se  Se226  1  0.22855588  0.44595678  0.69672321  1
  Se  Se227  1  0.24020336  0.75500660  0.18919547  1
  Se  Se228  1  0.25635990  0.75664135  0.69371876  1
  Se  Se229  1  0.58275005  0.08664194  0.19425974  1
  Se  Se230  1  0.60992037  0.05039110  0.68781516  1
  Se  Se231  1  0.58010221  0.41909840  0.20034977  1
  Se  Se232  1  0.58798783  0.41528760  0.69653619  1
  Se  Se233  1  0.57931358  0.75423001  0.19757645  1
  Se  Se234  1  0.57616654  0.74904089  0.68825912  1
  Se  Se235  1  0.91815102  0.08567006  0.19734759  1
  Se  Se236  1  0.91376058  0.08037387  0.70226374  1
  Se  Se237  1  0.91001578  0.41835533  0.18483812  1
  Se  Se238  1  0.91445002  0.41395404  0.69997372  1
  Se  Se239  1  0.90958371  0.75723894  0.18134088  1
  Se  Se240  1  0.91702007  0.75135058  0.70821057  1
  Se  Se241  1  0.09264377  0.23707488  0.18836381  1
  Se  Se242  1  0.06113724  0.27638746  0.70312763  1
  Se  Se243  1  0.09129278  0.57007173  0.19542410  1
  Se  Se244  1  0.06332505  0.60896813  0.70204917  1
  Se  Se245  1  0.07684617  0.91743093  0.19712241  1
  Se  Se246  1  0.08492140  0.92261274  0.69989623  1
  Se  Se247  1  0.41321790  0.24939099  0.19682637  1
  Se  Se248  1  0.40868781  0.26878805  0.69780902  1
  Se  Se249  1  0.42992199  0.57506546  0.19806163  1
  Se  Se250  1  0.42543925  0.58486963  0.69565702  1
  Se  Se251  1  0.41463923  0.91571691  0.19360877  1
  Se  Se252  1  0.41504023  0.92040851  0.69144267  1
  Se  Se253  1  0.75372361  0.25351895  0.19118017  1
  Se  Se254  1  0.74587303  0.25329441  0.70144737  1
  Se  Se255  1  0.74899155  0.58985924  0.19266223  1
  Se  Se256  1  0.75686551  0.57584066  0.68700204  1
  Se  Se257  1  0.74811906  0.92200236  0.19351349  1
  Se  Se258  1  0.76798761  0.88452152  0.69720673  1
