# generated using pymatgen
data_In86Cu29Se144
_symmetry_space_group_name_H-M   'P 1'
_cell_length_a   17.58280128
_cell_length_b   17.58561585
_cell_length_c   23.44808251
_cell_angle_alpha   90.01824818
_cell_angle_beta   89.97791499
_cell_angle_gamma   89.99897056
_symmetry_Int_Tables_number   1
_chemical_formula_structural   In86Cu29Se144
_chemical_formula_sum   'In86 Cu29 Se144'
_cell_volume   7250.24911381
_cell_formula_units_Z   1
loop_
 _symmetry_equiv_pos_site_id
 _symmetry_equiv_pos_as_xyz
  1  'x, y, z'
loop_
 _atom_site_type_symbol
 _atom_site_label
 _atom_site_symmetry_multiplicity
 _atom_site_fract_x
 _atom_site_fract_y
 _atom_site_fract_z
 _atom_site_occupancy
  In  In0  1  0.01076537  0.15386231  0.13724128  1
  In  In1  1  -0.00722249  0.16835924  0.62345983  1
  In  In2  1  0.00215152  0.50103674  0.12736012  1
  In  In3  1  0.00450112  0.48842420  0.62074087  1
  In  In4  1  -0.00697446  0.84084939  0.13124019  1
  In  In5  1  0.01071560  0.83261693  0.62104933  1
  In  In6  1  0.33152416  0.15574272  0.10912441  1
  In  In7  1  0.33169379  0.16296897  0.64086991  1
  In  In8  1  0.34307066  0.50758492  0.11286683  1
  In  In9  1  0.32372588  0.51118159  0.64166503  1
  In  In10  1  0.33541041  0.83248190  0.12404414  1
  In  In11  1  0.33518489  0.82916039  0.63161332  1
  In  In12  1  0.65555228  0.17007921  0.12540506  1
  In  In13  1  0.67598448  0.17109045  0.62840298  1
  In  In14  1  0.67103557  0.50689628  0.11901454  1
  In  In15  1  0.64703573  0.50419367  0.63388035  1
  In  In16  1  0.66849593  0.82847988  0.12490706  1
  In  In17  1  0.65631275  0.84523561  0.61935710  1
  In  In18  1  0.16022235  -0.00722726  0.36656324  1
  In  In19  1  0.18748417  0.02098159  0.85758052  1
  In  In20  1  0.16129053  0.34789470  0.37913160  1
  In  In21  1  0.17979249  0.32162605  0.88209779  1
  In  In22  1  0.16187497  0.66107760  0.36773401  1
  In  In23  1  0.16982409  0.65249123  0.87708968  1
  In  In24  1  0.49023710  -0.01334438  0.36228994  1
  In  In25  1  0.46452547  0.02712098  0.91028403  1
  In  In26  1  0.50134214  0.33893650  0.37424782  1
  In  In27  1  0.49575905  0.33527322  0.87254816  1
  In  In28  1  0.50735190  0.67589298  0.36479671  1
  In  In29  1  0.49176918  0.67345115  0.88042419  1
  In  In30  1  0.83936157  0.01269744  0.35964579  1
  In  In31  1  0.83371196  -0.00793662  0.88021222  1
  In  In32  1  0.83762139  0.31422090  0.37534689  1
  In  In33  1  0.84138392  0.34408473  0.87875605  1
  In  In34  1  0.83745053  0.67100746  0.36649151  1
  In  In35  1  0.82961541  0.67050660  0.88804033  1
  In  In36  1  -0.02113745  0.15004355  0.35329946  1
  In  In37  1  0.02801061  0.16235315  0.87679923  1
  In  In38  1  0.01296787  0.51033215  0.36259247  1
  In  In39  1  -0.00147810  0.50015227  0.88754180  1
  In  In40  1  0.00255223  0.83210075  0.36846650  1
  In  In41  1  -0.00964775  0.84172797  0.88183079  1
  In  In42  1  0.34362008  0.15880755  0.37303475  1
  In  In43  1  0.32769056  0.17299747  0.87169053  1
  In  In44  1  0.31669050  0.50540408  0.37698588  1
  In  In45  1  0.33574065  0.49816175  0.87317164  1
  In  In46  1  0.33605708  0.83541536  0.36733803  1
  In  In47  1  0.34463760  0.83885840  0.87143859  1
  In  In48  1  0.68438423  0.16494241  0.37182125  1
  In  In49  1  0.65368813  0.16583869  0.87887437  1
  In  In50  1  0.65690650  0.50920138  0.36971146  1
  In  In51  1  0.66937474  0.49690096  0.88204368  1
  In  In52  1  0.65955113  0.82890809  0.36469602  1
  In  In53  1  0.66037073  0.83954697  0.88609181  1
  In  In54  1  0.16925387  0.00125947  0.12671268  1
  In  In55  1  0.16320160  0.00428153  0.63767515  1
  In  In56  1  0.16426743  0.32634040  0.11759042  1
  In  In57  1  0.16373903  0.33997165  0.62793718  1
  In  In58  1  0.17706674  0.66051516  0.13007949  1
  In  In59  1  0.18721404  0.66891970  0.61656347  1
  In  In60  1  0.49882295  -0.00096453  0.12088952  1
  In  In61  1  0.49614850  -0.01088492  0.62347301  1
  In  In62  1  0.49560023  0.33004990  0.11284771  1
  In  In63  1  0.49242716  0.34949272  0.64953523  1
  In  In64  1  0.49846755  0.66812052  0.12205378  1
  In  In65  1  0.46729265  0.66961065  0.62391245  1
  In  In66  1  0.84761983  -0.00842273  0.13458568  1
  In  In67  1  0.82806220  0.01302628  0.62017362  1
  In  In68  1  0.83095709  0.34524520  0.12766522  1
  In  In69  1  0.84119107  0.32375319  0.62785768  1
  In  In70  1  0.83276278  0.66549645  0.12783737  1
  In  In71  1  0.83381559  0.65929472  0.61995117  1
  In  In72  1  0.00771455  0.66836727  0.74796798  1
  In  In73  1  0.33002750  0.33261459  0.25022172  1
  In  In74  1  0.16730980  0.84028127  0.00572661  1
  In  In75  1  0.00612048  0.32845746  0.75098805  1
  In  In76  1  0.83510194  0.16643588  0.01243356  1
  In  In77  1  0.83695851  0.83912532  0.48512239  1
  In  In78  1  0.49734660  0.50574258  0.50157696  1
  In  In79  1  0.16659156  0.83269347  0.49188727  1
  In  In80  1  0.50860858  0.16580650  0.50573194  1
  In  In81  1  0.83665927  0.49798812  0.49971470  1
  In  In82  1  0.65740084  0.00096840  0.75463251  1
  In  In83  1  0.15760357  0.16760598  0.50322953  1
  In  In84  1  0.65656423  0.67190822  0.76207190  1
  In  In85  1  0.66862106  0.33342714  0.24952273  1
  Cu  Cu86  1  0.16778613  0.83420350  0.24628508  1
  Cu  Cu87  1  -0.00230963  0.32858648  0.49773185  1
  Cu  Cu88  1  0.00476275  0.00424167  0.00656274  1
  Cu  Cu89  1  0.49601843  0.16692952  0.76090722  1
  Cu  Cu90  1  0.17182449  0.16788166  0.24392019  1
  Cu  Cu91  1  0.49659513  0.83350458  0.75233709  1
  Cu  Cu92  1  0.83041387  0.82823472  0.24850939  1
  Cu  Cu93  1  0.66278151  0.67899092  0.49405993  1
  Cu  Cu94  1  0.49757972  0.50861510  0.24179192  1
  Cu  Cu95  1  0.00173743  0.33914131  0.00384833  1
  Cu  Cu96  1  0.67441386  0.33019231  0.50654814  1
  Cu  Cu97  1  0.66087486  0.00167162  0.49565696  1
  Cu  Cu98  1  0.17099808  0.49719286  0.75334545  1
  Cu  Cu99  1  0.66571881  0.66118852  0.00528819  1
  Cu  Cu100  1  0.33201266  0.33698031  0.50456477  1
  Cu  Cu101  1  0.82811582  0.50403217  0.75990872  1
  Cu  Cu102  1  0.83732146  0.16646403  0.74927134  1
  Cu  Cu103  1  0.33013588  0.66596772  0.00126069  1
  Cu  Cu104  1  -0.00336332  0.66573204  0.00612404  1
  Cu  Cu105  1  0.83514606  0.50077476  0.24729546  1
  Cu  Cu106  1  0.66317821  0.33130146  -0.00097311  1
  Cu  Cu107  1  0.83836138  0.84017296  0.75239419  1
  Cu  Cu108  1  0.33310421  0.33473494  -0.00799099  1
  Cu  Cu109  1  0.50017916  0.83303887  0.24095561  1
  Cu  Cu110  1  0.32833023  -0.00575732  0.49733600  1
  Cu  Cu111  1  0.49746810  0.15706075  0.24519491  1
  Cu  Cu112  1  0.16681199  0.83207742  0.74982784  1
  Cu  Cu113  1  0.66979656  -0.01423015  0.00505063  1
  Cu  Cu114  1  0.16784203  0.50106591  0.24670353  1
  Se  Se115  1  0.08892450  0.08743998  0.05731340  1
  Se  Se116  1  0.07361975  0.07035394  0.55967701  1
  Se  Se117  1  0.08683710  0.42241768  0.05568846  1
  Se  Se118  1  0.08476030  0.40922229  0.54972889  1
  Se  Se119  1  0.07926000  0.74656623  0.06450824  1
  Se  Se120  1  0.08035177  0.73684073  0.55339491  1
  Se  Se121  1  0.43243268  0.08878435  0.04692824  1
  Se  Se122  1  0.40523341  0.07950115  0.55794793  1
  Se  Se123  1  0.41811633  0.41727654  0.04562819  1
  Se  Se124  1  0.41519414  0.41217667  0.56386280  1
  Se  Se125  1  0.41417904  0.74996936  0.05266275  1
  Se  Se126  1  0.41501792  0.76433397  0.55251955  1
  Se  Se127  1  0.74506152  0.07109483  0.06606820  1
  Se  Se128  1  0.73996048  0.08637330  0.55055020  1
  Se  Se129  1  0.74686507  0.41349810  0.05312104  1
  Se  Se130  1  0.74519702  0.41835518  0.56718631  1
  Se  Se131  1  0.75175398  0.74579038  0.05531501  1
  Se  Se132  1  0.74756439  0.75238375  0.55609370  1
  Se  Se133  1  0.25250745  0.25119161  0.04874465  1
  Se  Se134  1  0.25733719  0.25046526  0.56238326  1
  Se  Se135  1  0.24406972  0.58194650  0.05054666  1
  Se  Se136  1  0.26467034  0.57716240  0.55491734  1
  Se  Se137  1  0.26500911  0.93175279  0.05437949  1
  Se  Se138  1  0.24711595  0.92152200  0.56111580  1
  Se  Se139  1  0.58072792  0.24421186  0.04836412  1
  Se  Se140  1  0.58371055  0.26455479  0.56804078  1
  Se  Se141  1  0.57625114  0.57840476  0.05308139  1
  Se  Se142  1  0.58731157  0.60067160  0.55981644  1
  Se  Se143  1  0.58077024  0.90744337  0.05637182  1
  Se  Se144  1  0.57533369  0.91866431  0.54564310  1
  Se  Se145  1  0.92853654  0.25642534  0.06774821  1
  Se  Se146  1  0.91291951  0.24701284  0.55054160  1
  Se  Se147  1  0.91438217  0.58034225  0.05863053  1
  Se  Se148  1  0.93238268  0.58985959  0.55399573  1
  Se  Se149  1  0.91900055  0.91807617  0.05399871  1
  Se  Se150  1  0.91752258  0.91993606  0.55835230  1
  Se  Se151  1  0.07363774  0.24853327  0.43397079  1
  Se  Se152  1  0.08430288  0.25373018  0.95159328  1
  Se  Se153  1  0.09605775  0.57084174  0.44033541  1
  Se  Se154  1  0.08244726  0.58665457  0.95137721  1
  Se  Se155  1  0.07002543  0.92709519  0.44272935  1
  Se  Se156  1  0.08361653  0.92926601  0.94091722  1
  Se  Se157  1  0.41223980  0.25811461  0.44486987  1
  Se  Se158  1  0.41712744  0.24828205  0.94205392  1
  Se  Se159  1  0.41570439  0.59128212  0.43459380  1
  Se  Se160  1  0.41245775  0.58309265  0.94570910  1
  Se  Se161  1  0.41330461  0.91731824  0.44156333  1
  Se  Se162  1  0.42757486  0.89687320  0.95057453  1
  Se  Se163  1  0.75122673  0.24644811  0.45000019  1
  Se  Se164  1  0.75043715  0.25135347  0.94286190  1
  Se  Se165  1  0.74343110  0.59166894  0.44152463  1
  Se  Se166  1  0.75165265  0.57921036  0.95132088  1
  Se  Se167  1  0.74053074  0.92678691  0.43140467  1
  Se  Se168  1  0.75837070  0.90902237  0.95161735  1
  Se  Se169  1  0.25038558  0.07851082  0.44038007  1
  Se  Se170  1  0.24857896  0.08700102  0.94222308  1
  Se  Se171  1  0.24929888  0.41807744  0.45068079  1
  Se  Se172  1  0.24754245  0.42258962  0.94479005  1
  Se  Se173  1  0.25670488  0.74235458  0.43577300  1
  Se  Se174  1  0.25171281  0.74857204  0.94068804  1
  Se  Se175  1  0.58147400  0.08019023  0.43216916  1
  Se  Se176  1  0.59308424  0.07504076  0.95178592  1
  Se  Se177  1  0.59564112  0.41100457  0.44584518  1
  Se  Se178  1  0.58032208  0.41370558  0.94514618  1
  Se  Se179  1  0.57778882  0.75818371  0.44137259  1
  Se  Se180  1  0.58523625  0.74419816  0.94856371  1
  Se  Se181  1  0.91498770  0.08298046  0.43786734  1
  Se  Se182  1  0.92332080  0.08398195  0.94437633  1
  Se  Se183  1  0.92345985  0.41253309  0.43540753  1
  Se  Se184  1  0.91240840  0.42103693  0.95609727  1
  Se  Se185  1  0.92978344  0.73745710  0.44113607  1
  Se  Se186  1  0.91864672  0.75243714  0.95171613  1
  Se  Se187  1  0.24305321  0.24366131  0.31448123  1
  Se  Se188  1  0.23686817  0.24296529  0.80128018  1
  Se  Se189  1  0.25258447  0.58507854  0.29804867  1
  Se  Se190  1  0.25406928  0.58504292  0.80232064  1
  Se  Se191  1  0.25096434  0.91817359  0.30021025  1
  Se  Se192  1  0.25430082  0.91181575  0.80239244  1
  Se  Se193  1  0.57263890  0.24135916  0.30771502  1
  Se  Se194  1  0.58526891  0.25052887  0.80596136  1
  Se  Se195  1  0.58521711  0.58795874  0.29494266  1
  Se  Se196  1  0.57237998  0.57394880  0.81503097  1
  Se  Se197  1  0.58422846  0.91681248  0.29490197  1
  Se  Se198  1  0.57028072  0.91418377  0.81589537  1
  Se  Se199  1  0.91775532  0.25797127  0.29487427  1
  Se  Se200  1  0.91657609  0.24052288  0.81536075  1
  Se  Se201  1  0.91845664  0.58616974  0.29936537  1
  Se  Se202  1  0.91386163  0.58540979  0.81286382  1
  Se  Se203  1  0.91559519  0.91120864  0.30161278  1
  Se  Se204  1  0.91941365  0.92329188  0.80515139  1
  Se  Se205  1  0.08808475  0.08303048  0.29747460  1
  Se  Se206  1  0.06991494  0.06736936  0.80103347  1
  Se  Se207  1  0.08631627  0.41339885  0.29778670  1
  Se  Se208  1  0.08651718  0.42264965  0.81421783  1
  Se  Se209  1  0.08474999  0.75014865  0.30011839  1
  Se  Se210  1  0.08830230  0.75711139  0.81554817  1
  Se  Se211  1  0.40938033  0.07720618  0.29689989  1
  Se  Se212  1  0.41777802  0.07839532  0.81317782  1
  Se  Se213  1  0.42227322  0.42903601  0.30683845  1
  Se  Se214  1  0.40383407  0.40548102  0.80399098  1
  Se  Se215  1  0.41685315  0.75150131  0.29761996  1
  Se  Se216  1  0.41422774  0.74442258  0.80164361  1
  Se  Se217  1  0.74202189  0.08115881  0.29445335  1
  Se  Se218  1  0.75537758  0.08931681  0.81165609  1
  Se  Se219  1  0.75705429  0.42371624  0.31322877  1
  Se  Se220  1  0.75054567  0.41504866  0.80995700  1
  Se  Se221  1  0.74574067  0.74411264  0.30018355  1
  Se  Se222  1  0.75786564  0.76197082  0.81204618  1
  Se  Se223  1  0.25722836  0.08761776  0.19083053  1
  Se  Se224  1  0.25634239  0.07198420  0.70428040  1
  Se  Se225  1  0.24936650  0.42283317  0.18498856  1
  Se  Se226  1  0.25044233  0.40922844  0.70058708  1
  Se  Se227  1  0.25395745  0.75182450  0.19509287  1
  Se  Se228  1  0.24903603  0.74587301  0.69823981  1
  Se  Se229  1  0.58422252  0.07819096  0.19304877  1
  Se  Se230  1  0.57166887  0.09259702  0.69037858  1
  Se  Se231  1  0.57460282  0.41789530  0.18790610  1
  Se  Se232  1  0.60397649  0.40593798  0.70653667  1
  Se  Se233  1  0.58405471  0.74497485  0.19308848  1
  Se  Se234  1  0.57600881  0.75592909  0.68888044  1
  Se  Se235  1  0.91465760  0.08581879  0.20210653  1
  Se  Se236  1  0.91462614  0.08236812  0.69336910  1
  Se  Se237  1  0.91984078  0.41674211  0.19754423  1
  Se  Se238  1  0.91050030  0.42675642  0.69772478  1
  Se  Se239  1  0.91795389  0.74720405  0.19649671  1
  Se  Se240  1  0.90828062  0.75480303  0.68943696  1
  Se  Se241  1  0.08807975  0.25482850  0.19588737  1
  Se  Se242  1  0.09350415  0.23567400  0.69215173  1
  Se  Se243  1  0.08313342  0.58679444  0.19631808  1
  Se  Se244  1  0.09301659  0.57450212  0.68795177  1
  Se  Se245  1  0.08461296  0.92079670  0.19520230  1
  Se  Se246  1  0.07892957  0.91113298  0.69792835  1
  Se  Se247  1  0.41924810  0.24457091  0.18842489  1
  Se  Se248  1  0.41339252  0.25009473  0.70593834  1
  Se  Se249  1  0.40954152  0.58818283  0.19117877  1
  Se  Se250  1  0.44490741  0.55919795  0.69223200  1
  Se  Se251  1  0.41537947  0.91910633  0.19226843  1
  Se  Se252  1  0.41467517  0.91890806  0.69845079  1
  Se  Se253  1  0.75698026  0.24230440  0.19072560  1
  Se  Se254  1  0.75403676  0.25294637  0.70028611  1
  Se  Se255  1  0.74713133  0.58082068  0.19579312  1
  Se  Se256  1  0.75248670  0.58564772  0.69764025  1
  Se  Se257  1  0.75026784  0.91288095  0.19441854  1
  Se  Se258  1  0.75207972  0.91385838  0.69164450  1
