# generated using pymatgen
data_In86Cu29Se144
_symmetry_space_group_name_H-M   'P 1'
_cell_length_a   17.59194121
_cell_length_b   17.58989658
_cell_length_c   23.44166818
_cell_angle_alpha   89.99663657
_cell_angle_beta   90.00812114
_cell_angle_gamma   89.97939334
_symmetry_Int_Tables_number   1
_chemical_formula_structural   In86Cu29Se144
_chemical_formula_sum   'In86 Cu29 Se144'
_cell_volume   7253.79924262
_cell_formula_units_Z   1
loop_
 _symmetry_equiv_pos_site_id
 _symmetry_equiv_pos_as_xyz
  1  'x, y, z'
loop_
 _atom_site_type_symbol
 _atom_site_label
 _atom_site_symmetry_multiplicity
 _atom_site_fract_x
 _atom_site_fract_y
 _atom_site_fract_z
 _atom_site_occupancy
  In  In0  1  -0.00738156  0.15779386  0.11799432  1
  In  In1  1  0.00326014  0.17080245  0.62982356  1
  In  In2  1  0.01383985  0.49931605  0.12221902  1
  In  In3  1  0.00186573  0.49926010  0.63741833  1
  In  In4  1  0.00413473  0.83834617  0.12915128  1
  In  In5  1  -0.00188862  0.82530839  0.62505605  1
  In  In6  1  0.32676074  0.16495538  0.12896793  1
  In  In7  1  0.34161342  0.16840992  0.63581269  1
  In  In8  1  0.32991351  0.49161776  0.11845434  1
  In  In9  1  0.32482831  0.49201271  0.62736579  1
  In  In10  1  0.33268044  0.83911072  0.12356419  1
  In  In11  1  0.33355682  0.84053994  0.61843495  1
  In  In12  1  0.67262485  0.15746291  0.11734594  1
  In  In13  1  0.64891068  0.16426872  0.63368836  1
  In  In14  1  0.65593820  0.50986136  0.12424767  1
  In  In15  1  0.68127414  0.50504899  0.62873525  1
  In  In16  1  0.66420123  0.84000755  0.11803859  1
  In  In17  1  0.64947478  0.84161864  0.64407878  1
  In  In18  1  0.14727874  -0.02214633  0.33806406  1
  In  In19  1  0.16390144  0.00371087  0.88592840  1
  In  In20  1  0.17089409  0.32074481  0.37010994  1
  In  In21  1  0.17245666  0.33319879  0.87451423  1
  In  In22  1  0.17373518  0.68323141  0.36855270  1
  In  In23  1  0.15606072  0.67818468  0.88211166  1
  In  In24  1  0.49177218  -0.00625157  0.36432607  1
  In  In25  1  0.52702854  -0.01499292  0.90742520  1
  In  In26  1  0.48617253  0.31452205  0.35767203  1
  In  In27  1  0.49986211  0.33907492  0.88796780  1
  In  In28  1  0.51644940  0.67126852  0.37036845  1
  In  In29  1  0.50040575  0.66445516  0.87682580  1
  In  In30  1  0.83065268  -0.00313434  0.36432115  1
  In  In31  1  0.81622456  0.00548856  0.89336127  1
  In  In32  1  0.83310598  0.34303891  0.36966540  1
  In  In33  1  0.83458391  0.31736827  0.88041653  1
  In  In34  1  0.83734108  0.66772874  0.36088286  1
  In  In35  1  0.84165557  0.67832643  0.87247103  1
  In  In36  1  0.01613981  0.15627538  0.36800616  1
  In  In37  1  0.00102933  0.17088542  0.87741370  1
  In  In38  1  -0.00966233  0.50491661  0.37298118  1
  In  In39  1  0.01141489  0.51129403  0.87455898  1
  In  In40  1  0.00753386  0.83737696  0.36073438  1
  In  In41  1  0.00392331  0.82987061  0.88119083  1
  In  In42  1  0.30999366  0.14746377  0.34360299  1
  In  In43  1  0.32690855  0.17112562  0.87969975  1
  In  In44  1  0.34083777  0.49041324  0.37022124  1
  In  In45  1  0.34593480  0.48572395  0.88272606  1
  In  In46  1  0.32957819  0.84301432  0.37515788  1
  In  In47  1  0.33814303  0.82978995  0.88274439  1
  In  In48  1  0.65487013  0.15941104  0.35995564  1
  In  In49  1  0.68213392  0.15898283  0.90062600  1
  In  In50  1  0.67020742  0.50100845  0.35981163  1
  In  In51  1  0.64995956  0.49858816  0.88254940  1
  In  In52  1  0.66293811  0.82814239  0.36765188  1
  In  In53  1  0.66771096  0.83728118  0.88205619  1
  In  In54  1  0.16634022  0.00268637  0.12933443  1
  In  In55  1  0.17479207  -0.00045789  0.62310986  1
  In  In56  1  0.16962935  0.34054543  0.12080134  1
  In  In57  1  0.16075158  0.33422714  0.64186715  1
  In  In58  1  0.16639650  0.66585633  0.12517602  1
  In  In59  1  0.15927010  0.66976507  0.62727570  1
  In  In60  1  0.50132738  -0.00012117  0.11842679  1
  In  In61  1  0.50508788  0.00145931  0.63101411  1
  In  In62  1  0.50543830  0.32892961  0.11481327  1
  In  In63  1  0.49077259  0.32156227  0.63153516  1
  In  In64  1  0.50986437  0.68194914  0.11361086  1
  In  In65  1  0.49350782  0.68002187  0.62860046  1
  In  In66  1  0.83116122  0.00079310  0.11851058  1
  In  In67  1  0.83040122  -0.01703123  0.62727887  1
  In  In68  1  0.83031131  0.31243510  0.11379935  1
  In  In69  1  0.83461255  0.34247316  0.62842740  1
  In  In70  1  0.81841185  0.68108924  0.12993007  1
  In  In71  1  0.83472188  0.66665578  0.63830942  1
  In  In72  1  0.83424763  0.49962633  0.00379473  1
  In  In73  1  0.16424286  0.50430641  0.50979989  1
  In  In74  1  0.49492611  0.16283432  0.50099341  1
  In  In75  1  -0.00520967  0.00157201  0.76194597  1
  In  In76  1  0.33646259  0.00803800  0.75818474  1
  In  In77  1  0.33564281  0.67112087  0.23769635  1
  In  In78  1  0.50512492  0.50245492  0.49344020  1
  In  In79  1  0.83808919  0.50679382  0.49235898  1
  In  In80  1  0.33597330  0.66576179  0.76214469  1
  In  In81  1  -0.00362521  0.33161503  0.24767663  1
  In  In82  1  0.17259351  0.16507251  0.49407580  1
  In  In83  1  0.66508621  0.33131869  0.75835508  1
  In  In84  1  0.83118943  0.16737022  0.50438566  1
  In  In85  1  0.83198193  0.82735935  0.49936161  1
  Cu  Cu86  1  0.00946024  0.33315061  -0.00144082  1
  Cu  Cu87  1  0.82811413  0.15836871  0.76176572  1
  Cu  Cu88  1  0.00349302  -0.00531328  0.00332529  1
  Cu  Cu89  1  0.16823829  0.50186835  0.24453026  1
  Cu  Cu90  1  0.00696988  0.67140694  0.50104123  1
  Cu  Cu91  1  0.50762081  0.83412343  0.24188151  1
  Cu  Cu92  1  0.00853674  -0.00245596  0.48613714  1
  Cu  Cu93  1  0.00011996  0.67188668  0.00461847  1
  Cu  Cu94  1  0.50913424  0.17158279  0.23257361  1
  Cu  Cu95  1  0.33071456  0.32691467  0.49812691  1
  Cu  Cu96  1  0.33161126  0.33109360  0.00387313  1
  Cu  Cu97  1  0.66132949  -0.00641362  0.50562464  1
  Cu  Cu98  1  0.16273008  0.83165443  0.75320209  1
  Cu  Cu99  1  0.83276498  0.83642501  0.24133470  1
  Cu  Cu100  1  0.66414026  0.33418250  0.48630424  1
  Cu  Cu101  1  0.66456442  0.67594426  0.50063465  1
  Cu  Cu102  1  0.49914512  0.49381523  0.24422972  1
  Cu  Cu103  1  0.17115149  0.49731093  0.75578869  1
  Cu  Cu104  1  0.82819592  0.49582181  0.24033020  1
  Cu  Cu105  1  0.49889249  0.49567785  0.75604547  1
  Cu  Cu106  1  0.49865021  0.16197766  0.76581885  1
  Cu  Cu107  1  0.66547751  0.67093451  -0.00067418  1
  Cu  Cu108  1  0.32856441  -0.00741562  0.49231260  1
  Cu  Cu109  1  0.32709300  0.00327010  0.00674825  1
  Cu  Cu110  1  0.82398503  0.83611843  0.75583783  1
  Cu  Cu111  1  0.33956348  0.67982376  0.49678192  1
  Cu  Cu112  1  0.83690543  0.50148946  0.75897900  1
  Cu  Cu113  1  0.82735990  0.16252513  0.24214463  1
  Cu  Cu114  1  0.32794042  0.66369923  0.00099679  1
  Se  Se115  1  0.08675528  0.08159636  0.05344935  1
  Se  Se116  1  0.07593967  0.07757518  0.55495755  1
  Se  Se117  1  0.08955212  0.42144213  0.04811014  1
  Se  Se118  1  0.07609586  0.40894391  0.56376829  1
  Se  Se119  1  0.08456183  0.75266219  0.05864772  1
  Se  Se120  1  0.08819728  0.75590332  0.55388054  1
  Se  Se121  1  0.41159631  0.08689634  0.05709801  1
  Se  Se122  1  0.40248146  0.07128078  0.55952960  1
  Se  Se123  1  0.41997713  0.41732342  0.04996792  1
  Se  Se124  1  0.41366839  0.40908328  0.55516894  1
  Se  Se125  1  0.40824256  0.75152995  0.05296376  1
  Se  Se126  1  0.42224806  0.75881858  0.55292082  1
  Se  Se127  1  0.76481701  0.09114364  0.04611359  1
  Se  Se128  1  0.73855732  0.07645148  0.56457418  1
  Se  Se129  1  0.74158816  0.41251421  0.06063183  1
  Se  Se130  1  0.74296717  0.41125766  0.55008172  1
  Se  Se131  1  0.75003186  0.75497756  0.04978988  1
  Se  Se132  1  0.74597769  0.74521962  0.56628370  1
  Se  Se133  1  0.24716278  0.24830207  0.05637779  1
  Se  Se134  1  0.25456914  0.25256599  0.56511911  1
  Se  Se135  1  0.24640206  0.58149696  0.05579689  1
  Se  Se136  1  0.26431820  0.59813326  0.55937551  1
  Se  Se137  1  0.24316687  0.91664373  0.05608991  1
  Se  Se138  1  0.24336310  0.91501962  0.54979921  1
  Se  Se139  1  0.57524542  0.22798002  0.04975054  1
  Se  Se140  1  0.58951282  0.26040886  0.55500804  1
  Se  Se141  1  0.57994850  0.58494666  0.04690654  1
  Se  Se142  1  0.59118506  0.58821124  0.55987302  1
  Se  Se143  1  0.57665525  0.91331825  0.04748086  1
  Se  Se144  1  0.58007803  0.91328584  0.56139301  1
  Se  Se145  1  0.92293710  0.24639676  0.04422378  1
  Se  Se146  1  0.92259162  0.25984562  0.55868243  1
  Se  Se147  1  0.91917310  0.59237943  0.06510794  1
  Se  Se148  1  0.92491611  0.59152931  0.56100134  1
  Se  Se149  1  0.91887377  0.91272055  0.05574777  1
  Se  Se150  1  0.92828145  0.92404794  0.55194841  1
  Se  Se151  1  0.07410162  0.25619593  0.44249354  1
  Se  Se152  1  0.09018456  0.24835449  0.94429920  1
  Se  Se153  1  0.08194587  0.58916419  0.43982754  1
  Se  Se154  1  0.08366495  0.58757712  0.95268760  1
  Se  Se155  1  0.09062277  0.91834279  0.43082926  1
  Se  Se156  1  0.08749677  0.91118295  0.94967546  1
  Se  Se157  1  0.40337347  0.24451484  0.43641684  1
  Se  Se158  1  0.41355311  0.24954722  0.94866034  1
  Se  Se159  1  0.41078742  0.59402751  0.43628575  1
  Se  Se160  1  0.41496481  0.58566386  0.94595515  1
  Se  Se161  1  0.42275014  0.91633224  0.44364864  1
  Se  Se162  1  0.41066253  0.91743753  0.95377942  1
  Se  Se163  1  0.74487798  0.24891077  0.43304863  1
  Se  Se164  1  0.75416989  0.26013168  0.95979032  1
  Se  Se165  1  0.74114020  0.59580264  0.43678921  1
  Se  Se166  1  0.74841515  0.58974159  0.93984594  1
  Se  Se167  1  0.74416555  0.92276649  0.44229503  1
  Se  Se168  1  0.74913740  0.90934888  0.95854516  1
  Se  Se169  1  0.25266654  0.07262033  0.43109902  1
  Se  Se170  1  0.24723181  0.08775744  0.95109672  1
  Se  Se171  1  0.25133543  0.41318527  0.44376879  1
  Se  Se172  1  0.24984615  0.41621170  0.94875429  1
  Se  Se173  1  0.25025710  0.75700910  0.44445293  1
  Se  Se174  1  0.24800817  0.75242260  0.94868999  1
  Se  Se175  1  0.58785058  0.07537594  0.44169636  1
  Se  Se176  1  0.57339802  0.10466164  0.96395751  1
  Se  Se177  1  0.58200322  0.40948532  0.42626506  1
  Se  Se178  1  0.58794061  0.41377356  0.95716197  1
  Se  Se179  1  0.58307869  0.75727536  0.44573395  1
  Se  Se180  1  0.57902573  0.75026830  0.94548024  1
  Se  Se181  1  0.91960037  0.07959641  0.43746460  1
  Se  Se182  1  0.92650788  0.07794149  0.94390716  1
  Se  Se183  1  0.92897155  0.40517877  0.44509150  1
  Se  Se184  1  0.92546384  0.41471018  0.93967032  1
  Se  Se185  1  0.92421397  0.74353606  0.43736040  1
  Se  Se186  1  0.91580951  0.75268129  0.95058916  1
  Se  Se187  1  0.25431678  0.26336043  0.29263409  1
  Se  Se188  1  0.25786683  0.25472021  0.80524860  1
  Se  Se189  1  0.25094961  0.57821956  0.30646092  1
  Se  Se190  1  0.24564658  0.57755447  0.82055193  1
  Se  Se191  1  0.27284118  0.92832231  0.29661699  1
  Se  Se192  1  0.24296556  0.91125280  0.81267430  1
  Se  Se193  1  0.58833094  0.25474718  0.29226399  1
  Se  Se194  1  0.58443513  0.24208165  0.82281109  1
  Se  Se195  1  0.57996651  0.58180477  0.29650012  1
  Se  Se196  1  0.58194490  0.58067284  0.80595494  1
  Se  Se197  1  0.58639898  0.91784634  0.30019050  1
  Se  Se198  1  0.58836293  0.93043948  0.81748983  1
  Se  Se199  1  0.90796351  0.23741234  0.30853128  1
  Se  Se200  1  0.91477270  0.24587807  0.80443461  1
  Se  Se201  1  0.91378194  0.57559025  0.29565260  1
  Se  Se202  1  0.92165006  0.58828732  0.80690325  1
  Se  Se203  1  0.91648253  0.91800954  0.29772213  1
  Se  Se204  1  0.90314413  0.91383089  0.81907302  1
  Se  Se205  1  0.09653871  0.09880063  0.28957618  1
  Se  Se206  1  0.09524127  0.09054521  0.80849802  1
  Se  Se207  1  0.08843365  0.42366337  0.30908651  1
  Se  Se208  1  0.08359357  0.41713956  0.80790522  1
  Se  Se209  1  0.07095703  0.73160189  0.30129964  1
  Se  Se210  1  0.07745958  0.74930959  0.80417868  1
  Se  Se211  1  0.43140096  0.09447090  0.29708393  1
  Se  Se212  1  0.42824261  0.07731848  0.82850444  1
  Se  Se213  1  0.41191684  0.41218640  0.29480949  1
  Se  Se214  1  0.42122567  0.40759136  0.80724392  1
  Se  Se215  1  0.42481961  0.75571322  0.30480401  1
  Se  Se216  1  0.42966013  0.76453524  0.80657857  1
  Se  Se217  1  0.74531830  0.07769128  0.29766855  1
  Se  Se218  1  0.74159430  0.08307234  0.81615529  1
  Se  Se219  1  0.74904853  0.41053378  0.29493532  1
  Se  Se220  1  0.75597610  0.42177765  0.81808122  1
  Se  Se221  1  0.75130266  0.75294241  0.29865098  1
  Se  Se222  1  0.74419717  0.75062929  0.80880031  1
  Se  Se223  1  0.26129432  0.07083213  0.19915521  1
  Se  Se224  1  0.23917477  0.09218355  0.69626045  1
  Se  Se225  1  0.25164490  0.41667976  0.19478907  1
  Se  Se226  1  0.25521095  0.41352257  0.70341761  1
  Se  Se227  1  0.23702722  0.76499182  0.19470014  1
  Se  Se228  1  0.24944643  0.75636854  0.69430864  1
  Se  Se229  1  0.58913933  0.07799935  0.18858525  1
  Se  Se230  1  0.57884334  0.08136264  0.70699759  1
  Se  Se231  1  0.58277559  0.41334991  0.18878295  1
  Se  Se232  1  0.57910187  0.42041574  0.68911712  1
  Se  Se233  1  0.59089368  0.74932616  0.19113350  1
  Se  Se234  1  0.59183119  0.72987477  0.69929504  1
  Se  Se235  1  0.91477391  0.08055653  0.19218126  1
  Se  Se236  1  0.90457889  0.08554030  0.69181472  1
  Se  Se237  1  0.90906199  0.41680425  0.18044044  1
  Se  Se238  1  0.91452466  0.41607707  0.70196853  1
  Se  Se239  1  0.91767657  0.74974576  0.19432440  1
  Se  Se240  1  0.91392694  0.75952769  0.70089344  1
  Se  Se241  1  0.08229192  0.24770430  0.18364054  1
  Se  Se242  1  0.07347441  0.25085132  0.70304052  1
  Se  Se243  1  0.08215149  0.58472220  0.19633336  1
  Se  Se244  1  0.09103950  0.58256266  0.69993518  1
  Se  Se245  1  0.07567928  0.92882825  0.19880059  1
  Se  Se246  1  0.08532002  0.91604447  0.69334250  1
  Se  Se247  1  0.41864120  0.25461946  0.18762378  1
  Se  Se248  1  0.41904483  0.24683681  0.70971680  1
  Se  Se249  1  0.42643229  0.58028128  0.18116664  1
  Se  Se250  1  0.41906873  0.57382919  0.69287074  1
  Se  Se251  1  0.42182433  0.91576958  0.19099781  1
  Se  Se252  1  0.41811297  0.91188689  0.69572652  1
  Se  Se253  1  0.74688420  0.24797690  0.19031148  1
  Se  Se254  1  0.75451179  0.24096556  0.69334036  1
  Se  Se255  1  0.74433068  0.58530893  0.19418024  1
  Se  Se256  1  0.75129681  0.58251328  0.70527269  1
  Se  Se257  1  0.74814479  0.91877459  0.18950477  1
  Se  Se258  1  0.74444376  0.92322111  0.70374594  1
