# generated using pymatgen
data_In86Cu29Se144
_symmetry_space_group_name_H-M   'P 1'
_cell_length_a   17.57161276
_cell_length_b   17.57248077
_cell_length_c   23.43499505
_cell_angle_alpha   89.96051929
_cell_angle_beta   90.02457738
_cell_angle_gamma   90.01639934
_symmetry_Int_Tables_number   1
_chemical_formula_structural   In86Cu29Se144
_chemical_formula_sum   'In86 Cu29 Se144'
_cell_volume   7236.18074116
_cell_formula_units_Z   1
loop_
 _symmetry_equiv_pos_site_id
 _symmetry_equiv_pos_as_xyz
  1  'x, y, z'
loop_
 _atom_site_type_symbol
 _atom_site_label
 _atom_site_symmetry_multiplicity
 _atom_site_fract_x
 _atom_site_fract_y
 _atom_site_fract_z
 _atom_site_occupancy
  In  In0  1  0.01692363  0.16488043  0.12076685  1
  In  In1  1  -0.00426840  0.15683207  0.61752855  1
  In  In2  1  -0.00932699  0.50861891  0.13220398  1
  In  In3  1  0.00924986  0.51234413  0.62745871  1
  In  In4  1  -0.01160615  0.82925476  0.11923815  1
  In  In5  1  0.01198016  0.82824657  0.63572961  1
  In  In6  1  0.32822755  0.17030218  0.12479709  1
  In  In7  1  0.32526391  0.17639631  0.62702631  1
  In  In8  1  0.34986931  0.48177979  0.14084637  1
  In  In9  1  0.33776079  0.48937478  0.62454277  1
  In  In10  1  0.32915080  0.83389463  0.13608089  1
  In  In11  1  0.34108915  0.83844448  0.62167782  1
  In  In12  1  0.66665778  0.18454149  0.12569358  1
  In  In13  1  0.67238336  0.14479950  0.61595277  1
  In  In14  1  0.66497137  0.50111565  0.12251308  1
  In  In15  1  0.66806201  0.51295008  0.62075314  1
  In  In16  1  0.66538991  0.81624324  0.12613487  1
  In  In17  1  0.65826667  0.83466924  0.62461130  1
  In  In18  1  0.17880891  -0.00805432  0.38558020  1
  In  In19  1  0.17014399  -0.00008342  0.86067266  1
  In  In20  1  0.16207219  0.33213461  0.36390648  1
  In  In21  1  0.17044759  0.31537550  0.88191477  1
  In  In22  1  0.17248488  0.67121597  0.36842197  1
  In  In23  1  0.15678581  0.67448024  0.87405500  1
  In  In24  1  0.48661729  0.00468465  0.37608440  1
  In  In25  1  0.50210349  0.01298464  0.87621086  1
  In  In26  1  0.50747759  0.34507628  0.36636395  1
  In  In27  1  0.48892344  0.33625844  0.88232118  1
  In  In28  1  0.49980382  0.66865874  0.37924965  1
  In  In29  1  0.50278974  0.65117616  0.87715076  1
  In  In30  1  0.84876791  0.00214729  0.37834418  1
  In  In31  1  0.83015108  -0.02729222  0.87259653  1
  In  In32  1  0.83452317  0.33528522  0.36873854  1
  In  In33  1  0.84456235  0.33728569  0.88380739  1
  In  In34  1  0.82374520  0.66165444  0.37107838  1
  In  In35  1  0.83174111  0.66651162  0.87499379  1
  In  In36  1  0.00150884  0.17489986  0.37908816  1
  In  In37  1  0.01138398  0.16927570  0.87565173  1
  In  In38  1  0.01180149  0.50611093  0.35685864  1
  In  In39  1  -0.01092824  0.50123799  0.88255774  1
  In  In40  1  0.01142295  0.83801526  0.37940806  1
  In  In41  1  -0.01912001  0.81377537  0.84887047  1
  In  In42  1  0.32728939  0.15805819  0.36847319  1
  In  In43  1  0.33226158  0.16372999  0.87265568  1
  In  In44  1  0.34313884  0.51530557  0.35968106  1
  In  In45  1  0.34895217  0.49436334  0.88316882  1
  In  In46  1  0.33315400  0.83405708  0.37795571  1
  In  In47  1  0.31560192  0.84331657  0.86880100  1
  In  In48  1  0.66412691  0.18231675  0.37372522  1
  In  In49  1  0.64774147  0.14845411  0.88247542  1
  In  In50  1  0.66192632  0.49982725  0.37407306  1
  In  In51  1  0.65984714  0.50938685  0.87964338  1
  In  In52  1  0.66286174  0.81591476  0.38092481  1
  In  In53  1  0.69232760  0.83301183  0.87536634  1
  In  In54  1  0.16915699  0.01266303  0.12234730  1
  In  In55  1  0.16786276  0.00028017  0.62572186  1
  In  In56  1  0.18494471  0.32162770  0.14247801  1
  In  In57  1  0.18444990  0.33751090  0.62376084  1
  In  In58  1  0.17182624  0.65321744  0.14428801  1
  In  In59  1  0.15383330  0.66597090  0.62702694  1
  In  In60  1  0.48032320  -0.00154825  0.12415815  1
  In  In61  1  0.50271478  -0.01834980  0.62398830  1
  In  In62  1  0.49461124  0.33763441  0.12164873  1
  In  In63  1  0.48731813  0.33087016  0.62135354  1
  In  In64  1  0.51137945  0.65630716  0.13225705  1
  In  In65  1  0.51125558  0.67867089  0.60883841  1
  In  In66  1  0.84489443  -0.00562496  0.11679114  1
  In  In67  1  0.82822477  0.00584831  0.62489518  1
  In  In68  1  0.81707349  0.34464154  0.13194568  1
  In  In69  1  0.84846485  0.32468889  0.62347851  1
  In  In70  1  0.83154626  0.66297445  0.12354060  1
  In  In71  1  0.83067385  0.67868385  0.63835592  1
  In  In72  1  0.00583229  -0.00146147  0.24531020  1
  In  In73  1  0.50575409  0.83753643  0.00113436  1
  In  In74  1  0.66699085  -0.00802558  0.74853087  1
  In  In75  1  0.17480813  0.48962376  0.01260504  1
  In  In76  1  0.50240213  0.16648469  0.49707620  1
  In  In77  1  0.82713182  0.84063281  0.50588552  1
  In  In78  1  0.82650162  0.16813050  0.00035963  1
  In  In79  1  0.15639727  0.83482962  -0.00655213  1
  In  In80  1  0.16970205  0.50154500  0.49364943  1
  In  In81  1  0.83238120  0.49771220  0.49054186  1
  In  In82  1  0.66246560  0.00170262  0.25113064  1
  In  In83  1  0.00870334  0.33574030  0.75395016  1
  In  In84  1  0.33459166  0.66577957  0.75030407  1
  In  In85  1  0.66484234  0.33491267  0.75518251  1
  Cu  Cu86  1  0.82699823  0.50266148  0.24850752  1
  Cu  Cu87  1  0.00928676  0.00520748  0.50265414  1
  Cu  Cu88  1  0.49556181  0.17436251  0.24811422  1
  Cu  Cu89  1  0.48631260  0.16409748  0.75022954  1
  Cu  Cu90  1  0.00647668  0.32604738  0.49586746  1
  Cu  Cu91  1  0.49924849  0.49925725  0.75285004  1
  Cu  Cu92  1  0.33249973  0.00077387  0.50143993  1
  Cu  Cu93  1  0.00025044  0.33590881  0.00764125  1
  Cu  Cu94  1  0.66019526  0.33940290  0.00276179  1
  Cu  Cu95  1  0.50124924  0.82728182  0.74837119  1
  Cu  Cu96  1  0.17153632  0.50035295  0.75149184  1
  Cu  Cu97  1  0.83582918  0.51024380  0.75354676  1
  Cu  Cu98  1  0.16834326  0.83283168  0.25648899  1
  Cu  Cu99  1  0.17019149  0.16595062  0.74849654  1
  Cu  Cu100  1  0.34150399  0.66634904  0.00560793  1
  Cu  Cu101  1  0.67478019  0.66528277  0.00152864  1
  Cu  Cu102  1  -0.00588690  0.67378963  0.50401438  1
  Cu  Cu103  1  -0.00124362  -0.00448456  -0.00919368  1
  Cu  Cu104  1  -0.00390973  0.66813859  0.00059529  1
  Cu  Cu105  1  0.83632548  0.17448856  0.25164083  1
  Cu  Cu106  1  0.32554295  0.00810866  -0.00353180  1
  Cu  Cu107  1  0.33112276  0.66853220  0.49285288  1
  Cu  Cu108  1  0.82880541  0.82329369  0.24741992  1
  Cu  Cu109  1  0.49408576  0.82742387  0.25292196  1
  Cu  Cu110  1  0.82763970  0.16305370  0.74698585  1
  Cu  Cu111  1  0.17147448  0.16330467  0.25055242  1
  Cu  Cu112  1  0.67241390  0.33208316  0.49260721  1
  Cu  Cu113  1  0.33615844  0.33588987  0.49559797  1
  Cu  Cu114  1  0.50380895  0.50090714  0.24838513  1
  Se  Se115  1  0.08139870  0.07621557  0.04662467  1
  Se  Se116  1  0.09504582  0.09012553  0.55291140  1
  Se  Se117  1  0.07777844  0.40990224  0.07244790  1
  Se  Se118  1  0.07846029  0.41214419  0.55833969  1
  Se  Se119  1  0.08484757  0.73861706  0.06152864  1
  Se  Se120  1  0.08283661  0.75274035  0.55477081  1
  Se  Se121  1  0.40942651  0.08587079  0.05325057  1
  Se  Se122  1  0.41448720  0.08069185  0.56225131  1
  Se  Se123  1  0.40811973  0.41797803  0.05401664  1
  Se  Se124  1  0.41930883  0.41892258  0.54793214  1
  Se  Se125  1  0.41641998  0.75064089  0.06507276  1
  Se  Se126  1  0.41334212  0.75323794  0.54824708  1
  Se  Se127  1  0.74147944  0.07917840  0.06400869  1
  Se  Se128  1  0.76100381  0.08129879  0.54478065  1
  Se  Se129  1  0.74953208  0.41998819  0.05167331  1
  Se  Se130  1  0.75076882  0.40735440  0.56010642  1
  Se  Se131  1  0.75514213  0.75303960  0.05258034  1
  Se  Se132  1  0.74265826  0.73954006  0.55866961  1
  Se  Se133  1  0.23385736  0.24277909  0.05832596  1
  Se  Se134  1  0.25263468  0.25352983  0.54858534  1
  Se  Se135  1  0.26002514  0.58957677  0.06604411  1
  Se  Se136  1  0.25595768  0.58992229  0.56008853  1
  Se  Se137  1  0.25359496  0.91779807  0.05590560  1
  Se  Se138  1  0.25050410  0.91697448  0.55585361  1
  Se  Se139  1  0.57928633  0.25243697  0.05332057  1
  Se  Se140  1  0.59443814  0.25548680  0.55962846  1
  Se  Se141  1  0.58376348  0.58597954  0.05194909  1
  Se  Se142  1  0.56893884  0.56668196  0.55217552  1
  Se  Se143  1  0.58946532  0.92299003  0.06813495  1
  Se  Se144  1  0.60081762  0.93012512  0.55358056  1
  Se  Se145  1  0.91549538  0.25371059  0.06541792  1
  Se  Se146  1  0.91877419  0.24611466  0.54786654  1
  Se  Se147  1  0.91494924  0.58198861  0.05298134  1
  Se  Se148  1  0.91487400  0.58855032  0.55974966  1
  Se  Se149  1  0.91628081  0.91075948  0.04331468  1
  Se  Se150  1  0.92770882  0.92242303  0.56178511  1
  Se  Se151  1  0.09683165  0.25033528  0.44355211  1
  Se  Se152  1  0.07853004  0.24977835  0.95356488  1
  Se  Se153  1  0.07185082  0.59204539  0.44126540  1
  Se  Se154  1  0.08506500  0.58468211  0.94878425  1
  Se  Se155  1  0.08851780  0.91492144  0.45281394  1
  Se  Se156  1  0.07198186  0.91663333  0.92584222  1
  Se  Se157  1  0.41564624  0.25508381  0.43397699  1
  Se  Se158  1  0.42875796  0.22923975  0.94084881  1
  Se  Se159  1  0.41264505  0.58029764  0.44384620  1
  Se  Se160  1  0.42291947  0.58077942  0.95396285  1
  Se  Se161  1  0.41623142  0.91802385  0.44814890  1
  Se  Se162  1  0.40493195  0.91959835  0.94122211  1
  Se  Se163  1  0.75866738  0.25100107  0.44217617  1
  Se  Se164  1  0.73569922  0.25777668  0.93761674  1
  Se  Se165  1  0.73505232  0.59431401  0.44734039  1
  Se  Se166  1  0.75493662  0.58050133  0.94615558  1
  Se  Se167  1  0.74525057  0.92339686  0.43487449  1
  Se  Se168  1  0.73277431  0.93447495  0.94863857  1
  Se  Se169  1  0.25298840  0.08917390  0.44920068  1
  Se  Se170  1  0.24015149  0.08150453  0.93768635  1
  Se  Se171  1  0.25829618  0.41489860  0.43224663  1
  Se  Se172  1  0.25982908  0.40363397  0.94630749  1
  Se  Se173  1  0.24370288  0.75155818  0.44452104  1
  Se  Se174  1  0.25935539  0.74162397  0.94402384  1
  Se  Se175  1  0.59279368  0.07835658  0.43700813  1
  Se  Se176  1  0.57469543  0.07571698  0.95943261  1
  Se  Se177  1  0.58424423  0.41497825  0.44557696  1
  Se  Se178  1  0.57898137  0.42048515  0.94428617  1
  Se  Se179  1  0.57280761  0.75357634  0.45253090  1
  Se  Se180  1  0.59192706  0.74439046  0.93988897  1
  Se  Se181  1  0.92476770  0.08579284  0.44806110  1
  Se  Se182  1  0.91519942  0.08137387  0.93607805  1
  Se  Se183  1  0.93410567  0.41513161  0.43595810  1
  Se  Se184  1  0.91580308  0.42024549  0.95756242  1
  Se  Se185  1  0.91405955  0.74895772  0.44031185  1
  Se  Se186  1  0.92202405  0.75149585  0.93923642  1
  Se  Se187  1  0.25500558  0.25083274  0.30063886  1
  Se  Se188  1  0.25071100  0.25081607  0.80313912  1
  Se  Se189  1  0.22920468  0.56811528  0.30314531  1
  Se  Se190  1  0.24935764  0.57663808  0.81748976  1
  Se  Se191  1  0.25195126  0.91914596  0.30675070  1
  Se  Se192  1  0.24336055  0.91185711  0.79045879  1
  Se  Se193  1  0.58461029  0.25410926  0.29874081  1
  Se  Se194  1  0.57493236  0.23849994  0.80853124  1
  Se  Se195  1  0.58009297  0.58526047  0.30711912  1
  Se  Se196  1  0.58595941  0.58388516  0.80058737  1
  Se  Se197  1  0.57572662  0.91010479  0.31184986  1
  Se  Se198  1  0.57779082  0.90630456  0.81400047  1
  Se  Se199  1  0.92432687  0.25277036  0.30415653  1
  Se  Se200  1  0.90781825  0.24514228  0.80672021  1
  Se  Se201  1  0.91048287  0.58603813  0.30210387  1
  Se  Se202  1  0.92413769  0.58648652  0.80765197  1
  Se  Se203  1  0.91204926  0.90629570  0.30379383  1
  Se  Se204  1  0.92234977  0.92941777  0.79601463  1
  Se  Se205  1  0.09130956  0.08218961  0.31227541  1
  Se  Se206  1  0.07986541  0.08868478  0.79970259  1
  Se  Se207  1  0.07866585  0.40883814  0.29355010  1
  Se  Se208  1  0.09426529  0.42400823  0.81881156  1
  Se  Se209  1  0.07850758  0.75250785  0.30551241  1
  Se  Se210  1  0.10225512  0.76368071  0.79928016  1
  Se  Se211  1  0.41716214  0.08380863  0.29900361  1
  Se  Se212  1  0.41031768  0.07401245  0.80276146  1
  Se  Se213  1  0.41571216  0.41594005  0.29736204  1
  Se  Se214  1  0.41641024  0.41480599  0.80441030  1
  Se  Se215  1  0.41150087  0.74626236  0.30930893  1
  Se  Se216  1  0.42225577  0.75471158  0.81557725  1
  Se  Se217  1  0.76001272  0.08854412  0.30978668  1
  Se  Se218  1  0.75060034  0.08749865  0.81186425  1
  Se  Se219  1  0.74668018  0.41920577  0.30545383  1
  Se  Se220  1  0.76152670  0.42265220  0.81191949  1
  Se  Se221  1  0.74254107  0.74719823  0.30299603  1
  Se  Se222  1  0.75115215  0.74459091  0.80197681  1
  Se  Se223  1  0.25379068  0.07944335  0.19682916  1
  Se  Se224  1  0.25408087  0.08364673  0.69443665  1
  Se  Se225  1  0.23026489  0.44053858  0.19709310  1
  Se  Se226  1  0.25518282  0.41771601  0.70003050  1
  Se  Se227  1  0.25284817  0.74741947  0.20500520  1
  Se  Se228  1  0.24822348  0.75286439  0.68760347  1
  Se  Se229  1  0.57464421  0.09029264  0.18828520  1
  Se  Se230  1  0.57418933  0.08830984  0.69169798  1
  Se  Se231  1  0.58251629  0.41684542  0.19098730  1
  Se  Se232  1  0.57788185  0.41958912  0.68942957  1
  Se  Se233  1  0.58342095  0.74818652  0.20191935  1
  Se  Se234  1  0.58179858  0.74558315  0.69301578  1
  Se  Se235  1  0.91117460  0.09179558  0.18927881  1
  Se  Se236  1  0.91436689  0.08583113  0.69341447  1
  Se  Se237  1  0.91110420  0.41696240  0.19787070  1
  Se  Se238  1  0.91350426  0.42628741  0.69372980  1
  Se  Se239  1  0.91618625  0.74677840  0.19291227  1
  Se  Se240  1  0.93160848  0.74063001  0.70092498  1
  Se  Se241  1  0.08226282  0.24369720  0.19980595  1
  Se  Se242  1  0.09040130  0.24858344  0.68683458  1
  Se  Se243  1  0.06234078  0.59771129  0.20192705  1
  Se  Se244  1  0.08464038  0.58495520  0.70474915  1
  Se  Se245  1  0.09343511  0.90573690  0.18524023  1
  Se  Se246  1  0.07111105  0.93668454  0.69452077  1
  Se  Se247  1  0.41186495  0.25498434  0.19252337  1
  Se  Se248  1  0.41192436  0.25504924  0.69704614  1
  Se  Se249  1  0.41622413  0.58806320  0.20027933  1
  Se  Se250  1  0.42529940  0.58106356  0.68790934  1
  Se  Se251  1  0.41459061  0.91711941  0.20225187  1
  Se  Se252  1  0.41823355  0.91398903  0.69907842  1
  Se  Se253  1  0.74558252  0.25408573  0.20270558  1
  Se  Se254  1  0.74939253  0.24418991  0.68795213  1
  Se  Se255  1  0.74437638  0.58561154  0.19328965  1
  Se  Se256  1  0.74762988  0.58348093  0.69723603  1
  Se  Se257  1  0.75706382  0.91423570  0.19012945  1
  Se  Se258  1  0.76116789  0.90309005  0.69228911  1
