# generated using pymatgen
data_In86Cu29Se144
_symmetry_space_group_name_H-M   'P 1'
_cell_length_a   17.63826289
_cell_length_b   17.63268299
_cell_length_c   23.49943050
_cell_angle_alpha   89.96050035
_cell_angle_beta   90.01442701
_cell_angle_gamma   89.99310565
_symmetry_Int_Tables_number   1
_chemical_formula_structural   In86Cu29Se144
_chemical_formula_sum   'In86 Cu29 Se144'
_cell_volume   7308.55346336
_cell_formula_units_Z   1
loop_
 _symmetry_equiv_pos_site_id
 _symmetry_equiv_pos_as_xyz
  1  'x, y, z'
loop_
 _atom_site_type_symbol
 _atom_site_label
 _atom_site_symmetry_multiplicity
 _atom_site_fract_x
 _atom_site_fract_y
 _atom_site_fract_z
 _atom_site_occupancy
  In  In0  1  -0.01301017  0.16517424  0.12705307  1
  In  In1  1  -0.03775204  0.10986616  0.56308829  1
  In  In2  1  0.01297437  0.50218975  0.12566231  1
  In  In3  1  0.00258302  0.51488478  0.62548927  1
  In  In4  1  0.00939389  0.82485696  0.13420016  1
  In  In5  1  -0.00664957  0.82817067  0.61814945  1
  In  In6  1  0.34928621  0.15271589  0.14097952  1
  In  In7  1  0.32005308  0.15363888  0.61457226  1
  In  In8  1  0.33354003  0.49742170  0.12238167  1
  In  In9  1  0.34323530  0.50050923  0.63277476  1
  In  In10  1  0.33873495  0.84569961  0.11918896  1
  In  In11  1  0.33454553  0.83532494  0.62333052  1
  In  In12  1  0.67015161  0.15983708  0.11800937  1
  In  In13  1  0.66194769  0.16850839  0.62513911  1
  In  In14  1  0.66562511  0.51004451  0.12082781  1
  In  In15  1  0.66575575  0.48558083  0.63277221  1
  In  In16  1  0.64976436  0.84872270  0.12365688  1
  In  In17  1  0.67370676  0.84260188  0.62136294  1
  In  In18  1  0.17058899  -0.00416973  0.37313452  1
  In  In19  1  0.16107598  -0.01572599  0.87413506  1
  In  In20  1  0.16884498  0.31027095  0.37704451  1
  In  In21  1  0.17865458  0.33355435  0.87809361  1
  In  In22  1  0.16044759  0.71589626  0.39084357  1
  In  In23  1  0.16808076  0.66741019  0.87368777  1
  In  In24  1  0.49013782  0.00789107  0.37845191  1
  In  In25  1  0.49568900  0.00392036  0.86922509  1
  In  In26  1  0.48596911  0.32613094  0.36465004  1
  In  In27  1  0.51022894  0.31626748  0.88357367  1
  In  In28  1  0.50296189  0.66869689  0.37974638  1
  In  In29  1  0.48219019  0.68067902  0.88261111  1
  In  In30  1  0.83586348  -0.00646429  0.38197291  1
  In  In31  1  0.83069341  0.01336536  0.87300918  1
  In  In32  1  0.86957142  0.31271821  0.40982856  1
  In  In33  1  0.81875789  0.32780549  0.87099600  1
  In  In34  1  0.84394611  0.65783797  0.38774800  1
  In  In35  1  0.84066849  0.65965942  0.86844025  1
  In  In36  1  0.01080464  0.15802416  0.38346810  1
  In  In37  1  -0.00832615  0.15331317  0.87557222  1
  In  In38  1  -0.00538934  0.49689971  0.37677465  1
  In  In39  1  0.00223297  0.51327410  0.87303631  1
  In  In40  1  0.00301836  0.83485997  0.37274899  1
  In  In41  1  0.01264080  0.83240227  0.87442555  1
  In  In42  1  0.33813793  0.15730054  0.36916362  1
  In  In43  1  0.34555162  0.16612888  0.87222405  1
  In  In44  1  0.33844822  0.50086505  0.36722925  1
  In  In45  1  0.32278002  0.50685455  0.88401377  1
  In  In46  1  0.31435158  0.85113462  0.39366948  1
  In  In47  1  0.33086607  0.83492951  0.87191625  1
  In  In48  1  0.66612299  0.16994338  0.38060098  1
  In  In49  1  0.66099267  0.16463431  0.86832205  1
  In  In50  1  0.68430433  0.49810942  0.38034513  1
  In  In51  1  0.66686273  0.48451041  0.87357935  1
  In  In52  1  0.66722111  0.83230363  0.39233373  1
  In  In53  1  0.64945369  0.83861043  0.87346781  1
  In  In54  1  0.17398667  -0.00910693  0.12883574  1
  In  In55  1  0.16387202  0.00483190  0.61391670  1
  In  In56  1  0.16837102  0.34900043  0.12496546  1
  In  In57  1  0.16243393  0.32121943  0.61726738  1
  In  In58  1  0.16446054  0.66513680  0.12290559  1
  In  In59  1  0.16668950  0.67203567  0.62992425  1
  In  In60  1  0.49861747  -0.00244906  0.11604281  1
  In  In61  1  0.49802550  0.00225051  0.62461471  1
  In  In62  1  0.49141681  0.32003612  0.11752064  1
  In  In63  1  0.50968461  0.33466993  0.62874033  1
  In  In64  1  0.49766111  0.66964329  0.11469133  1
  In  In65  1  0.48225526  0.66963836  0.62782724  1
  In  In66  1  0.83477850  0.01252283  0.13467681  1
  In  In67  1  0.82066721  -0.00719465  0.62167782  1
  In  In68  1  0.84137221  0.32169163  0.12723450  1
  In  In69  1  0.82584953  0.31692742  0.60987075  1
  In  In70  1  0.83478743  0.67713274  0.13112950  1
  In  In71  1  0.83997964  0.68207630  0.61712036  1
  In  In72  1  -0.00675222  -0.00016006  0.73345079  1
  In  In73  1  0.82710812  0.83852378  0.00175239  1
  In  In74  1  0.00385689  0.33201423  0.73789352  1
  In  In75  1  0.32961075  0.67251991  0.25855099  1
  In  In76  1  0.83296560  0.49687708  -0.00684228  1
  In  In77  1  0.51029669  0.49824660  0.50336497  1
  In  In78  1  0.17019876  0.50178092  0.50188894  1
  In  In79  1  0.67125328  0.66850165  0.26260400  1
  In  In80  1  0.66617930  0.66858245  0.75164538  1
  In  In81  1  0.66622593  -0.00005655  0.25254043  1
  In  In82  1  0.66913784  0.33331712  0.25364283  1
  In  In83  1  0.00163125  0.32467507  0.26029548  1
  In  In84  1  0.33902416  0.33525923  0.75425267  1
  In  In85  1  0.17068546  0.16907744  0.00601701  1
  Cu  Cu86  1  0.16677831  0.83974377  0.25344744  1
  Cu  Cu87  1  0.33601558  0.00141575  0.49957730  1
  Cu  Cu88  1  0.83668977  0.83647179  0.74388959  1
  Cu  Cu89  1  0.00301671  0.67045720  0.50059167  1
  Cu  Cu90  1  0.33403706  0.33838351  0.00267377  1
  Cu  Cu91  1  0.16865904  0.50842932  0.24923985  1
  Cu  Cu92  1  0.49813547  0.83489710  0.25047290  1
  Cu  Cu93  1  0.66254231  0.00486027  0.50195564  1
  Cu  Cu94  1  0.49885088  0.50270579  0.75740725  1
  Cu  Cu95  1  0.16961437  0.16439815  0.25158676  1
  Cu  Cu96  1  0.17120233  0.50201533  0.75139591  1
  Cu  Cu97  1  -0.00474204  -0.00338199  -0.00036373  1
  Cu  Cu98  1  0.84147836  0.49853938  0.25936503  1
  Cu  Cu99  1  0.00578907  0.66494752  0.00087487  1
  Cu  Cu100  1  0.49502734  0.83944349  0.74956103  1
  Cu  Cu101  1  0.33279831  -0.00018963  -0.00169324  1
  Cu  Cu102  1  0.65568166  0.66898525  -0.00209176  1
  Cu  Cu103  1  -0.00062034  0.33046227  0.00332150  1
  Cu  Cu104  1  0.33688438  0.32410548  0.49473649  1
  Cu  Cu105  1  0.82692585  0.16907358  0.74275028  1
  Cu  Cu106  1  0.66336679  0.33233791  0.50269985  1
  Cu  Cu107  1  0.17215915  0.82751740  0.75055195  1
  Cu  Cu108  1  0.49960740  0.16561961  0.74807173  1
  Cu  Cu109  1  0.32591545  0.67081973  -0.00005206  1
  Cu  Cu110  1  0.83838037  0.50078285  0.74966220  1
  Cu  Cu111  1  0.49951563  0.49598302  0.24611520  1
  Cu  Cu112  1  0.66812366  0.32681240  -0.00250620  1
  Cu  Cu113  1  0.84418451  0.83645382  0.25643349  1
  Cu  Cu114  1  0.16356173  0.16029374  0.73917599  1
  Se  Se115  1  0.07688805  0.07719121  0.06049410  1
  Se  Se116  1  0.10468276  0.09902481  0.54227283  1
  Se  Se117  1  0.08140835  0.41806782  0.05120158  1
  Se  Se118  1  0.07475392  0.41562584  0.55768007  1
  Se  Se119  1  0.08317456  0.75146952  0.05548051  1
  Se  Se120  1  0.08787480  0.74968411  0.55578739  1
  Se  Se121  1  0.40997756  0.08545351  0.05414455  1
  Se  Se122  1  0.42014710  0.08583690  0.55152225  1
  Se  Se123  1  0.42108849  0.41997323  0.05427554  1
  Se  Se124  1  0.40997541  0.40687778  0.55786631  1
  Se  Se125  1  0.41259596  0.75395138  0.05151476  1
  Se  Se126  1  0.41393019  0.75063233  0.55347853  1
  Se  Se127  1  0.75017748  0.06784909  0.05693437  1
  Se  Se128  1  0.74633069  0.08655203  0.55591203  1
  Se  Se129  1  0.74791248  0.40745649  0.05955906  1
  Se  Se130  1  0.74474183  0.41835412  0.55438948  1
  Se  Se131  1  0.73661808  0.74379416  0.06139777  1
  Se  Se132  1  0.75095207  0.75765590  0.55324139  1
  Se  Se133  1  0.25970708  0.25617373  0.06644912  1
  Se  Se134  1  0.24779323  0.24706171  0.54687967  1
  Se  Se135  1  0.25048242  0.58394496  0.05705283  1
  Se  Se136  1  0.26056167  0.58554557  0.56416164  1
  Se  Se137  1  0.24685468  0.91747723  0.04999388  1
  Se  Se138  1  0.25223550  0.91794887  0.55288427  1
  Se  Se139  1  0.58587872  0.24595452  0.05374584  1
  Se  Se140  1  0.57791680  0.25078522  0.55466400  1
  Se  Se141  1  0.57852600  0.57991773  0.04994317  1
  Se  Se142  1  0.58722057  0.58659728  0.57173717  1
  Se  Se143  1  0.57937122  0.91779666  0.04542776  1
  Se  Se144  1  0.58221339  0.91960351  0.55608584  1
  Se  Se145  1  0.91468178  0.24576158  0.05080851  1
  Se  Se146  1  0.92838599  0.25430857  0.54868780  1
  Se  Se147  1  0.91700342  0.58930765  0.05859858  1
  Se  Se148  1  0.91863737  0.58868136  0.55358274  1
  Se  Se149  1  0.92185470  0.91672615  0.06530032  1
  Se  Se150  1  0.93694455  0.94294630  0.56190875  1
  Se  Se151  1  0.05404903  0.27803967  0.43967328  1
  Se  Se152  1  0.07689079  0.25089736  0.93878283  1
  Se  Se153  1  0.08471970  0.59352654  0.43875762  1
  Se  Se154  1  0.08687119  0.58298276  0.94544869  1
  Se  Se155  1  0.11218837  0.88818107  0.43686137  1
  Se  Se156  1  0.08143837  0.91368308  0.95052473  1
  Se  Se157  1  0.41936734  0.24330880  0.44012391  1
  Se  Se158  1  0.41039704  0.24974379  0.94856800  1
  Se  Se159  1  0.41286619  0.58027284  0.44432924  1
  Se  Se160  1  0.41227046  0.58602215  0.94958488  1
  Se  Se161  1  0.42322981  0.91680216  0.45001257  1
  Se  Se162  1  0.41325823  0.92016901  0.93903351  1
  Se  Se163  1  0.74891760  0.24788795  0.45222760  1
  Se  Se164  1  0.74732877  0.24286302  0.94170966  1
  Se  Se165  1  0.72895570  0.60554771  0.44466568  1
  Se  Se166  1  0.74069843  0.59318513  0.93868189  1
  Se  Se167  1  0.75089189  0.92066093  0.45424938  1
  Se  Se168  1  0.74165769  0.92483960  0.93772030  1
  Se  Se169  1  0.25354991  0.08109025  0.44096853  1
  Se  Se170  1  0.25014708  0.07965929  0.93773985  1
  Se  Se171  1  0.25738936  0.40941226  0.43786823  1
  Se  Se172  1  0.24498885  0.41774348  0.95233937  1
  Se  Se173  1  0.27910032  0.73046732  0.45118469  1
  Se  Se174  1  0.24720287  0.75331299  0.94210472  1
  Se  Se175  1  0.58128982  0.08481533  0.44479939  1
  Se  Se176  1  0.56201930  0.10209336  0.93483703  1
  Se  Se177  1  0.58576439  0.40498065  0.43443911  1
  Se  Se178  1  0.58495083  0.41347223  0.94763084  1
  Se  Se179  1  0.58902748  0.73686399  0.45079004  1
  Se  Se180  1  0.57680436  0.75655858  0.94656721  1
  Se  Se181  1  0.91575944  0.08285386  0.44723989  1
  Se  Se182  1  0.91194288  0.08210086  0.95044081  1
  Se  Se183  1  0.89461316  0.44645921  0.44755440  1
  Se  Se184  1  0.92439429  0.40654438  0.93434498  1
  Se  Se185  1  0.92144635  0.75606855  0.44675718  1
  Se  Se186  1  0.91940581  0.74397541  0.94334193  1
  Se  Se187  1  0.25468942  0.24736697  0.30237693  1
  Se  Se188  1  0.24001893  0.23866788  0.80339057  1
  Se  Se189  1  0.23559639  0.58816775  0.31806550  1
  Se  Se190  1  0.25336552  0.58382024  0.80557341  1
  Se  Se191  1  0.25914243  0.91621327  0.30400643  1
  Se  Se192  1  0.24858222  0.91872628  0.80154374  1
  Se  Se193  1  0.57636633  0.23680386  0.30277546  1
  Se  Se194  1  0.58138514  0.25323191  0.79939771  1
  Se  Se195  1  0.57844459  0.56906385  0.31092021  1
  Se  Se196  1  0.57844690  0.58410979  0.81745002  1
  Se  Se197  1  0.58256550  0.90634679  0.31390035  1
  Se  Se198  1  0.58114599  0.92220666  0.79937163  1
  Se  Se199  1  0.90795900  0.23815888  0.31603411  1
  Se  Se200  1  0.91290041  0.24333323  0.80385413  1
  Se  Se201  1  0.92095012  0.58810698  0.30817665  1
  Se  Se202  1  0.92379837  0.58573798  0.79662176  1
  Se  Se203  1  0.92127109  0.92423185  0.30816460  1
  Se  Se204  1  0.91527110  0.91488002  0.80860828  1
  Se  Se205  1  0.08707767  0.08439199  0.30769832  1
  Se  Se206  1  0.08418759  0.08281560  0.80345833  1
  Se  Se207  1  0.09530524  0.42121830  0.31134159  1
  Se  Se208  1  0.09024506  0.41756321  0.80812392  1
  Se  Se209  1  0.08455049  0.75026886  0.30138515  1
  Se  Se210  1  0.08345523  0.74766792  0.80259637  1
  Se  Se211  1  0.41730673  0.07481239  0.29867955  1
  Se  Se212  1  0.41110915  0.08338050  0.79656780  1
  Se  Se213  1  0.41175106  0.41579215  0.29619758  1
  Se  Se214  1  0.42253042  0.42104614  0.82048612  1
  Se  Se215  1  0.42055528  0.76189986  0.31636196  1
  Se  Se216  1  0.41402371  0.75238417  0.80155145  1
  Se  Se217  1  0.75508578  0.08606665  0.31393605  1
  Se  Se218  1  0.74899479  0.08512419  0.79905129  1
  Se  Se219  1  0.76675233  0.41103534  0.31444833  1
  Se  Se220  1  0.75229766  0.41754832  0.79900557  1
  Se  Se221  1  0.76138630  0.76093313  0.31738075  1
  Se  Se222  1  0.75783510  0.76111241  0.81083374  1
  Se  Se223  1  0.24954446  0.07754221  0.19855935  1
  Se  Se224  1  0.24757365  0.07493977  0.69079718  1
  Se  Se225  1  0.25098941  0.42441333  0.19722590  1
  Se  Se226  1  0.24128640  0.41519578  0.69041561  1
  Se  Se227  1  0.24774495  0.76026273  0.19085663  1
  Se  Se228  1  0.25746485  0.74893636  0.69551150  1
  Se  Se229  1  0.57876503  0.08564891  0.18910174  1
  Se  Se230  1  0.58307336  0.08330309  0.69424286  1
  Se  Se231  1  0.58318585  0.42059735  0.18685593  1
  Se  Se232  1  0.57868699  0.41619616  0.70532938  1
  Se  Se233  1  0.57873724  0.75045899  0.19449874  1
  Se  Se234  1  0.57752969  0.75754811  0.69099732  1
  Se  Se235  1  0.92220515  0.08420099  0.20333110  1
  Se  Se236  1  0.90903427  0.09765974  0.67839644  1
  Se  Se237  1  0.91730684  0.42014701  0.19372125  1
  Se  Se238  1  0.90880563  0.42071364  0.68304124  1
  Se  Se239  1  0.92010701  0.74699075  0.20244650  1
  Se  Se240  1  0.91974621  0.75052062  0.69537311  1
  Se  Se241  1  0.09134433  0.24620246  0.18951953  1
  Se  Se242  1  0.07846362  0.23128154  0.67976686  1
  Se  Se243  1  0.08272755  0.58901073  0.19723504  1
  Se  Se244  1  0.08735706  0.58452056  0.69835893  1
  Se  Se245  1  0.08229257  0.92043269  0.19864135  1
  Se  Se246  1  0.09194843  0.90607555  0.68759420  1
  Se  Se247  1  0.41223553  0.26072440  0.19782958  1
  Se  Se248  1  0.41476258  0.24311950  0.68704726  1
  Se  Se249  1  0.42261427  0.58753208  0.19327832  1
  Se  Se250  1  0.41578852  0.58460301  0.70479985  1
  Se  Se251  1  0.42247493  0.91792317  0.19209853  1
  Se  Se252  1  0.41337307  0.92079220  0.69337086  1
  Se  Se253  1  0.75588617  0.23848943  0.19372551  1
  Se  Se254  1  0.74637341  0.25662831  0.69144321  1
  Se  Se255  1  0.75862876  0.57511702  0.19752212  1
  Se  Se256  1  0.75721745  0.58269931  0.68998811  1
  Se  Se257  1  0.75552110  0.90333509  0.19360268  1
  Se  Se258  1  0.74665534  0.91906533  0.69958143  1
