# generated using pymatgen
data_In86Cu29Se144
_symmetry_space_group_name_H-M   'P 1'
_cell_length_a   17.59552894
_cell_length_b   17.59194375
_cell_length_c   23.45092586
_cell_angle_alpha   89.97991728
_cell_angle_beta   90.00524005
_cell_angle_gamma   90.01035878
_symmetry_Int_Tables_number   1
_chemical_formula_structural   In86Cu29Se144
_chemical_formula_sum   'In86 Cu29 Se144'
_cell_volume   7258.98857159
_cell_formula_units_Z   1
loop_
 _symmetry_equiv_pos_site_id
 _symmetry_equiv_pos_as_xyz
  1  'x, y, z'
loop_
 _atom_site_type_symbol
 _atom_site_label
 _atom_site_symmetry_multiplicity
 _atom_site_fract_x
 _atom_site_fract_y
 _atom_site_fract_z
 _atom_site_occupancy
  In  In0  1  0.00403501  0.14426792  0.12236644  1
  In  In1  1  0.01740747  0.15391340  0.63348562  1
  In  In2  1  0.01395488  0.50389325  0.12467107  1
  In  In3  1  0.00216995  0.50310653  0.62990253  1
  In  In4  1  0.00011646  0.83323237  0.11815771  1
  In  In5  1  -0.00083206  0.82679607  0.62921510  1
  In  In6  1  0.32567344  0.16186607  0.12224753  1
  In  In7  1  0.31084404  0.16596226  0.62283233  1
  In  In8  1  0.32186380  0.49172287  0.12136380  1
  In  In9  1  0.33189100  0.51495516  0.62152910  1
  In  In10  1  0.33895108  0.84266797  0.12117405  1
  In  In11  1  0.32345415  0.83730202  0.63158171  1
  In  In12  1  0.65943735  0.17396345  0.12136995  1
  In  In13  1  0.67087301  0.16656296  0.62617392  1
  In  In14  1  0.66896658  0.51702986  0.12666775  1
  In  In15  1  0.67291875  0.50317187  0.61597476  1
  In  In16  1  0.66197451  0.82820672  0.12150275  1
  In  In17  1  0.67954933  0.83017564  0.61722926  1
  In  In18  1  0.16605820  -0.00029850  0.37226976  1
  In  In19  1  0.16245293  -0.00781697  0.87619489  1
  In  In20  1  0.17925550  0.32470912  0.38851206  1
  In  In21  1  0.16014163  0.34076442  0.88098985  1
  In  In22  1  0.15792869  0.68368302  0.38996204  1
  In  In23  1  0.16702059  0.66964339  0.87446444  1
  In  In24  1  0.49893634  0.00739885  0.37048183  1
  In  In25  1  0.48844973  0.00819547  0.88355659  1
  In  In26  1  0.48780678  0.34474556  0.36842054  1
  In  In27  1  0.49559934  0.33801835  0.88441466  1
  In  In28  1  0.50110229  0.65537263  0.36695977  1
  In  In29  1  0.48751329  0.67991755  0.88537408  1
  In  In30  1  0.84273349  -0.03451390  0.38296010  1
  In  In31  1  0.84313485  -0.01639667  0.87676005  1
  In  In32  1  0.84812128  0.33659625  0.38209955  1
  In  In33  1  0.84222941  0.33098648  0.87087792  1
  In  In34  1  0.84072317  0.66749811  0.37789954  1
  In  In35  1  0.85553586  0.68416180  0.85739806  1
  In  In36  1  0.01733836  0.16803507  0.37481612  1
  In  In37  1  0.01041656  0.16745719  0.87312779  1
  In  In38  1  -0.00517613  0.50962132  0.38415660  1
  In  In39  1  0.01376835  0.51942088  0.85733446  1
  In  In40  1  0.00718931  0.83032372  0.37407636  1
  In  In41  1  0.00461948  0.83577592  0.87405263  1
  In  In42  1  0.32586381  0.16091524  0.36639091  1
  In  In43  1  0.33455800  0.15870758  0.88081527  1
  In  In44  1  0.33328406  0.49236466  0.37480743  1
  In  In45  1  0.32154260  0.51300159  0.88102783  1
  In  In46  1  0.31294028  0.83208059  0.37565207  1
  In  In47  1  0.32702664  0.83299276  0.87590128  1
  In  In48  1  0.65861402  0.16370386  0.37148761  1
  In  In49  1  0.66222838  0.15792917  0.87825062  1
  In  In50  1  0.66529591  0.51698543  0.37660180  1
  In  In51  1  0.66516357  0.49696069  0.87787552  1
  In  In52  1  0.68909580  0.82626828  0.38424515  1
  In  In53  1  0.66476206  0.83259609  0.88443781  1
  In  In54  1  0.16302863  -0.00010523  0.11919714  1
  In  In55  1  0.16577771  -0.00722564  0.62546546  1
  In  In56  1  0.17534966  0.33904305  0.11945916  1
  In  In57  1  0.16076535  0.32213221  0.61720306  1
  In  In58  1  0.15670696  0.66050337  0.12114355  1
  In  In59  1  0.16798862  0.66545169  0.62399612  1
  In  In60  1  0.48657164  -0.00834908  0.11912389  1
  In  In61  1  0.48966522  -0.01400641  0.62955409  1
  In  In62  1  0.48018047  0.32022668  0.11597912  1
  In  In63  1  0.49552510  0.34922287  0.62719701  1
  In  In64  1  0.50729886  0.67775400  0.11817259  1
  In  In65  1  0.49625388  0.66015043  0.62913067  1
  In  In66  1  0.85423615  -0.01194845  0.12545592  1
  In  In67  1  0.84987737  -0.00214617  0.62495022  1
  In  In68  1  0.83120599  0.33281945  0.12599518  1
  In  In69  1  0.84717255  0.35744339  0.62346020  1
  In  In70  1  0.82985381  0.67595186  0.13112183  1
  In  In71  1  0.84323306  0.67916252  0.62001085  1
  In  In72  1  0.49121885  0.50080026  0.49961270  1
  In  In73  1  0.66826789  0.66828890  0.74357598  1
  In  In74  1  0.66478837  0.34177173  0.24953458  1
  In  In75  1  0.66781535  -0.00383982  0.25370314  1
  In  In76  1  0.83118593  0.16239665  -0.00617164  1
  In  In77  1  0.66934466  0.00015920  0.75429949  1
  In  In78  1  0.67486213  0.33169551  0.75571962  1
  In  In79  1  0.84443353  0.16306089  0.50464317  1
  In  In80  1  0.49780773  0.16524218  0.49017194  1
  In  In81  1  0.32865114  0.66684678  0.24937707  1
  In  In82  1  0.00688856  0.33679417  0.25086108  1
  In  In83  1  0.50130616  0.83103152  0.50079636  1
  In  In84  1  0.83447490  0.50793378  -0.01004869  1
  In  In85  1  0.32712867  0.33315437  0.74776376  1
  Cu  Cu86  1  0.49582232  0.49921661  0.24482905  1
  Cu  Cu87  1  0.83788240  0.51208068  0.25551447  1
  Cu  Cu88  1  0.48603334  0.16354133  0.24231173  1
  Cu  Cu89  1  0.16534050  0.15877464  0.75063593  1
  Cu  Cu90  1  0.48974093  0.16250475  0.75449348  1
  Cu  Cu91  1  0.49786353  0.50663816  0.75444650  1
  Cu  Cu92  1  0.66689618  0.32945049  0.50005720  1
  Cu  Cu93  1  0.00696898  0.33993861  0.50437503  1
  Cu  Cu94  1  0.16207611  0.83905427  0.24784295  1
  Cu  Cu95  1  0.00119828  0.66994360  0.50495069  1
  Cu  Cu96  1  0.16489994  0.50592425  0.74952860  1
  Cu  Cu97  1  0.16384363  0.82937691  0.75186982  1
  Cu  Cu98  1  0.16302346  0.50301678  0.25219179  1
  Cu  Cu99  1  0.66289534  0.00168610  0.00264385  1
  Cu  Cu100  1  0.84712113  0.16948909  0.74928863  1
  Cu  Cu101  1  0.00131823  0.66758604  -0.00746560  1
  Cu  Cu102  1  0.49019159  0.83178789  0.75520398  1
  Cu  Cu103  1  0.50331556  0.83294190  0.24439097  1
  Cu  Cu104  1  0.32677149  -0.00234903  -0.00085158  1
  Cu  Cu105  1  0.32952312  0.66525201  0.00327247  1
  Cu  Cu106  1  0.00796148  -0.00826965  0.50211531  1
  Cu  Cu107  1  0.16819912  0.16240793  0.24756133  1
  Cu  Cu108  1  0.84510278  0.82673026  0.25158862  1
  Cu  Cu109  1  0.66612126  0.66750531  0.00065957  1
  Cu  Cu110  1  0.32678134  0.00289993  0.49879172  1
  Cu  Cu111  1  0.83620502  0.15210781  0.25113958  1
  Cu  Cu112  1  0.00309785  0.33175188  -0.00026010  1
  Cu  Cu113  1  0.33158349  0.33064085  -0.00073823  1
  Cu  Cu114  1  0.65602104  0.33969587  0.00257849  1
  Se  Se115  1  0.08784654  0.08468161  0.04664425  1
  Se  Se116  1  0.08791400  0.08019247  0.55398872  1
  Se  Se117  1  0.08414969  0.41761708  0.05337693  1
  Se  Se118  1  0.08756194  0.42417289  0.55844170  1
  Se  Se119  1  0.08384849  0.74783766  0.05023441  1
  Se  Se120  1  0.08549010  0.75362054  0.55719216  1
  Se  Se121  1  0.41178700  0.08220591  0.05221277  1
  Se  Se122  1  0.41234989  0.07847297  0.55847697  1
  Se  Se123  1  0.41277412  0.41933859  0.05165603  1
  Se  Se124  1  0.40004356  0.40666848  0.55437258  1
  Se  Se125  1  0.41420926  0.75187080  0.05326047  1
  Se  Se126  1  0.41123041  0.74669294  0.56315654  1
  Se  Se127  1  0.74678585  0.07721021  0.06412937  1
  Se  Se128  1  0.74716213  0.07531799  0.55980309  1
  Se  Se129  1  0.74616344  0.41588119  0.05662492  1
  Se  Se130  1  0.75108665  0.41397818  0.55028820  1
  Se  Se131  1  0.75111283  0.74881129  0.05486830  1
  Se  Se132  1  0.73923678  0.73216297  0.55142945  1
  Se  Se133  1  0.24695806  0.24727098  0.05149188  1
  Se  Se134  1  0.25097005  0.25087819  0.54774209  1
  Se  Se135  1  0.24432479  0.58052564  0.05425134  1
  Se  Se136  1  0.25029294  0.58909996  0.55061911  1
  Se  Se137  1  0.24623227  0.91213825  0.05275383  1
  Se  Se138  1  0.25130597  0.91516780  0.55408573  1
  Se  Se139  1  0.57669733  0.24812068  0.05018777  1
  Se  Se140  1  0.58340141  0.25677366  0.56065098  1
  Se  Se141  1  0.58321668  0.58306777  0.05233517  1
  Se  Se142  1  0.58682905  0.59324305  0.55293399  1
  Se  Se143  1  0.58106609  0.91568819  0.05563969  1
  Se  Se144  1  0.58932326  0.92669022  0.55952044  1
  Se  Se145  1  0.91987591  0.25314298  0.05868119  1
  Se  Se146  1  0.92986743  0.25388362  0.56551931  1
  Se  Se147  1  0.92191081  0.58970851  0.05799756  1
  Se  Se148  1  0.91978395  0.58349286  0.55748623  1
  Se  Se149  1  0.91260852  0.90770803  0.04717905  1
  Se  Se150  1  0.92130231  0.91136174  0.55412638  1
  Se  Se151  1  0.08283954  0.24915750  0.45194340  1
  Se  Se152  1  0.08606611  0.24756236  0.94760496  1
  Se  Se153  1  0.08426527  0.58530843  0.45200483  1
  Se  Se154  1  0.08413554  0.58072915  0.94228116  1
  Se  Se155  1  0.09061685  0.91332963  0.44347210  1
  Se  Se156  1  0.09759879  0.89817612  0.94656259  1
  Se  Se157  1  0.40680751  0.25784175  0.43666640  1
  Se  Se158  1  0.41594141  0.24700337  0.94699970  1
  Se  Se159  1  0.40593517  0.59595809  0.44039954  1
  Se  Se160  1  0.41523133  0.58276858  0.94956582  1
  Se  Se161  1  0.41168184  0.92439521  0.44003559  1
  Se  Se162  1  0.41228047  0.91403282  0.94662193  1
  Se  Se163  1  0.74668999  0.24927731  0.44030409  1
  Se  Se164  1  0.73938344  0.26307718  0.94062918  1
  Se  Se165  1  0.75913029  0.57928902  0.44370301  1
  Se  Se166  1  0.74760952  0.60184755  0.93200082  1
  Se  Se167  1  0.74856684  0.91718993  0.45707080  1
  Se  Se168  1  0.74701941  0.92241458  0.94726672  1
  Se  Se169  1  0.24769357  0.08556794  0.44180321  1
  Se  Se170  1  0.24375149  0.08047232  0.94493732  1
  Se  Se171  1  0.24677608  0.42735858  0.44806014  1
  Se  Se172  1  0.25018826  0.41777924  0.94703688  1
  Se  Se173  1  0.25542298  0.75178668  0.45494304  1
  Se  Se174  1  0.24864006  0.74807102  0.94694257  1
  Se  Se175  1  0.59661496  0.06894273  0.44506073  1
  Se  Se176  1  0.57944713  0.08608199  0.95084756  1
  Se  Se177  1  0.58711125  0.40943481  0.43918367  1
  Se  Se178  1  0.57777684  0.42640661  0.94908426  1
  Se  Se179  1  0.58550455  0.73983815  0.43766595  1
  Se  Se180  1  0.57918173  0.75412503  0.95237325  1
  Se  Se181  1  0.92824242  0.07348621  0.43965773  1
  Se  Se182  1  0.92774858  0.07479523  0.94195568  1
  Se  Se183  1  0.91844677  0.42046222  0.45416611  1
  Se  Se184  1  0.92845861  0.41423479  0.93851749  1
  Se  Se185  1  0.92234274  0.75306764  0.44571098  1
  Se  Se186  1  0.91605922  0.75204644  0.94306142  1
  Se  Se187  1  0.24249793  0.25183495  0.30371849  1
  Se  Se188  1  0.24326873  0.24282779  0.81114971  1
  Se  Se189  1  0.24058976  0.58400409  0.31417087  1
  Se  Se190  1  0.25030772  0.58719472  0.80267821  1
  Se  Se191  1  0.24929203  0.91839862  0.30073406  1
  Se  Se192  1  0.24776580  0.91469293  0.80406531  1
  Se  Se193  1  0.56874889  0.24398134  0.30207780  1
  Se  Se194  1  0.57296620  0.24420539  0.80960164  1
  Se  Se195  1  0.58407043  0.57883470  0.29590731  1
  Se  Se196  1  0.57853928  0.58717797  0.81246550  1
  Se  Se197  1  0.58198702  0.90312191  0.31401340  1
  Se  Se198  1  0.57363355  0.91295109  0.81275872  1
  Se  Se199  1  0.91261908  0.24203818  0.30743315  1
  Se  Se200  1  0.92763769  0.25229276  0.80418583  1
  Se  Se201  1  0.92718243  0.58953764  0.30612095  1
  Se  Se202  1  0.90825921  0.57723514  0.79591508  1
  Se  Se203  1  0.92624669  0.91463836  0.30190660  1
  Se  Se204  1  0.91965532  0.91251846  0.80189483  1
  Se  Se205  1  0.08273724  0.08163584  0.30092652  1
  Se  Se206  1  0.08221677  0.07606976  0.80432155  1
  Se  Se207  1  0.08923863  0.42195869  0.31760908  1
  Se  Se208  1  0.08853615  0.41486085  0.80174962  1
  Se  Se209  1  0.09045778  0.74809631  0.30413386  1
  Se  Se210  1  0.08008788  0.74502745  0.80401087  1
  Se  Se211  1  0.41153382  0.07745184  0.29968759  1
  Se  Se212  1  0.40874501  0.07767114  0.80539989  1
  Se  Se213  1  0.40799464  0.41894004  0.29509308  1
  Se  Se214  1  0.41724811  0.42204142  0.80997308  1
  Se  Se215  1  0.41979395  0.75875823  0.30900179  1
  Se  Se216  1  0.40885732  0.74569615  0.80613292  1
  Se  Se217  1  0.76113022  0.07925881  0.31793205  1
  Se  Se218  1  0.76315025  0.09373078  0.81045273  1
  Se  Se219  1  0.76157758  0.42187263  0.31133653  1
  Se  Se220  1  0.76245669  0.43033553  0.80736247  1
  Se  Se221  1  0.75678209  0.74884990  0.30568438  1
  Se  Se222  1  0.74855253  0.76589031  0.80459002  1
  Se  Se223  1  0.24748875  0.07736740  0.19251275  1
  Se  Se224  1  0.24880703  0.07735367  0.69647485  1
  Se  Se225  1  0.24369044  0.41830467  0.19828457  1
  Se  Se226  1  0.24254852  0.42471267  0.68680081  1
  Se  Se227  1  0.24245902  0.75712822  0.18721272  1
  Se  Se228  1  0.24820579  0.74645355  0.69817460  1
  Se  Se229  1  0.57776095  0.08538913  0.19068446  1
  Se  Se230  1  0.57488686  0.08915440  0.69274734  1
  Se  Se231  1  0.57458937  0.41906645  0.18196347  1
  Se  Se232  1  0.58294805  0.42806898  0.69714493  1
  Se  Se233  1  0.58717414  0.74703753  0.19636136  1
  Se  Se234  1  0.57463321  0.76458592  0.68939965  1
  Se  Se235  1  0.92310163  0.07457144  0.19888460  1
  Se  Se236  1  0.92366692  0.07862017  0.69861087  1
  Se  Se237  1  0.90994716  0.42697006  0.19241399  1
  Se  Se238  1  0.92813500  0.41519286  0.70171446  1
  Se  Se239  1  0.92741825  0.74756297  0.19397218  1
  Se  Se240  1  0.90735916  0.75648074  0.69900106  1
  Se  Se241  1  0.08680897  0.24363028  0.18693772  1
  Se  Se242  1  0.08902144  0.25106398  0.69838674  1
  Se  Se243  1  0.08083330  0.58735878  0.20043601  1
  Se  Se244  1  0.08241757  0.59138695  0.69721258  1
  Se  Se245  1  0.08014278  0.91737469  0.18936452  1
  Se  Se246  1  0.08285856  0.91377628  0.69604780  1
  Se  Se247  1  0.40342045  0.25052147  0.19368345  1
  Se  Se248  1  0.42088814  0.24387839  0.68783452  1
  Se  Se249  1  0.41828659  0.58281148  0.18437015  1
  Se  Se250  1  0.41250608  0.58431638  0.69973118  1
  Se  Se251  1  0.41561928  0.91720298  0.19865639  1
  Se  Se252  1  0.40722355  0.91755503  0.70361520  1
  Se  Se253  1  0.75644487  0.23834025  0.19695618  1
  Se  Se254  1  0.76436165  0.24730318  0.68953879  1
  Se  Se255  1  0.75070399  0.58864343  0.20031781  1
  Se  Se256  1  0.75823604  0.57679395  0.68803419  1
  Se  Se257  1  0.75881540  0.90754048  0.19364466  1
  Se  Se258  1  0.75644640  0.91349415  0.69165947  1
