# generated using pymatgen
data_In86Cu29Se144
_symmetry_space_group_name_H-M   'P 1'
_cell_length_a   17.58275293
_cell_length_b   17.58615606
_cell_length_c   23.44259792
_cell_angle_alpha   90.01010250
_cell_angle_beta   89.99750264
_cell_angle_gamma   90.02234900
_symmetry_Int_Tables_number   1
_chemical_formula_structural   In86Cu29Se144
_chemical_formula_sum   'In86 Cu29 Se144'
_cell_volume   7248.75622575
_cell_formula_units_Z   1
loop_
 _symmetry_equiv_pos_site_id
 _symmetry_equiv_pos_as_xyz
  1  'x, y, z'
loop_
 _atom_site_type_symbol
 _atom_site_label
 _atom_site_symmetry_multiplicity
 _atom_site_fract_x
 _atom_site_fract_y
 _atom_site_fract_z
 _atom_site_occupancy
  In  In0  1  -0.00366920  0.17116928  0.12652198  1
  In  In1  1  0.00018691  0.16881486  0.63223459  1
  In  In2  1  -0.00367522  0.50823783  0.12678295  1
  In  In3  1  0.00953467  0.49542325  0.63940175  1
  In  In4  1  -0.00161360  0.83892469  0.12277840  1
  In  In5  1  0.01487514  0.81926594  0.63666214  1
  In  In6  1  0.32882156  0.17019305  0.12885661  1
  In  In7  1  0.34523958  0.16791825  0.61793141  1
  In  In8  1  0.33396037  0.48549942  0.11950028  1
  In  In9  1  0.33444589  0.50172996  0.63612596  1
  In  In10  1  0.32856207  0.84263499  0.12815804  1
  In  In11  1  0.31758285  0.83740439  0.62510502  1
  In  In12  1  0.67559542  0.16100999  0.13116719  1
  In  In13  1  0.66376489  0.18276772  0.62559840  1
  In  In14  1  0.65851287  0.49125784  0.11665718  1
  In  In15  1  0.63712024  0.49623855  0.62642019  1
  In  In16  1  0.67969708  0.83707189  0.12324462  1
  In  In17  1  0.67295917  0.82473598  0.62346929  1
  In  In18  1  0.15798067  -0.01269975  0.36323274  1
  In  In19  1  0.14374686  -0.00070077  0.88132210  1
  In  In20  1  0.17451697  0.33956648  0.37209368  1
  In  In21  1  0.17279380  0.34934113  0.85816742  1
  In  In22  1  0.16100974  0.66868543  0.38637709  1
  In  In23  1  0.17429480  0.66994254  0.86742490  1
  In  In24  1  0.50453865  0.01122176  0.36676981  1
  In  In25  1  0.50281963  -0.00957745  0.87534989  1
  In  In26  1  0.49769578  0.33263493  0.37752886  1
  In  In27  1  0.50418387  0.34123572  0.86260715  1
  In  In28  1  0.48784022  0.66114077  0.38356056  1
  In  In29  1  0.47558074  0.65517301  0.85860209  1
  In  In30  1  0.83710442  -0.00217511  0.36291118  1
  In  In31  1  0.86239969  -0.01865884  0.90798250  1
  In  In32  1  0.83065877  0.33541553  0.36464972  1
  In  In33  1  0.83718124  0.33296002  0.87976769  1
  In  In34  1  0.84785678  0.65698217  0.37145804  1
  In  In35  1  0.83916282  0.65659123  0.88183329  1
  In  In36  1  -0.00264091  0.16623602  0.36592839  1
  In  In37  1  -0.00310496  0.16279585  0.87561900  1
  In  In38  1  0.00800927  0.51045075  0.36661701  1
  In  In39  1  -0.00364308  0.49299744  0.86497169  1
  In  In40  1  0.01543667  0.83570408  0.36237933  1
  In  In41  1  0.00233003  0.83174796  0.88104899  1
  In  In42  1  0.34076859  0.17887869  0.36922503  1
  In  In43  1  0.32861718  0.17481451  0.87401053  1
  In  In44  1  0.34050500  0.48772394  0.38628381  1
  In  In45  1  0.33651057  0.50219313  0.86574037  1
  In  In46  1  0.31655902  0.82720310  0.37357085  1
  In  In47  1  0.32770195  0.81514240  0.87304852  1
  In  In48  1  0.66269765  0.16366702  0.36941939  1
  In  In49  1  0.68002842  0.17906340  0.87411841  1
  In  In50  1  0.66637211  0.48917138  0.37533979  1
  In  In51  1  0.67190404  0.48999311  0.87846594  1
  In  In52  1  0.65822121  0.83828954  0.37036529  1
  In  In53  1  0.66926604  0.83998922  0.87787420  1
  In  In54  1  0.16477282  -0.00604242  0.13002833  1
  In  In55  1  0.16386120  -0.01348086  0.62223544  1
  In  In56  1  0.17114263  0.33029816  0.13028354  1
  In  In57  1  0.15984331  0.35105191  0.64125340  1
  In  In58  1  0.15098863  0.67403779  0.12947777  1
  In  In59  1  0.16575333  0.66554176  0.63060012  1
  In  In60  1  0.49562664  0.01116682  0.13354823  1
  In  In61  1  0.48649764  0.00329742  0.61660412  1
  In  In62  1  0.49339102  0.34294113  0.12918149  1
  In  In63  1  0.49788045  0.33682722  0.63098435  1
  In  In64  1  0.50958076  0.65936688  0.12093155  1
  In  In65  1  0.50324711  0.64001648  0.62990588  1
  In  In66  1  0.83899298  0.00019194  0.12482691  1
  In  In67  1  0.83722158  0.01258200  0.62705638  1
  In  In68  1  0.83509189  0.33313165  0.12164361  1
  In  In69  1  0.82894888  0.33147284  0.63616621  1
  In  In70  1  0.84021669  0.67770627  0.11241780  1
  In  In71  1  0.83920418  0.67260302  0.63030875  1
  In  In72  1  0.49354717  0.82733686  0.49978399  1
  In  In73  1  0.16264305  0.17303073  0.00502913  1
  In  In74  1  0.83036176  0.50149588  0.49854901  1
  In  In75  1  0.67318276  0.66726092  0.24891774  1
  In  In76  1  0.32854841  0.66467247  0.25388789  1
  In  In77  1  0.67217724  0.00674710  0.76032059  1
  In  In78  1  0.17422461  0.17206488  0.49333954  1
  In  In79  1  0.66756231  0.66099664  0.74679166  1
  In  In80  1  0.83893043  0.83136900  0.50606229  1
  In  In81  1  0.50708738  0.17163373  -0.00828968  1
  In  In82  1  0.83096286  0.16871629  0.49152611  1
  In  In83  1  0.50343405  0.82358525  -0.00331093  1
  In  In84  1  0.32699708  0.00272396  0.74298247  1
  In  In85  1  0.16840677  0.50587105  -0.00815251  1
  Cu  Cu86  1  0.83883851  0.84041986  0.75807673  1
  Cu  Cu87  1  0.83428248  0.49819984  0.24307312  1
  Cu  Cu88  1  0.16927785  0.49289409  0.25142916  1
  Cu  Cu89  1  0.33444455  0.34211174  0.50580068  1
  Cu  Cu90  1  0.66978692  0.33259400  -0.00041245  1
  Cu  Cu91  1  0.00050737  0.34048704  0.50485634  1
  Cu  Cu92  1  0.32555123  -0.00178321  0.00507543  1
  Cu  Cu93  1  0.33162438  0.00030429  0.49465551  1
  Cu  Cu94  1  0.16147794  0.17027584  0.75152765  1
  Cu  Cu95  1  0.00920534  -0.00870833  0.49826702  1
  Cu  Cu96  1  0.49805514  0.49349367  0.25203435  1
  Cu  Cu97  1  0.00884118  0.66542435  0.50300617  1
  Cu  Cu98  1  0.66017327  0.00244812  0.49102363  1
  Cu  Cu99  1  0.84267454  0.16334205  0.75833576  1
  Cu  Cu100  1  0.83389701  0.17039489  0.24445731  1
  Cu  Cu101  1  0.16480013  0.16358706  0.24856578  1
  Cu  Cu102  1  0.50064323  0.84474330  0.24955323  1
  Cu  Cu103  1  0.50137900  0.16631998  0.74825122  1
  Cu  Cu104  1  -0.00361355  0.66988837  0.00260507  1
  Cu  Cu105  1  0.16212089  0.83764693  0.75292781  1
  Cu  Cu106  1  0.83104273  0.49435229  0.75549518  1
  Cu  Cu107  1  0.65158110  0.33971442  0.50292079  1
  Cu  Cu108  1  0.00327890  0.33719900  -0.00344892  1
  Cu  Cu109  1  0.32909296  0.66237669  -0.00574923  1
  Cu  Cu110  1  0.66248434  0.65693028  -0.00533143  1
  Cu  Cu111  1  0.32766782  0.65843474  0.50815689  1
  Cu  Cu112  1  0.50272120  0.17608557  0.25001706  1
  Cu  Cu113  1  0.67364570  0.00052561  0.00803264  1
  Cu  Cu114  1  0.84019486  0.83470249  0.24079653  1
  Se  Se115  1  0.07660830  0.07692428  0.05918668  1
  Se  Se116  1  0.08006182  0.08398156  0.55560926  1
  Se  Se117  1  0.08488212  0.41467972  0.05810950  1
  Se  Se118  1  0.08267834  0.41967215  0.56103161  1
  Se  Se119  1  0.08180819  0.75292314  0.05292753  1
  Se  Se120  1  0.08924331  0.75215912  0.55625109  1
  Se  Se121  1  0.41199802  0.08294128  0.05415515  1
  Se  Se122  1  0.41683477  0.08620333  0.54211336  1
  Se  Se123  1  0.43046726  0.42594243  0.05127601  1
  Se  Se124  1  0.41695636  0.42191302  0.56260286  1
  Se  Se125  1  0.40750134  0.74127657  0.06026675  1
  Se  Se126  1  0.40895152  0.74229517  0.56623681  1
  Se  Se127  1  0.75582920  0.08757596  0.05664166  1
  Se  Se128  1  0.74069575  0.07980617  0.55502443  1
  Se  Se129  1  0.75344737  0.41753576  0.05193292  1
  Se  Se130  1  0.74375797  0.41034870  0.56126624  1
  Se  Se131  1  0.73857758  0.74564952  0.04905927  1
  Se  Se132  1  0.74388236  0.73274841  0.55279125  1
  Se  Se133  1  0.26308515  0.26352436  0.05373374  1
  Se  Se134  1  0.25001088  0.26096408  0.56312275  1
  Se  Se135  1  0.25127058  0.59153932  0.06346153  1
  Se  Se136  1  0.24662122  0.57742558  0.56446871  1
  Se  Se137  1  0.24369198  0.91340695  0.05510315  1
  Se  Se138  1  0.24853645  0.91772189  0.54756162  1
  Se  Se139  1  0.58971150  0.25340929  0.06213630  1
  Se  Se140  1  0.57409762  0.25071214  0.55559225  1
  Se  Se141  1  0.57687274  0.57547350  0.04670790  1
  Se  Se142  1  0.59035924  0.58953994  0.55045960  1
  Se  Se143  1  0.58082031  0.92413910  0.06070788  1
  Se  Se144  1  0.59041265  0.92031249  0.55706631  1
  Se  Se145  1  0.92271735  0.25372858  0.05214943  1
  Se  Se146  1  0.91795415  0.25604779  0.55823923  1
  Se  Se147  1  0.91556838  0.57910026  0.05058204  1
  Se  Se148  1  0.92296907  0.58699113  0.56034582  1
  Se  Se149  1  0.90000137  0.90309192  0.05523997  1
  Se  Se150  1  0.92821835  0.92201291  0.56513956  1
  Se  Se151  1  0.07212733  0.25703749  0.44025132  1
  Se  Se152  1  0.08786040  0.26487046  0.93476000  1
  Se  Se153  1  0.08327603  0.57346825  0.44980525  1
  Se  Se154  1  0.07283549  0.59282826  0.93624970  1
  Se  Se155  1  0.08849851  0.90900533  0.44254952  1
  Se  Se156  1  0.07769211  0.91523471  0.95421735  1
  Se  Se157  1  0.41051459  0.25535183  0.44842096  1
  Se  Se158  1  0.41277275  0.26132285  0.93931009  1
  Se  Se159  1  0.41503405  0.57853127  0.45555833  1
  Se  Se160  1  0.41352552  0.58147687  0.94187670  1
  Se  Se161  1  0.41400119  0.92007165  0.43447513  1
  Se  Se162  1  0.40661809  0.91835897  0.94349546  1
  Se  Se163  1  0.73815002  0.26531580  0.44138101  1
  Se  Se164  1  0.75713864  0.24856911  0.95168941  1
  Se  Se165  1  0.74357201  0.59274761  0.43651598  1
  Se  Se166  1  0.75194175  0.57474486  0.94708872  1
  Se  Se167  1  0.74911506  0.92124988  0.44070482  1
  Se  Se168  1  0.74826154  0.90912383  0.95471427  1
  Se  Se169  1  0.25342820  0.07747253  0.43078771  1
  Se  Se170  1  0.25216033  0.07936699  0.94132929  1
  Se  Se171  1  0.24299303  0.41656781  0.45175674  1
  Se  Se172  1  0.25811236  0.41082650  0.93946906  1
  Se  Se173  1  0.25212333  0.74633711  0.45236956  1
  Se  Se174  1  0.24311128  0.74811362  0.94790393  1
  Se  Se175  1  0.57881682  0.09012265  0.44324487  1
  Se  Se176  1  0.59743294  0.07221278  0.93877791  1
  Se  Se177  1  0.57456355  0.42416183  0.44654083  1
  Se  Se178  1  0.58253459  0.40800140  0.94318259  1
  Se  Se179  1  0.59159544  0.74328943  0.44124173  1
  Se  Se180  1  0.58378747  0.73375812  0.93020653  1
  Se  Se181  1  0.92537617  0.07095378  0.44111977  1
  Se  Se182  1  0.92062845  0.09847604  0.95581504  1
  Se  Se183  1  0.92068822  0.41256858  0.43824351  1
  Se  Se184  1  0.92049528  0.42271642  0.94453899  1
  Se  Se185  1  0.92801873  0.74550568  0.44214398  1
  Se  Se186  1  0.91115360  0.75094953  0.94768360  1
  Se  Se187  1  0.24659573  0.24992653  0.30198957  1
  Se  Se188  1  0.25179760  0.24962977  0.79976757  1
  Se  Se189  1  0.24707807  0.57164321  0.31648176  1
  Se  Se190  1  0.24422141  0.57831624  0.80132265  1
  Se  Se191  1  0.25736713  0.91737265  0.30090928  1
  Se  Se192  1  0.24328829  0.91931010  0.81301198  1
  Se  Se193  1  0.58497247  0.25720389  0.30636224  1
  Se  Se194  1  0.58629792  0.24334498  0.80454652  1
  Se  Se195  1  0.57470677  0.58239913  0.30839458  1
  Se  Se196  1  0.58077647  0.57022112  0.80670345  1
  Se  Se197  1  0.58879692  0.92564283  0.29975186  1
  Se  Se198  1  0.57592992  0.90408374  0.80172557  1
  Se  Se199  1  0.91684726  0.25309492  0.29985873  1
  Se  Se200  1  0.92195083  0.25428153  0.80829716  1
  Se  Se201  1  0.91957891  0.58238620  0.29428917  1
  Se  Se202  1  0.91212691  0.58489399  0.80252520  1
  Se  Se203  1  0.92324805  0.91526018  0.29865659  1
  Se  Se204  1  0.91762016  0.92159912  0.81530063  1
  Se  Se205  1  0.07929919  0.08074507  0.30031103  1
  Se  Se206  1  0.08143864  0.08437508  0.80430814  1
  Se  Se207  1  0.08161921  0.41228177  0.30402778  1
  Se  Se208  1  0.08990420  0.43191284  0.79352014  1
  Se  Se209  1  0.08020963  0.72787439  0.30637170  1
  Se  Se210  1  0.08065435  0.75303743  0.80683281  1
  Se  Se211  1  0.41658244  0.09012806  0.30021970  1
  Se  Se212  1  0.42292065  0.08501186  0.80896138  1
  Se  Se213  1  0.41292358  0.41425105  0.30699227  1
  Se  Se214  1  0.40532896  0.40695550  0.79744931  1
  Se  Se215  1  0.42684643  0.75747014  0.30861254  1
  Se  Se216  1  0.41658840  0.76014470  0.79751005  1
  Se  Se217  1  0.75294634  0.08771130  0.30251415  1
  Se  Se218  1  0.77129347  0.07926489  0.82236267  1
  Se  Se219  1  0.74770111  0.42138593  0.29863135  1
  Se  Se220  1  0.75040181  0.40833054  0.80712088  1
  Se  Se221  1  0.76337400  0.75949136  0.30951491  1
  Se  Se222  1  0.75454812  0.75444935  0.80996154  1
  Se  Se223  1  0.24946414  0.08237399  0.19414689  1
  Se  Se224  1  0.23779187  0.09460867  0.68352739  1
  Se  Se225  1  0.25569349  0.41495402  0.19683554  1
  Se  Se226  1  0.26730557  0.40393814  0.70410659  1
  Se  Se227  1  0.24123078  0.75773225  0.19672450  1
  Se  Se228  1  0.24643653  0.75543561  0.69932357  1
  Se  Se229  1  0.58493465  0.08718393  0.19988790  1
  Se  Se230  1  0.57879232  0.08227963  0.68879978  1
  Se  Se231  1  0.58609440  0.41797219  0.19668068  1
  Se  Se232  1  0.59736020  0.39816112  0.69992085  1
  Se  Se233  1  0.57767741  0.75907008  0.19084152  1
  Se  Se234  1  0.57691712  0.75347860  0.68882161  1
  Se  Se235  1  0.91846572  0.08402393  0.19566566  1
  Se  Se236  1  0.92179340  0.08074591  0.70046152  1
  Se  Se237  1  0.91978862  0.41505678  0.19149199  1
  Se  Se238  1  0.91621104  0.41294421  0.70037434  1
  Se  Se239  1  0.91877027  0.74516844  0.19051389  1
  Se  Se240  1  0.91554533  0.75276588  0.70263592  1
  Se  Se241  1  0.08349198  0.25022564  0.19541095  1
  Se  Se242  1  0.07732292  0.25523902  0.69993850  1
  Se  Se243  1  0.08767688  0.57756822  0.19803958  1
  Se  Se244  1  0.06165230  0.60816138  0.69654916  1
  Se  Se245  1  0.07987579  0.91306933  0.19680634  1
  Se  Se246  1  0.08023032  0.92364243  0.69999425  1
  Se  Se247  1  0.41525547  0.25261624  0.19457093  1
  Se  Se248  1  0.41469780  0.24507379  0.69544082  1
  Se  Se249  1  0.42186471  0.57849677  0.19220804  1
  Se  Se250  1  0.41263572  0.58901474  0.70534065  1
  Se  Se251  1  0.41283364  0.92213247  0.19665603  1
  Se  Se252  1  0.42257203  0.91102795  0.68981146  1
  Se  Se253  1  0.75033693  0.25686524  0.19478670  1
  Se  Se254  1  0.75376766  0.23872662  0.70228923  1
  Se  Se255  1  0.75456143  0.58023649  0.18217176  1
  Se  Se256  1  0.75607357  0.56863999  0.68591234  1
  Se  Se257  1  0.75116710  0.92030517  0.19618035  1
  Se  Se258  1  0.75739790  0.91314853  0.69312471  1
