# generated using pymatgen
data_In86Cu29Se144
_symmetry_space_group_name_H-M   'P 1'
_cell_length_a   17.59143794
_cell_length_b   17.59610553
_cell_length_c   23.44936518
_cell_angle_alpha   90.01286555
_cell_angle_beta   90.00786999
_cell_angle_gamma   90.02057734
_symmetry_Int_Tables_number   1
_chemical_formula_structural   In86Cu29Se144
_chemical_formula_sum   'In86 Cu29 Se144'
_cell_volume   7258.53449985
_cell_formula_units_Z   1
loop_
 _symmetry_equiv_pos_site_id
 _symmetry_equiv_pos_as_xyz
  1  'x, y, z'
loop_
 _atom_site_type_symbol
 _atom_site_label
 _atom_site_symmetry_multiplicity
 _atom_site_fract_x
 _atom_site_fract_y
 _atom_site_fract_z
 _atom_site_occupancy
  In  In0  1  0.00670282  0.15604610  0.11977524  1
  In  In1  1  -0.01032062  0.16275744  0.63160493  1
  In  In2  1  0.00693168  0.50974121  0.11963978  1
  In  In3  1  0.02136843  0.50576590  0.63333163  1
  In  In4  1  -0.01862045  0.82627370  0.12235399  1
  In  In5  1  0.00114290  0.83141395  0.62701039  1
  In  In6  1  0.31985138  0.17887177  0.13858555  1
  In  In7  1  0.34678385  0.16563705  0.62851129  1
  In  In8  1  0.32878795  0.50250133  0.12916845  1
  In  In9  1  0.34591350  0.48772717  0.64382064  1
  In  In10  1  0.32932636  0.83253649  0.13489383  1
  In  In11  1  0.32318438  0.84164084  0.62610458  1
  In  In12  1  0.67362452  0.17800325  0.12680177  1
  In  In13  1  0.62976219  0.19479260  0.65800803  1
  In  In14  1  0.67582617  0.49258281  0.12435430  1
  In  In15  1  0.66208309  0.50191321  0.62458315  1
  In  In16  1  0.67401401  0.81966362  0.12963791  1
  In  In17  1  0.68018712  0.82360540  0.62718769  1
  In  In18  1  0.16475392  -0.00856110  0.37519728  1
  In  In19  1  0.17659645  0.01203912  0.86554048  1
  In  In20  1  0.19071064  0.33020935  0.37364619  1
  In  In21  1  0.17028194  0.32424661  0.88378272  1
  In  In22  1  0.17361916  0.67115045  0.37249790  1
  In  In23  1  0.15451028  0.65148902  0.86418740  1
  In  In24  1  0.49735257  0.01912870  0.38382988  1
  In  In25  1  0.49969522  0.00628912  0.85440084  1
  In  In26  1  0.49994312  0.33595670  0.37869789  1
  In  In27  1  0.50072702  0.33185989  0.86060591  1
  In  In28  1  0.49240178  0.65670331  0.37153051  1
  In  In29  1  0.49909173  0.66425082  0.86567895  1
  In  In30  1  0.82370736  -0.00843938  0.37865558  1
  In  In31  1  0.82814219  -0.01402456  0.86876191  1
  In  In32  1  0.82637442  0.34677074  0.37143037  1
  In  In33  1  0.82899876  0.34641008  0.87761198  1
  In  In34  1  0.83592452  0.68226991  0.36354711  1
  In  In35  1  0.83353244  0.66432230  0.87618314  1
  In  In36  1  0.01008794  0.15634944  0.37240808  1
  In  In37  1  0.01585189  0.17298850  0.87501280  1
  In  In38  1  -0.01164694  0.50868029  0.37092901  1
  In  In39  1  -0.00827541  0.50654548  0.88299185  1
  In  In40  1  0.00455411  0.82846272  0.37980591  1
  In  In41  1  -0.00889105  0.82061211  0.87095434  1
  In  In42  1  0.34481715  0.18186741  0.35697711  1
  In  In43  1  0.33060061  0.16129207  0.86257602  1
  In  In44  1  0.34270660  0.50399953  0.37643603  1
  In  In45  1  0.31923554  0.48784290  0.86338699  1
  In  In46  1  0.32279122  0.82182198  0.37443926  1
  In  In47  1  0.33381237  0.83582821  0.86574007  1
  In  In48  1  0.64974340  0.17259285  0.38080817  1
  In  In49  1  0.66361346  0.16833594  0.86399963  1
  In  In50  1  0.65149402  0.49386733  0.36856027  1
  In  In51  1  0.66942493  0.50350608  0.86944570  1
  In  In52  1  0.68114574  0.83377958  0.37968091  1
  In  In53  1  0.67340290  0.83689092  0.86874518  1
  In  In54  1  0.17047315  0.00621372  0.12058102  1
  In  In55  1  0.17464144  -0.00838459  0.62845767  1
  In  In56  1  0.17102250  0.33832648  0.11973926  1
  In  In57  1  0.20059012  0.33769857  0.62990433  1
  In  In58  1  0.17389133  0.65614810  0.13183048  1
  In  In59  1  0.15676474  0.66978164  0.63426375  1
  In  In60  1  0.49247986  -0.01148113  0.12635581  1
  In  In61  1  0.49167107  0.01243967  0.63679071  1
  In  In62  1  0.50164842  0.33043124  0.12958283  1
  In  In63  1  0.49476438  0.33892914  0.61917623  1
  In  In64  1  0.49757240  0.66607522  0.13429788  1
  In  In65  1  0.51177402  0.65521207  0.62663429  1
  In  In66  1  0.84398732  -0.00483415  0.12031163  1
  In  In67  1  0.83820406  -0.00608054  0.63060160  1
  In  In68  1  0.81148664  0.34493911  0.12552899  1
  In  In69  1  0.82193900  0.32394502  0.62652919  1
  In  In70  1  0.83633735  0.66658013  0.12445632  1
  In  In71  1  0.83026564  0.67297727  0.62813266  1
  In  In72  1  0.82538195  0.50523023  0.50449838  1
  In  In73  1  0.65918171  0.00165436  0.25415836  1
  In  In74  1  0.50505707  0.49845499  -0.00843081  1
  In  In75  1  0.17441707  0.50284514  0.50196516  1
  In  In76  1  0.16258100  0.82990250  -0.00516377  1
  In  In77  1  0.84131040  0.16980728  -0.00155537  1
  In  In78  1  0.00392975  -0.00485506  0.25118945  1
  In  In79  1  0.50060063  0.83260170  -0.00225397  1
  In  In80  1  0.82101882  0.16053590  0.49998933  1
  In  In81  1  0.17404908  0.16038440  0.50493354  1
  In  In82  1  0.00454917  0.33800647  0.24091363  1
  In  In83  1  -0.00443847  0.33549305  0.75175105  1
  In  In84  1  0.50103630  0.83345783  0.50614059  1
  In  In85  1  0.49894667  0.16714433  -0.00175937  1
  Cu  Cu86  1  -0.00260011  -0.01246483  0.50367127  1
  Cu  Cu87  1  0.33209814  0.00843796  -0.00730743  1
  Cu  Cu88  1  0.50344035  0.83053949  0.74063746  1
  Cu  Cu89  1  -0.00290475  0.66247936  -0.00144471  1
  Cu  Cu90  1  0.00115481  0.33747828  0.00131398  1
  Cu  Cu91  1  0.16204039  0.82807850  0.25174045  1
  Cu  Cu92  1  0.33373551  0.00268284  0.50457041  1
  Cu  Cu93  1  0.83107424  0.17702976  0.25262785  1
  Cu  Cu94  1  0.84056283  0.82503872  0.75030132  1
  Cu  Cu95  1  0.00769867  0.33212790  0.50040537  1
  Cu  Cu96  1  0.49704174  0.17043293  0.25402370  1
  Cu  Cu97  1  0.67550623  0.66291776  0.00000165  1
  Cu  Cu98  1  0.66770637  0.66185234  0.50004405  1
  Cu  Cu99  1  0.33103166  0.33426435  -0.00097033  1
  Cu  Cu100  1  0.82483997  0.51273539  0.24957008  1
  Cu  Cu101  1  0.16463831  0.83763201  0.75057030  1
  Cu  Cu102  1  0.50388998  0.50257495  0.74772045  1
  Cu  Cu103  1  0.16850491  0.17231654  0.74854140  1
  Cu  Cu104  1  0.32833895  0.66624935  0.50059162  1
  Cu  Cu105  1  -0.00202928  0.67342777  0.50206395  1
  Cu  Cu106  1  0.49551624  0.83337502  0.25664778  1
  Cu  Cu107  1  0.83079791  0.50315452  0.75184668  1
  Cu  Cu108  1  0.67210793  -0.00364049  -0.00749885  1
  Cu  Cu109  1  0.00362000  -0.00339643  -0.00283690  1
  Cu  Cu110  1  0.66997476  0.00142490  0.50881012  1
  Cu  Cu111  1  0.16733906  0.49585922  0.24940488  1
  Cu  Cu112  1  0.82980298  0.15782446  0.75126969  1
  Cu  Cu113  1  0.49750908  0.49905369  0.25045366  1
  Cu  Cu114  1  0.32709935  0.66134216  0.00057274  1
  Se  Se115  1  0.08820575  0.08077217  0.04691084  1
  Se  Se116  1  0.07260598  0.07667613  0.56075312  1
  Se  Se117  1  0.08618414  0.42079298  0.05358833  1
  Se  Se118  1  0.08725831  0.40607369  0.56281856  1
  Se  Se119  1  0.07925224  0.74122079  0.06029331  1
  Se  Se120  1  0.08578663  0.74976443  0.55690779  1
  Se  Se121  1  0.41041306  0.07944084  0.06027604  1
  Se  Se122  1  0.42144130  0.08269339  0.55468475  1
  Se  Se123  1  0.41445631  0.41278955  0.05721682  1
  Se  Se124  1  0.41014233  0.42939438  0.55705742  1
  Se  Se125  1  0.40779456  0.74406612  0.05862238  1
  Se  Se126  1  0.41062902  0.74256213  0.56415032  1
  Se  Se127  1  0.74477296  0.07854346  0.05731799  1
  Se  Se128  1  0.74249513  0.08338984  0.57292568  1
  Se  Se129  1  0.74627099  0.41838341  0.04525596  1
  Se  Se130  1  0.73917699  0.40431832  0.55496195  1
  Se  Se131  1  0.75383528  0.75100035  0.05315986  1
  Se  Se132  1  0.75367001  0.74508622  0.54980724  1
  Se  Se133  1  0.25300410  0.24769958  0.05452262  1
  Se  Se134  1  0.26809527  0.25599970  0.55232184  1
  Se  Se135  1  0.24687428  0.57804418  0.05496906  1
  Se  Se136  1  0.25524737  0.58987200  0.56837038  1
  Se  Se137  1  0.26124149  0.91663729  0.05205486  1
  Se  Se138  1  0.24614218  0.91661112  0.54910194  1
  Se  Se139  1  0.59168287  0.25888031  0.05384084  1
  Se  Se140  1  0.58267287  0.24458344  0.56271230  1
  Se  Se141  1  0.58420475  0.59172753  0.05809355  1
  Se  Se142  1  0.58293123  0.57787618  0.54863637  1
  Se  Se143  1  0.59369330  0.92083675  0.05848199  1
  Se  Se144  1  0.58851310  0.92068828  0.56837954  1
  Se  Se145  1  0.92191956  0.26047573  0.06612945  1
  Se  Se146  1  0.92139865  0.25367933  0.55517140  1
  Se  Se147  1  0.91257890  0.58058664  0.05293098  1
  Se  Se148  1  0.92860137  0.58414493  0.56210699  1
  Se  Se149  1  0.91735474  0.91411213  0.04662285  1
  Se  Se150  1  0.91206661  0.90949388  0.55760702  1
  Se  Se151  1  0.08530316  0.25374397  0.43941850  1
  Se  Se152  1  0.08402268  0.24789733  0.95485209  1
  Se  Se153  1  0.07543420  0.58780973  0.44308726  1
  Se  Se154  1  0.08698401  0.58278428  0.94816078  1
  Se  Se155  1  0.08554871  0.91347852  0.44797532  1
  Se  Se156  1  0.08194074  0.92257856  0.93129039  1
  Se  Se157  1  0.42145465  0.23794085  0.43862231  1
  Se  Se158  1  0.41090220  0.25694649  0.93677843  1
  Se  Se159  1  0.41692013  0.58622383  0.45068137  1
  Se  Se160  1  0.40939535  0.58766529  0.93794144  1
  Se  Se161  1  0.41073381  0.91856582  0.44209947  1
  Se  Se162  1  0.41605657  0.92800926  0.93671041  1
  Se  Se163  1  0.74342435  0.26218308  0.44173038  1
  Se  Se164  1  0.74332795  0.25006550  0.93988827  1
  Se  Se165  1  0.74698299  0.58891947  0.43268072  1
  Se  Se166  1  0.75155385  0.57730282  0.94387095  1
  Se  Se167  1  0.75121953  0.91616872  0.45606658  1
  Se  Se168  1  0.75427551  0.90823560  0.94580217  1
  Se  Se169  1  0.25878991  0.07858575  0.43665499  1
  Se  Se170  1  0.24974009  0.09260336  0.94134781  1
  Se  Se171  1  0.26690990  0.40906527  0.44860199  1
  Se  Se172  1  0.24935529  0.42009725  0.94667333  1
  Se  Se173  1  0.24325074  0.74990698  0.45112832  1
  Se  Se174  1  0.25637277  0.74473491  0.93662496  1
  Se  Se175  1  0.58669699  0.08512802  0.45643463  1
  Se  Se176  1  0.58635099  0.07338233  0.93733544  1
  Se  Se177  1  0.58200661  0.42100339  0.44631802  1
  Se  Se178  1  0.59054075  0.40353675  0.93483338  1
  Se  Se179  1  0.58638182  0.74493596  0.44102841  1
  Se  Se180  1  0.59033004  0.74036447  0.94031458  1
  Se  Se181  1  0.92372988  0.07409685  0.44290753  1
  Se  Se182  1  0.92354447  0.07718175  0.93534141  1
  Se  Se183  1  0.92356264  0.41274495  0.44575787  1
  Se  Se184  1  0.91358989  0.41753822  0.95049541  1
  Se  Se185  1  0.91279443  0.74915961  0.44485127  1
  Se  Se186  1  0.91434724  0.74810494  0.94772169  1
  Se  Se187  1  0.24289280  0.24669850  0.29440768  1
  Se  Se188  1  0.24805609  0.25740948  0.80355167  1
  Se  Se189  1  0.24842955  0.57661307  0.30887778  1
  Se  Se190  1  0.27390064  0.60747144  0.81058690  1
  Se  Se191  1  0.24600994  0.91013185  0.30535427  1
  Se  Se192  1  0.25267600  0.92185806  0.79907913  1
  Se  Se193  1  0.58238427  0.25386410  0.30485852  1
  Se  Se194  1  0.57189336  0.23669591  0.79587833  1
  Se  Se195  1  0.58151369  0.58703478  0.29962373  1
  Se  Se196  1  0.58860718  0.58600070  0.80004949  1
  Se  Se197  1  0.57325648  0.91346296  0.31933723  1
  Se  Se198  1  0.58452265  0.91075314  0.79949097  1
  Se  Se199  1  0.91849363  0.24932831  0.31185790  1
  Se  Se200  1  0.90692026  0.24247543  0.81306198  1
  Se  Se201  1  0.91616432  0.59076089  0.29871225  1
  Se  Se202  1  0.91694869  0.58199286  0.80569029  1
  Se  Se203  1  0.90964419  0.91009723  0.30933714  1
  Se  Se204  1  0.92140004  0.91397910  0.80184297  1
  Se  Se205  1  0.10089079  0.08981630  0.29972519  1
  Se  Se206  1  0.08315589  0.08899179  0.79959497  1
  Se  Se207  1  0.08811351  0.41965824  0.31434859  1
  Se  Se208  1  0.08168473  0.41611306  0.81891893  1
  Se  Se209  1  0.07998047  0.74622929  0.30651779  1
  Se  Se210  1  0.08335411  0.75063464  0.80241448  1
  Se  Se211  1  0.41903381  0.07662648  0.30085467  1
  Se  Se212  1  0.41211697  0.08568233  0.79143878  1
  Se  Se213  1  0.41656522  0.41602201  0.30633209  1
  Se  Se214  1  0.41667638  0.41894936  0.79805107  1
  Se  Se215  1  0.41187925  0.74632783  0.30642054  1
  Se  Se216  1  0.42076368  0.75402542  0.80059489  1
  Se  Se217  1  0.75365218  0.09393941  0.31276603  1
  Se  Se218  1  0.74644949  0.07492311  0.80457004  1
  Se  Se219  1  0.74584624  0.42188116  0.29952179  1
  Se  Se220  1  0.74832569  0.41476599  0.80064074  1
  Se  Se221  1  0.74138890  0.75625527  0.29951872  1
  Se  Se222  1  0.75276871  0.74579255  0.80456737  1
  Se  Se223  1  0.26460347  0.06326589  0.19141270  1
  Se  Se224  1  0.24791091  0.08966508  0.69025616  1
  Se  Se225  1  0.24962580  0.41302963  0.19582197  1
  Se  Se226  1  0.22675462  0.44353011  0.70107284  1
  Se  Se227  1  0.24957942  0.74498858  0.20021452  1
  Se  Se228  1  0.24767002  0.75477515  0.69612234  1
  Se  Se229  1  0.57485261  0.09260073  0.18781363  1
  Se  Se230  1  0.59829457  0.06511375  0.70144708  1
  Se  Se231  1  0.58220027  0.42088743  0.19259503  1
  Se  Se232  1  0.58186165  0.41666833  0.69230421  1
  Se  Se233  1  0.57818997  0.75593172  0.19829446  1
  Se  Se234  1  0.59000969  0.74497134  0.69311495  1
  Se  Se235  1  0.90891925  0.09266105  0.19460893  1
  Se  Se236  1  0.91866729  0.07751946  0.70275165  1
  Se  Se237  1  0.90666475  0.42888624  0.19016403  1
  Se  Se238  1  0.90830041  0.42464194  0.68626456  1
  Se  Se239  1  0.91103670  0.75034404  0.19774890  1
  Se  Se240  1  0.92389916  0.74236348  0.69638054  1
  Se  Se241  1  0.09129545  0.23958368  0.18831548  1
  Se  Se242  1  0.08928047  0.25217668  0.68649027  1
  Se  Se243  1  0.08233170  0.58026396  0.19904498  1
  Se  Se244  1  0.08871030  0.58329220  0.70926613  1
  Se  Se245  1  0.08826874  0.90557717  0.18432293  1
  Se  Se246  1  0.08122272  0.91955292  0.69532062  1
  Se  Se247  1  0.41574374  0.25572276  0.19978413  1
  Se  Se248  1  0.40336096  0.27039074  0.69148191  1
  Se  Se249  1  0.41162392  0.58321690  0.19867018  1
  Se  Se250  1  0.41995872  0.59167987  0.69980392  1
  Se  Se251  1  0.41401669  0.91610514  0.20160275  1
  Se  Se252  1  0.41329860  0.91480167  0.69549986  1
  Se  Se253  1  0.74542602  0.25865601  0.20166909  1
  Se  Se254  1  0.75086818  0.25302901  0.70618271  1
  Se  Se255  1  0.74200866  0.58989641  0.19109196  1
  Se  Se256  1  0.74954517  0.58215325  0.69177338  1
  Se  Se257  1  0.75459392  0.91980128  0.19265702  1
  Se  Se258  1  0.75593843  0.90883707  0.69849899  1
