# generated using pymatgen
data_In86Cu29Se144
_symmetry_space_group_name_H-M   'P 1'
_cell_length_a   17.58526375
_cell_length_b   17.58206110
_cell_length_c   23.43489906
_cell_angle_alpha   89.99715453
_cell_angle_beta   90.01383798
_cell_angle_gamma   90.02245386
_symmetry_Int_Tables_number   1
_chemical_formula_structural   In86Cu29Se144
_chemical_formula_sum   'In86 Cu29 Se144'
_cell_volume   7245.72275072
_cell_formula_units_Z   1
loop_
 _symmetry_equiv_pos_site_id
 _symmetry_equiv_pos_as_xyz
  1  'x, y, z'
loop_
 _atom_site_type_symbol
 _atom_site_label
 _atom_site_symmetry_multiplicity
 _atom_site_fract_x
 _atom_site_fract_y
 _atom_site_fract_z
 _atom_site_occupancy
  In  In0  1  -0.01036350  0.17633207  0.12876739  1
  In  In1  1  0.00782954  0.17532176  0.62429936  1
  In  In2  1  -0.00187224  0.49993697  0.13013538  1
  In  In3  1  0.00092250  0.50114740  0.63362268  1
  In  In4  1  -0.00182030  0.83054702  0.12864696  1
  In  In5  1  -0.00523458  0.82333898  0.61766078  1
  In  In6  1  0.34025037  0.16255881  0.12675957  1
  In  In7  1  0.33811048  0.16893574  0.62876833  1
  In  In8  1  0.32928317  0.50039033  0.12515618  1
  In  In9  1  0.33174115  0.48859966  0.62463439  1
  In  In10  1  0.32540042  0.83771693  0.12856411  1
  In  In11  1  0.32359649  0.84120368  0.61873724  1
  In  In12  1  0.66470656  0.16272529  0.11765567  1
  In  In13  1  0.65865828  0.15948470  0.63128770  1
  In  In14  1  0.68089155  0.51668198  0.11571100  1
  In  In15  1  0.67018461  0.51623111  0.62363703  1
  In  In16  1  0.69066192  0.81364378  0.14750739  1
  In  In17  1  0.67758841  0.82743840  0.63381874  1
  In  In18  1  0.14624916  -0.02224735  0.35717087  1
  In  In19  1  0.15246161  -0.00313322  0.88131655  1
  In  In20  1  0.16545167  0.32801159  0.36625118  1
  In  In21  1  0.17906181  0.34010101  0.86797825  1
  In  In22  1  0.16869213  0.66612498  0.37156781  1
  In  In23  1  0.15158056  0.67468110  0.88430512  1
  In  In24  1  0.49969157  0.00407432  0.36511770  1
  In  In25  1  0.51591159  -0.00475928  0.88062256  1
  In  In26  1  0.50086868  0.35141698  0.37357884  1
  In  In27  1  0.49157020  0.34102463  0.88403050  1
  In  In28  1  0.50051611  0.66614058  0.36835611  1
  In  In29  1  0.50347897  0.65256719  0.87976903  1
  In  In30  1  0.84271095  -0.00802949  0.35423534  1
  In  In31  1  0.82718154  0.00732077  0.88545817  1
  In  In32  1  0.84281040  0.33932274  0.36657169  1
  In  In33  1  0.84300043  0.32728380  0.88360634  1
  In  In34  1  0.83814146  0.66948535  0.35388363  1
  In  In35  1  0.83557916  0.66658851  0.88008145  1
  In  In36  1  0.00542699  0.16517409  0.36664473  1
  In  In37  1  -0.00735829  0.16491310  0.87597521  1
  In  In38  1  0.00056117  0.50493494  0.36571044  1
  In  In39  1  -0.00041002  0.50230594  0.88048422  1
  In  In40  1  0.00152753  0.83290430  0.36559786  1
  In  In41  1  0.00466656  0.82289020  0.88446309  1
  In  In42  1  0.33003881  0.16597466  0.36375693  1
  In  In43  1  0.32859177  0.18605978  0.87658897  1
  In  In44  1  0.34391316  0.50871068  0.36455240  1
  In  In45  1  0.33987082  0.48963944  0.88314679  1
  In  In46  1  0.31937774  0.81983074  0.36386330  1
  In  In47  1  0.32344104  0.82332600  0.88059109  1
  In  In48  1  0.67603435  0.15924531  0.36934055  1
  In  In49  1  0.67501084  0.15629765  0.88653369  1
  In  In50  1  0.66197986  0.50313829  0.37157860  1
  In  In51  1  0.66221120  0.50986909  0.88345804  1
  In  In52  1  0.66773905  0.82940291  0.36002512  1
  In  In53  1  0.67945271  0.83853662  0.87458724  1
  In  In54  1  0.17299028  -0.00851608  0.12849507  1
  In  In55  1  0.16715484  -0.00209693  0.61662950  1
  In  In56  1  0.15258087  0.34544575  0.13232415  1
  In  In57  1  0.16269276  0.33735574  0.64157640  1
  In  In58  1  0.16433244  0.66419603  0.12657823  1
  In  In59  1  0.15313076  0.66881596  0.62367256  1
  In  In60  1  0.50106776  0.00423834  0.12722136  1
  In  In61  1  0.50216215  0.00707195  0.62560957  1
  In  In62  1  0.49625284  0.33013834  0.11732531  1
  In  In63  1  0.48861907  0.33487898  0.62726573  1
  In  In64  1  0.50735161  0.65582317  0.12737732  1
  In  In65  1  0.51807388  0.66439055  0.62151049  1
  In  In66  1  0.83128892  -0.00505919  0.12751947  1
  In  In67  1  0.83051241  -0.01453532  0.62759404  1
  In  In68  1  0.84667603  0.34619648  0.11568111  1
  In  In69  1  0.84449809  0.34281319  0.62963167  1
  In  In70  1  0.83904738  0.66901075  0.13366648  1
  In  In71  1  0.83647855  0.66752713  0.63157416  1
  In  In72  1  0.50344246  0.83371440  0.01062443  1
  In  In73  1  0.83486982  0.82793346  0.49046672  1
  In  In74  1  0.83660726  0.16655384  0.48806531  1
  In  In75  1  0.66730413  0.33537800  0.24598965  1
  In  In76  1  0.16528447  0.16664390  0.00087621  1
  In  In77  1  0.33479325  0.00421938  0.74528474  1
  In  In78  1  0.16648715  0.16618576  0.49999022  1
  In  In79  1  0.66683539  0.33306936  0.76170909  1
  In  In80  1  -0.00483169  0.00383923  0.75380399  1
  In  In81  1  0.83950644  0.50862480  0.49129889  1
  In  In82  1  0.16677468  0.49870345  0.50131231  1
  In  In83  1  0.49616379  0.17025575  0.50526499  1
  In  In84  1  0.49916172  0.82981454  0.49247041  1
  In  In85  1  0.33654509  0.66197109  0.75435192  1
  Cu  Cu86  1  0.15978591  0.83282308  0.75311488  1
  Cu  Cu87  1  0.66544910  0.34550697  0.49724304  1
  Cu  Cu88  1  0.66994107  -0.00413716  0.50034193  1
  Cu  Cu89  1  0.31921401  -0.00845854  0.48984515  1
  Cu  Cu90  1  0.49407845  0.83824761  0.24712963  1
  Cu  Cu91  1  0.67307981  0.67077820  0.00679500  1
  Cu  Cu92  1  0.16806633  0.82823128  0.24627840  1
  Cu  Cu93  1  0.00064369  0.33939593  0.00343019  1
  Cu  Cu94  1  0.33396308  0.34011358  0.49979200  1
  Cu  Cu95  1  0.83220030  0.83060737  0.75458879  1
  Cu  Cu96  1  0.51110305  0.83063022  0.75207906  1
  Cu  Cu97  1  0.33508131  0.66633779  0.49039616  1
  Cu  Cu98  1  0.83493836  0.16456091  0.24526287  1
  Cu  Cu99  1  0.49704236  0.49794471  0.24500635  1
  Cu  Cu100  1  -0.00459522  0.66481984  0.00777400  1
  Cu  Cu101  1  0.16731451  0.50307912  0.24884745  1
  Cu  Cu102  1  0.49831208  0.17135152  0.24309412  1
  Cu  Cu103  1  -0.00352917  -0.00567395  0.00420765  1
  Cu  Cu104  1  0.50257959  0.49661333  0.75678295  1
  Cu  Cu105  1  0.67109626  -0.00425933  0.00709580  1
  Cu  Cu106  1  0.16877892  0.16377973  0.24299689  1
  Cu  Cu107  1  0.32408034  0.66155642  0.00113687  1
  Cu  Cu108  1  0.66606210  0.33292534  -0.00056020  1
  Cu  Cu109  1  0.32899435  0.33705546  0.00315143  1
  Cu  Cu110  1  0.82891982  0.16567612  0.75864214  1
  Cu  Cu111  1  0.33552016  0.00044698  0.00755827  1
  Cu  Cu112  1  0.83983090  0.50525728  0.75501923  1
  Cu  Cu113  1  0.16444725  0.50478837  0.75553749  1
  Cu  Cu114  1  0.50126238  0.16291405  0.75296721  1
  Se  Se115  1  0.07721787  0.07821462  0.06303806  1
  Se  Se116  1  0.06792397  0.07532559  0.55323740  1
  Se  Se117  1  0.08295771  0.42384003  0.05511250  1
  Se  Se118  1  0.07889962  0.40886475  0.56266083  1
  Se  Se119  1  0.08150053  0.74957386  0.05847545  1
  Se  Se120  1  0.09035532  0.75752662  0.55135132  1
  Se  Se121  1  0.42174456  0.08502891  0.05381442  1
  Se  Se122  1  0.39966959  0.06948426  0.55312456  1
  Se  Se123  1  0.41479361  0.42126125  0.05394827  1
  Se  Se124  1  0.42099936  0.42007282  0.55204686  1
  Se  Se125  1  0.40767860  0.74029159  0.06136634  1
  Se  Se126  1  0.41032710  0.74368934  0.55923637  1
  Se  Se127  1  0.75734892  0.08338010  0.05434518  1
  Se  Se128  1  0.74725012  0.08072783  0.55792228  1
  Se  Se129  1  0.75002815  0.41790339  0.05112510  1
  Se  Se130  1  0.75197494  0.41629709  0.55791162  1
  Se  Se131  1  0.75658275  0.75224638  0.06054906  1
  Se  Se132  1  0.74637353  0.74224218  0.55673551  1
  Se  Se133  1  0.24921680  0.25699547  0.06443679  1
  Se  Se134  1  0.25560474  0.26004730  0.56120318  1
  Se  Se135  1  0.24220487  0.57819436  0.05527442  1
  Se  Se136  1  0.25895092  0.59192544  0.55990192  1
  Se  Se137  1  0.24862917  0.91424492  0.05185523  1
  Se  Se138  1  0.23841133  0.91002153  0.54517374  1
  Se  Se139  1  0.58214354  0.24817776  0.05082707  1
  Se  Se140  1  0.59420752  0.26102685  0.56042287  1
  Se  Se141  1  0.58193079  0.58377160  0.04855163  1
  Se  Se142  1  0.58487787  0.57938944  0.54864012  1
  Se  Se143  1  0.59857751  0.91376272  0.07081514  1
  Se  Se144  1  0.58893253  0.91706060  0.55987881  1
  Se  Se145  1  0.91698349  0.24863089  0.04895843  1
  Se  Se146  1  0.91934406  0.25731912  0.55389438  1
  Se  Se147  1  0.91265604  0.58204032  0.06158007  1
  Se  Se148  1  0.92677416  0.59122166  0.55954887  1
  Se  Se149  1  0.91417902  0.91193425  0.05805723  1
  Se  Se150  1  0.91971707  0.92392884  0.55165755  1
  Se  Se151  1  0.07606647  0.25714436  0.44191852  1
  Se  Se152  1  0.07947301  0.25888100  0.94014445  1
  Se  Se153  1  0.07729028  0.58753217  0.44252573  1
  Se  Se154  1  0.08070821  0.58326397  0.95287959  1
  Se  Se155  1  0.07743795  0.91349625  0.43946435  1
  Se  Se156  1  0.08312228  0.91178660  0.95333198  1
  Se  Se157  1  0.40992400  0.25521456  0.43929447  1
  Se  Se158  1  0.41325203  0.25138441  0.95207945  1
  Se  Se159  1  0.42042718  0.58422963  0.44102243  1
  Se  Se160  1  0.41405491  0.58303594  0.94964260  1
  Se  Se161  1  0.40908388  0.91980282  0.43298964  1
  Se  Se162  1  0.41106692  0.91762129  0.94332092  1
  Se  Se163  1  0.74087723  0.26466111  0.43622272  1
  Se  Se164  1  0.75290550  0.24867916  0.94956951  1
  Se  Se165  1  0.74939592  0.59646778  0.43331308  1
  Se  Se166  1  0.75268340  0.58477703  0.95085591  1
  Se  Se167  1  0.74521770  0.92359347  0.43319624  1
  Se  Se168  1  0.75376146  0.91310026  0.95199074  1
  Se  Se169  1  0.24630729  0.07866986  0.43177945  1
  Se  Se170  1  0.25781097  0.07629066  0.94039775  1
  Se  Se171  1  0.25538735  0.41437944  0.43541927  1
  Se  Se172  1  0.24396747  0.41760404  0.94899295  1
  Se  Se173  1  0.24709437  0.74927274  0.44430011  1
  Se  Se174  1  0.24187212  0.75101957  0.95326496  1
  Se  Se175  1  0.58768951  0.07981198  0.44409173  1
  Se  Se176  1  0.58534617  0.07862582  0.95498797  1
  Se  Se177  1  0.58079972  0.42732547  0.44636562  1
  Se  Se178  1  0.58253828  0.41926089  0.94827332  1
  Se  Se179  1  0.59549429  0.74454587  0.43825845  1
  Se  Se180  1  0.58955776  0.74711763  0.94395852  1
  Se  Se181  1  0.92253882  0.07024858  0.43255828  1
  Se  Se182  1  0.92015971  0.08392340  0.95042989  1
  Se  Se183  1  0.93019701  0.41022207  0.44144741  1
  Se  Se184  1  0.91417767  0.42146370  0.95021555  1
  Se  Se185  1  0.92370821  0.73592977  0.43451940  1
  Se  Se186  1  0.91395028  0.75005453  0.95251943  1
  Se  Se187  1  0.25021632  0.25097502  0.29627584  1
  Se  Se188  1  0.24962684  0.24864534  0.79907532  1
  Se  Se189  1  0.25219894  0.58686759  0.30122300  1
  Se  Se190  1  0.24498199  0.58140536  0.81834387  1
  Se  Se191  1  0.25349990  0.91709696  0.29629527  1
  Se  Se192  1  0.24365145  0.91395703  0.80887461  1
  Se  Se193  1  0.57660495  0.24553953  0.31059304  1
  Se  Se194  1  0.57655941  0.24099557  0.81852777  1
  Se  Se195  1  0.58082342  0.58053253  0.29926439  1
  Se  Se196  1  0.58649332  0.58362078  0.80430338  1
  Se  Se197  1  0.58145030  0.91927217  0.29945581  1
  Se  Se198  1  0.58950304  0.91629612  0.80621450  1
  Se  Se199  1  0.91670651  0.24686017  0.30152026  1
  Se  Se200  1  0.91565122  0.25009526  0.80546619  1
  Se  Se201  1  0.91579038  0.57479543  0.29383921  1
  Se  Se202  1  0.92191677  0.58867896  0.80952874  1
  Se  Se203  1  0.90526771  0.88836080  0.29083703  1
  Se  Se204  1  0.91163539  0.91151567  0.81642435  1
  Se  Se205  1  0.08119554  0.08162192  0.29517083  1
  Se  Se206  1  0.09297054  0.09269112  0.80801146  1
  Se  Se207  1  0.08520070  0.41708977  0.30198192  1
  Se  Se208  1  0.08214033  0.42033271  0.80913206  1
  Se  Se209  1  0.08562755  0.74527411  0.30100144  1
  Se  Se210  1  0.07811796  0.74857510  0.80532431  1
  Se  Se211  1  0.41639928  0.08546431  0.29744170  1
  Se  Se212  1  0.42135214  0.08369320  0.81566636  1
  Se  Se213  1  0.41454877  0.41235728  0.29728405  1
  Se  Se214  1  0.41530834  0.41401458  0.80549078  1
  Se  Se215  1  0.41644512  0.74840724  0.30047588  1
  Se  Se216  1  0.42695986  0.75699268  0.81316717  1
  Se  Se217  1  0.75062327  0.08001262  0.29661948  1
  Se  Se218  1  0.74718735  0.07921611  0.80814793  1
  Se  Se219  1  0.75777957  0.42813501  0.30266751  1
  Se  Se220  1  0.75908168  0.42534008  0.81611346  1
  Se  Se221  1  0.73972473  0.74131571  0.29193737  1
  Se  Se222  1  0.75025256  0.74469728  0.80745329  1
  Se  Se223  1  0.25447817  0.08038568  0.19333385  1
  Se  Se224  1  0.23666053  0.09066046  0.68995702  1
  Se  Se225  1  0.24960015  0.41710611  0.19698320  1
  Se  Se226  1  0.25166993  0.42298922  0.70277132  1
  Se  Se227  1  0.25287227  0.74431289  0.19520177  1
  Se  Se228  1  0.24717215  0.75623561  0.69508734  1
  Se  Se229  1  0.58572394  0.08915739  0.19432394  1
  Se  Se230  1  0.58334356  0.07611796  0.70250903  1
  Se  Se231  1  0.58162850  0.42435093  0.18297466  1
  Se  Se232  1  0.58327405  0.41940733  0.69270092  1
  Se  Se233  1  0.57515528  0.74975452  0.19684148  1
  Se  Se234  1  0.58856716  0.74445930  0.69750379  1
  Se  Se235  1  0.91942797  0.07923183  0.19418046  1
  Se  Se236  1  0.90545413  0.09089805  0.68934850  1
  Se  Se237  1  0.92286035  0.40678786  0.19649454  1
  Se  Se238  1  0.92145206  0.41742886  0.70432681  1
  Se  Se239  1  0.90688960  0.76679431  0.20284192  1
  Se  Se240  1  0.91834038  0.75528363  0.69720476  1
  Se  Se241  1  0.08050995  0.24988478  0.19723360  1
  Se  Se242  1  0.07734484  0.24972514  0.70118828  1
  Se  Se243  1  0.08057104  0.58611320  0.19819491  1
  Se  Se244  1  0.08408230  0.58748184  0.69954779  1
  Se  Se245  1  0.08439609  0.91516447  0.19628733  1
  Se  Se246  1  0.08438056  0.91483271  0.69085483  1
  Se  Se247  1  0.41556708  0.25637149  0.19295450  1
  Se  Se248  1  0.41924132  0.24754156  0.70008241  1
  Se  Se249  1  0.41301111  0.58390848  0.19426479  1
  Se  Se250  1  0.42617827  0.57597259  0.69081766  1
  Se  Se251  1  0.41335195  0.92160624  0.19255613  1
  Se  Se252  1  0.42597659  0.90434061  0.69077477  1
  Se  Se253  1  0.75719656  0.24782420  0.18512351  1
  Se  Se254  1  0.75452435  0.24684296  0.69263789  1
  Se  Se255  1  0.74383846  0.59002685  0.19683792  1
  Se  Se256  1  0.75394475  0.58309614  0.69920065  1
  Se  Se257  1  0.73116233  0.93748587  0.19727155  1
  Se  Se258  1  0.74926235  0.91803301  0.70373009  1
