# generated using pymatgen
data_In86Cu29Se144
_symmetry_space_group_name_H-M   'P 1'
_cell_length_a   17.58209781
_cell_length_b   17.58169120
_cell_length_c   23.44146356
_cell_angle_alpha   90.00717287
_cell_angle_beta   89.98898266
_cell_angle_gamma   90.02416576
_symmetry_Int_Tables_number   1
_chemical_formula_structural   In86Cu29Se144
_chemical_formula_sum   'In86 Cu29 Se144'
_cell_volume   7246.29503882
_cell_formula_units_Z   1
loop_
 _symmetry_equiv_pos_site_id
 _symmetry_equiv_pos_as_xyz
  1  'x, y, z'
loop_
 _atom_site_type_symbol
 _atom_site_label
 _atom_site_symmetry_multiplicity
 _atom_site_fract_x
 _atom_site_fract_y
 _atom_site_fract_z
 _atom_site_occupancy
  In  In0  1  -0.00587940  0.16651075  0.12094835  1
  In  In1  1  0.01699493  0.16458896  0.62616166  1
  In  In2  1  0.02152161  0.49901924  0.12546157  1
  In  In3  1  0.00115054  0.49990027  0.62261867  1
  In  In4  1  0.00462716  0.82906293  0.13163930  1
  In  In5  1  0.00385137  0.83493428  0.61703451  1
  In  In6  1  0.33450105  0.16150567  0.13109362  1
  In  In7  1  0.34211450  0.17110170  0.62031194  1
  In  In8  1  0.32548409  0.50710876  0.13365831  1
  In  In9  1  0.32255123  0.51054850  0.62560424  1
  In  In10  1  0.33065596  0.84500929  0.14164695  1
  In  In11  1  0.32890318  0.82150376  0.60342332  1
  In  In12  1  0.66600002  0.15391447  0.10902230  1
  In  In13  1  0.64797992  0.16528216  0.62659088  1
  In  In14  1  0.66101779  0.50651957  0.12219468  1
  In  In15  1  0.68525545  0.50243221  0.62603396  1
  In  In16  1  0.67304748  0.82799082  0.11663212  1
  In  In17  1  0.66705463  0.83342182  0.62920729  1
  In  In18  1  0.16952449  0.00109455  0.37541993  1
  In  In19  1  0.15667743  -0.00290227  0.87831566  1
  In  In20  1  0.17405947  0.31818343  0.38189210  1
  In  In21  1  0.18093090  0.34723584  0.86636786  1
  In  In22  1  0.17028109  0.67480406  0.37947155  1
  In  In23  1  0.16652896  0.65870660  0.88080017  1
  In  In24  1  0.48811070  -0.00139498  0.38777985  1
  In  In25  1  0.51221498  -0.00043360  0.87830698  1
  In  In26  1  0.47892449  0.33613985  0.37665772  1
  In  In27  1  0.48299370  0.33292414  0.87716112  1
  In  In28  1  0.48613183  0.68758137  0.38462722  1
  In  In29  1  0.49291590  0.66731251  0.86267872  1
  In  In30  1  0.82553700  -0.01344883  0.37352016  1
  In  In31  1  0.81453642  0.00749489  0.88940053  1
  In  In32  1  0.84668486  0.33956337  0.37656490  1
  In  In33  1  0.83370981  0.31937412  0.87248480  1
  In  In34  1  0.83823695  0.66468737  0.38072601  1
  In  In35  1  0.82413647  0.68488928  0.88207783  1
  In  In36  1  0.01673539  0.16892729  0.37138917  1
  In  In37  1  -0.01098829  0.16553239  0.87325004  1
  In  In38  1  -0.00181943  0.51031122  0.38043983  1
  In  In39  1  0.01719383  0.50006062  0.87576164  1
  In  In40  1  -0.00111967  0.83284430  0.37295377  1
  In  In41  1  0.00153978  0.83369438  0.88456094  1
  In  In42  1  0.32960952  0.16289299  0.37825167  1
  In  In43  1  0.33204354  0.18558751  0.88112599  1
  In  In44  1  0.32094544  0.49404022  0.37387699  1
  In  In45  1  0.32080372  0.49347738  0.86673607  1
  In  In46  1  0.33532159  0.83189483  0.37510863  1
  In  In47  1  0.33079592  0.82003421  0.87437560  1
  In  In48  1  0.65624362  0.15391624  0.37663709  1
  In  In49  1  0.66760370  0.15496847  0.88491669  1
  In  In50  1  0.67061953  0.51309784  0.37871065  1
  In  In51  1  0.65644958  0.50683356  0.86866773  1
  In  In52  1  0.66733260  0.83854276  0.38609536  1
  In  In53  1  0.66548606  0.83893941  0.86789647  1
  In  In54  1  0.17780590  -0.01438803  0.13619781  1
  In  In55  1  0.18819704  0.00217131  0.59653071  1
  In  In56  1  0.16892467  0.34588707  0.11948727  1
  In  In57  1  0.16901812  0.33825564  0.62666638  1
  In  In58  1  0.16812750  0.66768155  0.13073117  1
  In  In59  1  0.18293250  0.67253538  0.60907944  1
  In  In60  1  0.48754766  -0.00544023  0.12701158  1
  In  In61  1  0.50065690  0.00606487  0.61861518  1
  In  In62  1  0.49542965  0.32083422  0.12406938  1
  In  In63  1  0.49711340  0.31675939  0.62427938  1
  In  In64  1  0.49320482  0.66519634  0.12884632  1
  In  In65  1  0.48940211  0.67911385  0.62827483  1
  In  In66  1  0.84366776  0.00770318  0.11743328  1
  In  In67  1  0.83151256  -0.01581561  0.62548179  1
  In  In68  1  0.85830478  0.32380106  0.11252830  1
  In  In69  1  0.83607642  0.34950272  0.62901045  1
  In  In70  1  0.83158889  0.68307123  0.12278369  1
  In  In71  1  0.83631678  0.66759177  0.62514391  1
  In  In72  1  0.66079756  -0.00392858  0.24879821  1
  In  In73  1  0.16173187  0.16785335  0.00010862  1
  In  In74  1  0.83529448  0.17054503  0.49850194  1
  In  In75  1  0.50043970  0.83621460  0.00213170  1
  In  In76  1  0.01056529  0.33197360  0.24300136  1
  In  In77  1  0.66204802  0.33311888  0.74970773  1
  In  In78  1  0.66632150  0.33064764  0.23734707  1
  In  In79  1  0.83745679  0.50003188  -0.00807299  1
  In  In80  1  0.00180283  0.66393371  0.75213094  1
  In  In81  1  0.49993141  0.50348479  0.49821541  1
  In  In82  1  0.49554117  0.50217862  0.00241062  1
  In  In83  1  0.33576997  0.00050126  0.74313404  1
  In  In84  1  -0.00059037  -0.00535324  0.74560761  1
  In  In85  1  0.65740331  0.67246791  0.24842609  1
  Cu  Cu86  1  0.32359232  0.66422645  0.00214780  1
  Cu  Cu87  1  0.82789918  0.16228077  0.75457236  1
  Cu  Cu88  1  0.48659408  0.50557026  0.25492443  1
  Cu  Cu89  1  0.83622259  0.50240131  0.25507307  1
  Cu  Cu90  1  0.16531791  0.50471194  0.25528298  1
  Cu  Cu91  1  0.00482152  -0.01513456  0.00430014  1
  Cu  Cu92  1  0.66577306  -0.00253041  0.50205701  1
  Cu  Cu93  1  0.83912956  0.83313453  0.25056879  1
  Cu  Cu94  1  0.83959245  0.16094608  0.23936634  1
  Cu  Cu95  1  0.49165205  0.16880435  0.25431747  1
  Cu  Cu96  1  0.33074058  0.32894176  0.50108048  1
  Cu  Cu97  1  0.82764157  0.83800935  0.75537740  1
  Cu  Cu98  1  0.16991529  0.17647419  0.74641882  1
  Cu  Cu99  1  0.00505037  0.66527448  0.00517017  1
  Cu  Cu100  1  0.17355487  0.50427273  0.74835500  1
  Cu  Cu101  1  -0.00142982  -0.00033373  0.49661867  1
  Cu  Cu102  1  0.84062967  0.50651580  0.74911502  1
  Cu  Cu103  1  0.17603714  0.15845682  0.25390371  1
  Cu  Cu104  1  0.00214175  0.66799375  0.49738059  1
  Cu  Cu105  1  0.67728826  0.66623171  0.50547178  1
  Cu  Cu106  1  0.49850873  0.83244256  0.74628030  1
  Cu  Cu107  1  0.00290074  0.34152319  0.50116674  1
  Cu  Cu108  1  0.67127886  0.33167351  -0.00028969  1
  Cu  Cu109  1  0.66674196  0.33288233  0.50615553  1
  Cu  Cu110  1  0.16512717  0.82995952  0.25758430  1
  Cu  Cu111  1  0.49638894  0.16256300  0.74996047  1
  Cu  Cu112  1  0.16903984  0.83322869  0.73921690  1
  Cu  Cu113  1  0.33217402  -0.00097173  0.00974695  1
  Cu  Cu114  1  0.49666855  0.50365769  0.74594946  1
  Se  Se115  1  0.08552590  0.06826910  0.06311400  1
  Se  Se116  1  0.08207884  0.08332832  0.54867635  1
  Se  Se117  1  0.05835576  0.39260840  0.05655432  1
  Se  Se118  1  0.08850512  0.42143344  0.55516287  1
  Se  Se119  1  0.08715930  0.74936406  0.05965441  1
  Se  Se120  1  0.08512863  0.75161724  0.55009176  1
  Se  Se121  1  0.41658238  0.08485376  0.05730941  1
  Se  Se122  1  0.40115323  0.07078966  0.55421789  1
  Se  Se123  1  0.40800293  0.41482552  0.06349823  1
  Se  Se124  1  0.41389462  0.41047941  0.55995179  1
  Se  Se125  1  0.40534255  0.74695537  0.05976461  1
  Se  Se126  1  0.42912041  0.74864114  0.54343136  1
  Se  Se127  1  0.75888508  0.08058291  0.04632771  1
  Se  Se128  1  0.74594195  0.08237513  0.56127733  1
  Se  Se129  1  0.74813344  0.41250554  0.06054151  1
  Se  Se130  1  0.75454930  0.41691741  0.55171058  1
  Se  Se131  1  0.74894126  0.74623837  0.04665183  1
  Se  Se132  1  0.75479011  0.75466095  0.55947872  1
  Se  Se133  1  0.25670163  0.25271229  0.05898901  1
  Se  Se134  1  0.24727392  0.24962187  0.55831259  1
  Se  Se135  1  0.24470433  0.58031923  0.05859301  1
  Se  Se136  1  0.25113848  0.57540572  0.54394214  1
  Se  Se137  1  0.25380500  0.90936410  0.05947238  1
  Se  Se138  1  0.24171985  0.89646131  0.53284853  1
  Se  Se139  1  0.58475238  0.25243018  0.05314137  1
  Se  Se140  1  0.57998102  0.24566638  0.54910679  1
  Se  Se141  1  0.58870581  0.60059485  0.05401545  1
  Se  Se142  1  0.59135504  0.58690847  0.56294078  1
  Se  Se143  1  0.59109519  0.92933694  0.05877525  1
  Se  Se144  1  0.58535398  0.91473167  0.55801394  1
  Se  Se145  1  0.92349664  0.23628552  0.04050573  1
  Se  Se146  1  0.92366278  0.25813059  0.56216350  1
  Se  Se147  1  0.92110796  0.58415057  0.06269495  1
  Se  Se148  1  0.92027744  0.58725987  0.55639739  1
  Se  Se149  1  0.91919211  0.90655491  0.05950611  1
  Se  Se150  1  0.91664929  0.91697579  0.55124765  1
  Se  Se151  1  0.07930648  0.24937774  0.45064390  1
  Se  Se152  1  0.08631181  0.25354628  0.92881201  1
  Se  Se153  1  0.08877715  0.58544927  0.44672517  1
  Se  Se154  1  0.08658199  0.57879354  0.95327967  1
  Se  Se155  1  0.07997428  0.91836926  0.44108919  1
  Se  Se156  1  0.09436240  0.90773820  0.95192754  1
  Se  Se157  1  0.41568658  0.24596251  0.44861537  1
  Se  Se158  1  0.42004009  0.25021066  0.95352368  1
  Se  Se159  1  0.40323036  0.58750839  0.44238421  1
  Se  Se160  1  0.40789402  0.59051233  0.93934611  1
  Se  Se161  1  0.43221837  0.89075133  0.44847717  1
  Se  Se162  1  0.40570981  0.92223475  0.94008175  1
  Se  Se163  1  0.74230788  0.25722259  0.43635128  1
  Se  Se164  1  0.75206493  0.24719180  0.94572743  1
  Se  Se165  1  0.75708261  0.58050901  0.45115451  1
  Se  Se166  1  0.73655629  0.58868103  0.94279053  1
  Se  Se167  1  0.75561923  0.91592958  0.45438870  1
  Se  Se168  1  0.75353936  0.89739622  0.94484809  1
  Se  Se169  1  0.23206436  0.09782320  0.44518296  1
  Se  Se170  1  0.25662759  0.07563853  0.94160081  1
  Se  Se171  1  0.24753039  0.41212752  0.44836007  1
  Se  Se172  1  0.25275981  0.41889737  0.94579650  1
  Se  Se173  1  0.23597885  0.77259413  0.44737800  1
  Se  Se174  1  0.24465436  0.75043743  0.94710317  1
  Se  Se175  1  0.57994667  0.08151152  0.45205158  1
  Se  Se176  1  0.57555298  0.08504924  0.95257639  1
  Se  Se177  1  0.58989012  0.40925930  0.43829082  1
  Se  Se178  1  0.58990181  0.41153544  0.94114327  1
  Se  Se179  1  0.59220351  0.74366180  0.44928991  1
  Se  Se180  1  0.57913755  0.74593460  0.93512298  1
  Se  Se181  1  0.91953179  0.08073365  0.43498097  1
  Se  Se182  1  0.92974827  0.06784497  0.94286673  1
  Se  Se183  1  0.91670013  0.42308974  0.44926581  1
  Se  Se184  1  0.92560104  0.40691671  0.93605634  1
  Se  Se185  1  0.91696141  0.75330963  0.44658577  1
  Se  Se186  1  0.92104797  0.74678780  0.95105892  1
  Se  Se187  1  0.25381731  0.24933181  0.30467076  1
  Se  Se188  1  0.25679070  0.25301058  0.80082409  1
  Se  Se189  1  0.24843482  0.58854141  0.30826475  1
  Se  Se190  1  0.24995606  0.59321040  0.80320370  1
  Se  Se191  1  0.25035766  0.91584384  0.30700154  1
  Se  Se192  1  0.24254758  0.91347773  0.80565502  1
  Se  Se193  1  0.57890813  0.25000731  0.30885030  1
  Se  Se194  1  0.57659104  0.24344240  0.81204759  1
  Se  Se195  1  0.57065150  0.58257247  0.31304312  1
  Se  Se196  1  0.58211384  0.58728981  0.79597985  1
  Se  Se197  1  0.57739110  0.91146605  0.31461135  1
  Se  Se198  1  0.57785239  0.91822296  0.80038860  1
  Se  Se199  1  0.91290544  0.24441579  0.30300420  1
  Se  Se200  1  0.91679557  0.24796443  0.79773114  1
  Se  Se201  1  0.91759562  0.58683155  0.30650285  1
  Se  Se202  1  0.91074652  0.58305071  0.81872728  1
  Se  Se203  1  0.91741277  0.92059240  0.30356996  1
  Se  Se204  1  0.91234547  0.91538948  0.81437742  1
  Se  Se205  1  0.08404060  0.07901113  0.30107211  1
  Se  Se206  1  0.09069598  0.09069476  0.80338060  1
  Se  Se207  1  0.08813009  0.41797493  0.31413614  1
  Se  Se208  1  0.08690991  0.42083839  0.79866471  1
  Se  Se209  1  0.07980662  0.74494055  0.30678352  1
  Se  Se210  1  0.09063258  0.76045983  0.80752089  1
  Se  Se211  1  0.41831586  0.08148658  0.31130598  1
  Se  Se212  1  0.41591962  0.08661667  0.81351245  1
  Se  Se213  1  0.40603355  0.41499279  0.30238338  1
  Se  Se214  1  0.41790750  0.41944240  0.80222701  1
  Se  Se215  1  0.41265987  0.74829970  0.30275460  1
  Se  Se216  1  0.40889981  0.75142846  0.79630054  1
  Se  Se217  1  0.75594953  0.09153967  0.30436973  1
  Se  Se218  1  0.74525662  0.08069524  0.80790627  1
  Se  Se219  1  0.75123889  0.41937472  0.30708567  1
  Se  Se220  1  0.75729633  0.42390763  0.80778615  1
  Se  Se221  1  0.75251516  0.75695082  0.31000811  1
  Se  Se222  1  0.74518312  0.74723008  0.80154640  1
  Se  Se223  1  0.25979267  0.07424398  0.20107478  1
  Se  Se224  1  0.23903328  0.08584944  0.68551570  1
  Se  Se225  1  0.24285020  0.41778959  0.19881796  1
  Se  Se226  1  0.25568500  0.41740296  0.69641492  1
  Se  Se227  1  0.24968800  0.74980794  0.20114301  1
  Se  Se228  1  0.25378885  0.75340784  0.68554742  1
  Se  Se229  1  0.57713171  0.09588214  0.19172355  1
  Se  Se230  1  0.57878394  0.07768962  0.69841685  1
  Se  Se231  1  0.56850659  0.43015691  0.19173571  1
  Se  Se232  1  0.57665679  0.42273551  0.68496891  1
  Se  Se233  1  0.57329717  0.76760435  0.18956953  1
  Se  Se234  1  0.58456649  0.74730770  0.69651647  1
  Se  Se235  1  0.92698065  0.07671087  0.19397006  1
  Se  Se236  1  0.90851236  0.08936390  0.68746999  1
  Se  Se237  1  0.91082976  0.42249377  0.18999228  1
  Se  Se238  1  0.92399611  0.42149696  0.69940328  1
  Se  Se239  1  0.91775517  0.74435114  0.19911226  1
  Se  Se240  1  0.91625240  0.76359325  0.69621835  1
  Se  Se241  1  0.09934817  0.23653686  0.18708545  1
  Se  Se242  1  0.08159589  0.25733075  0.69639082  1
  Se  Se243  1  0.08181371  0.58609057  0.20110056  1
  Se  Se244  1  0.09551115  0.58657728  0.68740432  1
  Se  Se245  1  0.08311979  0.91387325  0.20235879  1
  Se  Se246  1  0.09837423  0.92145360  0.68032894  1
  Se  Se247  1  0.41177071  0.25325977  0.19943189  1
  Se  Se248  1  0.41343738  0.24822159  0.69960821  1
  Se  Se249  1  0.40882052  0.59231255  0.20058922  1
  Se  Se250  1  0.41266911  0.58657795  0.69324793  1
  Se  Se251  1  0.42424877  0.91858547  0.20617159  1
  Se  Se252  1  0.41659299  0.90571516  0.68215960  1
  Se  Se253  1  0.76168244  0.24254752  0.18021301  1
  Se  Se254  1  0.75351597  0.24366026  0.68828012  1
  Se  Se255  1  0.75371497  0.57924586  0.19338669  1
  Se  Se256  1  0.75518708  0.58909715  0.69882577  1
  Se  Se257  1  0.75727148  0.91132911  0.18964718  1
  Se  Se258  1  0.74534990  0.92076155  0.70081918  1
