# generated using pymatgen
data_In86Cu29Se144
_symmetry_space_group_name_H-M   'P 1'
_cell_length_a   17.58143514
_cell_length_b   17.58353745
_cell_length_c   23.44165699
_cell_angle_alpha   90.02099656
_cell_angle_beta   90.01115737
_cell_angle_gamma   90.00644590
_symmetry_Int_Tables_number   1
_chemical_formula_structural   In86Cu29Se144
_chemical_formula_sum   'In86 Cu29 Se144'
_cell_volume   7246.84279439
_cell_formula_units_Z   1
loop_
 _symmetry_equiv_pos_site_id
 _symmetry_equiv_pos_as_xyz
  1  'x, y, z'
loop_
 _atom_site_type_symbol
 _atom_site_label
 _atom_site_symmetry_multiplicity
 _atom_site_fract_x
 _atom_site_fract_y
 _atom_site_fract_z
 _atom_site_occupancy
  In  In0  1  0.01721052  0.15240213  0.14261048  1
  In  In1  1  -0.01374904  0.17366320  0.64075211  1
  In  In2  1  -0.00726955  0.48704345  0.13078867  1
  In  In3  1  -0.01963023  0.48223278  0.60215306  1
  In  In4  1  0.00801401  0.84829744  0.11280327  1
  In  In5  1  -0.00880996  0.84873258  0.62544142  1
  In  In6  1  0.33065958  0.16230433  0.11277648  1
  In  In7  1  0.33500540  0.14997804  0.62870518  1
  In  In8  1  0.34647674  0.49529100  0.12762393  1
  In  In9  1  0.33930682  0.50486801  0.61541487  1
  In  In10  1  0.30508031  0.83567995  0.13296015  1
  In  In11  1  0.34588517  0.83359793  0.62512913  1
  In  In12  1  0.66211891  0.16730952  0.12997816  1
  In  In13  1  0.66234394  0.17821740  0.63579503  1
  In  In14  1  0.65516050  0.49780460  0.12674901  1
  In  In15  1  0.66091546  0.49710725  0.62988379  1
  In  In16  1  0.68220443  0.83961932  0.12301217  1
  In  In17  1  0.66638687  0.83523810  0.62544722  1
  In  In18  1  0.15454767  0.00661656  0.36535423  1
  In  In19  1  0.16607085  0.00032784  0.87717384  1
  In  In20  1  0.16334427  0.33280598  0.37270101  1
  In  In21  1  0.14904169  0.32898622  0.87213313  1
  In  In22  1  0.16274243  0.65354137  0.36886216  1
  In  In23  1  0.17525691  0.67418493  0.87741979  1
  In  In24  1  0.50849789  -0.01217839  0.38433687  1
  In  In25  1  0.51248209  0.01156431  0.86617475  1
  In  In26  1  0.51014230  0.32400740  0.38682910  1
  In  In27  1  0.50744171  0.33237514  0.87826076  1
  In  In28  1  0.49809455  0.66955613  0.38044299  1
  In  In29  1  0.50375686  0.65493212  0.87398256  1
  In  In30  1  0.82912829  -0.00460219  0.36558900  1
  In  In31  1  0.82760360  0.00185295  0.86537922  1
  In  In32  1  0.83856113  0.34412619  0.37570194  1
  In  In33  1  0.82963632  0.31889975  0.85815698  1
  In  In34  1  0.82936767  0.67242861  0.38286847  1
  In  In35  1  0.82982900  0.68090223  0.87414235  1
  In  In36  1  -0.00139444  0.16447841  0.36482436  1
  In  In37  1  0.00161580  0.16781971  0.87250094  1
  In  In38  1  0.00381242  0.48916540  0.39078121  1
  In  In39  1  0.00012418  0.48241418  0.86898519  1
  In  In40  1  -0.00804779  0.83520242  0.36999733  1
  In  In41  1  -0.01374866  0.85200225  0.89262735  1
  In  In42  1  0.33265865  0.17377893  0.37492359  1
  In  In43  1  0.34568106  0.15998641  0.88100182  1
  In  In44  1  0.32743386  0.50300720  0.38176071  1
  In  In45  1  0.34218709  0.51296323  0.87482994  1
  In  In46  1  0.34915623  0.83781314  0.37103091  1
  In  In47  1  0.31884602  0.83402529  0.87942418  1
  In  In48  1  0.65810313  0.15837195  0.37395797  1
  In  In49  1  0.66476780  0.16218562  0.86663166  1
  In  In50  1  0.67692143  0.49240325  0.38665949  1
  In  In51  1  0.65663176  0.48821303  0.85894164  1
  In  In52  1  0.66900761  0.83501229  0.37605639  1
  In  In53  1  0.67526655  0.84217804  0.86466966  1
  In  In54  1  0.15766815  -0.00025806  0.11380354  1
  In  In55  1  0.15548413  0.00887566  0.63541414  1
  In  In56  1  0.16004128  0.31438331  0.12218233  1
  In  In57  1  0.15546928  0.33471114  0.61833095  1
  In  In58  1  0.16745219  0.69159489  0.13227768  1
  In  In59  1  0.17677047  0.66119419  0.62202499  1
  In  In60  1  0.49438569  0.01292102  0.12341744  1
  In  In61  1  0.50332942  0.00038803  0.62558655  1
  In  In62  1  0.50219147  0.33420212  0.11984357  1
  In  In63  1  0.51390127  0.34440867  0.61834944  1
  In  In64  1  0.50034406  0.65129330  0.12643982  1
  In  In65  1  0.50394274  0.67048875  0.62199349  1
  In  In66  1  0.84512708  -0.01709449  0.13840334  1
  In  In67  1  0.83740722  -0.00195736  0.63015768  1
  In  In68  1  0.83777410  0.32117122  0.13876698  1
  In  In69  1  0.82407982  0.33354443  0.63380632  1
  In  In70  1  0.82500342  0.67741421  0.12450017  1
  In  In71  1  0.81754884  0.65776257  0.61663299  1
  In  In72  1  0.49601783  0.83369274  0.00133909  1
  In  In73  1  0.33880174  0.33318451  0.75549052  1
  In  In74  1  0.17075962  0.82934046  0.49830704  1
  In  In75  1  0.32978015  -0.00196300  0.24451342  1
  In  In76  1  0.16409167  0.16772618  0.49393167  1
  In  In77  1  0.82894650  0.16983477  0.50930043  1
  In  In78  1  0.34065919  0.67234699  0.74625734  1
  In  In79  1  0.66831987  0.66923100  0.25929615  1
  In  In80  1  0.00147622  0.66394212  0.74956820  1
  In  In81  1  0.32884362  0.33116970  0.25528363  1
  In  In82  1  0.83516238  0.15963741  -0.00192778  1
  In  In83  1  -0.00163518  0.66663435  0.24908563  1
  In  In84  1  0.17197280  0.50427194  -0.00600420  1
  In  In85  1  0.82791465  0.50387712  0.00134789  1
  Cu  Cu86  1  0.16651954  0.49636668  0.25389346  1
  Cu  Cu87  1  -0.00746753  0.00343757  0.50192780  1
  Cu  Cu88  1  0.82163544  0.17177929  0.25417531  1
  Cu  Cu89  1  0.00021842  0.67255843  0.49493599  1
  Cu  Cu90  1  -0.00286310  0.32699827  -0.00268666  1
  Cu  Cu91  1  0.83051715  0.49745904  0.25938964  1
  Cu  Cu92  1  0.50153930  0.49221775  0.25085100  1
  Cu  Cu93  1  0.67034465  0.00562614  -0.00673009  1
  Cu  Cu94  1  0.50255590  0.84072665  0.74782304  1
  Cu  Cu95  1  0.33711325  0.66292263  0.49802939  1
  Cu  Cu96  1  0.83180827  0.50016530  0.74078836  1
  Cu  Cu97  1  0.49710625  0.16490781  0.25151111  1
  Cu  Cu98  1  0.33699071  -0.00500977  0.50328848  1
  Cu  Cu99  1  0.16606468  0.16064187  0.75128798  1
  Cu  Cu100  1  0.16121213  0.84218170  0.75650681  1
  Cu  Cu101  1  0.50031716  0.16794461  0.75021179  1
  Cu  Cu102  1  0.33707940  0.33079719  0.49874104  1
  Cu  Cu103  1  0.33441354  0.00494584  -0.00167407  1
  Cu  Cu104  1  0.50555774  0.83037768  0.25288037  1
  Cu  Cu105  1  0.33619990  0.66512107  0.00388601  1
  Cu  Cu106  1  0.33811502  0.33592859  -0.00239877  1
  Cu  Cu107  1  0.66338782  0.66998245  0.50251565  1
  Cu  Cu108  1  0.66528963  0.66880664  0.00039849  1
  Cu  Cu109  1  0.16488710  0.49725636  0.74170996  1
  Cu  Cu110  1  0.66903371  0.33354854  0.50630800  1
  Cu  Cu111  1  0.00015281  0.67115877  -0.00014389  1
  Cu  Cu112  1  0.83079531  0.83119580  0.74883509  1
  Cu  Cu113  1  0.66200702  -0.00354535  0.49921317  1
  Cu  Cu114  1  0.66328179  0.33505181  0.00123975  1
  Se  Se115  1  0.08046196  0.09593234  0.05409361  1
  Se  Se116  1  0.07176825  0.08616129  0.56004557  1
  Se  Se117  1  0.07746214  0.41470321  0.05241388  1
  Se  Se118  1  0.09322171  0.42522990  0.54675929  1
  Se  Se119  1  0.08710531  0.75035951  0.05165645  1
  Se  Se120  1  0.07678950  0.74769718  0.56248356  1
  Se  Se121  1  0.42310265  0.08867018  0.04547768  1
  Se  Se122  1  0.41890645  0.08181182  0.55405488  1
  Se  Se123  1  0.42027277  0.41917100  0.05115503  1
  Se  Se124  1  0.42006798  0.41582833  0.55105163  1
  Se  Se125  1  0.41046092  0.74773561  0.06723932  1
  Se  Se126  1  0.41605044  0.74880504  0.55257181  1
  Se  Se127  1  0.74630956  0.07626326  0.06287719  1
  Se  Se128  1  0.73775727  0.07627378  0.56376519  1
  Se  Se129  1  0.74794872  0.40706839  0.06392471  1
  Se  Se130  1  0.74972503  0.41704075  0.56108027  1
  Se  Se131  1  0.75080764  0.75394830  0.04818944  1
  Se  Se132  1  0.74860203  0.75630908  0.55223896  1
  Se  Se133  1  0.25129273  0.25386269  0.04847400  1
  Se  Se134  1  0.25778148  0.24953599  0.55984753  1
  Se  Se135  1  0.25349248  0.58674724  0.06488425  1
  Se  Se136  1  0.24934898  0.58090404  0.54753365  1
  Se  Se137  1  0.25357366  0.91982062  0.05161025  1
  Se  Se138  1  0.24824404  0.92493832  0.56386874  1
  Se  Se139  1  0.58494179  0.24678368  0.05465301  1
  Se  Se140  1  0.58566297  0.24503323  0.55496953  1
  Se  Se141  1  0.58534572  0.58185818  0.05195308  1
  Se  Se142  1  0.58474461  0.58225390  0.55644369  1
  Se  Se143  1  0.58962266  0.92615713  0.05650047  1
  Se  Se144  1  0.57965406  0.91364582  0.55511956  1
  Se  Se145  1  0.91994022  0.25096790  0.06114950  1
  Se  Se146  1  0.92396276  0.26069015  0.56160556  1
  Se  Se147  1  0.92440506  0.58971310  0.06215431  1
  Se  Se148  1  0.91391679  0.59150781  0.54797503  1
  Se  Se149  1  0.90943686  0.92062938  0.05208754  1
  Se  Se150  1  0.90788068  0.91810489  0.55072460  1
  Se  Se151  1  0.06726386  0.25591576  0.44127991  1
  Se  Se152  1  0.08373576  0.24459356  0.94782317  1
  Se  Se153  1  0.08648149  0.58667343  0.44801499  1
  Se  Se154  1  0.07128284  0.58804329  0.93543678  1
  Se  Se155  1  0.07926414  0.92563920  0.44468225  1
  Se  Se156  1  0.10266875  0.90239488  0.94573120  1
  Se  Se157  1  0.41719102  0.24175414  0.44887116  1
  Se  Se158  1  0.42277021  0.25164528  0.94620412  1
  Se  Se159  1  0.42170400  0.57786806  0.44706308  1
  Se  Se160  1  0.42106856  0.58519433  0.95067437  1
  Se  Se161  1  0.41915809  0.90930056  0.45163138  1
  Se  Se162  1  0.41535640  0.92611684  0.93663681  1
  Se  Se163  1  0.74328369  0.25342024  0.44117390  1
  Se  Se164  1  0.74575431  0.25669661  0.94104230  1
  Se  Se165  1  0.75054895  0.58729472  0.45095254  1
  Se  Se166  1  0.74082045  0.58758371  0.93623574  1
  Se  Se167  1  0.75069552  0.92238938  0.44297986  1
  Se  Se168  1  0.75049844  0.92085222  0.93967473  1
  Se  Se169  1  0.25558352  0.06970085  0.43951386  1
  Se  Se170  1  0.24949693  0.08722064  0.94509431  1
  Se  Se171  1  0.24951605  0.40729712  0.44355369  1
  Se  Se172  1  0.25768009  0.41015431  0.93247883  1
  Se  Se173  1  0.25893118  0.74229774  0.43494464  1
  Se  Se174  1  0.25038237  0.74872456  0.95413735  1
  Se  Se175  1  0.57895352  0.08474461  0.45008437  1
  Se  Se176  1  0.58543453  0.08939561  0.94337470  1
  Se  Se177  1  0.58409325  0.41723086  0.45291277  1
  Se  Se178  1  0.58835265  0.42233214  0.94463448  1
  Se  Se179  1  0.58509332  0.75319642  0.44446445  1
  Se  Se180  1  0.58858949  0.75094706  0.93820348  1
  Se  Se181  1  0.91474697  0.08461924  0.44110401  1
  Se  Se182  1  0.92482961  0.07101045  0.93889698  1
  Se  Se183  1  0.90405610  0.42299233  0.45407047  1
  Se  Se184  1  0.91175386  0.40671194  0.94118087  1
  Se  Se185  1  0.91704966  0.75892085  0.44566896  1
  Se  Se186  1  0.91022922  0.75062813  0.95032477  1
  Se  Se187  1  0.23381094  0.23376824  0.30305863  1
  Se  Se188  1  0.24562698  0.24247787  0.81169480  1
  Se  Se189  1  0.25452756  0.57795179  0.30259015  1
  Se  Se190  1  0.24192528  0.57859966  0.80260071  1
  Se  Se191  1  0.24404525  0.90895780  0.30897403  1
  Se  Se192  1  0.25273797  0.91999497  0.80551981  1
  Se  Se193  1  0.57827826  0.24836828  0.30657514  1
  Se  Se194  1  0.58262462  0.25310109  0.80318384  1
  Se  Se195  1  0.58022717  0.57209572  0.31344826  1
  Se  Se196  1  0.58810374  0.59144975  0.79938871  1
  Se  Se197  1  0.58445893  0.91604796  0.30591239  1
  Se  Se198  1  0.58971104  0.92425869  0.79835157  1
  Se  Se199  1  0.90898966  0.25247747  0.30619683  1
  Se  Se200  1  0.94246773  0.26592188  0.80258819  1
  Se  Se201  1  0.91301083  0.57967705  0.31562753  1
  Se  Se202  1  0.90705631  0.57471823  0.81017747  1
  Se  Se203  1  0.93622284  0.93642500  0.30382481  1
  Se  Se204  1  0.91544408  0.90985681  0.80552420  1
  Se  Se205  1  0.07891537  0.08524551  0.29395830  1
  Se  Se206  1  0.08274780  0.07948994  0.80609778  1
  Se  Se207  1  0.07966712  0.42135490  0.30913259  1
  Se  Se208  1  0.08340106  0.41284309  0.79469910  1
  Se  Se209  1  0.09173523  0.75686978  0.30655900  1
  Se  Se210  1  0.08337401  0.75626489  0.81341584  1
  Se  Se211  1  0.41945080  0.08187262  0.31148454  1
  Se  Se212  1  0.41528311  0.08424431  0.80149345  1
  Se  Se213  1  0.42251646  0.41592536  0.31527463  1
  Se  Se214  1  0.42861570  0.42933209  0.80795582  1
  Se  Se215  1  0.42187102  0.74574962  0.30320066  1
  Se  Se216  1  0.42442277  0.76200409  0.81254220  1
  Se  Se217  1  0.74182596  0.08162341  0.30338187  1
  Se  Se218  1  0.77016098  0.10780348  0.80158893  1
  Se  Se219  1  0.74228771  0.41354646  0.30690917  1
  Se  Se220  1  0.75209647  0.41320626  0.79596822  1
  Se  Se221  1  0.76698953  0.76274580  0.30444963  1
  Se  Se222  1  0.74581714  0.74575536  0.79785112  1
  Se  Se223  1  0.24319967  0.09105034  0.18650258  1
  Se  Se224  1  0.25254085  0.07704095  0.70192237  1
  Se  Se225  1  0.24164335  0.41725489  0.18786278  1
  Se  Se226  1  0.25263095  0.41902093  0.68673489  1
  Se  Se227  1  0.26514611  0.73556817  0.20671884  1
  Se  Se228  1  0.23985864  0.76232027  0.69343753  1
  Se  Se229  1  0.57926851  0.08033865  0.19795960  1
  Se  Se230  1  0.58314823  0.08305970  0.69720744  1
  Se  Se231  1  0.58182073  0.40947380  0.19613951  1
  Se  Se232  1  0.59172081  0.40366831  0.69914530  1
  Se  Se233  1  0.58277595  0.75155563  0.18823483  1
  Se  Se234  1  0.58054712  0.75283390  0.69427577  1
  Se  Se235  1  0.90512939  0.09194963  0.19768316  1
  Se  Se236  1  0.93132506  0.06472966  0.69918738  1
  Se  Se237  1  0.91362674  0.41433214  0.20510667  1
  Se  Se238  1  0.92088768  0.41952505  0.69139511  1
  Se  Se239  1  0.91691639  0.75945343  0.18670547  1
  Se  Se240  1  0.90936128  0.74947856  0.68750521  1
  Se  Se241  1  0.06462317  0.27108001  0.19725771  1
  Se  Se242  1  0.09229089  0.24855535  0.69436285  1
  Se  Se243  1  0.09083132  0.57570570  0.18776059  1
  Se  Se244  1  0.08324882  0.57565969  0.68264693  1
  Se  Se245  1  0.10021828  0.90596030  0.18699991  1
  Se  Se246  1  0.07574123  0.91806460  0.69961061  1
  Se  Se247  1  0.41588689  0.24297730  0.19032486  1
  Se  Se248  1  0.42166712  0.24711398  0.68784199  1
  Se  Se249  1  0.41847824  0.57897766  0.20166150  1
  Se  Se250  1  0.42595516  0.57458030  0.69238997  1
  Se  Se251  1  0.42456918  0.90580144  0.18733059  1
  Se  Se252  1  0.41512624  0.92134224  0.69643398  1
  Se  Se253  1  0.73669435  0.25433545  0.20125647  1
  Se  Se254  1  0.77072420  0.22888519  0.70059549  1
  Se  Se255  1  0.75582072  0.57680525  0.19386117  1
  Se  Se256  1  0.74514059  0.58631444  0.69578995  1
  Se  Se257  1  0.74320448  0.91859137  0.20187369  1
  Se  Se258  1  0.74867501  0.91731895  0.69612109  1
