# generated using pymatgen
data_In86Cu29Se144
_symmetry_space_group_name_H-M   'P 1'
_cell_length_a   17.57723653
_cell_length_b   17.57931904
_cell_length_c   23.43725259
_cell_angle_alpha   90.01470413
_cell_angle_beta   90.01274930
_cell_angle_gamma   89.97823342
_symmetry_Int_Tables_number   1
_chemical_formula_structural   In86Cu29Se144
_chemical_formula_sum   'In86 Cu29 Se144'
_cell_volume   7242.01281769
_cell_formula_units_Z   1
loop_
 _symmetry_equiv_pos_site_id
 _symmetry_equiv_pos_as_xyz
  1  'x, y, z'
loop_
 _atom_site_type_symbol
 _atom_site_label
 _atom_site_symmetry_multiplicity
 _atom_site_fract_x
 _atom_site_fract_y
 _atom_site_fract_z
 _atom_site_occupancy
  In  In0  1  0.02572728  0.17000292  0.12859109  1
  In  In1  1  0.00219200  0.16702176  0.62096993  1
  In  In2  1  -0.00892479  0.49092997  0.11875261  1
  In  In3  1  -0.00924448  0.50266108  0.63257929  1
  In  In4  1  -0.00551008  0.82961922  0.11325395  1
  In  In5  1  -0.01224451  0.83505811  0.64620624  1
  In  In6  1  0.30334761  0.18006499  0.14689497  1
  In  In7  1  0.34063268  0.17456845  0.61465357  1
  In  In8  1  0.33194628  0.50147138  0.12384759  1
  In  In9  1  0.31743557  0.49614695  0.62583632  1
  In  In10  1  0.33494583  0.83363264  0.12410495  1
  In  In11  1  0.34300496  0.83365201  0.62063327  1
  In  In12  1  0.66194702  0.16922436  0.13946976  1
  In  In13  1  0.66498563  0.15765246  0.61292697  1
  In  In14  1  0.67494032  0.49620193  0.13326111  1
  In  In15  1  0.67045374  0.48418630  0.61924179  1
  In  In16  1  0.66494019  0.83669662  0.12962210  1
  In  In17  1  0.66563191  0.84619373  0.62248243  1
  In  In18  1  0.17652059  0.00383420  0.37220611  1
  In  In19  1  0.15920677  0.01137947  0.88159169  1
  In  In20  1  0.14888260  0.30806847  0.35005002  1
  In  In21  1  0.16483703  0.33314163  0.88069593  1
  In  In22  1  0.16858823  0.65800878  0.36698552  1
  In  In23  1  0.15579746  0.67520832  0.88533024  1
  In  In24  1  0.50105387  0.00021295  0.37664610  1
  In  In25  1  0.49076085  -0.00149583  0.87612263  1
  In  In26  1  0.48856721  0.31813680  0.36591731  1
  In  In27  1  0.49246063  0.33600378  0.87030167  1
  In  In28  1  0.50625246  0.67591450  0.36634432  1
  In  In29  1  0.50804444  0.67651052  0.87883988  1
  In  In30  1  0.83951941  0.01404917  0.37385474  1
  In  In31  1  0.84015469  -0.01585709  0.87530325  1
  In  In32  1  0.83589209  0.33353112  0.37590000  1
  In  In33  1  0.85006644  0.33088794  0.87746079  1
  In  In34  1  0.81853773  0.66829729  0.37467959  1
  In  In35  1  0.83800989  0.66330495  0.88297897  1
  In  In36  1  -0.01164816  0.16921799  0.38719792  1
  In  In37  1  0.01039218  0.17899153  0.86314055  1
  In  In38  1  0.00772426  0.48698262  0.37655766  1
  In  In39  1  0.00096629  0.49794729  0.88152623  1
  In  In40  1  -0.00207000  0.84477796  0.37409878  1
  In  In41  1  -0.00122717  0.83447678  0.87270116  1
  In  In42  1  0.33276079  0.16851148  0.37549806  1
  In  In43  1  0.32055020  0.16411679  0.87485572  1
  In  In44  1  0.32951541  0.49438369  0.36328813  1
  In  In45  1  0.32316390  0.48115774  0.87899018  1
  In  In46  1  0.34665562  0.84864054  0.36098426  1
  In  In47  1  0.33807548  0.83237027  0.88492042  1
  In  In48  1  0.66885999  0.16610612  0.37272511  1
  In  In49  1  0.66590026  0.17414312  0.87326115  1
  In  In50  1  0.67419253  0.50650093  0.36917487  1
  In  In51  1  0.66620875  0.51320150  0.88248930  1
  In  In52  1  0.66098485  0.81989112  0.36356585  1
  In  In53  1  0.67120075  0.83557375  0.88566890  1
  In  In54  1  0.17922740  0.00981197  0.12068975  1
  In  In55  1  0.14816806  0.00603361  0.62415883  1
  In  In56  1  0.16729434  0.32958918  0.12594737  1
  In  In57  1  0.17390979  0.32078512  0.62967467  1
  In  In58  1  0.17595679  0.67545662  0.11380485  1
  In  In59  1  0.15916905  0.65759518  0.63043117  1
  In  In60  1  0.50162724  -0.00353525  0.13039089  1
  In  In61  1  0.50214998  0.00109349  0.61713449  1
  In  In62  1  0.49491144  0.33692959  0.13464899  1
  In  In63  1  0.49347569  0.31711095  0.62109772  1
  In  In64  1  0.49042507  0.67740387  0.13049692  1
  In  In65  1  0.49814127  0.67784877  0.62178454  1
  In  In66  1  0.83274838  -0.00924429  0.12872332  1
  In  In67  1  0.83498882  0.00483076  0.62165663  1
  In  In68  1  0.82917993  0.34097835  0.13326316  1
  In  In69  1  0.84043319  0.33983371  0.61720725  1
  In  In70  1  0.82833299  0.66633916  0.12476041  1
  In  In71  1  0.84686074  0.66832554  0.62714271  1
  In  In72  1  0.83106076  0.83661807  0.50302329  1
  In  In73  1  0.67198965  0.00018442  0.74447689  1
  In  In74  1  0.83999202  0.16447004  0.00333283  1
  In  In75  1  -0.00047057  0.66352479  0.23790974  1
  In  In76  1  0.50448425  0.49415461  0.48927113  1
  In  In77  1  0.49578598  0.50298117  0.01009727  1
  In  In78  1  0.16805708  0.83402322  0.49983701  1
  In  In79  1  0.67204293  0.66928342  0.75207653  1
  In  In80  1  0.16735226  0.49466748  0.50187841  1
  In  In81  1  -0.00106305  0.00341422  0.24992955  1
  In  In82  1  0.66727082  0.33273808  0.74480950  1
  In  In83  1  0.33294441  0.00400227  0.74765486  1
  In  In84  1  0.49268905  0.16260070  0.00338887  1
  In  In85  1  0.32706411  0.66953839  0.76276767  1
  Cu  Cu86  1  0.00545281  0.33145509  0.00005982  1
  Cu  Cu87  1  0.33030561  0.33217874  0.49263321  1
  Cu  Cu88  1  0.83552756  0.49777051  0.75619556  1
  Cu  Cu89  1  0.83581527  0.17406900  0.25438543  1
  Cu  Cu90  1  0.00058015  0.66544221  0.00020040  1
  Cu  Cu91  1  0.84005781  0.16303086  0.74456871  1
  Cu  Cu92  1  0.48374470  0.50031975  0.74964258  1
  Cu  Cu93  1  0.66517331  -0.00555784  0.00641638  1
  Cu  Cu94  1  0.34011953  0.67752991  0.49258412  1
  Cu  Cu95  1  0.15455915  0.49106284  0.75374718  1
  Cu  Cu96  1  0.16767422  0.83317950  0.75680685  1
  Cu  Cu97  1  0.50673514  0.50097053  0.24875709  1
  Cu  Cu98  1  0.67184965  0.67394094  0.00487770  1
  Cu  Cu99  1  0.67247829  0.32467504  0.49494697  1
  Cu  Cu100  1  0.66552847  -0.00096360  0.49330674  1
  Cu  Cu101  1  0.49911262  0.15509525  0.25525933  1
  Cu  Cu102  1  -0.00031746  0.32901643  0.49825743  1
  Cu  Cu103  1  0.33548032  -0.00265146  0.00492585  1
  Cu  Cu104  1  0.83965625  0.49941608  0.25151164  1
  Cu  Cu105  1  0.33554833  0.66517410  0.00209824  1
  Cu  Cu106  1  0.66472894  0.66436074  0.49226403  1
  Cu  Cu107  1  0.49811975  0.83399128  0.24772498  1
  Cu  Cu108  1  0.00249923  -0.00254211  -0.00163259  1
  Cu  Cu109  1  0.16593623  0.83100755  0.24032442  1
  Cu  Cu110  1  0.66874099  0.34096586  0.00881774  1
  Cu  Cu111  1  -0.00585975  0.66655925  0.50880255  1
  Cu  Cu112  1  0.33655127  0.00280371  0.49355576  1
  Cu  Cu113  1  0.17534808  0.49871655  0.24364882  1
  Cu  Cu114  1  0.16131763  0.16974347  0.75111554  1
  Se  Se115  1  0.08519140  0.08116257  0.05213808  1
  Se  Se116  1  0.08823330  0.09236604  0.54924097  1
  Se  Se117  1  0.08591114  0.41516043  0.05537301  1
  Se  Se118  1  0.07616018  0.40961378  0.56331159  1
  Se  Se119  1  0.08553319  0.75322436  0.04794261  1
  Se  Se120  1  0.07573086  0.74913044  0.56479975  1
  Se  Se121  1  0.40488201  0.08198723  0.06901556  1
  Se  Se122  1  0.42007713  0.08459834  0.54977508  1
  Se  Se123  1  0.40740339  0.40097428  0.05613692  1
  Se  Se124  1  0.40684694  0.41640951  0.55388178  1
  Se  Se125  1  0.41828435  0.75201160  0.05209842  1
  Se  Se126  1  0.42363517  0.75735304  0.54709586  1
  Se  Se127  1  0.73969544  0.08442685  0.06203917  1
  Se  Se128  1  0.75291445  0.07759042  0.54731906  1
  Se  Se129  1  0.75597195  0.42242918  0.05751363  1
  Se  Se130  1  0.75244804  0.41405985  0.54546462  1
  Se  Se131  1  0.75259395  0.75888173  0.05868594  1
  Se  Se132  1  0.74143902  0.73995521  0.56070412  1
  Se  Se133  1  0.24316634  0.23830034  0.05805140  1
  Se  Se134  1  0.24713383  0.25120720  0.54909530  1
  Se  Se135  1  0.25168592  0.57898099  0.05041217  1
  Se  Se136  1  0.25801248  0.59901497  0.55328650  1
  Se  Se137  1  0.24849292  0.91291507  0.05448312  1
  Se  Se138  1  0.25744610  0.92773108  0.56010191  1
  Se  Se139  1  0.58707437  0.25536604  0.06142500  1
  Se  Se140  1  0.58398738  0.24969033  0.55025936  1
  Se  Se141  1  0.59133247  0.59144196  0.06493749  1
  Se  Se142  1  0.58686852  0.58597278  0.55760648  1
  Se  Se143  1  0.57831114  0.91439937  0.05756557  1
  Se  Se144  1  0.58312105  0.91586688  0.54826067  1
  Se  Se145  1  0.92506505  0.25515219  0.06504167  1
  Se  Se146  1  0.91445388  0.24705595  0.55159256  1
  Se  Se147  1  0.91525067  0.58693960  0.05645262  1
  Se  Se148  1  0.91218833  0.57662898  0.55523750  1
  Se  Se149  1  0.91246388  0.92175143  0.05087891  1
  Se  Se150  1  0.93080029  0.91711740  0.56034318  1
  Se  Se151  1  0.08810798  0.25386104  0.44240744  1
  Se  Se152  1  0.08232171  0.24242734  0.94670131  1
  Se  Se153  1  0.07787701  0.59311022  0.44536999  1
  Se  Se154  1  0.08519116  0.57912046  0.95091846  1
  Se  Se155  1  0.07923101  0.92777029  0.44328210  1
  Se  Se156  1  0.08479862  0.91394573  0.94362056  1
  Se  Se157  1  0.41972454  0.24700502  0.44770716  1
  Se  Se158  1  0.40872848  0.25537426  0.94156587  1
  Se  Se159  1  0.41036861  0.58635359  0.43513478  1
  Se  Se160  1  0.41320746  0.58681674  0.93734864  1
  Se  Se161  1  0.41739094  0.91336655  0.44473245  1
  Se  Se162  1  0.42206806  0.91713949  0.95174378  1
  Se  Se163  1  0.75767582  0.24263069  0.44277086  1
  Se  Se164  1  0.74474417  0.25887798  0.94602701  1
  Se  Se165  1  0.75224634  0.57913607  0.44765741  1
  Se  Se166  1  0.75124155  0.58474607  0.95337202  1
  Se  Se167  1  0.74505510  0.91693939  0.43378442  1
  Se  Se168  1  0.75525417  0.91948600  0.95211608  1
  Se  Se169  1  0.24948696  0.08623276  0.44599819  1
  Se  Se170  1  0.25283237  0.08127901  0.95039640  1
  Se  Se171  1  0.24729119  0.40902559  0.43343390  1
  Se  Se172  1  0.24304057  0.41397153  0.95372360  1
  Se  Se173  1  0.25428510  0.75039997  0.43203841  1
  Se  Se174  1  0.25167774  0.75000515  0.94931478  1
  Se  Se175  1  0.58336783  0.08674451  0.44331632  1
  Se  Se176  1  0.59226156  0.07809927  0.94233669  1
  Se  Se177  1  0.59246779  0.40243322  0.43137044  1
  Se  Se178  1  0.58525640  0.41163430  0.94393782  1
  Se  Se179  1  0.58264146  0.75116864  0.44323813  1
  Se  Se180  1  0.58423352  0.75403910  0.95243225  1
  Se  Se181  1  0.91992334  0.07283678  0.45302395  1
  Se  Se182  1  0.92625479  0.08203663  0.93649236  1
  Se  Se183  1  0.91911491  0.41711065  0.44686312  1
  Se  Se184  1  0.91616751  0.41543856  0.95208459  1
  Se  Se185  1  0.92283059  0.74538817  0.44118789  1
  Se  Se186  1  0.91989451  0.75254925  0.94652941  1
  Se  Se187  1  0.27293663  0.26490904  0.30379622  1
  Se  Se188  1  0.24435738  0.25074835  0.80635935  1
  Se  Se189  1  0.25442977  0.58662613  0.29598667  1
  Se  Se190  1  0.23583652  0.57371682  0.81386956  1
  Se  Se191  1  0.24295496  0.91476494  0.29934495  1
  Se  Se192  1  0.24946362  0.91406816  0.81346544  1
  Se  Se193  1  0.58431047  0.24498045  0.30163389  1
  Se  Se194  1  0.57320609  0.24302419  0.80209487  1
  Se  Se195  1  0.58771976  0.58658088  0.30213609  1
  Se  Se196  1  0.57152236  0.57600672  0.80586386  1
  Se  Se197  1  0.57963198  0.91552209  0.30467880  1
  Se  Se198  1  0.58434904  0.91465073  0.81143213  1
  Se  Se199  1  0.92306378  0.25149187  0.30830560  1
  Se  Se200  1  0.91536147  0.25340682  0.79804000  1
  Se  Se201  1  0.91960150  0.58076927  0.31203936  1
  Se  Se202  1  0.91572736  0.58005953  0.81178624  1
  Se  Se203  1  0.90358138  0.91021358  0.30358924  1
  Se  Se204  1  0.92383621  0.92009621  0.80082448  1
  Se  Se205  1  0.08285063  0.09222698  0.31300957  1
  Se  Se206  1  0.08239863  0.07858018  0.80110240  1
  Se  Se207  1  0.08630838  0.42227876  0.29744234  1
  Se  Se208  1  0.07527343  0.40907506  0.81088367  1
  Se  Se209  1  0.08462684  0.75722818  0.30519059  1
  Se  Se210  1  0.08369895  0.74678745  0.80550005  1
  Se  Se211  1  0.41150945  0.07714947  0.30855683  1
  Se  Se212  1  0.42370201  0.09506587  0.80690226  1
  Se  Se213  1  0.42141933  0.41654037  0.29974633  1
  Se  Se214  1  0.40581564  0.41349565  0.80181802  1
  Se  Se215  1  0.41279672  0.74615590  0.29793125  1
  Se  Se216  1  0.42769382  0.76284426  0.80709204  1
  Se  Se217  1  0.75314237  0.08479273  0.30184553  1
  Se  Se218  1  0.75908065  0.09151805  0.80970396  1
  Se  Se219  1  0.75477448  0.41648703  0.30483373  1
  Se  Se220  1  0.74914304  0.42101696  0.81428122  1
  Se  Se221  1  0.75468822  0.74763345  0.29778649  1
  Se  Se222  1  0.75874761  0.75788500  0.81302103  1
  Se  Se223  1  0.24215988  0.07364674  0.20705167  1
  Se  Se224  1  0.24245618  0.09196958  0.68791410  1
  Se  Se225  1  0.25697112  0.41234746  0.19250345  1
  Se  Se226  1  0.24400463  0.41596977  0.69875296  1
  Se  Se227  1  0.25230511  0.74632574  0.19239219  1
  Se  Se228  1  0.24589073  0.75784025  0.69060895  1
  Se  Se229  1  0.58530848  0.07518998  0.20168705  1
  Se  Se230  1  0.57626709  0.09154234  0.69124309  1
  Se  Se231  1  0.58849695  0.41312418  0.19870986  1
  Se  Se232  1  0.56885049  0.42418146  0.68956320  1
  Se  Se233  1  0.58371752  0.74889242  0.19762375  1
  Se  Se234  1  0.58004911  0.76002275  0.69366243  1
  Se  Se235  1  0.91233973  0.09715451  0.18725972  1
  Se  Se236  1  0.92174224  0.08009940  0.69118061  1
  Se  Se237  1  0.92345498  0.41527955  0.19958011  1
  Se  Se238  1  0.91123766  0.41202263  0.69824356  1
  Se  Se239  1  0.90851436  0.76318798  0.19190474  1
  Se  Se240  1  0.91735261  0.73629913  0.70696649  1
  Se  Se241  1  0.08880823  0.25476568  0.20331436  1
  Se  Se242  1  0.07736838  0.25149628  0.69550687  1
  Se  Se243  1  0.09414817  0.57682050  0.18127361  1
  Se  Se244  1  0.07780565  0.58146413  0.70136218  1
  Se  Se245  1  0.08230158  0.91205205  0.18452007  1
  Se  Se246  1  0.08804650  0.91649354  0.69977786  1
  Se  Se247  1  0.42179662  0.23921262  0.19715873  1
  Se  Se248  1  0.40272353  0.25745921  0.69319175  1
  Se  Se249  1  0.41941019  0.57857179  0.19320123  1
  Se  Se250  1  0.41243021  0.58544505  0.68843957  1
  Se  Se251  1  0.41176438  0.91691372  0.19679527  1
  Se  Se252  1  0.42810871  0.91210094  0.69311421  1
  Se  Se253  1  0.74913814  0.25535735  0.20125355  1
  Se  Se254  1  0.75433075  0.23977638  0.68486241  1
  Se  Se255  1  0.75550132  0.58412186  0.19997627  1
  Se  Se256  1  0.75310540  0.56999689  0.69145244  1
  Se  Se257  1  0.73819039  0.92968896  0.19703332  1
  Se  Se258  1  0.76604561  0.90480885  0.69302750  1
