# generated using pymatgen
data_In86Cu29Se144
_symmetry_space_group_name_H-M   'P 1'
_cell_length_a   17.66373463
_cell_length_b   17.66444442
_cell_length_c   23.53214050
_cell_angle_alpha   90.02382240
_cell_angle_beta   90.01578807
_cell_angle_gamma   90.01373730
_symmetry_Int_Tables_number   1
_chemical_formula_structural   In86Cu29Se144
_chemical_formula_sum   'In86 Cu29 Se144'
_cell_volume   7342.49873722
_cell_formula_units_Z   1
loop_
 _symmetry_equiv_pos_site_id
 _symmetry_equiv_pos_as_xyz
  1  'x, y, z'
loop_
 _atom_site_type_symbol
 _atom_site_label
 _atom_site_symmetry_multiplicity
 _atom_site_fract_x
 _atom_site_fract_y
 _atom_site_fract_z
 _atom_site_occupancy
  In  In0  1  0.00550935  0.15037348  0.11776183  1
  In  In1  1  -0.00195034  0.16569545  0.62719480  1
  In  In2  1  0.01431435  0.49901972  0.12317910  1
  In  In3  1  -0.00483578  0.51067642  0.63558327  1
  In  In4  1  -0.00546358  0.83207807  0.12183002  1
  In  In5  1  -0.00243821  0.82987332  0.63088478  1
  In  In6  1  0.33037481  0.17234451  0.12479254  1
  In  In7  1  0.31680232  0.16434504  0.60757229  1
  In  In8  1  0.33314821  0.49911727  0.12602411  1
  In  In9  1  0.33792675  0.50051369  0.61898218  1
  In  In10  1  0.32587772  0.82307270  0.12702623  1
  In  In11  1  0.32608898  0.83290107  0.62058482  1
  In  In12  1  0.65476321  0.16862982  0.13632155  1
  In  In13  1  0.66661846  0.16703255  0.61587545  1
  In  In14  1  0.66911936  0.50987257  0.12618273  1
  In  In15  1  0.65909094  0.49794374  0.61325629  1
  In  In16  1  0.67206079  0.82450833  0.13809339  1
  In  In17  1  0.66755235  0.83244803  0.61526805  1
  In  In18  1  0.17176692  -0.00583228  0.38400444  1
  In  In19  1  0.16811978  0.00397743  0.86587896  1
  In  In20  1  0.17082519  0.32267827  0.37725558  1
  In  In21  1  0.16121169  0.34533956  0.87790019  1
  In  In22  1  0.17441102  0.67260046  0.37254752  1
  In  In23  1  0.16886402  0.66107549  0.87008677  1
  In  In24  1  0.50688706  -0.01495191  0.38565119  1
  In  In25  1  0.49972278  0.00786294  0.86635064  1
  In  In26  1  0.47593183  0.35609257  0.39252754  1
  In  In27  1  0.50440577  0.34560030  0.87850119  1
  In  In28  1  0.51098540  0.66041407  0.36766699  1
  In  In29  1  0.48850097  0.66181065  0.87489569  1
  In  In30  1  0.83145434  0.00170156  0.38277038  1
  In  In31  1  0.83899321  -0.01121666  0.87865875  1
  In  In32  1  0.83052914  0.33378084  0.38403871  1
  In  In33  1  0.83638300  0.32880115  0.87293589  1
  In  In34  1  0.83440246  0.67227071  0.37573387  1
  In  In35  1  0.84747235  0.67062878  0.87662351  1
  In  In36  1  0.00556617  0.15928198  0.38759648  1
  In  In37  1  0.00865673  0.17891945  0.86245301  1
  In  In38  1  -0.01235830  0.50237241  0.37652631  1
  In  In39  1  0.02106012  0.51657951  0.85284992  1
  In  In40  1  0.01227018  0.82016614  0.38643099  1
  In  In41  1  -0.00516557  0.83157876  0.86732887  1
  In  In42  1  0.32914121  0.17518086  0.38277906  1
  In  In43  1  0.33228188  0.15296784  0.86637736  1
  In  In44  1  0.34726762  0.50979966  0.36181454  1
  In  In45  1  0.32842376  0.50756281  0.88288085  1
  In  In46  1  0.36761573  0.77292730  0.42759562  1
  In  In47  1  0.32586416  0.82523733  0.86005670  1
  In  In48  1  0.67065437  0.15850710  0.38065159  1
  In  In49  1  0.66673584  0.17065406  0.87658249  1
  In  In50  1  0.65494733  0.51569832  0.37639115  1
  In  In51  1  0.65761462  0.49769561  0.88522703  1
  In  In52  1  0.66893743  0.83231069  0.37460235  1
  In  In53  1  0.67383127  0.84632171  0.88170741  1
  In  In54  1  0.15563927  0.00209810  0.11608811  1
  In  In55  1  0.16290368  0.00101822  0.62662147  1
  In  In56  1  0.17136358  0.34087540  0.11426272  1
  In  In57  1  0.17089254  0.32575972  0.62431502  1
  In  In58  1  0.18116262  0.65470524  0.13509451  1
  In  In59  1  0.15505252  0.66867959  0.63190120  1
  In  In60  1  0.50105020  0.01126994  0.13429625  1
  In  In61  1  0.48571640  -0.01206407  0.61172612  1
  In  In62  1  0.48504480  0.32751901  0.12756592  1
  In  In63  1  0.48781176  0.33206791  0.60179741  1
  In  In64  1  0.50784498  0.65118815  0.14153607  1
  In  In65  1  0.48809050  0.66076002  0.60879925  1
  In  In66  1  0.83746490  -0.01652871  0.12645303  1
  In  In67  1  0.83581086  -0.00166670  0.62707850  1
  In  In68  1  0.83183434  0.33715184  0.12704345  1
  In  In69  1  0.83837591  0.34141573  0.61905965  1
  In  In70  1  0.82850364  0.67800323  0.13208911  1
  In  In71  1  0.84756694  0.67859278  0.61700557  1
  In  In72  1  0.65471391  0.33902923  0.26031009  1
  In  In73  1  0.00039162  -0.00500788  0.24799568  1
  In  In74  1  0.50100264  0.83419035  0.00185284  1
  In  In75  1  0.67245698  0.66938345  0.74615647  1
  In  In76  1  0.00305412  0.33157136  0.24474529  1
  In  In77  1  0.33164771  0.33530707  0.74164897  1
  In  In78  1  0.16859671  0.49818422  0.50284052  1
  In  In79  1  0.66377534  0.33565399  0.75222073  1
  In  In80  1  0.16122163  0.83084507  -0.01043471  1
  In  In81  1  0.49665201  0.17265611  0.00185459  1
  In  In82  1  0.83298677  0.16743026  -0.00249467  1
  In  In83  1  0.66656189  -0.00166197  0.74029510  1
  In  In84  1  0.83906091  0.50263376  0.00103462  1
  In  In85  1  0.33384149  -0.00970462  0.25832226  1
  Cu  Cu86  1  0.67057832  -0.00447239  0.50087822  1
  Cu  Cu87  1  0.49183321  0.16301643  0.74293557  1
  Cu  Cu88  1  0.83472223  0.83345870  0.25372726  1
  Cu  Cu89  1  0.17418799  0.16649889  0.25163906  1
  Cu  Cu90  1  0.83342887  0.16334725  0.74769702  1
  Cu  Cu91  1  0.00075348  0.33508427  -0.00799386  1
  Cu  Cu92  1  0.82957287  0.51473290  0.25322363  1
  Cu  Cu93  1  -0.00254520  0.33092634  0.50264538  1
  Cu  Cu94  1  0.83082285  0.16681650  0.26161996  1
  Cu  Cu95  1  0.83491665  0.50313954  0.74409388  1
  Cu  Cu96  1  0.66915935  0.67638014  0.01103529  1
  Cu  Cu97  1  0.50189213  0.16410641  0.25876433  1
  Cu  Cu98  1  -0.00312311  0.66335056  0.50695713  1
  Cu  Cu99  1  0.16598880  0.83782917  0.74670707  1
  Cu  Cu100  1  0.33024923  -0.00385645  -0.01107889  1
  Cu  Cu101  1  0.16807574  0.16643686  0.74306061  1
  Cu  Cu102  1  0.67101059  -0.00092334  0.00745366  1
  Cu  Cu103  1  0.16839607  0.82644579  0.25961513  1
  Cu  Cu104  1  0.67064157  0.32769296  0.49446305  1
  Cu  Cu105  1  0.00506922  0.66820548  -0.00625808  1
  Cu  Cu106  1  0.32802087  0.33182408  0.00220573  1
  Cu  Cu107  1  0.32355499  0.00574514  0.50016212  1
  Cu  Cu108  1  0.49737470  0.82972733  0.26351219  1
  Cu  Cu109  1  0.67103214  0.66634669  0.49427808  1
  Cu  Cu110  1  0.33782103  0.65572898  0.00541808  1
  Cu  Cu111  1  0.49845184  0.50243022  0.74167394  1
  Cu  Cu112  1  -0.00369740  0.00003156  0.50924899  1
  Cu  Cu113  1  0.16898328  0.49462894  0.24725260  1
  Cu  Cu114  1  0.49695216  0.82843474  0.74205682  1
  Se  Se115  1  0.09234061  0.08977255  0.04376716  1
  Se  Se116  1  0.08203900  0.08598203  0.55727488  1
  Se  Se117  1  0.08253511  0.41875336  0.04716370  1
  Se  Se118  1  0.07382754  0.41412723  0.56324653  1
  Se  Se119  1  0.08633210  0.74078993  0.06046781  1
  Se  Se120  1  0.07855561  0.74848795  0.55860920  1
  Se  Se121  1  0.40826669  0.07218724  0.05561934  1
  Se  Se122  1  0.41499195  0.08587546  0.54843111  1
  Se  Se123  1  0.41211559  0.41190013  0.05606398  1
  Se  Se124  1  0.42274232  0.43533861  0.54401339  1
  Se  Se125  1  0.41671112  0.74030624  0.06213946  1
  Se  Se126  1  0.41504806  0.76084448  0.54875590  1
  Se  Se127  1  0.74506461  0.08511146  0.06656928  1
  Se  Se128  1  0.75192406  0.07759366  0.55676164  1
  Se  Se129  1  0.74439349  0.41342789  0.05782884  1
  Se  Se130  1  0.74777392  0.41397886  0.55148398  1
  Se  Se131  1  0.75365119  0.76059940  0.05861380  1
  Se  Se132  1  0.75202563  0.74819235  0.55066738  1
  Se  Se133  1  0.24714766  0.24358532  0.05194961  1
  Se  Se134  1  0.26476211  0.27665822  0.54954157  1
  Se  Se135  1  0.24666383  0.57784950  0.05479701  1
  Se  Se136  1  0.25049409  0.59592234  0.55999121  1
  Se  Se137  1  0.25663349  0.91702803  0.05352469  1
  Se  Se138  1  0.24429402  0.92094790  0.55501519  1
  Se  Se139  1  0.59036833  0.25726384  0.06066472  1
  Se  Se140  1  0.58467319  0.24784679  0.54750349  1
  Se  Se141  1  0.58478978  0.59061098  0.05806831  1
  Se  Se142  1  0.58331521  0.58592555  0.54613971  1
  Se  Se143  1  0.58617408  0.92354003  0.06625808  1
  Se  Se144  1  0.58163204  0.91239131  0.54923261  1
  Se  Se145  1  0.92451605  0.26037426  0.05861397  1
  Se  Se146  1  0.91521405  0.24713945  0.55628542  1
  Se  Se147  1  0.92524524  0.59454578  0.06147537  1
  Se  Se148  1  0.91487637  0.57490684  0.55580850  1
  Se  Se149  1  0.94061006  0.93802433  0.05841376  1
  Se  Se150  1  0.91551526  0.91236144  0.55947537  1
  Se  Se151  1  0.08472610  0.25236667  0.44953670  1
  Se  Se152  1  0.08420649  0.25078413  0.94120774  1
  Se  Se153  1  0.07656164  0.58696081  0.44259985  1
  Se  Se154  1  0.08367878  0.58326329  0.93990115  1
  Se  Se155  1  0.07723544  0.92196318  0.44959145  1
  Se  Se156  1  0.07602769  0.92590454  0.93502135  1
  Se  Se157  1  0.42452924  0.24301126  0.44898732  1
  Se  Se158  1  0.40575889  0.25527478  0.93591627  1
  Se  Se159  1  0.40857855  0.59986421  0.43599871  1
  Se  Se160  1  0.42461044  0.57758224  0.95091316  1
  Se  Se161  1  0.39854471  0.92021382  0.44226149  1
  Se  Se162  1  0.41458210  0.91798001  0.93308675  1
  Se  Se163  1  0.75632227  0.24051580  0.44827462  1
  Se  Se164  1  0.73890187  0.26388146  0.94536988  1
  Se  Se165  1  0.75377842  0.58196046  0.44166368  1
  Se  Se166  1  0.74473012  0.59613987  0.94426346  1
  Se  Se167  1  0.75187672  0.91132711  0.44683401  1
  Se  Se168  1  0.75610027  0.91902154  0.95481258  1
  Se  Se169  1  0.24130674  0.09241898  0.44765607  1
  Se  Se170  1  0.24862613  0.08318829  0.93983618  1
  Se  Se171  1  0.25456957  0.42281262  0.43206811  1
  Se  Se172  1  0.25009892  0.41788688  0.94718733  1
  Se  Se173  1  0.22536257  0.76050498  0.45118433  1
  Se  Se174  1  0.26473118  0.74140441  0.94329375  1
  Se  Se175  1  0.58550584  0.07794395  0.44909746  1
  Se  Se176  1  0.58995477  0.07446374  0.94532528  1
  Se  Se177  1  0.59147863  0.41650734  0.44343608  1
  Se  Se178  1  0.58032426  0.41662868  0.95388335  1
  Se  Se179  1  0.58646056  0.74610288  0.44051051  1
  Se  Se180  1  0.59067176  0.74499366  0.94010123  1
  Se  Se181  1  0.91538041  0.08228862  0.45174455  1
  Se  Se182  1  0.92328791  0.08926614  0.93369751  1
  Se  Se183  1  0.91732267  0.41624678  0.44859640  1
  Se  Se184  1  0.92373809  0.41918985  0.93405889  1
  Se  Se185  1  0.91657341  0.74734846  0.45058994  1
  Se  Se186  1  0.92126190  0.75559563  0.94776851  1
  Se  Se187  1  0.25466721  0.25045034  0.30358199  1
  Se  Se188  1  0.24623556  0.24665730  0.80617334  1
  Se  Se189  1  0.24468898  0.58159471  0.30295543  1
  Se  Se190  1  0.27031839  0.59496408  0.80780810  1
  Se  Se191  1  0.24958141  0.90202789  0.31915461  1
  Se  Se192  1  0.25244345  0.92108541  0.79862818  1
  Se  Se193  1  0.57466561  0.24558672  0.32127371  1
  Se  Se194  1  0.56801289  0.24048731  0.80713315  1
  Se  Se195  1  0.58333615  0.57787200  0.29401362  1
  Se  Se196  1  0.58031296  0.57590983  0.80522093  1
  Se  Se197  1  0.58423924  0.91681576  0.30668726  1
  Se  Se198  1  0.57716442  0.90594859  0.80416688  1
  Se  Se199  1  0.91885737  0.24555051  0.31371515  1
  Se  Se200  1  0.91187532  0.25327918  0.79878301  1
  Se  Se201  1  0.91906858  0.59040295  0.30520086  1
  Se  Se202  1  0.91261639  0.58745785  0.80038053  1
  Se  Se203  1  0.91763033  0.90946568  0.31497545  1
  Se  Se204  1  0.91301169  0.91885008  0.80243372  1
  Se  Se205  1  0.09070469  0.08670081  0.30850574  1
  Se  Se206  1  0.08409302  0.08564628  0.79773785  1
  Se  Se207  1  0.08706996  0.41929569  0.31068450  1
  Se  Se208  1  0.07770958  0.40369304  0.79967112  1
  Se  Se209  1  0.07787075  0.74442476  0.30538001  1
  Se  Se210  1  0.09097656  0.75408826  0.80717306  1
  Se  Se211  1  0.42045163  0.08349606  0.31708874  1
  Se  Se212  1  0.41275778  0.07531225  0.79397502  1
  Se  Se213  1  0.41856476  0.40998419  0.30132885  1
  Se  Se214  1  0.42201139  0.42295386  0.80490622  1
  Se  Se215  1  0.41331417  0.75745021  0.32123243  1
  Se  Se216  1  0.42054793  0.74513929  0.80023061  1
  Se  Se217  1  0.75051261  0.07749698  0.30842193  1
  Se  Se218  1  0.74996058  0.08694691  0.80827315  1
  Se  Se219  1  0.75780100  0.42449575  0.31105578  1
  Se  Se220  1  0.75332015  0.43093423  0.80985986  1
  Se  Se221  1  0.75002126  0.74909277  0.30410776  1
  Se  Se222  1  0.75387371  0.75737592  0.81315379  1
  Se  Se223  1  0.24511538  0.07802473  0.19120927  1
  Se  Se224  1  0.25333991  0.08784212  0.68887829  1
  Se  Se225  1  0.24823397  0.41085172  0.19190503  1
  Se  Se226  1  0.24119328  0.42962666  0.68908726  1
  Se  Se227  1  0.25321512  0.74726071  0.20278679  1
  Se  Se228  1  0.24669117  0.75372250  0.69309903  1
  Se  Se229  1  0.58642090  0.08024295  0.20775697  1
  Se  Se230  1  0.57288677  0.08595767  0.68309622  1
  Se  Se231  1  0.57681070  0.41960774  0.18708527  1
  Se  Se232  1  0.57298730  0.41430760  0.68469643  1
  Se  Se233  1  0.57847805  0.75154199  0.20272027  1
  Se  Se234  1  0.57673137  0.74904854  0.68343474  1
  Se  Se235  1  0.90869812  0.09204201  0.19409571  1
  Se  Se236  1  0.91677269  0.08067320  0.69638849  1
  Se  Se237  1  0.90823390  0.43092852  0.19368359  1
  Se  Se238  1  0.91503055  0.41306540  0.69625142  1
  Se  Se239  1  0.92014534  0.75554632  0.19698325  1
  Se  Se240  1  0.91777352  0.74306164  0.69840361  1
  Se  Se241  1  0.09087664  0.23798574  0.18659290  1
  Se  Se242  1  0.08421781  0.25059175  0.69318298  1
  Se  Se243  1  0.08344926  0.58017360  0.19822728  1
  Se  Se244  1  0.08422416  0.58202502  0.70334612  1
  Se  Se245  1  0.09743912  0.90591002  0.19254258  1
  Se  Se246  1  0.08042144  0.91959920  0.69572998  1
  Se  Se247  1  0.41767026  0.23795448  0.19890156  1
  Se  Se248  1  0.42021139  0.24584042  0.68121773  1
  Se  Se249  1  0.39686551  0.59321202  0.19633191  1
  Se  Se250  1  0.41844602  0.58504452  0.68823325  1
  Se  Se251  1  0.42478869  0.90447457  0.19179782  1
  Se  Se252  1  0.41481247  0.91229123  0.68991332  1
  Se  Se253  1  0.75499808  0.24997161  0.19983161  1
  Se  Se254  1  0.75057060  0.24562139  0.69150317  1
  Se  Se255  1  0.74603140  0.59154809  0.19700583  1
  Se  Se256  1  0.75229295  0.57653841  0.68293515  1
  Se  Se257  1  0.75221586  0.91805821  0.20073240  1
  Se  Se258  1  0.75576549  0.89989914  0.69246072  1
