# generated using pymatgen
data_In86Cu29Se144
_symmetry_space_group_name_H-M   'P 1'
_cell_length_a   17.58212319
_cell_length_b   17.58775268
_cell_length_c   23.44033982
_cell_angle_alpha   89.97218055
_cell_angle_beta   90.00282990
_cell_angle_gamma   90.00515737
_symmetry_Int_Tables_number   1
_chemical_formula_structural   In86Cu29Se144
_chemical_formula_sum   'In86 Cu29 Se144'
_cell_volume   7248.45619325
_cell_formula_units_Z   1
loop_
 _symmetry_equiv_pos_site_id
 _symmetry_equiv_pos_as_xyz
  1  'x, y, z'
loop_
 _atom_site_type_symbol
 _atom_site_label
 _atom_site_symmetry_multiplicity
 _atom_site_fract_x
 _atom_site_fract_y
 _atom_site_fract_z
 _atom_site_occupancy
  In  In0  1  0.00463184  0.17320254  0.12867848  1
  In  In1  1  0.00658232  0.15788990  0.62409698  1
  In  In2  1  0.00869237  0.48403260  0.13344482  1
  In  In3  1  0.01757436  0.50056336  0.62153089  1
  In  In4  1  0.00972373  0.84386624  0.11931868  1
  In  In5  1  -0.00781109  0.82590538  0.62059075  1
  In  In6  1  0.33206056  0.17597060  0.12204899  1
  In  In7  1  0.31961866  0.16668644  0.62501184  1
  In  In8  1  0.32139732  0.50839574  0.13618933  1
  In  In9  1  0.32889508  0.51005714  0.62653208  1
  In  In10  1  0.32669640  0.82971672  0.11845255  1
  In  In11  1  0.33123222  0.83304970  0.62658301  1
  In  In12  1  0.66149467  0.16448434  0.12201920  1
  In  In13  1  0.67136099  0.17019369  0.63081584  1
  In  In14  1  0.66273258  0.49152634  0.12478599  1
  In  In15  1  0.65330087  0.49589504  0.62862150  1
  In  In16  1  0.67372047  0.84618919  0.11347467  1
  In  In17  1  0.66873770  0.83791231  0.61888493  1
  In  In18  1  0.15796714  0.00702002  0.37677812  1
  In  In19  1  0.17504920  -0.01202284  0.88152145  1
  In  In20  1  0.16585924  0.32857909  0.36578986  1
  In  In21  1  0.18652880  0.32851536  0.89831900  1
  In  In22  1  0.17873998  0.65935765  0.38158511  1
  In  In23  1  0.16950060  0.67090762  0.87339250  1
  In  In24  1  0.49526519  -0.01701900  0.37071605  1
  In  In25  1  0.49544654  0.00078567  0.87800243  1
  In  In26  1  0.49266372  0.32719522  0.36585489  1
  In  In27  1  0.49900765  0.31602421  0.88891947  1
  In  In28  1  0.48875300  0.67741803  0.37955027  1
  In  In29  1  0.49243751  0.68852163  0.87235674  1
  In  In30  1  0.83545544  -0.00126186  0.36951989  1
  In  In31  1  0.83748268  0.00000281  0.88597346  1
  In  In32  1  0.83350580  0.32425348  0.36733152  1
  In  In33  1  0.82409572  0.33278049  0.88387998  1
  In  In34  1  0.84689073  0.67239655  0.37579618  1
  In  In35  1  0.85059002  0.66782345  0.87198872  1
  In  In36  1  0.02297479  0.17700707  0.35291251  1
  In  In37  1  0.00365694  0.16523881  0.88841399  1
  In  In38  1  0.03625369  0.48983726  0.36366805  1
  In  In39  1  0.01007977  0.51461666  0.87312963  1
  In  In40  1  -0.00325990  0.84318894  0.38038891  1
  In  In41  1  0.00642459  0.83084099  0.87751545  1
  In  In42  1  0.31942430  0.17548388  0.37490565  1
  In  In43  1  0.34225567  0.15680787  0.89021693  1
  In  In44  1  0.29457384  0.47304447  0.34087344  1
  In  In45  1  0.31801418  0.49972333  0.87839651  1
  In  In46  1  0.33715750  0.82568035  0.37919449  1
  In  In47  1  0.33479212  0.83323522  0.86836590  1
  In  In48  1  0.67232234  0.16614592  0.36432981  1
  In  In49  1  0.65875200  0.17578975  0.89102525  1
  In  In50  1  0.66880138  0.49033955  0.37263201  1
  In  In51  1  0.67241443  0.49237057  0.87594887  1
  In  In52  1  0.66309286  0.84221324  0.37672785  1
  In  In53  1  0.66253552  0.84058805  0.87933383  1
  In  In54  1  0.16523872  -0.00069223  0.12590065  1
  In  In55  1  0.17852589  0.00740607  0.62056600  1
  In  In56  1  0.17284232  0.33398402  0.12710837  1
  In  In57  1  0.17354910  0.33357249  0.60717243  1
  In  In58  1  0.16866246  0.67120041  0.12525496  1
  In  In59  1  0.16321016  0.66831764  0.62612298  1
  In  In60  1  0.50413252  0.01162801  0.11728949  1
  In  In61  1  0.49532605  -0.01955313  0.62472627  1
  In  In62  1  0.50881187  0.32228691  0.12785212  1
  In  In63  1  0.49989368  0.34424096  0.62941568  1
  In  In64  1  0.48537345  0.66645785  0.11994275  1
  In  In65  1  0.48335405  0.66934501  0.63208149  1
  In  In66  1  0.83397701  -0.00040334  0.12386862  1
  In  In67  1  0.84239103  -0.00582016  0.62630178  1
  In  In68  1  0.83215217  0.32048675  0.12525273  1
  In  In69  1  0.82604539  0.32104862  0.62696382  1
  In  In70  1  0.82696994  0.67390243  0.11948084  1
  In  In71  1  0.83697227  0.68561290  0.62962711  1
  In  In72  1  0.49311491  0.16356631  0.48734779  1
  In  In73  1  0.66756943  0.66631600  0.74971423  1
  In  In74  1  0.49533784  0.49813953  0.00281489  1
  In  In75  1  0.66467232  0.00157072  0.74963328  1
  In  In76  1  0.83830914  0.50262133  0.49215353  1
  In  In77  1  0.33576052  0.33496997  0.75584454  1
  In  In78  1  0.84277395  0.15772901  0.49974975  1
  In  In79  1  0.65874002  0.66510928  0.24940489  1
  In  In80  1  0.33137286  0.00593200  0.24427550  1
  In  In81  1  0.00365487  0.34079911  0.75222487  1
  In  In82  1  0.84466554  0.50074780  0.00823245  1
  In  In83  1  0.00462565  0.66562074  0.25224339  1
  In  In84  1  0.00234368  -0.00411875  0.75377218  1
  In  In85  1  0.48782821  0.50731814  0.50411154  1
  Cu  Cu86  1  0.16901763  0.83337397  0.24794672  1
  Cu  Cu87  1  0.32831428  0.67491578  -0.00132550  1
  Cu  Cu88  1  0.66113557  0.33228058  0.50113107  1
  Cu  Cu89  1  0.49817714  0.16536211  0.76208011  1
  Cu  Cu90  1  0.82857800  0.15395474  0.24058959  1
  Cu  Cu91  1  0.49860776  0.49797022  0.24219160  1
  Cu  Cu92  1  0.16618218  0.50498939  0.75237203  1
  Cu  Cu93  1  0.00931786  0.67158469  -0.00208677  1
  Cu  Cu94  1  0.66163439  0.00267691  0.00083881  1
  Cu  Cu95  1  0.32784828  -0.00229788  0.00151312  1
  Cu  Cu96  1  0.82493161  0.17360088  0.75823635  1
  Cu  Cu97  1  0.16856504  0.16804055  0.74995925  1
  Cu  Cu98  1  0.50243244  0.83406427  0.24918313  1
  Cu  Cu99  1  0.66547793  0.67847168  0.49980523  1
  Cu  Cu100  1  0.00926450  0.33121914  0.48875882  1
  Cu  Cu101  1  0.83523857  0.49700579  0.75457139  1
  Cu  Cu102  1  0.00778971  0.00049517  0.49851770  1
  Cu  Cu103  1  0.66946026  0.67310596  -0.00557863  1
  Cu  Cu104  1  0.66885271  -0.00922470  0.49541546  1
  Cu  Cu105  1  0.00385094  0.67165099  0.49883661  1
  Cu  Cu106  1  0.50387108  0.49496378  0.75280351  1
  Cu  Cu107  1  0.50380069  0.16335745  0.24525633  1
  Cu  Cu108  1  0.32747851  0.66749968  0.50298016  1
  Cu  Cu109  1  0.83016276  0.49211616  0.25462485  1
  Cu  Cu110  1  0.33503760  -0.00673628  0.49813947  1
  Cu  Cu111  1  0.16666319  0.83023109  0.75001677  1
  Cu  Cu112  1  -0.00350138  0.00267221  0.00669895  1
  Cu  Cu113  1  0.83419696  0.83874128  0.24752780  1
  Cu  Cu114  1  0.00604611  0.33461796  0.00769819  1
  Se  Se115  1  0.08186194  0.08434546  0.05919685  1
  Se  Se116  1  0.08905449  0.08618917  0.55180675  1
  Se  Se117  1  0.09012048  0.42078566  0.05582535  1
  Se  Se118  1  0.08511620  0.41864477  0.54529046  1
  Se  Se119  1  0.09026184  0.75480671  0.05446117  1
  Se  Se120  1  0.08565388  0.75342491  0.55442949  1
  Se  Se121  1  0.40846227  0.08477263  0.05390501  1
  Se  Se122  1  0.41355566  0.07771169  0.55811436  1
  Se  Se123  1  0.41370548  0.41820594  0.07228005  1
  Se  Se124  1  0.40174791  0.40785417  0.56004210  1
  Se  Se125  1  0.41765111  0.75580882  0.04853387  1
  Se  Se126  1  0.41431964  0.74854000  0.55554809  1
  Se  Se127  1  0.74814023  0.08108064  0.05547887  1
  Se  Se128  1  0.74208117  0.07372112  0.55915408  1
  Se  Se129  1  0.74498890  0.40882577  0.05433418  1
  Se  Se130  1  0.74508742  0.41414819  0.55661218  1
  Se  Se131  1  0.75404432  0.75605529  0.04712444  1
  Se  Se132  1  0.75461478  0.75356861  0.55341187  1
  Se  Se133  1  0.23959616  0.24576479  0.05348751  1
  Se  Se134  1  0.24989130  0.23988815  0.54692016  1
  Se  Se135  1  0.25387446  0.58914656  0.05702867  1
  Se  Se136  1  0.24380390  0.58254099  0.55521659  1
  Se  Se137  1  0.24263188  0.91580531  0.05409172  1
  Se  Se138  1  0.25017349  0.91379685  0.55384405  1
  Se  Se139  1  0.57703145  0.24229656  0.05152844  1
  Se  Se140  1  0.58145793  0.25025661  0.55881942  1
  Se  Se141  1  0.59334265  0.59265790  0.05723008  1
  Se  Se142  1  0.58775591  0.59594806  0.55993431  1
  Se  Se143  1  0.57542923  0.91647359  0.04990013  1
  Se  Se144  1  0.58121893  0.91391780  0.54960441  1
  Se  Se145  1  0.91953668  0.24895457  0.05424470  1
  Se  Se146  1  0.92898240  0.25952808  0.55614556  1
  Se  Se147  1  0.93509434  0.59335073  0.06583824  1
  Se  Se148  1  0.92155936  0.58967371  0.55896799  1
  Se  Se149  1  0.91265698  0.91263919  0.05349482  1
  Se  Se150  1  0.91979442  0.92051379  0.55164341  1
  Se  Se151  1  0.08830888  0.24236700  0.43861837  1
  Se  Se152  1  0.08798731  0.24827980  0.95467662  1
  Se  Se153  1  0.07763784  0.58458450  0.44135201  1
  Se  Se154  1  0.09178122  0.58600670  0.94693880  1
  Se  Se155  1  0.09092198  0.91410511  0.44796310  1
  Se  Se156  1  0.07692818  0.92089939  0.94791220  1
  Se  Se157  1  0.40265172  0.26654520  0.44412392  1
  Se  Se158  1  0.39099589  0.26829006  0.95204968  1
  Se  Se159  1  0.39955063  0.58564136  0.43775937  1
  Se  Se160  1  0.41217171  0.59369327  0.94019634  1
  Se  Se161  1  0.42104185  0.90984863  0.44803772  1
  Se  Se162  1  0.40995336  0.91649079  0.94358027  1
  Se  Se163  1  0.74457875  0.25080576  0.44556709  1
  Se  Se164  1  0.76181600  0.24013507  0.95299729  1
  Se  Se165  1  0.73940112  0.59464607  0.43816852  1
  Se  Se166  1  0.75252171  0.58778395  0.94147715  1
  Se  Se167  1  0.75872544  0.91496971  0.44239296  1
  Se  Se168  1  0.74681956  0.91846782  0.94889961  1
  Se  Se169  1  0.25558875  0.07770087  0.44256340  1
  Se  Se170  1  0.24222747  0.08254582  0.95042715  1
  Se  Se171  1  0.23798047  0.42239971  0.43362664  1
  Se  Se172  1  0.25418358  0.42797321  0.95997782  1
  Se  Se173  1  0.24653190  0.75437833  0.44981102  1
  Se  Se174  1  0.24872825  0.75782890  0.94162412  1
  Se  Se175  1  0.59282222  0.07412266  0.43569761  1
  Se  Se176  1  0.57364095  0.08385075  0.94947061  1
  Se  Se177  1  0.57952421  0.41262773  0.44389812  1
  Se  Se178  1  0.59234458  0.40919359  0.94798126  1
  Se  Se179  1  0.58104721  0.75531763  0.44315771  1
  Se  Se180  1  0.58030501  0.75453425  0.94612972  1
  Se  Se181  1  0.93349088  0.08154950  0.43370948  1
  Se  Se182  1  0.91385708  0.08744767  0.95392843  1
  Se  Se183  1  0.92587070  0.41109287  0.43165462  1
  Se  Se184  1  0.93140459  0.41452433  0.94062834  1
  Se  Se185  1  0.91661710  0.75497040  0.44939597  1
  Se  Se186  1  0.91964488  0.75026431  0.94724605  1
  Se  Se187  1  0.25647431  0.25400699  0.29691623  1
  Se  Se188  1  0.24682585  0.24388483  0.81454601  1
  Se  Se189  1  0.25372903  0.60114821  0.29838123  1
  Se  Se190  1  0.25295714  0.58623056  0.80365374  1
  Se  Se191  1  0.25017123  0.91304021  0.30951412  1
  Se  Se192  1  0.24747729  0.91811443  0.80134381  1
  Se  Se193  1  0.58405030  0.24941939  0.30142915  1
  Se  Se194  1  0.58233473  0.24871355  0.81208700  1
  Se  Se195  1  0.57125118  0.57492401  0.31197812  1
  Se  Se196  1  0.57881656  0.57892169  0.81439947  1
  Se  Se197  1  0.58765074  0.91758431  0.29922673  1
  Se  Se198  1  0.57261269  0.91024098  0.80473024  1
  Se  Se199  1  0.90772178  0.23642553  0.29946682  1
  Se  Se200  1  0.91799081  0.24636637  0.81270535  1
  Se  Se201  1  0.91537938  0.56840859  0.31182806  1
  Se  Se202  1  0.92246752  0.58216164  0.79951605  1
  Se  Se203  1  0.92105544  0.91599773  0.30196858  1
  Se  Se204  1  0.90728705  0.91083798  0.81065506  1
  Se  Se205  1  0.08436222  0.06963947  0.29453489  1
  Se  Se206  1  0.08974750  0.08986324  0.81201059  1
  Se  Se207  1  0.06525529  0.38510849  0.29093095  1
  Se  Se208  1  0.10052137  0.41590974  0.81634288  1
  Se  Se209  1  0.08985162  0.75733079  0.31332120  1
  Se  Se210  1  0.08166043  0.74945120  0.80374594  1
  Se  Se211  1  0.42275391  0.09000196  0.31098433  1
  Se  Se212  1  0.41082396  0.08274760  0.80894048  1
  Se  Se213  1  0.41713414  0.41437993  0.29687404  1
  Se  Se214  1  0.42560986  0.42103684  0.81906240  1
  Se  Se215  1  0.41654540  0.75349155  0.30146770  1
  Se  Se216  1  0.41051043  0.74963528  0.79554030  1
  Se  Se217  1  0.74771753  0.07430916  0.29964942  1
  Se  Se218  1  0.75040312  0.08754949  0.81626026  1
  Se  Se219  1  0.74429791  0.40681355  0.30273838  1
  Se  Se220  1  0.75413147  0.41249693  0.80583595  1
  Se  Se221  1  0.75677192  0.75242997  0.30612383  1
  Se  Se222  1  0.75354736  0.75498083  0.81213718  1
  Se  Se223  1  0.23807057  0.09871945  0.19331050  1
  Se  Se224  1  0.25213978  0.08213699  0.69990028  1
  Se  Se225  1  0.25140481  0.41292604  0.20154806  1
  Se  Se226  1  0.23980706  0.41677137  0.69208541  1
  Se  Se227  1  0.25275471  0.75182308  0.19523309  1
  Se  Se228  1  0.24942591  0.74661230  0.69516820  1
  Se  Se229  1  0.58568491  0.07710678  0.19509031  1
  Se  Se230  1  0.57039778  0.09071939  0.69044193  1
  Se  Se231  1  0.58665954  0.41256219  0.19718102  1
  Se  Se232  1  0.58791475  0.40967716  0.70375326  1
  Se  Se233  1  0.57942386  0.75635583  0.18390057  1
  Se  Se234  1  0.58017266  0.75754810  0.69016665  1
  Se  Se235  1  0.92176236  0.07938955  0.19097274  1
  Se  Se236  1  0.90722306  0.09513164  0.69766560  1
  Se  Se237  1  0.90653426  0.41422361  0.19264412  1
  Se  Se238  1  0.91096607  0.42202452  0.68531257  1
  Se  Se239  1  0.91327514  0.75415202  0.19037136  1
  Se  Se240  1  0.92229282  0.75423939  0.70111891  1
  Se  Se241  1  0.06831028  0.27448402  0.19524611  1
  Se  Se242  1  0.09158929  0.24908034  0.68960162  1
  Se  Se243  1  0.09607335  0.57401285  0.19745882  1
  Se  Se244  1  0.08114942  0.58439138  0.69792533  1
  Se  Se245  1  0.08411754  0.91681745  0.19766128  1
  Se  Se246  1  0.09040523  0.91403666  0.68748645  1
  Se  Se247  1  0.41784787  0.24684630  0.19601557  1
  Se  Se248  1  0.42260989  0.24271252  0.69340463  1
  Se  Se249  1  0.41663192  0.58983457  0.19778054  1
  Se  Se250  1  0.41667258  0.57509536  0.70112023  1
  Se  Se251  1  0.42193726  0.91311427  0.18705327  1
  Se  Se252  1  0.40929483  0.91718732  0.69769955  1
  Se  Se253  1  0.74465511  0.24441622  0.19437771  1
  Se  Se254  1  0.74263913  0.25547233  0.70365193  1
  Se  Se255  1  0.75766832  0.57672431  0.19215023  1
  Se  Se256  1  0.75785007  0.57466966  0.68786554  1
  Se  Se257  1  0.74794181  0.91642972  0.19304969  1
  Se  Se258  1  0.75878667  0.90908070  0.69512367  1
