# generated using pymatgen
data_In86Cu29Se144
_symmetry_space_group_name_H-M   'P 1'
_cell_length_a   17.62164820
_cell_length_b   17.62312996
_cell_length_c   23.48096051
_cell_angle_alpha   90.01101215
_cell_angle_beta   89.98861807
_cell_angle_gamma   89.98263674
_symmetry_Int_Tables_number   1
_chemical_formula_structural   In86Cu29Se144
_chemical_formula_sum   'In86 Cu29 Se144'
_cell_volume   7291.97871165
_cell_formula_units_Z   1
loop_
 _symmetry_equiv_pos_site_id
 _symmetry_equiv_pos_as_xyz
  1  'x, y, z'
loop_
 _atom_site_type_symbol
 _atom_site_label
 _atom_site_symmetry_multiplicity
 _atom_site_fract_x
 _atom_site_fract_y
 _atom_site_fract_z
 _atom_site_occupancy
  In  In0  1  -0.00125602  0.16815655  0.13345799  1
  In  In1  1  0.01132772  0.18191722  0.60079356  1
  In  In2  1  0.00296087  0.49551079  0.13717796  1
  In  In3  1  -0.00324650  0.48773697  0.62365813  1
  In  In4  1  -0.00439238  0.84111834  0.13559007  1
  In  In5  1  -0.00050936  0.84451841  0.61966661  1
  In  In6  1  0.32980442  0.17409822  0.13474138  1
  In  In7  1  0.33998793  0.17183226  0.61060627  1
  In  In8  1  0.33262974  0.49121889  0.12348818  1
  In  In9  1  0.33171650  0.49415962  0.63023976  1
  In  In10  1  0.34667482  0.83179460  0.12385098  1
  In  In11  1  0.32445552  0.82635729  0.62920227  1
  In  In12  1  0.67396900  0.15770222  0.13236033  1
  In  In13  1  0.67545899  0.17811570  0.61548579  1
  In  In14  1  0.65464022  0.50173817  0.12207534  1
  In  In15  1  0.65438927  0.50082005  0.63714161  1
  In  In16  1  0.67311980  0.83821154  0.12078378  1
  In  In17  1  0.66373807  0.81705327  0.62314941  1
  In  In18  1  0.18013708  0.01458442  0.36525603  1
  In  In19  1  0.15958832  0.01012946  0.87701645  1
  In  In20  1  0.16725636  0.33434779  0.38070456  1
  In  In21  1  0.21763817  0.38304754  0.81999390  1
  In  In22  1  0.14808328  0.66478438  0.38337419  1
  In  In23  1  0.17429223  0.65547348  0.87231632  1
  In  In24  1  0.50540070  0.00807444  0.36947720  1
  In  In25  1  0.49105018  -0.00388211  0.88028381  1
  In  In26  1  0.49816762  0.33499566  0.37855578  1
  In  In27  1  0.51077608  0.34685617  0.85663406  1
  In  In28  1  0.49217487  0.65726401  0.38097495  1
  In  In29  1  0.50656733  0.67041610  0.87280721  1
  In  In30  1  0.83056374  -0.00057720  0.37356469  1
  In  In31  1  0.83563240  0.00365078  0.88803463  1
  In  In32  1  0.82263660  0.32078665  0.36949118  1
  In  In33  1  0.82773848  0.33170745  0.87304624  1
  In  In34  1  0.85635382  0.66653519  0.37963388  1
  In  In35  1  0.83185940  0.68028354  0.87732579  1
  In  In36  1  -0.00223024  0.16681098  0.37479890  1
  In  In37  1  0.00080174  0.17499286  0.87786437  1
  In  In38  1  0.01088242  0.50670016  0.37118291  1
  In  In39  1  0.01616184  0.49284941  0.87358903  1
  In  In40  1  -0.00492036  0.82341310  0.36341523  1
  In  In41  1  -0.01735313  0.82404608  0.88527041  1
  In  In42  1  0.33215345  0.16871675  0.38184371  1
  In  In43  1  0.33179230  0.18655224  0.87055373  1
  In  In44  1  0.34200065  0.48960805  0.38756471  1
  In  In45  1  0.37332287  0.53754717  0.82515256  1
  In  In46  1  0.31661115  0.83905259  0.37063250  1
  In  In47  1  0.34771622  0.83911809  0.87843626  1
  In  In48  1  0.66238030  0.16816519  0.37681448  1
  In  In49  1  0.67278373  0.18002443  0.87388142  1
  In  In50  1  0.66809561  0.48509150  0.37670339  1
  In  In51  1  0.65388402  0.49204198  0.86466795  1
  In  In52  1  0.66663480  0.84721129  0.37047320  1
  In  In53  1  0.67861172  0.82893362  0.88285868  1
  In  In54  1  0.16126439  0.00275168  0.14910580  1
  In  In55  1  0.16529919  0.00347339  0.61326363  1
  In  In56  1  0.17169473  0.33124215  0.13393352  1
  In  In57  1  0.16086653  0.33130519  0.62313376  1
  In  In58  1  0.16454365  0.65837384  0.12991720  1
  In  In59  1  0.18007328  0.66527357  0.63251422  1
  In  In60  1  0.50981325  -0.00274695  0.13458575  1
  In  In61  1  0.48965748  0.01256568  0.61369097  1
  In  In62  1  0.49594571  0.33949249  0.12793015  1
  In  In63  1  0.49969171  0.33389140  0.62755769  1
  In  In64  1  0.50181014  0.66388385  0.11315358  1
  In  In65  1  0.50285064  0.64785082  0.64048121  1
  In  In66  1  0.83319474  0.00058958  0.12898616  1
  In  In67  1  0.83510580  0.00483495  0.61252370  1
  In  In68  1  0.84429166  0.31918161  0.13031047  1
  In  In69  1  0.83982680  0.32808441  0.62646843  1
  In  In70  1  0.83764202  0.67539267  0.12266660  1
  In  In71  1  0.82420042  0.65840906  0.62392868  1
  In  In72  1  0.16462851  0.83320802  0.01385836  1
  In  In73  1  0.67146667  0.66614758  0.24134935  1
  In  In74  1  -0.00350653  0.66305583  0.75338080  1
  In  In75  1  0.50729923  0.16149739  0.00049021  1
  In  In76  1  0.66720787  -0.00023200  0.75126016  1
  In  In77  1  0.17145683  0.49689347  -0.01216805  1
  In  In78  1  0.16322382  0.17195709  -0.00003255  1
  In  In79  1  0.16167971  0.83308057  0.49475696  1
  In  In80  1  0.32795468  0.66471705  0.25292087  1
  In  In81  1  0.83459818  0.49651956  0.50308738  1
  In  In82  1  -0.00267905  0.00650571  0.75034386  1
  In  In83  1  0.33103312  0.00580297  0.73892388  1
  In  In84  1  0.82998253  0.50187769  0.00387338  1
  In  In85  1  0.49971802  0.83117374  0.49643419  1
  Cu  Cu86  1  0.82915678  0.83553029  0.24834335  1
  Cu  Cu87  1  0.33557870  0.00018724  0.00427732  1
  Cu  Cu88  1  -0.00303064  0.33388626  0.49608291  1
  Cu  Cu89  1  0.33021366  0.33637047  0.50314897  1
  Cu  Cu90  1  0.66701573  0.00238132  0.49328226  1
  Cu  Cu91  1  0.33824911  0.66327532  -0.01071198  1
  Cu  Cu92  1  0.83867927  0.17335852  0.74522467  1
  Cu  Cu93  1  -0.00506002  -0.00308205  0.48882390  1
  Cu  Cu94  1  0.65779456  0.66116886  -0.00337218  1
  Cu  Cu95  1  0.16687430  0.17472485  0.25944331  1
  Cu  Cu96  1  0.50175150  0.49518996  0.25121087  1
  Cu  Cu97  1  0.50001720  0.82639820  0.75123905  1
  Cu  Cu98  1  0.17008293  0.49493287  0.25615443  1
  Cu  Cu99  1  0.00483715  0.33064464  0.00326335  1
  Cu  Cu100  1  0.82657151  0.82997440  0.75066141  1
  Cu  Cu101  1  -0.00344607  -0.00213993  0.00892474  1
  Cu  Cu102  1  0.66989764  0.66313520  0.50629574  1
  Cu  Cu103  1  0.66898063  0.33149540  -0.00543026  1
  Cu  Cu104  1  0.83640597  0.49178378  0.25591244  1
  Cu  Cu105  1  0.83231481  0.16180413  0.25337874  1
  Cu  Cu106  1  0.16886434  0.83341406  0.75476988  1
  Cu  Cu107  1  0.49578073  0.83971003  0.25006609  1
  Cu  Cu108  1  0.65691834  0.33428277  0.50065899  1
  Cu  Cu109  1  0.50070673  0.16874302  0.74392558  1
  Cu  Cu110  1  0.33775242  0.65737059  0.50768888  1
  Cu  Cu111  1  0.67066654  -0.00276285  0.00901251  1
  Cu  Cu112  1  0.34286428  0.34421745  -0.00529276  1
  Cu  Cu113  1  0.49583135  0.17609507  0.25556162  1
  Cu  Cu114  1  0.82640190  0.49850306  0.74995459  1
  Se  Se115  1  0.08474525  0.07457140  0.06406668  1
  Se  Se116  1  0.08069123  0.07744008  0.54268370  1
  Se  Se117  1  0.08581104  0.41320162  0.06043679  1
  Se  Se118  1  0.07988645  0.41508924  0.55086916  1
  Se  Se119  1  0.07265532  0.74107363  0.06549954  1
  Se  Se120  1  0.08407354  0.74470329  0.56466558  1
  Se  Se121  1  0.41202746  0.08347094  0.06466664  1
  Se  Se122  1  0.40161126  0.07391656  0.54152591  1
  Se  Se123  1  0.42325610  0.42332800  0.05261227  1
  Se  Se124  1  0.41497616  0.41628851  0.55881056  1
  Se  Se125  1  0.41435788  0.74674426  0.04886200  1
  Se  Se126  1  0.41730052  0.74225365  0.56471253  1
  Se  Se127  1  0.75362079  0.08467578  0.05706109  1
  Se  Se128  1  0.74885196  0.08686091  0.54786759  1
  Se  Se129  1  0.74562678  0.40565634  0.06233456  1
  Se  Se130  1  0.73911623  0.41289269  0.56306423  1
  Se  Se131  1  0.73998791  0.73913390  0.05542986  1
  Se  Se132  1  0.75511506  0.74972759  0.55274723  1
  Se  Se133  1  0.26248653  0.26306689  0.05512094  1
  Se  Se134  1  0.24355956  0.25127024  0.55124580  1
  Se  Se135  1  0.25759120  0.58985859  0.05421609  1
  Se  Se136  1  0.25002332  0.57949823  0.56003810  1
  Se  Se137  1  0.25226086  0.93072774  0.06779339  1
  Se  Se138  1  0.26094634  0.91665897  0.55380221  1
  Se  Se139  1  0.59147117  0.25426462  0.06109109  1
  Se  Se140  1  0.57539360  0.24865609  0.55401389  1
  Se  Se141  1  0.57602045  0.57318408  0.04549845  1
  Se  Se142  1  0.58483648  0.58449265  0.56073814  1
  Se  Se143  1  0.58000055  0.91765771  0.05721257  1
  Se  Se144  1  0.59060997  0.92228605  0.55841948  1
  Se  Se145  1  0.92449136  0.24482054  0.05549710  1
  Se  Se146  1  0.90524531  0.25264982  0.54444074  1
  Se  Se147  1  0.92772674  0.58271531  0.06261932  1
  Se  Se148  1  0.92548918  0.59091609  0.55812922  1
  Se  Se149  1  0.91447991  0.91344252  0.06042008  1
  Se  Se150  1  0.91556295  0.91584791  0.54733470  1
  Se  Se151  1  0.08084965  0.24819300  0.44497541  1
  Se  Se152  1  0.08939168  0.26713326  0.93693436  1
  Se  Se153  1  0.07677383  0.57860764  0.45289979  1
  Se  Se154  1  0.07352208  0.59645438  0.94437113  1
  Se  Se155  1  0.08087971  0.92267079  0.42965676  1
  Se  Se156  1  0.07660426  0.92093648  0.94492721  1
  Se  Se157  1  0.41532352  0.25495261  0.44865709  1
  Se  Se158  1  0.42453084  0.25767378  0.94039193  1
  Se  Se159  1  0.42390405  0.57585191  0.45587795  1
  Se  Se160  1  0.41112154  0.58048780  0.92834987  1
  Se  Se161  1  0.41256090  0.91801778  0.43472301  1
  Se  Se162  1  0.42063407  0.91535749  0.95581109  1
  Se  Se163  1  0.74273389  0.25330872  0.44746695  1
  Se  Se164  1  0.75740923  0.24728586  0.94882093  1
  Se  Se165  1  0.74729732  0.58807728  0.43888442  1
  Se  Se166  1  0.74043671  0.58271972  0.93674036  1
  Se  Se167  1  0.74992850  0.91462320  0.44522532  1
  Se  Se168  1  0.75446948  0.91582967  0.95214846  1
  Se  Se169  1  0.24865388  0.08190057  0.44714201  1
  Se  Se170  1  0.26164479  0.08135968  0.94247895  1
  Se  Se171  1  0.24468199  0.42018060  0.45197152  1
  Se  Se172  1  0.26005812  0.41125033  0.92992892  1
  Se  Se173  1  0.26075222  0.73726887  0.44415157  1
  Se  Se174  1  0.25103663  0.75036901  0.94125728  1
  Se  Se175  1  0.57845880  0.08533439  0.44648523  1
  Se  Se176  1  0.59867690  0.07280630  0.93810300  1
  Se  Se177  1  0.57788804  0.42240073  0.44916405  1
  Se  Se178  1  0.58283210  0.41055476  0.94123973  1
  Se  Se179  1  0.59456336  0.74085888  0.43860914  1
  Se  Se180  1  0.58214193  0.75375974  0.94531317  1
  Se  Se181  1  0.91046468  0.08565398  0.44233395  1
  Se  Se182  1  0.92704642  0.08562461  0.94835228  1
  Se  Se183  1  0.91588636  0.41143102  0.43420543  1
  Se  Se184  1  0.92400184  0.41355325  0.94459656  1
  Se  Se185  1  0.92375307  0.75803713  0.44679552  1
  Se  Se186  1  0.90642132  0.74675329  0.95683101  1
  Se  Se187  1  0.25326740  0.25513484  0.31138032  1
  Se  Se188  1  0.23493378  0.23717597  0.80149037  1
  Se  Se189  1  0.24740882  0.57536734  0.31865325  1
  Se  Se190  1  0.23042140  0.56393089  0.80035030  1
  Se  Se191  1  0.24486201  0.91701587  0.29709680  1
  Se  Se192  1  0.24739494  0.91938266  0.81186633  1
  Se  Se193  1  0.58268408  0.25563193  0.30851947  1
  Se  Se194  1  0.58743106  0.24550059  0.79921651  1
  Se  Se195  1  0.58134932  0.58080177  0.30744110  1
  Se  Se196  1  0.57248176  0.57894561  0.80089977  1
  Se  Se197  1  0.58366969  0.92157458  0.29938535  1
  Se  Se198  1  0.57634834  0.91058390  0.81122175  1
  Se  Se199  1  0.91610978  0.24847225  0.30316289  1
  Se  Se200  1  0.91619672  0.25128078  0.80688634  1
  Se  Se201  1  0.91836579  0.58108377  0.30297359  1
  Se  Se202  1  0.90576783  0.57446572  0.81484601  1
  Se  Se203  1  0.91249691  0.91694358  0.30323174  1
  Se  Se204  1  0.90711788  0.91142779  0.80940636  1
  Se  Se205  1  0.08001001  0.08643831  0.30348301  1
  Se  Se206  1  0.09189396  0.09760484  0.80312772  1
  Se  Se207  1  0.08401789  0.41171121  0.30671001  1
  Se  Se208  1  0.07408341  0.40930845  0.79772186  1
  Se  Se209  1  0.09435370  0.74847972  0.30427746  1
  Se  Se210  1  0.08488527  0.75890917  0.81507483  1
  Se  Se211  1  0.41424413  0.09006970  0.30761333  1
  Se  Se212  1  0.42340142  0.08820741  0.80636653  1
  Se  Se213  1  0.41646786  0.41952454  0.30781333  1
  Se  Se214  1  0.38801391  0.39149772  0.80717953  1
  Se  Se215  1  0.42360177  0.75574748  0.31120769  1
  Se  Se216  1  0.41268867  0.75103107  0.80607709  1
  Se  Se217  1  0.74480371  0.08391506  0.30756435  1
  Se  Se218  1  0.76414364  0.08847496  0.80739712  1
  Se  Se219  1  0.74531521  0.41155140  0.30160875  1
  Se  Se220  1  0.74640457  0.41136563  0.80272235  1
  Se  Se221  1  0.75499890  0.75008758  0.31008983  1
  Se  Se222  1  0.74406571  0.74785339  0.80367854  1
  Se  Se223  1  0.25144289  0.09173717  0.20492145  1
  Se  Se224  1  0.23969937  0.09361893  0.68265015  1
  Se  Se225  1  0.25520880  0.41794704  0.19899703  1
  Se  Se226  1  0.24423776  0.40965904  0.69482762  1
  Se  Se227  1  0.24698858  0.75652806  0.18917887  1
  Se  Se228  1  0.25403554  0.74830785  0.70634182  1
  Se  Se229  1  0.57885638  0.09155472  0.20123072  1
  Se  Se230  1  0.58035958  0.08614329  0.68599287  1
  Se  Se231  1  0.58645744  0.41631860  0.19609782  1
  Se  Se232  1  0.57448662  0.41410622  0.70198835  1
  Se  Se233  1  0.57210031  0.75549879  0.18916334  1
  Se  Se234  1  0.58481133  0.74547410  0.69828019  1
  Se  Se235  1  0.91717714  0.08052229  0.19846575  1
  Se  Se236  1  0.91390510  0.09181901  0.68380120  1
  Se  Se237  1  0.91870026  0.40880736  0.19944849  1
  Se  Se238  1  0.91153086  0.41810247  0.69674359  1
  Se  Se239  1  0.91337462  0.74813627  0.19920664  1
  Se  Se240  1  0.91323276  0.75760458  0.69009784  1
  Se  Se241  1  0.08428922  0.25184982  0.19909012  1
  Se  Se242  1  0.06627429  0.25201856  0.68559843  1
  Se  Se243  1  0.08783777  0.57967261  0.20288888  1
  Se  Se244  1  0.08354943  0.57708107  0.69117000  1
  Se  Se245  1  0.08401913  0.90831947  0.20721091  1
  Se  Se246  1  0.09385805  0.91385138  0.69318565  1
  Se  Se247  1  0.41512612  0.25885161  0.19842173  1
  Se  Se248  1  0.41226791  0.24416781  0.69024523  1
  Se  Se249  1  0.42437600  0.58044548  0.19129048  1
  Se  Se250  1  0.40572886  0.57891940  0.70528760  1
  Se  Se251  1  0.41220726  0.92149451  0.19657719  1
  Se  Se252  1  0.42826064  0.91027389  0.68792488  1
  Se  Se253  1  0.75181905  0.24775185  0.19829662  1
  Se  Se254  1  0.74851870  0.25129195  0.69424095  1
  Se  Se255  1  0.76227579  0.56953485  0.18751913  1
  Se  Se256  1  0.74646284  0.58574202  0.69864541  1
  Se  Se257  1  0.74468478  0.91830550  0.19611748  1
  Se  Se258  1  0.75567604  0.91366368  0.68695294  1
