# generated using pymatgen
data_In86Cu29Se144
_symmetry_space_group_name_H-M   'P 1'
_cell_length_a   17.57161450
_cell_length_b   17.57525698
_cell_length_c   23.43069988
_cell_angle_alpha   90.01406226
_cell_angle_beta   89.98421278
_cell_angle_gamma   89.99994496
_symmetry_Int_Tables_number   1
_chemical_formula_structural   In86Cu29Se144
_chemical_formula_sum   'In86 Cu29 Se144'
_cell_volume   7236.00040184
_cell_formula_units_Z   1
loop_
 _symmetry_equiv_pos_site_id
 _symmetry_equiv_pos_as_xyz
  1  'x, y, z'
loop_
 _atom_site_type_symbol
 _atom_site_label
 _atom_site_symmetry_multiplicity
 _atom_site_fract_x
 _atom_site_fract_y
 _atom_site_fract_z
 _atom_site_occupancy
  In  In0  1  0.00772461  0.16122006  0.13724462  1
  In  In1  1  0.00995820  0.17981111  0.61598237  1
  In  In2  1  0.00537303  0.48494264  0.12982679  1
  In  In3  1  -0.00110573  0.49771161  0.62449513  1
  In  In4  1  0.01284982  0.83369058  0.12809358  1
  In  In5  1  -0.01429449  0.83343849  0.62164841  1
  In  In6  1  0.32270435  0.18052481  0.13585872  1
  In  In7  1  0.34029127  0.17637157  0.61504277  1
  In  In8  1  0.33300509  0.49084294  0.11106695  1
  In  In9  1  0.32845521  0.51009596  0.60836413  1
  In  In10  1  0.35946940  0.83133467  0.13572136  1
  In  In11  1  0.35186886  0.82085132  0.61762835  1
  In  In12  1  0.65465890  0.17680472  0.13933655  1
  In  In13  1  0.69366726  0.20672054  0.58100042  1
  In  In14  1  0.63460950  0.49678828  0.12917628  1
  In  In15  1  0.67122812  0.49922794  0.62224408  1
  In  In16  1  0.66175748  0.83640294  0.12937933  1
  In  In17  1  0.65853035  0.82430352  0.61669514  1
  In  In18  1  0.17527352  0.01721515  0.36615934  1
  In  In19  1  0.18076043  -0.00272174  0.88333835  1
  In  In20  1  0.16338196  0.33359197  0.37278384  1
  In  In21  1  0.16357898  0.34216635  0.88345957  1
  In  In22  1  0.16950597  0.65631125  0.37962228  1
  In  In23  1  0.15705492  0.65517103  0.87065710  1
  In  In24  1  0.50575220  -0.00487343  0.36696486  1
  In  In25  1  0.48663876  0.00005155  0.88008911  1
  In  In26  1  0.49898674  0.33593019  0.37658327  1
  In  In27  1  0.50934098  0.33968694  0.87112076  1
  In  In28  1  0.49956964  0.65590289  0.38453067  1
  In  In29  1  0.51552227  0.64949141  0.89096752  1
  In  In30  1  0.83243767  0.00222924  0.37819060  1
  In  In31  1  0.82910947  0.00072611  0.87126731  1
  In  In32  1  0.82814946  0.32753809  0.38508416  1
  In  In33  1  0.83740535  0.33940741  0.86050013  1
  In  In34  1  0.82533021  0.66637000  0.38861832  1
  In  In35  1  0.83037214  0.65796391  0.86015030  1
  In  In36  1  -0.00171803  0.17129178  0.37554120  1
  In  In37  1  -0.00407354  0.18045575  0.87233902  1
  In  In38  1  0.00616436  0.48705139  0.38007766  1
  In  In39  1  0.00121217  0.49913797  0.86565810  1
  In  In40  1  -0.01514884  0.83587417  0.37901506  1
  In  In41  1  0.01346632  0.81960130  0.87611754  1
  In  In42  1  0.32913135  0.16901820  0.37280268  1
  In  In43  1  0.33297640  0.15598676  0.88144472  1
  In  In44  1  0.35636258  0.47569619  0.38823730  1
  In  In45  1  0.33325339  0.50333693  0.89411220  1
  In  In46  1  0.34206515  0.84290965  0.36677892  1
  In  In47  1  0.35231471  0.83606438  0.88188283  1
  In  In48  1  0.66899937  0.17074765  0.38278465  1
  In  In49  1  0.65296283  0.18072950  0.87243700  1
  In  In50  1  0.66286397  0.49202296  0.38746010  1
  In  In51  1  0.66765401  0.50144276  0.86765785  1
  In  In52  1  0.65412213  0.84206103  0.37765948  1
  In  In53  1  0.66741509  0.82115470  0.87519761  1
  In  In54  1  0.15795833  0.01063196  0.13744425  1
  In  In55  1  0.15875397  0.00646197  0.61916586  1
  In  In56  1  0.17174463  0.33041423  0.12133167  1
  In  In57  1  0.16061479  0.33102695  0.61938100  1
  In  In58  1  0.19231041  0.65690392  0.11836963  1
  In  In59  1  0.16501389  0.64368138  0.61984278  1
  In  In60  1  0.50811548  -0.00883056  0.14664099  1
  In  In61  1  0.50738987  0.00564476  0.61472051  1
  In  In62  1  0.48150851  0.35823401  0.16049683  1
  In  In63  1  0.53406703  0.36107981  0.58861069  1
  In  In64  1  0.48939860  0.66111427  0.10412506  1
  In  In65  1  0.50494920  0.67884234  0.61314959  1
  In  In66  1  0.82390134  0.01070904  0.13907105  1
  In  In67  1  0.82823519  -0.00272291  0.61257082  1
  In  In68  1  0.83565804  0.33563453  0.13747411  1
  In  In69  1  0.83440354  0.34071012  0.61850572  1
  In  In70  1  0.81815022  0.66808260  0.12470936  1
  In  In71  1  0.83223447  0.66362892  0.62457480  1
  In  In72  1  -0.00518869  0.00162231  0.75013756  1
  In  In73  1  0.33504978  0.66361808  0.74943713  1
  In  In74  1  0.65976864  0.66054205  0.25361397  1
  In  In75  1  0.00072096  0.66817991  0.25263281  1
  In  In76  1  0.83167825  0.49900852  -0.00472890  1
  In  In77  1  0.17987510  0.82764268  0.00392000  1
  In  In78  1  0.83492224  0.16901611  0.00531332  1
  In  In79  1  0.17224858  0.83782221  0.49586831  1
  In  In80  1  0.66622949  0.00923097  0.74481831  1
  In  In81  1  0.48826116  0.17521998  0.01160433  1
  In  In82  1  0.33310511  0.00078458  0.75673495  1
  In  In83  1  0.33621369  0.33184497  0.75175124  1
  In  In84  1  0.83015823  0.83399487  0.00717218  1
  In  In85  1  0.33605921  0.66120296  0.24774830  1
  Cu  Cu86  1  0.16244924  0.84107472  0.25346709  1
  Cu  Cu87  1  0.50411861  0.16301955  0.26241022  1
  Cu  Cu88  1  0.83110364  0.84030759  0.25431330  1
  Cu  Cu89  1  0.83265565  0.16864757  0.26166766  1
  Cu  Cu90  1  0.16363770  0.17828985  0.25206323  1
  Cu  Cu91  1  0.51174347  0.18091093  0.73690202  1
  Cu  Cu92  1  0.83182010  0.17904730  0.73528455  1
  Cu  Cu93  1  0.16328036  0.16930759  0.74644714  1
  Cu  Cu94  1  0.32309218  0.32863364  0.49365808  1
  Cu  Cu95  1  0.65258369  -0.00101917  0.00967157  1
  Cu  Cu96  1  0.00009632  0.33620774  0.49910023  1
  Cu  Cu97  1  0.83037581  0.49700410  0.74139679  1
  Cu  Cu98  1  -0.00213854  0.65521363  -0.00363916  1
  Cu  Cu99  1  0.66487940  -0.00513459  0.49145284  1
  Cu  Cu100  1  -0.00202123  0.66402510  0.50083531  1
  Cu  Cu101  1  0.16276621  0.48782422  0.74740870  1
  Cu  Cu102  1  0.83015037  0.82033590  0.74563732  1
  Cu  Cu103  1  0.01359201  0.32828238  0.00132850  1
  Cu  Cu104  1  0.83128147  0.49414410  0.26206155  1
  Cu  Cu105  1  0.32689320  0.00725475  0.01349218  1
  Cu  Cu106  1  -0.00012380  0.00827698  0.49705351  1
  Cu  Cu107  1  0.00502714  0.00733645  0.01094316  1
  Cu  Cu108  1  0.16187691  0.81863979  0.74809421  1
  Cu  Cu109  1  0.67209771  0.66300107  0.50260398  1
  Cu  Cu110  1  0.50413269  0.50144996  0.74455670  1
  Cu  Cu111  1  0.50815106  0.83050960  0.74514644  1
  Cu  Cu112  1  0.33650545  -0.00007227  0.48907247  1
  Cu  Cu113  1  0.17202787  0.49245351  0.24821659  1
  Cu  Cu114  1  0.66991336  0.33936792  0.00060166  1
  Se  Se115  1  0.08837403  0.09206144  0.05941590  1
  Se  Se116  1  0.08697115  0.09035498  0.54734643  1
  Se  Se117  1  0.08825799  0.41932951  0.05348934  1
  Se  Se118  1  0.08340030  0.42043665  0.55264684  1
  Se  Se119  1  0.07966889  0.73545676  0.05760162  1
  Se  Se120  1  0.08096803  0.74873358  0.55793216  1
  Se  Se121  1  0.41415531  0.07805107  0.07538476  1
  Se  Se122  1  0.41389805  0.08120079  0.55048617  1
  Se  Se123  1  0.43924395  0.40918176  0.06369313  1
  Se  Se124  1  0.40485708  0.41159222  0.54949228  1
  Se  Se125  1  0.38373683  0.73933074  0.05400440  1
  Se  Se126  1  0.42429878  0.75291735  0.53907086  1
  Se  Se127  1  0.73596646  0.08261420  0.06249231  1
  Se  Se128  1  0.75081114  0.07930321  0.54199644  1
  Se  Se129  1  0.74770671  0.41554203  0.06487264  1
  Se  Se130  1  0.73285497  0.40208462  0.55132259  1
  Se  Se131  1  0.72958951  0.74253109  0.05289672  1
  Se  Se132  1  0.75527318  0.75027845  0.55394413  1
  Se  Se133  1  0.25874651  0.25092389  0.05342360  1
  Se  Se134  1  0.24198959  0.24638227  0.55126837  1
  Se  Se135  1  0.24743968  0.57072667  0.04205174  1
  Se  Se136  1  0.25231198  0.59700090  0.54050572  1
  Se  Se137  1  0.25144736  0.92043227  0.07269998  1
  Se  Se138  1  0.26270586  0.92442599  0.56043296  1
  Se  Se139  1  0.58896793  0.26145675  0.06152173  1
  Se  Se140  1  0.55277576  0.22333295  0.55303316  1
  Se  Se141  1  0.59815948  0.59039502  0.05138792  1
  Se  Se142  1  0.58492832  0.58223778  0.55443098  1
  Se  Se143  1  0.57231022  0.91585353  0.06281789  1
  Se  Se144  1  0.58252343  0.91337098  0.54892150  1
  Se  Se145  1  0.92559828  0.25877787  0.06318668  1
  Se  Se146  1  0.91565093  0.25161803  0.55057600  1
  Se  Se147  1  0.91863738  0.58588811  0.06413802  1
  Se  Se148  1  0.91541371  0.58046586  0.55574374  1
  Se  Se149  1  0.92073742  0.92675809  0.06665048  1
  Se  Se150  1  0.91928783  0.91852273  0.54705206  1
  Se  Se151  1  0.08295163  0.25220225  0.44463881  1
  Se  Se152  1  0.08789536  0.24083907  0.94456059  1
  Se  Se153  1  0.08041019  0.58154031  0.44663371  1
  Se  Se154  1  0.08016414  0.57246701  0.94269221  1
  Se  Se155  1  0.08126855  0.92749024  0.43585153  1
  Se  Se156  1  0.07793777  0.91952166  0.94873868  1
  Se  Se157  1  0.41226508  0.25000210  0.44216146  1
  Se  Se158  1  0.41331737  0.25891154  0.93637148  1
  Se  Se159  1  0.41242719  0.58044962  0.45256876  1
  Se  Se160  1  0.42273155  0.58095909  0.95762173  1
  Se  Se161  1  0.42239701  0.91613312  0.44115299  1
  Se  Se162  1  0.41199521  0.92622574  0.95793954  1
  Se  Se163  1  0.74012919  0.25503059  0.45820770  1
  Se  Se164  1  0.74952819  0.25941385  0.93954400  1
  Se  Se165  1  0.75256597  0.57267559  0.45366647  1
  Se  Se166  1  0.74509366  0.59541110  0.93987231  1
  Se  Se167  1  0.75284207  0.90955879  0.44301130  1
  Se  Se168  1  0.74040885  0.92832182  0.94565963  1
  Se  Se169  1  0.24832909  0.08657586  0.44617339  1
  Se  Se170  1  0.24665872  0.08678326  0.95581970  1
  Se  Se171  1  0.24205764  0.41820145  0.44391385  1
  Se  Se172  1  0.25826716  0.40476919  0.95170217  1
  Se  Se173  1  0.26099059  0.74924895  0.43567741  1
  Se  Se174  1  0.25473493  0.74051341  0.93180633  1
  Se  Se175  1  0.58076856  0.07854234  0.44064377  1
  Se  Se176  1  0.58311704  0.08486014  0.94475464  1
  Se  Se177  1  0.57435832  0.41287512  0.45449331  1
  Se  Se178  1  0.59057992  0.42041055  0.94173776  1
  Se  Se179  1  0.59059389  0.74175661  0.44426625  1
  Se  Se180  1  0.56055037  0.77456644  0.93958155  1
  Se  Se181  1  0.91394737  0.08981130  0.44516618  1
  Se  Se182  1  0.92184440  0.07483801  0.94316274  1
  Se  Se183  1  0.91268685  0.41883662  0.44883821  1
  Se  Se184  1  0.92540339  0.40368746  0.94127020  1
  Se  Se185  1  0.91419180  0.75104009  0.45180375  1
  Se  Se186  1  0.91715682  0.74140264  0.94146374  1
  Se  Se187  1  0.25203978  0.25740134  0.30366909  1
  Se  Se188  1  0.24701173  0.23983268  0.81146149  1
  Se  Se189  1  0.25001591  0.57091395  0.31020479  1
  Se  Se190  1  0.24839381  0.56494982  0.80703695  1
  Se  Se191  1  0.25126754  0.92185289  0.30242575  1
  Se  Se192  1  0.24379560  0.89846001  0.80941100  1
  Se  Se193  1  0.58630127  0.25068606  0.31137116  1
  Se  Se194  1  0.58916596  0.26386235  0.79573912  1
  Se  Se195  1  0.57348658  0.56642499  0.31104719  1
  Se  Se196  1  0.58002213  0.58704866  0.80328542  1
  Se  Se197  1  0.58057446  0.90618186  0.29696106  1
  Se  Se198  1  0.57658008  0.92054553  0.80789278  1
  Se  Se199  1  0.91447602  0.25794702  0.30977543  1
  Se  Se200  1  0.91930531  0.25145323  0.79483463  1
  Se  Se201  1  0.91069299  0.58261810  0.31545486  1
  Se  Se202  1  0.91740962  0.57780336  0.79582092  1
  Se  Se203  1  0.91729996  0.92228496  0.30530731  1
  Se  Se204  1  0.90888655  0.90119365  0.80927364  1
  Se  Se205  1  0.07968297  0.09128772  0.30246903  1
  Se  Se206  1  0.09296184  0.08340785  0.81171087  1
  Se  Se207  1  0.08134789  0.41653992  0.30085182  1
  Se  Se208  1  0.08243928  0.40540808  0.80341861  1
  Se  Se209  1  0.08987152  0.75761728  0.31488416  1
  Se  Se210  1  0.07659033  0.73576552  0.79868638  1
  Se  Se211  1  0.41253797  0.08090390  0.30751423  1
  Se  Se212  1  0.43219729  0.10053661  0.80215139  1
  Se  Se213  1  0.41991137  0.41506287  0.30163600  1
  Se  Se214  1  0.41876876  0.43332514  0.80953669  1
  Se  Se215  1  0.42906966  0.74664660  0.30765326  1
  Se  Se216  1  0.42731087  0.75265384  0.80754547  1
  Se  Se217  1  0.74656592  0.08451354  0.31095926  1
  Se  Se218  1  0.75833417  0.10303565  0.80556209  1
  Se  Se219  1  0.74652612  0.41438747  0.31575923  1
  Se  Se220  1  0.74609053  0.41663051  0.79749814  1
  Se  Se221  1  0.75500727  0.75127961  0.31008917  1
  Se  Se222  1  0.74110939  0.74407490  0.79927016  1
  Se  Se223  1  0.24741117  0.08902045  0.20329169  1
  Se  Se224  1  0.24728281  0.08864510  0.68973848  1
  Se  Se225  1  0.25529084  0.41704667  0.18888308  1
  Se  Se226  1  0.25141042  0.42162378  0.68580916  1
  Se  Se227  1  0.24119376  0.75854717  0.19347832  1
  Se  Se228  1  0.24724142  0.75213523  0.68433913  1
  Se  Se229  1  0.59033994  0.08173806  0.20856923  1
  Se  Se230  1  0.58904681  0.09805769  0.67850491  1
  Se  Se231  1  0.60879306  0.39770658  0.20619881  1
  Se  Se232  1  0.57929763  0.41547727  0.68712568  1
  Se  Se233  1  0.57169355  0.74003025  0.18450696  1
  Se  Se234  1  0.58656417  0.74376775  0.69287017  1
  Se  Se235  1  0.91504921  0.08686852  0.20361130  1
  Se  Se236  1  0.91096665  0.08780926  0.68282262  1
  Se  Se237  1  0.91891702  0.41974776  0.20460832  1
  Se  Se238  1  0.91760860  0.41299794  0.69352599  1
  Se  Se239  1  0.90661392  0.75703621  0.19175651  1
  Se  Se240  1  0.92049667  0.74418304  0.69415543  1
  Se  Se241  1  0.08273131  0.26133070  0.19591663  1
  Se  Se242  1  0.08153223  0.25414673  0.69564605  1
  Se  Se243  1  0.09620335  0.58240749  0.19135280  1
  Se  Se244  1  0.08367032  0.57776932  0.69682210  1
  Se  Se245  1  0.07396313  0.92168426  0.20269771  1
  Se  Se246  1  0.08911818  0.91058685  0.69160510  1
  Se  Se247  1  0.41842263  0.24260950  0.20766698  1
  Se  Se248  1  0.42610429  0.25981192  0.68199869  1
  Se  Se249  1  0.42267582  0.57470804  0.18384989  1
  Se  Se250  1  0.42209252  0.57911593  0.68382057  1
  Se  Se251  1  0.40714009  0.92446925  0.21061270  1
  Se  Se252  1  0.42291783  0.91502078  0.69117806  1
  Se  Se253  1  0.75375893  0.24858958  0.20165910  1
  Se  Se254  1  0.74312791  0.25325177  0.68111968  1
  Se  Se255  1  0.75454023  0.57008980  0.19443705  1
  Se  Se256  1  0.74638979  0.58473526  0.69428855  1
  Se  Se257  1  0.74310760  0.91686535  0.19946544  1
  Se  Se258  1  0.75425189  0.91057890  0.68924702  1
