# generated using pymatgen
data_In86Cu29Se144
_symmetry_space_group_name_H-M   'P 1'
_cell_length_a   17.66546950
_cell_length_b   17.67330801
_cell_length_c   23.52311748
_cell_angle_alpha   89.99573789
_cell_angle_beta   90.00061078
_cell_angle_gamma   90.01264576
_symmetry_Int_Tables_number   1
_chemical_formula_structural   In86Cu29Se144
_chemical_formula_sum   'In86 Cu29 Se144'
_cell_volume   7344.08841212
_cell_formula_units_Z   1
loop_
 _symmetry_equiv_pos_site_id
 _symmetry_equiv_pos_as_xyz
  1  'x, y, z'
loop_
 _atom_site_type_symbol
 _atom_site_label
 _atom_site_symmetry_multiplicity
 _atom_site_fract_x
 _atom_site_fract_y
 _atom_site_fract_z
 _atom_site_occupancy
  In  In0  1  -0.01787886  0.18562114  0.13921307  1
  In  In1  1  0.00101035  0.18012405  0.62267173  1
  In  In2  1  -0.00913490  0.50123475  0.14271923  1
  In  In3  1  -0.02721787  0.46926792  0.59564196  1
  In  In4  1  -0.05101163  0.87256957  0.17956023  1
  In  In5  1  -0.00941466  0.84102885  0.62065845  1
  In  In6  1  0.34460304  0.17101776  0.11994455  1
  In  In7  1  0.33971751  0.15369389  0.62828552  1
  In  In8  1  0.32445115  0.49688442  0.12797787  1
  In  In9  1  0.33884806  0.50042309  0.61921002  1
  In  In10  1  0.33934296  0.82694961  0.11521384  1
  In  In11  1  0.33411000  0.83135717  0.63502874  1
  In  In12  1  0.66147484  0.17073531  0.12461347  1
  In  In13  1  0.67032263  0.16297751  0.61809261  1
  In  In14  1  0.66296188  0.49845469  0.13806892  1
  In  In15  1  0.66130316  0.48363588  0.59695507  1
  In  In16  1  0.66562243  0.83956182  0.13269026  1
  In  In17  1  0.68011533  0.83648709  0.62676014  1
  In  In18  1  0.15398726  0.01674074  0.37135150  1
  In  In19  1  0.16708257  -0.01184303  0.87573400  1
  In  In20  1  0.18059480  0.33171809  0.37214810  1
  In  In21  1  0.16186749  0.34154874  0.87366448  1
  In  In22  1  0.15310453  0.65689628  0.37309167  1
  In  In23  1  0.16601118  0.65656403  0.87437888  1
  In  In24  1  0.53746220  -0.00150352  0.35893413  1
  In  In25  1  0.51087358  0.00331036  0.87232204  1
  In  In26  1  0.50221030  0.33384305  0.37937862  1
  In  In27  1  0.50202400  0.30870007  0.87731445  1
  In  In28  1  0.51033148  0.66092072  0.37021891  1
  In  In29  1  0.50722145  0.68125240  0.86998170  1
  In  In30  1  0.83947093  0.00673887  0.37128062  1
  In  In31  1  0.82125249  0.00757305  0.88472440  1
  In  In32  1  0.82305556  0.32821940  0.38890903  1
  In  In33  1  0.82437954  0.32880979  0.86449566  1
  In  In34  1  0.83232523  0.65993496  0.37402300  1
  In  In35  1  0.84278605  0.66988859  0.87888193  1
  In  In36  1  -0.00302757  0.16179371  0.36864255  1
  In  In37  1  -0.02116666  0.16486831  0.87940520  1
  In  In38  1  -0.00388007  0.48841604  0.38826811  1
  In  In39  1  0.00239518  0.49987758  0.87296469  1
  In  In40  1  -0.02434634  0.81246924  0.35137863  1
  In  In41  1  -0.00579701  0.82786237  0.88639076  1
  In  In42  1  0.33543328  0.17762787  0.37608363  1
  In  In43  1  0.36347678  0.16681884  0.87669509  1
  In  In44  1  0.35384685  0.49036534  0.38858778  1
  In  In45  1  0.32854054  0.49792096  0.86670413  1
  In  In46  1  0.34205913  0.83065629  0.37493532  1
  In  In47  1  0.35251831  0.84951062  0.86471510  1
  In  In48  1  0.66341929  0.16932379  0.38102584  1
  In  In49  1  0.67207580  0.16664527  0.87318421  1
  In  In50  1  0.66238880  0.49544009  0.37924318  1
  In  In51  1  0.68004158  0.49426655  0.86931470  1
  In  In52  1  0.70234041  0.87031536  0.32181013  1
  In  In53  1  0.65139183  0.84683132  0.88903472  1
  In  In54  1  0.15934093  -0.01107625  0.12275948  1
  In  In55  1  0.17547349  0.01003805  0.62700106  1
  In  In56  1  0.16462964  0.32678387  0.14216566  1
  In  In57  1  0.15046573  0.33339659  0.62313588  1
  In  In58  1  0.15561454  0.66283642  0.12531053  1
  In  In59  1  0.17195599  0.65960799  0.62627626  1
  In  In60  1  0.50420422  0.00549932  0.12121053  1
  In  In61  1  0.50120806  0.00147807  0.62650384  1
  In  In62  1  0.50265514  0.32868011  0.12850515  1
  In  In63  1  0.51490169  0.33627124  0.61078027  1
  In  In64  1  0.51161167  0.68112687  0.11670631  1
  In  In65  1  0.49812332  0.65507804  0.62373019  1
  In  In66  1  0.81076568  0.00893743  0.13206102  1
  In  In67  1  0.82487597  -0.01029879  0.61793213  1
  In  In68  1  0.83385585  0.33458650  0.13467663  1
  In  In69  1  0.83284951  0.32512300  0.61735162  1
  In  In70  1  0.80110923  0.70496859  0.17782254  1
  In  In71  1  0.82618123  0.66976452  0.61817409  1
  In  In72  1  0.33270654  0.65682118  0.24213004  1
  In  In73  1  0.00213821  0.00241115  0.75055793  1
  In  In74  1  0.67106830  0.66579388  0.74839954  1
  In  In75  1  0.16250751  0.16732502  0.50009343  1
  In  In76  1  0.32935435  0.00864346  0.24453718  1
  In  In77  1  0.33734055  0.32683610  0.75044637  1
  In  In78  1  0.16083867  0.84173322  0.48996461  1
  In  In79  1  0.16345490  0.82361012  -0.00272647  1
  In  In80  1  0.16434214  0.16361911  0.00682986  1
  In  In81  1  0.16170117  0.49789078  0.00079801  1
  In  In82  1  0.50418318  0.49979389  0.00600050  1
  In  In83  1  0.83622640  0.50074389  0.00599266  1
  In  In84  1  0.50706689  0.82932554  0.48759642  1
  In  In85  1  0.00273587  0.66117607  0.74914326  1
  Cu  Cu86  1  0.66430409  0.00330255  0.00330722  1
  Cu  Cu87  1  0.49830695  0.49218867  0.25575382  1
  Cu  Cu88  1  -0.01068820  -0.00352409  0.49289546  1
  Cu  Cu89  1  0.17579167  0.83141847  0.75066478  1
  Cu  Cu90  1  -0.00035804  0.67512013  0.49157547  1
  Cu  Cu91  1  0.67280211  -0.00818726  0.48870632  1
  Cu  Cu92  1  0.67115171  0.67371153  0.49356448  1
  Cu  Cu93  1  0.33450517  0.32902072  0.50018707  1
  Cu  Cu94  1  0.83298536  0.16837610  0.74657474  1
  Cu  Cu95  1  0.16091018  0.49710756  0.74766011  1
  Cu  Cu96  1  0.34458665  -0.00027862  0.50359118  1
  Cu  Cu97  1  0.17126728  0.16663516  0.74960800  1
  Cu  Cu98  1  -0.00281163  0.33317240  0.00777331  1
  Cu  Cu99  1  0.66624436  0.32750634  -0.00145971  1
  Cu  Cu100  1  0.17220156  0.49241347  0.25837996  1
  Cu  Cu101  1  0.81875073  0.17582203  0.25514725  1
  Cu  Cu102  1  -0.01743788  -0.00083821  0.01661533  1
  Cu  Cu103  1  0.49962254  0.16957082  0.24868071  1
  Cu  Cu104  1  -0.01143455  0.67796922  0.01343258  1
  Cu  Cu105  1  0.33414653  0.66491158  0.50132092  1
  Cu  Cu106  1  0.83848597  0.48571257  0.26608259  1
  Cu  Cu107  1  0.82956202  0.48913170  0.73588197  1
  Cu  Cu108  1  0.51543392  0.16422552  0.74733551  1
  Cu  Cu109  1  0.16883146  0.83872378  0.25263419  1
  Cu  Cu110  1  0.82993681  0.83921415  0.75428642  1
  Cu  Cu111  1  0.50150976  0.83786356  0.75100296  1
  Cu  Cu112  1  0.34161006  0.00488669  -0.00676740  1
  Cu  Cu113  1  0.34121680  0.66860452  -0.00781453  1
  Cu  Cu114  1  0.50461823  0.49458739  0.73770296  1
  Se  Se115  1  0.06744402  0.08305392  0.06774009  1
  Se  Se116  1  0.07359386  0.06848747  0.55706661  1
  Se  Se117  1  0.07619801  0.41293604  0.06705255  1
  Se  Se118  1  0.09184277  0.41694430  0.54626661  1
  Se  Se119  1  0.07202043  0.75839418  0.06842917  1
  Se  Se120  1  0.08045701  0.75072955  0.55774577  1
  Se  Se121  1  0.42042647  0.08561954  0.05084823  1
  Se  Se122  1  0.42509317  0.08578549  0.55430993  1
  Se  Se123  1  0.40844209  0.41257787  0.05995981  1
  Se  Se124  1  0.41800628  0.41508412  0.55181555  1
  Se  Se125  1  0.42327069  0.75184391  0.04471044  1
  Se  Se126  1  0.41261712  0.75098661  0.55726745  1
  Se  Se127  1  0.74531029  0.09132450  0.05366607  1
  Se  Se128  1  0.74909372  0.07483959  0.54878567  1
  Se  Se129  1  0.73974742  0.41076057  0.06022259  1
  Se  Se130  1  0.78236300  0.43413173  0.54836497  1
  Se  Se131  1  0.75797811  0.74871825  0.07895481  1
  Se  Se132  1  0.75014250  0.75777173  0.55023981  1
  Se  Se133  1  0.24905756  0.26188389  0.06084758  1
  Se  Se134  1  0.25671098  0.25049963  0.56417166  1
  Se  Se135  1  0.25696787  0.59477867  0.05400015  1
  Se  Se136  1  0.25125532  0.58233624  0.55360027  1
  Se  Se137  1  0.25743735  0.92316012  0.04941195  1
  Se  Se138  1  0.25835614  0.91970154  0.55723088  1
  Se  Se139  1  0.57845045  0.25112898  0.05300818  1
  Se  Se140  1  0.60674115  0.25843191  0.54651152  1
  Se  Se141  1  0.60190477  0.58737349  0.05821816  1
  Se  Se142  1  0.58642966  0.59412202  0.54947732  1
  Se  Se143  1  0.58552075  0.91661396  0.05703907  1
  Se  Se144  1  0.59147057  0.91754381  0.55487849  1
  Se  Se145  1  0.90860930  0.25461954  0.05868153  1
  Se  Se146  1  0.92050143  0.24715045  0.54913484  1
  Se  Se147  1  0.91830868  0.58773453  0.07009371  1
  Se  Se148  1  0.92478388  0.59866015  0.55674372  1
  Se  Se149  1  0.90838390  0.91924374  0.07845124  1
  Se  Se150  1  0.90926537  0.91101393  0.54685603  1
  Se  Se151  1  0.07950647  0.25417546  0.43702445  1
  Se  Se152  1  0.07541730  0.25581304  0.94365092  1
  Se  Se153  1  0.08159747  0.58222990  0.44985620  1
  Se  Se154  1  0.06638437  0.59682694  0.94912156  1
  Se  Se155  1  0.06561647  0.91962032  0.42818822  1
  Se  Se156  1  0.06861693  0.92948374  0.95152896  1
  Se  Se157  1  0.41949501  0.24696736  0.44883163  1
  Se  Se158  1  0.40845219  0.26019254  0.95229147  1
  Se  Se159  1  0.42482137  0.59339347  0.44629452  1
  Se  Se160  1  0.41630992  0.58249463  0.93495373  1
  Se  Se161  1  0.42009623  0.93033804  0.43459980  1
  Se  Se162  1  0.42627098  0.92059202  0.94246632  1
  Se  Se163  1  0.72214066  0.26224851  0.45560070  1
  Se  Se164  1  0.75367332  0.25221288  0.94239321  1
  Se  Se165  1  0.74901432  0.58226678  0.44462325  1
  Se  Se166  1  0.74653815  0.58725944  0.94086063  1
  Se  Se167  1  0.74640440  0.91356957  0.42355744  1
  Se  Se168  1  0.74922251  0.91673551  0.95274677  1
  Se  Se169  1  0.25608097  0.07410367  0.44378925  1
  Se  Se170  1  0.25315706  0.08111803  0.93765602  1
  Se  Se171  1  0.25423393  0.41386132  0.44706986  1
  Se  Se172  1  0.25764771  0.41101409  0.94343348  1
  Se  Se173  1  0.25434867  0.74291255  0.43951422  1
  Se  Se174  1  0.25972302  0.74754938  0.93181242  1
  Se  Se175  1  0.58158204  0.07555012  0.44529354  1
  Se  Se176  1  0.58805582  0.08685933  0.94309674  1
  Se  Se177  1  0.56342464  0.43357674  0.44664186  1
  Se  Se178  1  0.59017744  0.41172687  0.93829479  1
  Se  Se179  1  0.60162254  0.75195395  0.42710152  1
  Se  Se180  1  0.59258315  0.73724994  0.94608948  1
  Se  Se181  1  0.91421086  0.08999419  0.44427681  1
  Se  Se182  1  0.91080664  0.08209307  0.95386347  1
  Se  Se183  1  0.89884080  0.42097716  0.45599438  1
  Se  Se184  1  0.92149542  0.41056452  0.94093529  1
  Se  Se185  1  0.91248895  0.75328670  0.43972896  1
  Se  Se186  1  0.90654879  0.75571927  0.95558980  1
  Se  Se187  1  0.24657964  0.23692613  0.30365745  1
  Se  Se188  1  0.24877036  0.24148299  0.81576292  1
  Se  Se189  1  0.25477833  0.57448219  0.31511174  1
  Se  Se190  1  0.24416669  0.58046591  0.80037621  1
  Se  Se191  1  0.24803057  0.91615122  0.31308137  1
  Se  Se192  1  0.25249578  0.92067845  0.80239724  1
  Se  Se193  1  0.57936710  0.24774186  0.30936799  1
  Se  Se194  1  0.59122742  0.25133607  0.80217787  1
  Se  Se195  1  0.58766781  0.57592952  0.30129251  1
  Se  Se196  1  0.57827725  0.57349760  0.80550725  1
  Se  Se197  1  0.56098861  0.88735766  0.29260025  1
  Se  Se198  1  0.59008336  0.91527751  0.80381875  1
  Se  Se199  1  0.90335651  0.25092443  0.31408646  1
  Se  Se200  1  0.91744131  0.24841501  0.80175561  1
  Se  Se201  1  0.92234866  0.57289287  0.31425134  1
  Se  Se202  1  0.90235716  0.57066738  0.80278976  1
  Se  Se203  1  0.92082241  0.92690679  0.29653653  1
  Se  Se204  1  0.91501067  0.91377178  0.81421947  1
  Se  Se205  1  0.08392355  0.09205792  0.29575997  1
  Se  Se206  1  0.08898429  0.09166982  0.81444934  1
  Se  Se207  1  0.08621393  0.41766893  0.31542612  1
  Se  Se208  1  0.07779876  0.41570287  0.80225624  1
  Se  Se209  1  0.09030435  0.74763109  0.30121933  1
  Se  Se210  1  0.08806208  0.75919153  0.81080819  1
  Se  Se211  1  0.42528073  0.08464016  0.31052263  1
  Se  Se212  1  0.42778056  0.08431698  0.80068213  1
  Se  Se213  1  0.41393160  0.41100869  0.30779954  1
  Se  Se214  1  0.43072996  0.41760175  0.80706640  1
  Se  Se215  1  0.41870554  0.74770610  0.30274581  1
  Se  Se216  1  0.41792194  0.74968408  0.79907213  1
  Se  Se217  1  0.74413275  0.08791687  0.31030690  1
  Se  Se218  1  0.75609584  0.08377093  0.80437952  1
  Se  Se219  1  0.74634505  0.40907587  0.31394494  1
  Se  Se220  1  0.74579684  0.41136783  0.79364808  1
  Se  Se221  1  0.76236753  0.74057079  0.29395020  1
  Se  Se222  1  0.75420235  0.75473436  0.81313303  1
  Se  Se223  1  0.24179656  0.09099371  0.17974448  1
  Se  Se224  1  0.25598018  0.08117209  0.70202380  1
  Se  Se225  1  0.25470135  0.41403337  0.20156830  1
  Se  Se226  1  0.24588115  0.41581096  0.69092821  1
  Se  Se227  1  0.24371612  0.75911364  0.18870179  1
  Se  Se228  1  0.25014905  0.74249622  0.69685655  1
  Se  Se229  1  0.58055245  0.08579874  0.19449421  1
  Se  Se230  1  0.59233435  0.07986191  0.69034702  1
  Se  Se231  1  0.58122852  0.40948346  0.20043196  1
  Se  Se232  1  0.59070402  0.41967746  0.68261893  1
  Se  Se233  1  0.58260504  0.74796581  0.19646401  1
  Se  Se234  1  0.57776424  0.75572467  0.68819365  1
  Se  Se235  1  0.89870489  0.09291758  0.19818518  1
  Se  Se236  1  0.91311125  0.08576112  0.68661839  1
  Se  Se237  1  0.92093376  0.40546648  0.20746970  1
  Se  Se238  1  0.91847504  0.40880017  0.68723174  1
  Se  Se239  1  0.94118482  0.73156078  0.20598601  1
  Se  Se240  1  0.90950616  0.75752549  0.69504206  1
  Se  Se241  1  0.07761728  0.24950874  0.20648717  1
  Se  Se242  1  0.08548872  0.24670394  0.69836100  1
  Se  Se243  1  0.09446017  0.57520228  0.19994565  1
  Se  Se244  1  0.07960446  0.57014749  0.68441538  1
  Se  Se245  1  0.08591202  0.92443175  0.20377456  1
  Se  Se246  1  0.09268365  0.90879325  0.68995758  1
  Se  Se247  1  0.41400622  0.25031079  0.19695246  1
  Se  Se248  1  0.43263710  0.24570395  0.68780182  1
  Se  Se249  1  0.43125105  0.57338694  0.18470449  1
  Se  Se250  1  0.41468964  0.57942626  0.69465352  1
  Se  Se251  1  0.41460970  0.91344132  0.18631118  1
  Se  Se252  1  0.41838353  0.91965261  0.69590038  1
  Se  Se253  1  0.73952520  0.25535686  0.19589154  1
  Se  Se254  1  0.75087912  0.24683206  0.68882192  1
  Se  Se255  1  0.76594938  0.56279758  0.19980732  1
  Se  Se256  1  0.74772443  0.57341810  0.68196853  1
  Se  Se257  1  0.72991592  0.93225500  0.20656754  1
  Se  Se258  1  0.75032996  0.92215506  0.69952386  1
