# generated using pymatgen
data_In86Cu29Se144
_symmetry_space_group_name_H-M   'P 1'
_cell_length_a   17.57570323
_cell_length_b   17.57320234
_cell_length_c   23.42202870
_cell_angle_alpha   90.01285838
_cell_angle_beta   89.97706984
_cell_angle_gamma   89.99767534
_symmetry_Int_Tables_number   1
_chemical_formula_structural   In86Cu29Se144
_chemical_formula_sum   'In86 Cu29 Se144'
_cell_volume   7234.15955378
_cell_formula_units_Z   1
loop_
 _symmetry_equiv_pos_site_id
 _symmetry_equiv_pos_as_xyz
  1  'x, y, z'
loop_
 _atom_site_type_symbol
 _atom_site_label
 _atom_site_symmetry_multiplicity
 _atom_site_fract_x
 _atom_site_fract_y
 _atom_site_fract_z
 _atom_site_occupancy
  In  In0  1  -0.00842404  0.17639399  0.12545009  1
  In  In1  1  -0.01794823  0.16783543  0.62935077  1
  In  In2  1  -0.00118362  0.47332664  0.11766451  1
  In  In3  1  0.00639228  0.50900858  0.62157866  1
  In  In4  1  0.01656364  0.83321848  0.12059617  1
  In  In5  1  -0.00923137  0.83363846  0.63820251  1
  In  In6  1  0.32693011  0.15358844  0.11956767  1
  In  In7  1  0.34017189  0.16068121  0.63523001  1
  In  In8  1  0.33388438  0.50034594  0.11414550  1
  In  In9  1  0.33583634  0.49867317  0.63164487  1
  In  In10  1  0.33892854  0.84062496  0.11097499  1
  In  In11  1  0.33502817  0.82929000  0.62749969  1
  In  In12  1  0.67267500  0.17041023  0.11049347  1
  In  In13  1  0.68085306  0.16205452  0.64197786  1
  In  In14  1  0.66811373  0.50673005  0.12113647  1
  In  In15  1  0.66757538  0.50048929  0.63400065  1
  In  In16  1  0.66177715  0.84122710  0.11260452  1
  In  In17  1  0.66194441  0.84001671  0.63717043  1
  In  In18  1  0.16762666  0.00190313  0.37172521  1
  In  In19  1  0.15872431  -0.01257175  0.87061657  1
  In  In20  1  0.16205811  0.34803753  0.37805636  1
  In  In21  1  0.17564056  0.33477043  0.87370426  1
  In  In22  1  0.15695043  0.65902817  0.38190302  1
  In  In23  1  0.17287048  0.66284640  0.87011892  1
  In  In24  1  0.49119215  -0.00039204  0.37763939  1
  In  In25  1  0.49783485  0.00235100  0.87058696  1
  In  In26  1  0.50598910  0.33247298  0.38087745  1
  In  In27  1  0.50460702  0.33655365  0.87499292  1
  In  In28  1  0.50021169  0.66952129  0.39178710  1
  In  In29  1  0.49650354  0.66916981  0.87124531  1
  In  In30  1  0.84871060  -0.00377189  0.37715145  1
  In  In31  1  0.84598860  0.01461660  0.85405404  1
  In  In32  1  0.83569613  0.32978191  0.38746292  1
  In  In33  1  0.82338738  0.33560058  0.86469488  1
  In  In34  1  0.82845483  0.66751916  0.38544306  1
  In  In35  1  0.82861927  0.66225687  0.84084033  1
  In  In36  1  -0.00550392  0.16102645  0.37525309  1
  In  In37  1  0.00240609  0.16101593  0.87940736  1
  In  In38  1  -0.00077043  0.49492336  0.38444706  1
  In  In39  1  0.00055063  0.50758678  0.86962961  1
  In  In40  1  -0.00477811  0.84141641  0.37560610  1
  In  In41  1  0.00153840  0.83864643  0.87189276  1
  In  In42  1  0.34169309  0.15563336  0.37079280  1
  In  In43  1  0.34599117  0.18135381  0.86576526  1
  In  In44  1  0.33106188  0.50056339  0.38853986  1
  In  In45  1  0.33271493  0.50575327  0.86766216  1
  In  In46  1  0.33468233  0.84581132  0.38232281  1
  In  In47  1  0.33161046  0.83335898  0.87190206  1
  In  In48  1  0.66941673  0.17848405  0.38110987  1
  In  In49  1  0.66890665  0.16276693  0.86793766  1
  In  In50  1  0.66588207  0.49856873  0.39300424  1
  In  In51  1  0.66749398  0.48996442  0.85919927  1
  In  In52  1  0.66082609  0.82216940  0.38176667  1
  In  In53  1  0.65742505  0.82860083  0.86283562  1
  In  In54  1  0.17576546  -0.00264889  0.12540444  1
  In  In55  1  0.17045641  -0.00617650  0.63225268  1
  In  In56  1  0.15072415  0.33516525  0.11752064  1
  In  In57  1  0.16593967  0.35159728  0.63316062  1
  In  In58  1  0.16287507  0.66664835  0.11105849  1
  In  In59  1  0.17908153  0.64123693  0.65319413  1
  In  In60  1  0.48971234  -0.00987767  0.10982760  1
  In  In61  1  0.50150185  -0.00458848  0.62754429  1
  In  In62  1  0.50359389  0.33466368  0.11243909  1
  In  In63  1  0.49043313  0.34449957  0.63578397  1
  In  In64  1  0.49737670  0.66405684  0.10847846  1
  In  In65  1  0.49920092  0.66605212  0.62971631  1
  In  In66  1  0.83576233  0.01822457  0.11885820  1
  In  In67  1  0.82016837  0.01058226  0.65107847  1
  In  In68  1  0.85836035  0.33126760  0.11842450  1
  In  In69  1  0.81904441  0.32270581  0.62613125  1
  In  In70  1  0.82441755  0.65802317  0.12276410  1
  In  In71  1  0.84816119  0.64842903  0.65101751  1
  In  In72  1  0.16716532  0.16807596  -0.00255003  1
  In  In73  1  0.50382106  0.16988085  0.50416437  1
  In  In74  1  0.00114656  0.66636964  0.25548609  1
  In  In75  1  0.00244934  0.33278989  0.75454647  1
  In  In76  1  0.16734923  0.82369739  0.51129875  1
  In  In77  1  0.83159320  0.49738176  -0.00760244  1
  In  In78  1  0.66879586  0.66583864  0.24504844  1
  In  In79  1  0.67177847  0.33340337  0.25775397  1
  In  In80  1  0.82668393  0.83056916  0.51038098  1
  In  In81  1  0.16774966  0.16895667  0.49693837  1
  In  In82  1  0.32560068  0.32533051  0.25296961  1
  In  In83  1  0.66882119  0.00321068  0.24606304  1
  In  In84  1  0.33262620  0.66956255  0.25019846  1
  In  In85  1  0.83095127  0.83806958  -0.01967262  1
  Cu  Cu86  1  0.50226895  0.50123818  0.25429885  1
  Cu  Cu87  1  -0.00323884  -0.00121689  -0.00425994  1
  Cu  Cu88  1  0.15555494  0.16231887  0.24739958  1
  Cu  Cu89  1  0.49314787  0.83931915  0.24255119  1
  Cu  Cu90  1  -0.00710709  0.33847492  0.51216754  1
  Cu  Cu91  1  0.66654938  0.33154492  -0.01194426  1
  Cu  Cu92  1  0.66026849  0.00275201  -0.00998956  1
  Cu  Cu93  1  0.84350094  0.83863990  0.24657244  1
  Cu  Cu94  1  0.16684127  0.16002332  0.75435479  1
  Cu  Cu95  1  0.66063907  0.33641563  0.51020327  1
  Cu  Cu96  1  0.16603171  0.83171330  0.75177636  1
  Cu  Cu97  1  0.49308272  0.15502449  0.24087846  1
  Cu  Cu98  1  0.00297432  0.66127981  0.51272623  1
  Cu  Cu99  1  0.17400430  0.84290261  0.24596904  1
  Cu  Cu100  1  0.83932717  0.17133290  0.24969689  1
  Cu  Cu101  1  0.67250865  0.00180032  0.51434318  1
  Cu  Cu102  1  0.33405915  0.65987537  0.51337598  1
  Cu  Cu103  1  0.33166147  0.00304655  -0.00906560  1
  Cu  Cu104  1  0.32947155  0.33633398  0.51108694  1
  Cu  Cu105  1  -0.00137762  0.00464061  0.50549437  1
  Cu  Cu106  1  0.33404007  0.66853951  -0.01041181  1
  Cu  Cu107  1  0.49078744  0.83707949  0.74959239  1
  Cu  Cu108  1  0.50001455  0.50189921  0.75362660  1
  Cu  Cu109  1  0.15868973  0.49741793  0.24752752  1
  Cu  Cu110  1  0.00020251  0.66656800  -0.01011196  1
  Cu  Cu111  1  0.34044891  0.34061095  -0.00930400  1
  Cu  Cu112  1  0.66604373  0.66415865  0.51532868  1
  Cu  Cu113  1  0.66600771  0.66484057  -0.01328293  1
  Cu  Cu114  1  0.50615157  0.16784007  0.75167369  1
  Se  Se115  1  0.07678551  0.07740291  0.05870556  1
  Se  Se116  1  0.08237546  0.08229079  0.56336114  1
  Se  Se117  1  0.09425119  0.42643179  0.04354915  1
  Se  Se118  1  0.08671382  0.41946927  0.55513939  1
  Se  Se119  1  0.08231460  0.75228691  0.04288103  1
  Se  Se120  1  0.07936294  0.74057076  0.57447972  1
  Se  Se121  1  0.41389207  0.08611753  0.04616992  1
  Se  Se122  1  0.41140991  0.07777609  0.55675718  1
  Se  Se123  1  0.42324537  0.42297857  0.04768487  1
  Se  Se124  1  0.41744899  0.41946484  0.55745828  1
  Se  Se125  1  0.41804599  0.75243449  0.04434952  1
  Se  Se126  1  0.41770754  0.74907002  0.55749910  1
  Se  Se127  1  0.74955877  0.08102714  0.04337369  1
  Se  Se128  1  0.75674860  0.08237467  0.56617160  1
  Se  Se129  1  0.74520718  0.40552059  0.05749712  1
  Se  Se130  1  0.74758448  0.41914664  0.56042378  1
  Se  Se131  1  0.74638104  0.74407530  0.04842843  1
  Se  Se132  1  0.74897646  0.74028589  0.57579234  1
  Se  Se133  1  0.26016382  0.26183286  0.05586368  1
  Se  Se134  1  0.25212323  0.25144533  0.56726328  1
  Se  Se135  1  0.25281811  0.58597220  0.04791762  1
  Se  Se136  1  0.24580307  0.58131608  0.56508695  1
  Se  Se137  1  0.24765667  0.92135426  0.04698683  1
  Se  Se138  1  0.25884984  0.92417944  0.55601313  1
  Se  Se139  1  0.58362453  0.24928553  0.04528830  1
  Se  Se140  1  0.58784433  0.25119200  0.57233542  1
  Se  Se141  1  0.58915768  0.58141359  0.04690948  1
  Se  Se142  1  0.58021930  0.57763372  0.56244020  1
  Se  Se143  1  0.57919325  0.91446975  0.04089414  1
  Se  Se144  1  0.58730303  0.91448636  0.55862786  1
  Se  Se145  1  0.91372542  0.23893309  0.04537406  1
  Se  Se146  1  0.90857820  0.24788219  0.55497315  1
  Se  Se147  1  0.92250529  0.58817347  0.05531741  1
  Se  Se148  1  0.90709348  0.58556282  0.56032747  1
  Se  Se149  1  0.91639261  0.91574251  0.05619062  1
  Se  Se150  1  0.91796830  0.92388568  0.56411224  1
  Se  Se151  1  0.07102393  0.26133902  0.44508992  1
  Se  Se152  1  0.07721276  0.26211964  0.94226544  1
  Se  Se153  1  0.08252987  0.57848591  0.45410523  1
  Se  Se154  1  0.08567424  0.58219247  0.94066266  1
  Se  Se155  1  0.08042785  0.92145315  0.44857442  1
  Se  Se156  1  0.08166379  0.91312654  0.94775686  1
  Se  Se157  1  0.40330427  0.25655871  0.44460209  1
  Se  Se158  1  0.42263018  0.25087759  0.94471778  1
  Se  Se159  1  0.41807884  0.57991735  0.45450493  1
  Se  Se160  1  0.41853834  0.58219662  0.94079329  1
  Se  Se161  1  0.43241981  0.90669193  0.44946118  1
  Se  Se162  1  0.41593760  0.91764107  0.94019561  1
  Se  Se163  1  0.74505327  0.25289963  0.45585026  1
  Se  Se164  1  0.75151712  0.24927602  0.93716712  1
  Se  Se165  1  0.75011588  0.58687936  0.45594669  1
  Se  Se166  1  0.75151096  0.59118156  0.92727413  1
  Se  Se167  1  0.74351241  0.92424394  0.44266115  1
  Se  Se168  1  0.74149079  0.93034401  0.92509675  1
  Se  Se169  1  0.26077828  0.07384902  0.44484590  1
  Se  Se170  1  0.25295971  0.08496475  0.93070255  1
  Se  Se171  1  0.24623332  0.41573222  0.45315112  1
  Se  Se172  1  0.25355294  0.42188105  0.94129027  1
  Se  Se173  1  0.25843709  0.73683027  0.44388919  1
  Se  Se174  1  0.24726784  0.75251652  0.94165714  1
  Se  Se175  1  0.59459117  0.07533362  0.44445774  1
  Se  Se176  1  0.57892295  0.08903530  0.93899294  1
  Se  Se177  1  0.57521999  0.41586278  0.45508134  1
  Se  Se178  1  0.58978297  0.42484421  0.94045374  1
  Se  Se179  1  0.58629773  0.75027933  0.45968299  1
  Se  Se180  1  0.58211575  0.75349932  0.93996983  1
  Se  Se181  1  0.91407621  0.08447879  0.45038198  1
  Se  Se182  1  0.91125600  0.07835484  0.94213926  1
  Se  Se183  1  0.91106894  0.42131284  0.45489691  1
  Se  Se184  1  0.92245274  0.40862564  0.93421627  1
  Se  Se185  1  0.92965159  0.74648478  0.44964765  1
  Se  Se186  1  0.91171579  0.73295119  0.92829519  1
  Se  Se187  1  0.23431725  0.23719075  0.31539132  1
  Se  Se188  1  0.24805514  0.25081595  0.80055031  1
  Se  Se189  1  0.24215256  0.57409867  0.30911712  1
  Se  Se190  1  0.25563808  0.58932972  0.79662727  1
  Se  Se191  1  0.25511661  0.91843943  0.30670943  1
  Se  Se192  1  0.25120455  0.91832884  0.80154958  1
  Se  Se193  1  0.56940023  0.23579545  0.30455816  1
  Se  Se194  1  0.58602829  0.25418794  0.80442096  1
  Se  Se195  1  0.58016204  0.58280167  0.31444025  1
  Se  Se196  1  0.58407040  0.58823974  0.80347343  1
  Se  Se197  1  0.58154818  0.90800462  0.30607801  1
  Se  Se198  1  0.57795264  0.92092173  0.79879374  1
  Se  Se199  1  0.91380375  0.25291217  0.31159562  1
  Se  Se200  1  0.91255334  0.23739704  0.80789750  1
  Se  Se201  1  0.90858410  0.58138680  0.31513262  1
  Se  Se202  1  0.91817547  0.56761316  0.79048948  1
  Se  Se203  1  0.92492550  0.92226699  0.29978665  1
  Se  Se204  1  0.91228040  0.90548519  0.80083987  1
  Se  Se205  1  0.07806449  0.07984404  0.30662050  1
  Se  Se206  1  0.08067379  0.08105580  0.80705633  1
  Se  Se207  1  0.07649857  0.41969066  0.30575746  1
  Se  Se208  1  0.09752432  0.42628130  0.80504882  1
  Se  Se209  1  0.09689716  0.76215414  0.31010713  1
  Se  Se210  1  0.08485448  0.75033528  0.80770371  1
  Se  Se211  1  0.41551007  0.07224593  0.29847755  1
  Se  Se212  1  0.41559319  0.08503750  0.79998513  1
  Se  Se213  1  0.41873738  0.41992432  0.31100178  1
  Se  Se214  1  0.41845948  0.41536638  0.80574597  1
  Se  Se215  1  0.42647055  0.75473164  0.31096301  1
  Se  Se216  1  0.41146280  0.74895262  0.80184967  1
  Se  Se217  1  0.75624077  0.09160919  0.31146596  1
  Se  Se218  1  0.74443472  0.08226361  0.79316082  1
  Se  Se219  1  0.75432393  0.42584887  0.31868999  1
  Se  Se220  1  0.76548491  0.42752920  0.79143512  1
  Se  Se221  1  0.76096700  0.76016047  0.30707035  1
  Se  Se222  1  0.75369824  0.76927075  0.79015643  1
  Se  Se223  1  0.24813987  0.08578419  0.19756166  1
  Se  Se224  1  0.25205955  0.07858461  0.69969028  1
  Se  Se225  1  0.24581897  0.42155432  0.18909563  1
  Se  Se226  1  0.25875884  0.41349049  0.70266805  1
  Se  Se227  1  0.24448591  0.75405290  0.18507180  1
  Se  Se228  1  0.25329246  0.75136395  0.70017430  1
  Se  Se229  1  0.58054738  0.08592034  0.17961284  1
  Se  Se230  1  0.58195931  0.07971544  0.69684689  1
  Se  Se231  1  0.57952966  0.42045788  0.19261631  1
  Se  Se232  1  0.58433118  0.41492948  0.70290845  1
  Se  Se233  1  0.57557093  0.75631117  0.18498162  1
  Se  Se234  1  0.57637077  0.75232423  0.69969143  1
  Se  Se235  1  0.91852370  0.08444363  0.19552856  1
  Se  Se236  1  0.93270066  0.07299386  0.70326983  1
  Se  Se237  1  0.91040017  0.42120129  0.19545129  1
  Se  Se238  1  0.92092503  0.41051410  0.68149623  1
  Se  Se239  1  0.91302687  0.75119472  0.18556850  1
  Se  Se240  1  0.92016333  0.74846235  0.71066608  1
  Se  Se241  1  0.08197731  0.25274173  0.19358734  1
  Se  Se242  1  0.09022489  0.24136250  0.69057251  1
  Se  Se243  1  0.08381704  0.58029104  0.18584258  1
  Se  Se244  1  0.05993544  0.59150084  0.70443645  1
  Se  Se245  1  0.08434368  0.92010160  0.19372919  1
  Se  Se246  1  0.08295086  0.91704633  0.69963755  1
  Se  Se247  1  0.41945158  0.24693329  0.18601280  1
  Se  Se248  1  0.41710715  0.24981577  0.70135664  1
  Se  Se249  1  0.42518255  0.57825267  0.18982749  1
  Se  Se250  1  0.41680336  0.58447045  0.69979359  1
  Se  Se251  1  0.41028968  0.92064117  0.18856695  1
  Se  Se252  1  0.40937234  0.92150094  0.69511101  1
  Se  Se253  1  0.75497285  0.24667061  0.18905406  1
  Se  Se254  1  0.75042852  0.25543334  0.70916823  1
  Se  Se255  1  0.76276601  0.56495117  0.19865891  1
  Se  Se256  1  0.73340160  0.59366898  0.70532043  1
  Se  Se257  1  0.75816380  0.91024766  0.18454080  1
  Se  Se258  1  0.76186121  0.89817126  0.70680009  1
