# generated using pymatgen
data_In86Cu29Se144
_symmetry_space_group_name_H-M   'P 1'
_cell_length_a   17.58351354
_cell_length_b   17.58494365
_cell_length_c   23.44025739
_cell_angle_alpha   89.99022046
_cell_angle_beta   89.99439263
_cell_angle_gamma   89.97820159
_symmetry_Int_Tables_number   1
_chemical_formula_structural   In86Cu29Se144
_chemical_formula_sum   'In86 Cu29 Se144'
_cell_volume   7247.84634579
_cell_formula_units_Z   1
loop_
 _symmetry_equiv_pos_site_id
 _symmetry_equiv_pos_as_xyz
  1  'x, y, z'
loop_
 _atom_site_type_symbol
 _atom_site_label
 _atom_site_symmetry_multiplicity
 _atom_site_fract_x
 _atom_site_fract_y
 _atom_site_fract_z
 _atom_site_occupancy
  In  In0  1  -0.00365255  0.15299332  0.12097395  1
  In  In1  1  0.00929258  0.16600117  0.63896550  1
  In  In2  1  0.00233233  0.51122056  0.12242169  1
  In  In3  1  -0.01126496  0.49071625  0.61193906  1
  In  In4  1  0.00068982  0.83459387  0.12313570  1
  In  In5  1  0.01169197  0.84015992  0.62907309  1
  In  In6  1  0.32859067  0.16872780  0.11941311  1
  In  In7  1  0.31118400  0.16973272  0.62865264  1
  In  In8  1  0.33682721  0.50381881  0.14284729  1
  In  In9  1  0.33587906  0.49835990  0.60994597  1
  In  In10  1  0.32579487  0.82472155  0.11936999  1
  In  In11  1  0.34217965  0.83487548  0.62712316  1
  In  In12  1  0.66150389  0.17253982  0.13148373  1
  In  In13  1  0.68273359  0.17627137  0.62966661  1
  In  In14  1  0.66897620  0.49305375  0.13602266  1
  In  In15  1  0.66998920  0.50032260  0.62377785  1
  In  In16  1  0.66841080  0.83420694  0.12498415  1
  In  In17  1  0.64783423  0.82942777  0.62492450  1
  In  In18  1  0.17163257  0.00578751  0.37341751  1
  In  In19  1  0.15997931  0.00972194  0.87756671  1
  In  In20  1  0.17711825  0.32577931  0.37919182  1
  In  In21  1  0.14829596  0.32694578  0.87142818  1
  In  In22  1  0.15442315  0.65784074  0.35989768  1
  In  In23  1  0.17777129  0.67026791  0.88067067  1
  In  In24  1  0.49454294  -0.01433713  0.37696309  1
  In  In25  1  0.49141870  -0.00301149  0.88284455  1
  In  In26  1  0.51843613  0.35855042  0.35404375  1
  In  In27  1  0.50781041  0.32549634  0.87379607  1
  In  In28  1  0.50219540  0.66323215  0.37175357  1
  In  In29  1  0.50803859  0.67103142  0.87671554  1
  In  In30  1  0.83463472  0.00052697  0.36674152  1
  In  In31  1  0.83626754  -0.01334957  0.87706360  1
  In  In32  1  0.83114122  0.34836331  0.37504157  1
  In  In33  1  0.83952681  0.34158302  0.87569181  1
  In  In34  1  0.82346762  0.65724914  0.36500687  1
  In  In35  1  0.82570351  0.67589332  0.88328911  1
  In  In36  1  0.01381104  0.16608023  0.37484903  1
  In  In37  1  0.01251807  0.18529971  0.86010040  1
  In  In38  1  -0.00946189  0.50381233  0.37956197  1
  In  In39  1  -0.01089038  0.47594903  0.87349617  1
  In  In40  1  0.00659281  0.83446447  0.35865993  1
  In  In41  1  -0.00766450  0.84186669  0.88115347  1
  In  In42  1  0.31997784  0.16865198  0.37840851  1
  In  In43  1  0.32768499  0.14557139  0.87014689  1
  In  In44  1  0.33610332  0.49753151  0.37139597  1
  In  In45  1  0.33276606  0.50543849  0.87471675  1
  In  In46  1  0.34497462  0.83696394  0.37337480  1
  In  In47  1  0.30266368  0.86913442  0.91495129  1
  In  In48  1  0.66444626  0.16823198  0.36714155  1
  In  In49  1  0.67039412  0.17590623  0.86795911  1
  In  In50  1  0.66811181  0.50548236  0.37234273  1
  In  In51  1  0.66947767  0.50869921  0.87276708  1
  In  In52  1  0.65222374  0.81737394  0.36387638  1
  In  In53  1  0.67649364  0.82654143  0.88577060  1
  In  In54  1  0.15241751  -0.02203462  0.10928758  1
  In  In55  1  0.15628602  0.01858218  0.64606600  1
  In  In56  1  0.17365877  0.33806827  0.12066990  1
  In  In57  1  0.15979942  0.32549725  0.61262637  1
  In  In58  1  0.15261367  0.68715501  0.14740056  1
  In  In59  1  0.18029553  0.66821843  0.61989045  1
  In  In60  1  0.51027278  0.00553994  0.12319346  1
  In  In61  1  0.49867737  -0.01735777  0.62629677  1
  In  In62  1  0.49738663  0.33505125  0.13430293  1
  In  In63  1  0.50253083  0.34744066  0.62072477  1
  In  In64  1  0.49113147  0.67027930  0.14515421  1
  In  In65  1  0.50615466  0.67131712  0.61753047  1
  In  In66  1  0.84412463  -0.00639892  0.12676762  1
  In  In67  1  0.84455299  0.01009490  0.63099886  1
  In  In68  1  0.81528314  0.33625504  0.11732172  1
  In  In69  1  0.82636567  0.33895287  0.63522004  1
  In  In70  1  0.83352503  0.66712412  0.12388582  1
  In  In71  1  0.83348026  0.64877189  0.62197095  1
  In  In72  1  0.33449174  0.33247109  0.75114089  1
  In  In73  1  -0.00415090  0.33189958  0.25128510  1
  In  In74  1  0.50254595  0.50261952  0.00969219  1
  In  In75  1  0.16351138  0.50752897  0.00338761  1
  In  In76  1  -0.00200006  0.66578022  0.74675353  1
  In  In77  1  0.48830116  0.16996568  0.49981561  1
  In  In78  1  0.82892623  0.82620711  0.49244151  1
  In  In79  1  0.66640471  -0.00130073  0.74791148  1
  In  In80  1  0.83847280  0.17003895  -0.00592195  1
  In  In81  1  0.49847066  0.16677213  0.00475627  1
  In  In82  1  0.83724944  0.16970322  0.50934093  1
  In  In83  1  0.34258602  0.67270616  0.75070489  1
  In  In84  1  0.17441751  0.83309060  0.49695526  1
  In  In85  1  0.32849542  -0.00281647  0.24809010  1
  Cu  Cu86  1  0.16614427  0.84454609  0.76184610  1
  Cu  Cu87  1  0.33412771  0.66833930  0.01584123  1
  Cu  Cu88  1  0.33951138  0.33934231  0.49342973  1
  Cu  Cu89  1  0.50160969  0.16892517  0.75156292  1
  Cu  Cu90  1  0.83487038  0.83674605  0.24276776  1
  Cu  Cu91  1  0.16059341  0.15926477  0.24939279  1
  Cu  Cu92  1  0.16838425  0.49567722  0.25011246  1
  Cu  Cu93  1  0.66404402  0.66104032  0.49217429  1
  Cu  Cu94  1  0.49767108  0.82974847  0.75511922  1
  Cu  Cu95  1  0.16054249  0.49537615  0.74207009  1
  Cu  Cu96  1  0.00087918  0.66219383  0.49113024  1
  Cu  Cu97  1  0.66799774  0.66756678  0.00506316  1
  Cu  Cu98  1  0.83054968  0.16545245  0.24426736  1
  Cu  Cu99  1  0.33633479  0.66268241  0.49363142  1
  Cu  Cu100  1  0.83326171  0.50360447  0.24994658  1
  Cu  Cu101  1  0.00471914  -0.00141713  -0.00079233  1
  Cu  Cu102  1  0.49696489  0.16624246  0.24800241  1
  Cu  Cu103  1  0.51204668  0.50140326  0.74450863  1
  Cu  Cu104  1  0.83020758  0.49981081  0.74996380  1
  Cu  Cu105  1  0.00132283  0.66735332  0.00275336  1
  Cu  Cu106  1  0.66811532  0.34177079  0.49833260  1
  Cu  Cu107  1  0.50532496  0.83618122  0.25076789  1
  Cu  Cu108  1  0.66122191  -0.00850116  0.49772273  1
  Cu  Cu109  1  0.32788718  0.33079127  -0.00097023  1
  Cu  Cu110  1  0.32682541  -0.00062727  0.50149079  1
  Cu  Cu111  1  0.67208003  0.00073538  0.00256779  1
  Cu  Cu112  1  0.00723187  0.33365975  0.49777318  1
  Cu  Cu113  1  0.00452895  0.00341888  0.50652211  1
  Cu  Cu114  1  0.82585633  0.82632103  0.75517223  1
  Se  Se115  1  0.08667815  0.08548920  0.04999120  1
  Se  Se116  1  0.08424108  0.08499055  0.56276991  1
  Se  Se117  1  0.07322123  0.40998810  0.05549264  1
  Se  Se118  1  0.08928319  0.42296579  0.54794732  1
  Se  Se119  1  0.08659642  0.74536865  0.05831700  1
  Se  Se120  1  0.07545687  0.74334062  0.55470212  1
  Se  Se121  1  0.40698262  0.07035904  0.05499398  1
  Se  Se122  1  0.40814496  0.07663319  0.56428443  1
  Se  Se123  1  0.40305995  0.41130224  0.06099117  1
  Se  Se124  1  0.42673449  0.42071735  0.54413992  1
  Se  Se125  1  0.42734040  0.74632680  0.06242304  1
  Se  Se126  1  0.41039037  0.74768640  0.55417298  1
  Se  Se127  1  0.74804630  0.08562281  0.06155632  1
  Se  Se128  1  0.74097246  0.06985858  0.55853320  1
  Se  Se129  1  0.74468411  0.43081832  0.05340531  1
  Se  Se130  1  0.75516160  0.41542142  0.55639692  1
  Se  Se131  1  0.75298654  0.75366357  0.05519328  1
  Se  Se132  1  0.74058299  0.74134289  0.55797521  1
  Se  Se133  1  0.24334005  0.24758349  0.04973306  1
  Se  Se134  1  0.25776228  0.25382876  0.54748367  1
  Se  Se135  1  0.25141983  0.58661562  0.07192000  1
  Se  Se136  1  0.24858690  0.58349388  0.54650106  1
  Se  Se137  1  0.25771642  0.91495766  0.04850427  1
  Se  Se138  1  0.24706863  0.92398791  0.56705744  1
  Se  Se139  1  0.58730972  0.26341908  0.05810081  1
  Se  Se140  1  0.59317620  0.25263024  0.55604329  1
  Se  Se141  1  0.58701888  0.59507124  0.06904071  1
  Se  Se142  1  0.58489565  0.58018135  0.55330551  1
  Se  Se143  1  0.58663342  0.91880896  0.05443405  1
  Se  Se144  1  0.57604464  0.90961898  0.54904829  1
  Se  Se145  1  0.92162032  0.25789062  0.06103297  1
  Se  Se146  1  0.92847999  0.25952833  0.56538295  1
  Se  Se147  1  0.91531414  0.58400101  0.05219680  1
  Se  Se148  1  0.91399914  0.58267011  0.54440683  1
  Se  Se149  1  0.91870809  0.91632055  0.05112810  1
  Se  Se150  1  0.91902900  0.91752815  0.55658193  1
  Se  Se151  1  0.08858171  0.24590868  0.44777929  1
  Se  Se152  1  0.07856108  0.24758502  0.94623161  1
  Se  Se153  1  0.08865676  0.58103644  0.44101041  1
  Se  Se154  1  0.07258082  0.58742371  0.93421951  1
  Se  Se155  1  0.07583882  0.92073089  0.44144217  1
  Se  Se156  1  0.08753119  0.91332224  0.94617092  1
  Se  Se157  1  0.41852044  0.26174976  0.42985903  1
  Se  Se158  1  0.40768735  0.25253159  0.93795240  1
  Se  Se159  1  0.41967391  0.58004358  0.44089091  1
  Se  Se160  1  0.40763525  0.59118527  0.94784800  1
  Se  Se161  1  0.41289283  0.91505017  0.45280362  1
  Se  Se162  1  0.43588491  0.90049957  0.95301157  1
  Se  Se163  1  0.74593750  0.25313771  0.44255863  1
  Se  Se164  1  0.74002633  0.26047926  0.94359155  1
  Se  Se165  1  0.75550635  0.58076476  0.44499247  1
  Se  Se166  1  0.74737859  0.58463633  0.94838823  1
  Se  Se167  1  0.74109448  0.91856413  0.43384944  1
  Se  Se168  1  0.75607823  0.91477786  0.95254972  1
  Se  Se169  1  0.24425226  0.08397953  0.45021516  1
  Se  Se170  1  0.25283171  0.07848840  0.94805510  1
  Se  Se171  1  0.24980745  0.42070691  0.44416357  1
  Se  Se172  1  0.25048856  0.41418918  0.93864874  1
  Se  Se173  1  0.25461582  0.74101397  0.43299668  1
  Se  Se174  1  0.24620589  0.74488348  0.95970157  1
  Se  Se175  1  0.58473200  0.08066168  0.44187641  1
  Se  Se176  1  0.59486279  0.08257279  0.94064546  1
  Se  Se177  1  0.58517356  0.41978412  0.44130022  1
  Se  Se178  1  0.58469099  0.41584332  0.94213044  1
  Se  Se179  1  0.57972343  0.74959424  0.44524083  1
  Se  Se180  1  0.58396901  0.74937738  0.95119112  1
  Se  Se181  1  0.92148694  0.07874083  0.44406964  1
  Se  Se182  1  0.92677307  0.07800308  0.93645216  1
  Se  Se183  1  0.91681937  0.41437459  0.44954601  1
  Se  Se184  1  0.90626858  0.42275045  0.95355824  1
  Se  Se185  1  0.92493474  0.74561439  0.43132838  1
  Se  Se186  1  0.91734569  0.75173689  0.94889527  1
  Se  Se187  1  0.24447412  0.24362953  0.30118473  1
  Se  Se188  1  0.24440575  0.24263230  0.80805595  1
  Se  Se189  1  0.25304398  0.58067130  0.30088513  1
  Se  Se190  1  0.24082164  0.57706993  0.80124369  1
  Se  Se191  1  0.24082470  0.90458279  0.30758404  1
  Se  Se192  1  0.25268749  0.91896616  0.81794908  1
  Se  Se193  1  0.58502708  0.25009316  0.29733806  1
  Se  Se194  1  0.58728921  0.25523607  0.79718032  1
  Se  Se195  1  0.60061930  0.59986543  0.30470802  1
  Se  Se196  1  0.58239445  0.58828162  0.80398704  1
  Se  Se197  1  0.58513097  0.92373191  0.30354170  1
  Se  Se198  1  0.58281642  0.91020976  0.81313260  1
  Se  Se199  1  0.90638275  0.24079477  0.31317907  1
  Se  Se200  1  0.90684295  0.25260417  0.80366560  1
  Se  Se201  1  0.92180020  0.58357569  0.30170945  1
  Se  Se202  1  0.90999117  0.58133357  0.81127194  1
  Se  Se203  1  0.91750154  0.92015218  0.29829094  1
  Se  Se204  1  0.91407920  0.90979132  0.80166774  1
  Se  Se205  1  0.07970853  0.07545798  0.30280003  1
  Se  Se206  1  0.07505115  0.07734880  0.80273447  1
  Se  Se207  1  0.08700409  0.41742063  0.31288195  1
  Se  Se208  1  0.07991744  0.41515571  0.79840713  1
  Se  Se209  1  0.08650022  0.75101785  0.29233853  1
  Se  Se210  1  0.08824398  0.75166248  0.81181980  1
  Se  Se211  1  0.41839552  0.08772679  0.31160148  1
  Se  Se212  1  0.42641859  0.07976104  0.80429017  1
  Se  Se213  1  0.39642097  0.39817913  0.30242795  1
  Se  Se214  1  0.42811826  0.42795058  0.80799187  1
  Se  Se215  1  0.42088931  0.75261943  0.30336701  1
  Se  Se216  1  0.41362047  0.76155738  0.82092852  1
  Se  Se217  1  0.74838751  0.08360374  0.30174476  1
  Se  Se218  1  0.75816416  0.08279849  0.80914662  1
  Se  Se219  1  0.74898787  0.41843232  0.30136562  1
  Se  Se220  1  0.74878860  0.41911710  0.80714527  1
  Se  Se221  1  0.75444475  0.75423592  0.29987739  1
  Se  Se222  1  0.74263627  0.74485919  0.80663890  1
  Se  Se223  1  0.23886680  0.08197299  0.18515062  1
  Se  Se224  1  0.26763462  0.07391517  0.70365568  1
  Se  Se225  1  0.24891469  0.40917306  0.19831007  1
  Se  Se226  1  0.25045521  0.42179613  0.68539523  1
  Se  Se227  1  0.27101862  0.73823978  0.19844443  1
  Se  Se228  1  0.24026942  0.76285551  0.69692790  1
  Se  Se229  1  0.58431197  0.08316401  0.19900271  1
  Se  Se230  1  0.57765419  0.09007137  0.68520452  1
  Se  Se231  1  0.57307057  0.42253149  0.20091968  1
  Se  Se232  1  0.59085453  0.41246262  0.69404944  1
  Se  Se233  1  0.59075391  0.75320424  0.19930524  1
  Se  Se234  1  0.57716122  0.74575730  0.69889925  1
  Se  Se235  1  0.91894700  0.08197005  0.19781163  1
  Se  Se236  1  0.91963805  0.08607304  0.70326240  1
  Se  Se237  1  0.91073948  0.42133565  0.18812698  1
  Se  Se238  1  0.91957230  0.42367435  0.69553979  1
  Se  Se239  1  0.91790043  0.75026219  0.19213783  1
  Se  Se240  1  0.90701657  0.75657687  0.68599412  1
  Se  Se241  1  0.08527403  0.24463075  0.18844595  1
  Se  Se242  1  0.09979858  0.25407950  0.69604531  1
  Se  Se243  1  0.08063002  0.57849671  0.20056154  1
  Se  Se244  1  0.08731339  0.58080326  0.68186813  1
  Se  Se245  1  0.08489740  0.91518325  0.19270232  1
  Se  Se246  1  0.07826580  0.92015207  0.70572979  1
  Se  Se247  1  0.41084530  0.24295825  0.19264178  1
  Se  Se248  1  0.42426701  0.24615519  0.68593336  1
  Se  Se249  1  0.43927457  0.56063621  0.20792772  1
  Se  Se250  1  0.42110958  0.57539176  0.68754319  1
  Se  Se251  1  0.42350039  0.91327659  0.18838240  1
  Se  Se252  1  0.41569994  0.91499164  0.70269683  1
  Se  Se253  1  0.74994509  0.25529911  0.19614981  1
  Se  Se254  1  0.76467704  0.24140187  0.70425381  1
  Se  Se255  1  0.75094630  0.58746539  0.19618022  1
  Se  Se256  1  0.74783933  0.58472541  0.69700240  1
  Se  Se257  1  0.74928626  0.92215148  0.19314778  1
  Se  Se258  1  0.75466485  0.90608049  0.68586633  1
