# generated using pymatgen
data_In86Cu29Se144
_symmetry_space_group_name_H-M   'P 1'
_cell_length_a   17.57403431
_cell_length_b   17.57431257
_cell_length_c   23.43329713
_cell_angle_alpha   90.01743808
_cell_angle_beta   90.01784927
_cell_angle_gamma   90.00215418
_symmetry_Int_Tables_number   1
_chemical_formula_structural   In86Cu29Se144
_chemical_formula_sum   'In86 Cu29 Se144'
_cell_volume   7237.40996677
_cell_formula_units_Z   1
loop_
 _symmetry_equiv_pos_site_id
 _symmetry_equiv_pos_as_xyz
  1  'x, y, z'
loop_
 _atom_site_type_symbol
 _atom_site_label
 _atom_site_symmetry_multiplicity
 _atom_site_fract_x
 _atom_site_fract_y
 _atom_site_fract_z
 _atom_site_occupancy
  In  In0  1  -0.01879037  0.13930225  0.10308811  1
  In  In1  1  -0.00639419  0.15820981  0.62440816  1
  In  In2  1  -0.00922763  0.51203004  0.11847041  1
  In  In3  1  0.01684034  0.50008677  0.62697776  1
  In  In4  1  0.00447534  0.84563164  0.12524001  1
  In  In5  1  -0.00010309  0.83480540  0.62828454  1
  In  In6  1  0.33407045  0.16382087  0.11252155  1
  In  In7  1  0.31859784  0.18138097  0.63983269  1
  In  In8  1  0.34208758  0.49687285  0.12376614  1
  In  In9  1  0.32638005  0.50475421  0.63191093  1
  In  In10  1  0.31352707  0.82704410  0.12825707  1
  In  In11  1  0.30144896  0.85442700  0.65402205  1
  In  In12  1  0.66288222  0.16305958  0.11898211  1
  In  In13  1  0.68038786  0.16152357  0.63204810  1
  In  In14  1  0.66837136  0.50706682  0.11567455  1
  In  In15  1  0.66373952  0.50066697  0.63326834  1
  In  In16  1  0.67791254  0.82405581  0.12805629  1
  In  In17  1  0.66448094  0.82421816  0.62505460  1
  In  In18  1  0.15563292  0.00021584  0.38157138  1
  In  In19  1  0.17254784  0.00322443  0.86033238  1
  In  In20  1  0.16756735  0.33890616  0.38535731  1
  In  In21  1  0.16602677  0.31978083  0.87096736  1
  In  In22  1  0.17647208  0.65973685  0.38518490  1
  In  In23  1  0.15883912  0.67172295  0.85864316  1
  In  In24  1  0.50066240  -0.01117229  0.37174974  1
  In  In25  1  0.49578196  0.01944059  0.87291441  1
  In  In26  1  0.49637014  0.33291311  0.37655960  1
  In  In27  1  0.50391543  0.32723933  0.86866110  1
  In  In28  1  0.50091022  0.66640250  0.36608754  1
  In  In29  1  0.49400996  0.65467040  0.87200477  1
  In  In30  1  0.83983577  -0.00392464  0.37191092  1
  In  In31  1  0.84941117  -0.01213920  0.89172287  1
  In  In32  1  0.82286477  0.32604683  0.37867028  1
  In  In33  1  0.82364935  0.33994045  0.88312065  1
  In  In34  1  0.84202561  0.68369746  0.37274633  1
  In  In35  1  0.83386691  0.67228382  0.87273057  1
  In  In36  1  0.01241906  0.15550855  0.38010105  1
  In  In37  1  0.01082626  0.15323522  0.88817636  1
  In  In38  1  0.01049018  0.51188973  0.37554661  1
  In  In39  1  -0.01526863  0.51075661  0.87928529  1
  In  In40  1  -0.01046962  0.84021900  0.38445071  1
  In  In41  1  -0.00087109  0.83284423  0.86210051  1
  In  In42  1  0.32397314  0.15776275  0.38105842  1
  In  In43  1  0.33487707  0.16606842  0.86362197  1
  In  In44  1  0.31713802  0.51806751  0.38135201  1
  In  In45  1  0.34521323  0.50695672  0.86948937  1
  In  In46  1  0.33279859  0.81912378  0.37905189  1
  In  In47  1  0.32205521  0.82889849  0.85735638  1
  In  In48  1  0.68569677  0.16233657  0.37594549  1
  In  In49  1  0.65860968  0.17608675  0.88231973  1
  In  In50  1  0.65377796  0.50306927  0.37221113  1
  In  In51  1  0.66734662  0.49733986  0.87378664  1
  In  In52  1  0.67571621  0.84478918  0.36385356  1
  In  In53  1  0.68693124  0.83686533  0.87727349  1
  In  In54  1  0.14101194  -0.00576486  0.12247696  1
  In  In55  1  0.15249162  -0.00381354  0.62709075  1
  In  In56  1  0.17838863  0.32545143  0.12565129  1
  In  In57  1  0.17945140  0.33906530  0.61430259  1
  In  In58  1  0.16412767  0.68075467  0.13143710  1
  In  In59  1  0.16703440  0.66929987  0.63001716  1
  In  In60  1  0.49943154  0.01495593  0.12141341  1
  In  In61  1  0.49704372  -0.00781056  0.63072464  1
  In  In62  1  0.49533209  0.33318162  0.11362773  1
  In  In63  1  0.49063860  0.33649219  0.64128993  1
  In  In64  1  0.50583556  0.66532034  0.12292333  1
  In  In65  1  0.49939308  0.66637676  0.63420609  1
  In  In66  1  0.83559523  -0.00601234  0.12351844  1
  In  In67  1  0.84320630  0.00782553  0.62418942  1
  In  In68  1  0.83084582  0.33391916  0.11503612  1
  In  In69  1  0.83706489  0.31749968  0.63139808  1
  In  In70  1  0.83048218  0.65415129  0.11089977  1
  In  In71  1  0.82244417  0.67639139  0.62870803  1
  In  In72  1  0.15824212  0.83757518  -0.00289070  1
  In  In73  1  0.49853666  0.83778838  -0.00632208  1
  In  In74  1  0.33386713  -0.00284376  0.25117037  1
  In  In75  1  0.49497121  0.16703959  0.50487180  1
  In  In76  1  0.66867741  0.33373524  0.23720148  1
  In  In77  1  0.49681434  0.49945226  0.51265369  1
  In  In78  1  0.16354468  0.50145866  -0.00540297  1
  In  In79  1  0.00511192  0.67467513  0.24902010  1
  In  In80  1  0.84067487  0.49878130  0.49667245  1
  In  In81  1  0.33197582  0.33999721  0.25685080  1
  In  In82  1  -0.00277406  0.33309045  0.75397103  1
  In  In83  1  0.00744061  0.32857258  0.25373621  1
  In  In84  1  0.66657934  0.00293914  0.75891993  1
  In  In85  1  0.49507781  0.83030806  0.50428188  1
  Cu  Cu86  1  0.50193973  0.82679752  0.75328623  1
  Cu  Cu87  1  0.31820168  -0.00006892  0.50842247  1
  Cu  Cu88  1  0.00575525  0.66831172  0.50351516  1
  Cu  Cu89  1  0.16018540  0.15804589  0.24789301  1
  Cu  Cu90  1  0.33924070  0.32949097  -0.00853052  1
  Cu  Cu91  1  0.49688179  0.51485349  0.24649388  1
  Cu  Cu92  1  0.67801344  0.00249723  0.49606001  1
  Cu  Cu93  1  0.66236659  0.33483179  -0.00224390  1
  Cu  Cu94  1  0.50304979  0.83278619  0.24684743  1
  Cu  Cu95  1  0.16317909  0.16812597  0.74729413  1
  Cu  Cu96  1  0.84287740  0.15121163  0.24933808  1
  Cu  Cu97  1  0.33094180  0.66479652  -0.00453882  1
  Cu  Cu98  1  0.67128886  0.00029691  -0.00048787  1
  Cu  Cu99  1  0.00139368  0.32558051  0.50534759  1
  Cu  Cu100  1  0.82943898  0.50344353  0.24047651  1
  Cu  Cu101  1  -0.00340920  -0.00185386  0.50238054  1
  Cu  Cu102  1  0.67429581  0.67741466  0.49616372  1
  Cu  Cu103  1  0.66731582  0.66091498  -0.00343515  1
  Cu  Cu104  1  0.83188923  0.50702159  0.75489873  1
  Cu  Cu105  1  0.50555944  0.17213836  0.24471932  1
  Cu  Cu106  1  0.83121224  0.16683150  0.75928914  1
  Cu  Cu107  1  0.83538828  0.83537839  0.75114763  1
  Cu  Cu108  1  0.67044653  0.32574238  0.50780408  1
  Cu  Cu109  1  0.00117312  0.33393799  -0.00416029  1
  Cu  Cu110  1  0.83313857  0.83425152  0.24765933  1
  Cu  Cu111  1  0.32905226  0.66882591  0.51102370  1
  Cu  Cu112  1  0.16673722  0.49990867  0.74929077  1
  Cu  Cu113  1  0.32829399  0.00707656  -0.01000304  1
  Cu  Cu114  1  0.50731145  0.49208191  0.75475221  1
  Se  Se115  1  0.10410480  0.09801652  0.05179717  1
  Se  Se116  1  0.08060923  0.08336168  0.55403440  1
  Se  Se117  1  0.08052336  0.41030714  0.06121717  1
  Se  Se118  1  0.08344607  0.41624398  0.55154431  1
  Se  Se119  1  0.07236822  0.74200575  0.05607196  1
  Se  Se120  1  0.08526885  0.75160374  0.55983657  1
  Se  Se121  1  0.41858732  0.08307508  0.04402410  1
  Se  Se122  1  0.40823063  0.07420409  0.56389790  1
  Se  Se123  1  0.41381469  0.41859927  0.04695657  1
  Se  Se124  1  0.40534474  0.40510155  0.56305696  1
  Se  Se125  1  0.40602364  0.75092191  0.05595346  1
  Se  Se126  1  0.40776111  0.75048140  0.57064787  1
  Se  Se127  1  0.75313619  0.08262497  0.05586491  1
  Se  Se128  1  0.75395307  0.08575884  0.55491561  1
  Se  Se129  1  0.74770956  0.41881414  0.04977609  1
  Se  Se130  1  0.75020430  0.41360249  0.56226141  1
  Se  Se131  1  0.74821951  0.74762046  0.04966102  1
  Se  Se132  1  0.75451393  0.75960776  0.55116818  1
  Se  Se133  1  0.25299986  0.25257534  0.04781071  1
  Se  Se134  1  0.24985553  0.23894728  0.55342745  1
  Se  Se135  1  0.24995086  0.59070989  0.06001921  1
  Se  Se136  1  0.24503718  0.58039604  0.55851977  1
  Se  Se137  1  0.25502448  0.92692160  0.05573445  1
  Se  Se138  1  0.24282551  0.91046555  0.56203763  1
  Se  Se139  1  0.58117132  0.24807967  0.05126963  1
  Se  Se140  1  0.58576074  0.25296638  0.56807475  1
  Se  Se141  1  0.57727237  0.58259197  0.04802434  1
  Se  Se142  1  0.59582443  0.59645603  0.55751810  1
  Se  Se143  1  0.58800384  0.91993910  0.05996385  1
  Se  Se144  1  0.59260997  0.92641501  0.55564724  1
  Se  Se145  1  0.91626411  0.25158512  0.04935984  1
  Se  Se146  1  0.91340312  0.24522377  0.55478427  1
  Se  Se147  1  0.91717808  0.58061558  0.04091355  1
  Se  Se148  1  0.92188285  0.58766036  0.56278303  1
  Se  Se149  1  0.93350193  0.93050390  0.05455279  1
  Se  Se150  1  0.91460548  0.91460315  0.55709899  1
  Se  Se151  1  0.08586126  0.24769183  0.44720744  1
  Se  Se152  1  0.08928365  0.25070956  0.94895470  1
  Se  Se153  1  0.08713748  0.58046797  0.45338423  1
  Se  Se154  1  0.07874143  0.59961301  0.93960390  1
  Se  Se155  1  0.08230451  0.91267357  0.45270662  1
  Se  Se156  1  0.07922319  0.92797117  0.93274886  1
  Se  Se157  1  0.40467093  0.25764142  0.44405117  1
  Se  Se158  1  0.41828044  0.24404682  0.93701540  1
  Se  Se159  1  0.41784293  0.59744638  0.44917806  1
  Se  Se160  1  0.41813678  0.58009266  0.94948515  1
  Se  Se161  1  0.40437970  0.92633807  0.44615600  1
  Se  Se162  1  0.40188635  0.91815685  0.93207059  1
  Se  Se163  1  0.75301484  0.24384099  0.45370102  1
  Se  Se164  1  0.75000391  0.24860431  0.95137706  1
  Se  Se165  1  0.74617461  0.58782466  0.43740498  1
  Se  Se166  1  0.75245378  0.58310362  0.93975241  1
  Se  Se167  1  0.75414378  0.91406229  0.44186020  1
  Se  Se168  1  0.75652567  0.91027045  0.95694796  1
  Se  Se169  1  0.24011321  0.08268137  0.45082199  1
  Se  Se170  1  0.24654609  0.08724345  0.93376513  1
  Se  Se171  1  0.26099330  0.41622039  0.44626581  1
  Se  Se172  1  0.25540250  0.41215486  0.93512273  1
  Se  Se173  1  0.24885438  0.75235341  0.45482035  1
  Se  Se174  1  0.25038714  0.74485905  0.93765608  1
  Se  Se175  1  0.58657827  0.07809305  0.44027896  1
  Se  Se176  1  0.58357135  0.08122854  0.94885069  1
  Se  Se177  1  0.59094785  0.40757748  0.44862343  1
  Se  Se178  1  0.58018899  0.41478327  0.94030984  1
  Se  Se179  1  0.58726729  0.75104610  0.43698710  1
  Se  Se180  1  0.58883522  0.74499465  0.93673370  1
  Se  Se181  1  0.91668304  0.08098061  0.44379647  1
  Se  Se182  1  0.91285896  0.09045353  0.95464129  1
  Se  Se183  1  0.92964460  0.40531522  0.43645216  1
  Se  Se184  1  0.91542173  0.41965017  0.94838649  1
  Se  Se185  1  0.91529102  0.74884801  0.45389629  1
  Se  Se186  1  0.91575031  0.76221958  0.93579800  1
  Se  Se187  1  0.23924706  0.24031588  0.30779165  1
  Se  Se188  1  0.24983260  0.25251119  0.79616432  1
  Se  Se189  1  0.25119774  0.59431366  0.30318948  1
  Se  Se190  1  0.25095976  0.58176082  0.80382030  1
  Se  Se191  1  0.24757690  0.91255188  0.31573970  1
  Se  Se192  1  0.24100038  0.91111294  0.79045864  1
  Se  Se193  1  0.58448853  0.24817177  0.30908446  1
  Se  Se194  1  0.58927652  0.24494017  0.80156318  1
  Se  Se195  1  0.59014044  0.58973516  0.29760307  1
  Se  Se196  1  0.58695691  0.58318545  0.80406019  1
  Se  Se197  1  0.58395394  0.92127586  0.29700963  1
  Se  Se198  1  0.57630909  0.90819427  0.81735423  1
  Se  Se199  1  0.91046561  0.24103854  0.31094781  1
  Se  Se200  1  0.91427103  0.24553657  0.81957400  1
  Se  Se201  1  0.91025749  0.57736682  0.30531610  1
  Se  Se202  1  0.91934806  0.59123189  0.80112828  1
  Se  Se203  1  0.92108763  0.91230110  0.30187996  1
  Se  Se204  1  0.91211782  0.92621710  0.80280204  1
  Se  Se205  1  0.08015027  0.07429172  0.30244780  1
  Se  Se206  1  0.07693414  0.08907214  0.80155671  1
  Se  Se207  1  0.09626290  0.42606483  0.30725880  1
  Se  Se208  1  0.08500810  0.42655062  0.81437456  1
  Se  Se209  1  0.08469086  0.75215198  0.32236141  1
  Se  Se210  1  0.09533173  0.76944783  0.79218655  1
  Se  Se211  1  0.42546254  0.09490654  0.30860901  1
  Se  Se212  1  0.40716340  0.07188654  0.79632871  1
  Se  Se213  1  0.42500998  0.43392086  0.31258705  1
  Se  Se214  1  0.41577366  0.41217513  0.80297945  1
  Se  Se215  1  0.41792180  0.75407712  0.30250534  1
  Se  Se216  1  0.41647694  0.74151733  0.80260341  1
  Se  Se217  1  0.75115452  0.07611824  0.30218455  1
  Se  Se218  1  0.75790036  0.08424619  0.82292968  1
  Se  Se219  1  0.75484862  0.42302085  0.30550703  1
  Se  Se220  1  0.75297734  0.41567511  0.80387472  1
  Se  Se221  1  0.75132128  0.74807512  0.30039901  1
  Se  Se222  1  0.74846109  0.75141033  0.80040903  1
  Se  Se223  1  0.24760942  0.08560616  0.18684202  1
  Se  Se224  1  0.24163829  0.07907124  0.69453995  1
  Se  Se225  1  0.24286579  0.42692076  0.19408232  1
  Se  Se226  1  0.24628050  0.41276700  0.69679448  1
  Se  Se227  1  0.24763570  0.74872354  0.20547191  1
  Se  Se228  1  0.27172579  0.72429889  0.69720032  1
  Se  Se229  1  0.58625133  0.08467149  0.19484395  1
  Se  Se230  1  0.57762137  0.08799166  0.69468881  1
  Se  Se231  1  0.57015799  0.42517944  0.18759599  1
  Se  Se232  1  0.59140256  0.40972187  0.70086614  1
  Se  Se233  1  0.58501863  0.74792677  0.19336055  1
  Se  Se234  1  0.58819738  0.74766869  0.69970733  1
  Se  Se235  1  0.92630935  0.07369426  0.19277048  1
  Se  Se236  1  0.91353047  0.08712963  0.70171409  1
  Se  Se237  1  0.91356094  0.41735515  0.19041765  1
  Se  Se238  1  0.91024122  0.42649886  0.69121615  1
  Se  Se239  1  0.90894437  0.75220628  0.18449847  1
  Se  Se240  1  0.91403728  0.74986248  0.69575369  1
  Se  Se241  1  0.08426570  0.23886745  0.18540116  1
  Se  Se242  1  0.08482406  0.25156216  0.68676080  1
  Se  Se243  1  0.08686154  0.57414217  0.19091688  1
  Se  Se244  1  0.08209935  0.58641457  0.70098949  1
  Se  Se245  1  0.10514736  0.89428763  0.19709849  1
  Se  Se246  1  0.08149926  0.91120882  0.70155426  1
  Se  Se247  1  0.41696166  0.24799517  0.19021242  1
  Se  Se248  1  0.42219916  0.23874053  0.70397690  1
  Se  Se249  1  0.41179244  0.59192212  0.19066769  1
  Se  Se250  1  0.42411841  0.57286482  0.69790848  1
  Se  Se251  1  0.42202455  0.91063211  0.18445542  1
  Se  Se252  1  0.41981226  0.91494778  0.70401327  1
  Se  Se253  1  0.76562246  0.23764473  0.19053007  1
  Se  Se254  1  0.74998792  0.25005085  0.70505316  1
  Se  Se255  1  0.74735976  0.58700013  0.18862201  1
  Se  Se256  1  0.74767238  0.58672396  0.69740055  1
  Se  Se257  1  0.74896549  0.91852113  0.19502933  1
  Se  Se258  1  0.75130858  0.91599353  0.69128971  1
