# generated using pymatgen
data_In86Cu29Se144
_symmetry_space_group_name_H-M   'P 1'
_cell_length_a   17.57938024
_cell_length_b   17.58248352
_cell_length_c   23.43873459
_cell_angle_alpha   90.00027663
_cell_angle_beta   90.00813766
_cell_angle_gamma   90.00201177
_symmetry_Int_Tables_number   1
_chemical_formula_structural   In86Cu29Se144
_chemical_formula_sum   'In86 Cu29 Se144'
_cell_volume   7244.65878423
_cell_formula_units_Z   1
loop_
 _symmetry_equiv_pos_site_id
 _symmetry_equiv_pos_as_xyz
  1  'x, y, z'
loop_
 _atom_site_type_symbol
 _atom_site_label
 _atom_site_symmetry_multiplicity
 _atom_site_fract_x
 _atom_site_fract_y
 _atom_site_fract_z
 _atom_site_occupancy
  In  In0  1  -0.01954611  0.14946308  0.10721974  1
  In  In1  1  0.00002620  0.16196378  0.63082587  1
  In  In2  1  0.01059312  0.50738001  0.12767522  1
  In  In3  1  0.00902665  0.49169847  0.62970305  1
  In  In4  1  -0.00277049  0.83294001  0.12379868  1
  In  In5  1  0.00153020  0.83543199  0.63013189  1
  In  In6  1  0.33086248  0.16178792  0.11183050  1
  In  In7  1  0.33431901  0.16885587  0.62260255  1
  In  In8  1  0.33589979  0.49113178  0.12078519  1
  In  In9  1  0.32590431  0.51552956  0.63119853  1
  In  In10  1  0.33566358  0.83725379  0.11701672  1
  In  In11  1  0.31404179  0.83082344  0.63117233  1
  In  In12  1  0.67290539  0.16897819  0.11635901  1
  In  In13  1  0.65822157  0.16890433  0.63807526  1
  In  In14  1  0.65552776  0.50093754  0.11945617  1
  In  In15  1  0.66574934  0.50447196  0.63333130  1
  In  In16  1  0.67202406  0.83663742  0.11598333  1
  In  In17  1  0.67884951  0.82566722  0.63275118  1
  In  In18  1  0.15622563  0.00984149  0.38068561  1
  In  In19  1  0.16206043  0.00230513  0.87555253  1
  In  In20  1  0.16314818  0.33232782  0.39295997  1
  In  In21  1  0.15093749  0.32463920  0.87090600  1
  In  In22  1  0.14988085  0.68635841  0.39211918  1
  In  In23  1  0.17409723  0.68039241  0.86017588  1
  In  In24  1  0.51250223  0.00772533  0.37651363  1
  In  In25  1  0.50529595  -0.00305446  0.87759219  1
  In  In26  1  0.49694895  0.32427569  0.37420122  1
  In  In27  1  0.51795439  0.31925530  0.88236831  1
  In  In28  1  0.49226499  0.67167681  0.37361443  1
  In  In29  1  0.50129178  0.66840862  0.87554610  1
  In  In30  1  0.83764207  -0.01711494  0.37780475  1
  In  In31  1  0.83449189  -0.00014418  0.87541463  1
  In  In32  1  0.83049023  0.34438641  0.37200194  1
  In  In33  1  0.83160652  0.32782121  0.86984256  1
  In  In34  1  0.84549980  0.66616292  0.37729027  1
  In  In35  1  0.84733399  0.68190129  0.86708600  1
  In  In36  1  0.01160886  0.16354017  0.37691485  1
  In  In37  1  0.00195896  0.16463543  0.87591389  1
  In  In38  1  -0.00311693  0.51178174  0.38098013  1
  In  In39  1  -0.00106562  0.50039667  0.86627531  1
  In  In40  1  -0.00311616  0.83730161  0.37518431  1
  In  In41  1  0.00193083  0.83429058  0.87528862  1
  In  In42  1  0.33245351  0.16818066  0.38470596  1
  In  In43  1  0.33692943  0.16181588  0.87974216  1
  In  In44  1  0.33111262  0.48907043  0.37930004  1
  In  In45  1  0.33408334  0.51389518  0.87434992  1
  In  In46  1  0.32843639  0.82470383  0.37477512  1
  In  In47  1  0.33556658  0.83007651  0.87688314  1
  In  In48  1  0.65536892  0.16743562  0.37716703  1
  In  In49  1  0.66746486  0.16787247  0.87082462  1
  In  In50  1  0.67911428  0.49725038  0.37283416  1
  In  In51  1  0.66137906  0.49153836  0.86854490  1
  In  In52  1  0.67109685  0.83965142  0.37842597  1
  In  In53  1  0.66904691  0.83553685  0.87407141  1
  In  In54  1  0.15496390  -0.01101741  0.11700959  1
  In  In55  1  0.15103403  -0.01269382  0.62116560  1
  In  In56  1  0.17161385  0.33219332  0.12304739  1
  In  In57  1  0.15035204  0.32254692  0.61264012  1
  In  In58  1  0.14664394  0.66992894  0.12756981  1
  In  In59  1  0.16411447  0.66945149  0.62943695  1
  In  In60  1  0.49877088  -0.00141563  0.11216411  1
  In  In61  1  0.50128445  0.01304741  0.63006987  1
  In  In62  1  0.50578827  0.33897624  0.11431284  1
  In  In63  1  0.51383921  0.32742451  0.63172799  1
  In  In64  1  0.51061728  0.67356564  0.11143393  1
  In  In65  1  0.50338298  0.66493386  0.63502252  1
  In  In66  1  0.83511487  -0.00146578  0.12095892  1
  In  In67  1  0.84544903  -0.01342477  0.63615306  1
  In  In68  1  0.83154445  0.31168313  0.12046860  1
  In  In69  1  0.83524108  0.33082496  0.63480435  1
  In  In70  1  0.84518400  0.68063252  0.11759552  1
  In  In71  1  0.82128349  0.68495874  0.62935619  1
  In  In72  1  0.83217377  0.49695741  -0.01442115  1
  In  In73  1  0.33262674  -0.00458540  0.75573850  1
  In  In74  1  -0.00416768  0.33211933  0.24874576  1
  In  In75  1  0.33776977  0.33722944  0.74596917  1
  In  In76  1  0.33135236  0.66472975  0.25345948  1
  In  In77  1  0.49945330  0.49688067  0.51514947  1
  In  In78  1  0.83273637  0.16451290  0.51444113  1
  In  In79  1  0.83883120  0.50332740  0.50076962  1
  In  In80  1  0.67344094  0.66915509  0.24667557  1
  In  In81  1  0.33182238  -0.00001917  0.24121508  1
  In  In82  1  0.33067001  0.32983531  0.24840503  1
  In  In83  1  0.67337497  -0.00286842  0.24436514  1
  In  In84  1  0.16946330  0.50179020  0.00125531  1
  In  In85  1  0.49769448  0.83652264  0.49607223  1
  Cu  Cu86  1  0.15719265  0.16671242  0.25078034  1
  Cu  Cu87  1  0.15952353  0.83471366  0.25038841  1
  Cu  Cu88  1  0.50807121  0.50102681  0.23954626  1
  Cu  Cu89  1  0.67048100  0.00170579  -0.00588352  1
  Cu  Cu90  1  -0.00077057  -0.00344185  0.50461876  1
  Cu  Cu91  1  0.33114088  0.33042271  0.50403553  1
  Cu  Cu92  1  0.00139148  0.66984902  0.50675196  1
  Cu  Cu93  1  0.00015147  -0.00138058  -0.00453705  1
  Cu  Cu94  1  0.50231609  0.49909137  0.75339648  1
  Cu  Cu95  1  0.50109179  0.83177444  0.75669829  1
  Cu  Cu96  1  0.82735394  0.49654025  0.24867846  1
  Cu  Cu97  1  0.16239238  0.50138032  0.75034548  1
  Cu  Cu98  1  0.66763404  0.33038918  -0.00650099  1
  Cu  Cu99  1  0.15943613  0.51032900  0.25957832  1
  Cu  Cu100  1  0.66439149  0.33124380  0.50306162  1
  Cu  Cu101  1  0.33389163  0.67169508  -0.00474927  1
  Cu  Cu102  1  0.32857125  0.66839747  0.50584643  1
  Cu  Cu103  1  0.83063799  0.16042195  0.24404478  1
  Cu  Cu104  1  0.50353911  0.17078760  0.24935749  1
  Cu  Cu105  1  0.32979338  0.00254249  0.50716367  1
  Cu  Cu106  1  0.83329172  0.16368129  0.75376795  1
  Cu  Cu107  1  0.16423060  0.16247508  0.74821386  1
  Cu  Cu108  1  0.66644834  0.67007860  -0.00569373  1
  Cu  Cu109  1  0.83403706  0.50627233  0.74873887  1
  Cu  Cu110  1  0.33581938  0.33366612  -0.00411436  1
  Cu  Cu111  1  0.66619685  0.00061681  0.50250973  1
  Cu  Cu112  1  0.33160352  -0.00137254  -0.00559753  1
  Cu  Cu113  1  0.83495673  0.83790922  0.75401412  1
  Cu  Cu114  1  0.00441937  0.67302584  -0.00608492  1
  Se  Se115  1  0.08647663  0.08287925  0.04830434  1
  Se  Se116  1  0.07982726  0.08448948  0.55618288  1
  Se  Se117  1  0.07513073  0.41029281  0.05694645  1
  Se  Se118  1  0.08476361  0.42446849  0.55042278  1
  Se  Se119  1  0.08494095  0.75488133  0.05150066  1
  Se  Se120  1  0.08497905  0.75427719  0.55910265  1
  Se  Se121  1  0.41820680  0.08375595  0.04512762  1
  Se  Se122  1  0.41822942  0.08439890  0.55514392  1
  Se  Se123  1  0.41799137  0.41996550  0.04742374  1
  Se  Se124  1  0.40661967  0.40600008  0.57131567  1
  Se  Se125  1  0.41858246  0.75397493  0.04959989  1
  Se  Se126  1  0.41442654  0.74652379  0.56263294  1
  Se  Se127  1  0.75408956  0.08177246  0.05153113  1
  Se  Se128  1  0.74359504  0.07239392  0.57054737  1
  Se  Se129  1  0.74709933  0.41195831  0.05532416  1
  Se  Se130  1  0.74505234  0.41245037  0.56094949  1
  Se  Se131  1  0.75197370  0.74897387  0.04926741  1
  Se  Se132  1  0.74889569  0.75770925  0.55092646  1
  Se  Se133  1  0.24947033  0.25429997  0.05022488  1
  Se  Se134  1  0.24714250  0.24340753  0.55280917  1
  Se  Se135  1  0.25605047  0.59621752  0.06325019  1
  Se  Se136  1  0.24405090  0.58459090  0.55610565  1
  Se  Se137  1  0.24930635  0.91631744  0.05059039  1
  Se  Se138  1  0.24734479  0.91477323  0.55509436  1
  Se  Se139  1  0.58380173  0.24782276  0.04956657  1
  Se  Se140  1  0.58630983  0.24520279  0.55729783  1
  Se  Se141  1  0.58440891  0.58188197  0.04441874  1
  Se  Se142  1  0.59400943  0.59548732  0.55843728  1
  Se  Se143  1  0.58698165  0.91675203  0.04819001  1
  Se  Se144  1  0.58444277  0.91978442  0.56239612  1
  Se  Se145  1  0.91780642  0.25290092  0.04559247  1
  Se  Se146  1  0.92610058  0.26181011  0.56072094  1
  Se  Se147  1  0.92589006  0.58393569  0.05007838  1
  Se  Se148  1  0.91923533  0.59186560  0.56713579  1
  Se  Se149  1  0.91823287  0.91600547  0.05250004  1
  Se  Se150  1  0.91582280  0.91240807  0.55665770  1
  Se  Se151  1  0.08076877  0.24237140  0.45205778  1
  Se  Se152  1  0.09007294  0.24057441  0.94645358  1
  Se  Se153  1  0.08286375  0.58262783  0.45352400  1
  Se  Se154  1  0.08320135  0.58815763  0.93654582  1
  Se  Se155  1  0.08191479  0.91654964  0.44617133  1
  Se  Se156  1  0.08601234  0.91468081  0.94557630  1
  Se  Se157  1  0.41908184  0.25194357  0.44987072  1
  Se  Se158  1  0.41963303  0.24762798  0.94586262  1
  Se  Se159  1  0.41147856  0.58703081  0.44715367  1
  Se  Se160  1  0.41837470  0.58532627  0.94727014  1
  Se  Se161  1  0.40624082  0.92980630  0.43704815  1
  Se  Se162  1  0.41759683  0.91537432  0.94369005  1
  Se  Se163  1  0.74905340  0.25416237  0.44361182  1
  Se  Se164  1  0.75267092  0.24775717  0.94254330  1
  Se  Se165  1  0.74332683  0.59221294  0.44370669  1
  Se  Se166  1  0.74621588  0.59387286  0.93069570  1
  Se  Se167  1  0.75014463  0.91620682  0.45195898  1
  Se  Se168  1  0.75365554  0.91430529  0.94506242  1
  Se  Se169  1  0.24770468  0.08380191  0.44852241  1
  Se  Se170  1  0.24706631  0.08363656  0.94454376  1
  Se  Se171  1  0.25057271  0.41957441  0.45438755  1
  Se  Se172  1  0.25295839  0.41102312  0.93514689  1
  Se  Se173  1  0.25073142  0.75804954  0.45341948  1
  Se  Se174  1  0.24512651  0.74905435  0.94303083  1
  Se  Se175  1  0.58266354  0.08705911  0.45301066  1
  Se  Se176  1  0.58583765  0.08613496  0.94328097  1
  Se  Se177  1  0.58654452  0.41457628  0.44286734  1
  Se  Se178  1  0.58410311  0.42082639  0.94741927  1
  Se  Se179  1  0.58895904  0.74107266  0.44107942  1
  Se  Se180  1  0.58197571  0.75515257  0.94344954  1
  Se  Se181  1  0.91726434  0.07897028  0.44540699  1
  Se  Se182  1  0.91584743  0.08386953  0.94516946  1
  Se  Se183  1  0.92621133  0.40584249  0.44427243  1
  Se  Se184  1  0.93017556  0.40561914  0.93836202  1
  Se  Se185  1  0.92049391  0.75029331  0.44798762  1
  Se  Se186  1  0.91462411  0.75652036  0.94783827  1
  Se  Se187  1  0.23891425  0.24463446  0.31115960  1
  Se  Se188  1  0.24891805  0.24228637  0.80536541  1
  Se  Se189  1  0.24233878  0.58413303  0.32087976  1
  Se  Se190  1  0.25144053  0.58247582  0.79937560  1
  Se  Se191  1  0.24403174  0.91435770  0.30798504  1
  Se  Se192  1  0.23827688  0.90433230  0.80770265  1
  Se  Se193  1  0.58563017  0.25359135  0.30290046  1
  Se  Se194  1  0.59218500  0.25761690  0.80144374  1
  Se  Se195  1  0.57838660  0.57921269  0.30780159  1
  Se  Se196  1  0.58428855  0.58599571  0.80505647  1
  Se  Se197  1  0.57747716  0.91091480  0.30590266  1
  Se  Se198  1  0.58479932  0.91837637  0.80454830  1
  Se  Se199  1  0.90733006  0.23992886  0.30990168  1
  Se  Se200  1  0.92040245  0.24719877  0.80404468  1
  Se  Se201  1  0.91144748  0.57553024  0.30443832  1
  Se  Se202  1  0.91984683  0.58811962  0.80021636  1
  Se  Se203  1  0.92106708  0.92057542  0.30266280  1
  Se  Se204  1  0.92027349  0.92013746  0.80622258  1
  Se  Se205  1  0.07746693  0.07833836  0.30125307  1
  Se  Se206  1  0.08171272  0.08111042  0.80334092  1
  Se  Se207  1  0.08665671  0.41728435  0.31418241  1
  Se  Se208  1  0.08103514  0.41323543  0.80007483  1
  Se  Se209  1  0.08207769  0.74993714  0.30750891  1
  Se  Se210  1  0.06192772  0.73592395  0.80489776  1
  Se  Se211  1  0.41992992  0.09137393  0.30741052  1
  Se  Se212  1  0.42595766  0.08996679  0.80658914  1
  Se  Se213  1  0.42554081  0.42577680  0.30313846  1
  Se  Se214  1  0.42361209  0.41860872  0.81479613  1
  Se  Se215  1  0.42671085  0.76454648  0.30049393  1
  Se  Se216  1  0.41490082  0.74800451  0.80553980  1
  Se  Se217  1  0.75408328  0.08703080  0.31297382  1
  Se  Se218  1  0.74978322  0.07940603  0.80522745  1
  Se  Se219  1  0.74356068  0.41089004  0.29734379  1
  Se  Se220  1  0.75480828  0.41851975  0.80271176  1
  Se  Se221  1  0.75976178  0.75681962  0.30978780  1
  Se  Se222  1  0.74863747  0.75165631  0.80273963  1
  Se  Se223  1  0.23841663  0.09203949  0.18709792  1
  Se  Se224  1  0.24625817  0.08276914  0.68926519  1
  Se  Se225  1  0.23791579  0.43115603  0.19728637  1
  Se  Se226  1  0.23828428  0.41760347  0.68811319  1
  Se  Se227  1  0.24496674  0.75714037  0.19123471  1
  Se  Se228  1  0.25501355  0.73767181  0.70150713  1
  Se  Se229  1  0.57677143  0.08628904  0.18791086  1
  Se  Se230  1  0.58844608  0.07408367  0.70469403  1
  Se  Se231  1  0.58677436  0.41062817  0.19108017  1
  Se  Se232  1  0.58667226  0.41683281  0.70021146  1
  Se  Se233  1  0.58099304  0.75800782  0.18875492  1
  Se  Se234  1  0.58557686  0.75144072  0.69991895  1
  Se  Se235  1  0.91668386  0.08084648  0.19211778  1
  Se  Se236  1  0.91914456  0.08136988  0.70101550  1
  Se  Se237  1  0.90793587  0.42064540  0.18457849  1
  Se  Se238  1  0.91747910  0.41862301  0.69855280  1
  Se  Se239  1  0.92897563  0.73934790  0.19412891  1
  Se  Se240  1  0.91477258  0.75321626  0.69801949  1
  Se  Se241  1  0.08235084  0.24425422  0.18572653  1
  Se  Se242  1  0.08395066  0.25084332  0.69592316  1
  Se  Se243  1  0.07631734  0.59017252  0.20486220  1
  Se  Se244  1  0.07922214  0.58555248  0.69750778  1
  Se  Se245  1  0.07933369  0.91789649  0.19481524  1
  Se  Se246  1  0.08010576  0.91948231  0.70080955  1
  Se  Se247  1  0.41968094  0.24302607  0.18600711  1
  Se  Se248  1  0.42729524  0.23712805  0.69688350  1
  Se  Se249  1  0.42353996  0.58232252  0.18577181  1
  Se  Se250  1  0.41785907  0.58234537  0.70124417  1
  Se  Se251  1  0.42848625  0.91030495  0.18945484  1
  Se  Se252  1  0.42204053  0.90711087  0.69034895  1
  Se  Se253  1  0.74555508  0.24554891  0.19550770  1
  Se  Se254  1  0.75038068  0.24961083  0.70090752  1
  Se  Se255  1  0.75785067  0.57867503  0.18241689  1
  Se  Se256  1  0.74914857  0.59007171  0.69756790  1
  Se  Se257  1  0.76385493  0.90145561  0.19269641  1
  Se  Se258  1  0.74682154  0.91939269  0.70220258  1
