# generated using pymatgen
data_In86Cu29Se144
_symmetry_space_group_name_H-M   'P 1'
_cell_length_a   17.57003614
_cell_length_b   17.56825027
_cell_length_c   23.42233935
_cell_angle_alpha   90.01877926
_cell_angle_beta   89.99504355
_cell_angle_gamma   90.02281787
_symmetry_Int_Tables_number   1
_chemical_formula_structural   In86Cu29Se144
_chemical_formula_sum   'In86 Cu29 Se144'
_cell_volume   7229.88474602
_cell_formula_units_Z   1
loop_
 _symmetry_equiv_pos_site_id
 _symmetry_equiv_pos_as_xyz
  1  'x, y, z'
loop_
 _atom_site_type_symbol
 _atom_site_label
 _atom_site_symmetry_multiplicity
 _atom_site_fract_x
 _atom_site_fract_y
 _atom_site_fract_z
 _atom_site_occupancy
  In  In0  1  -0.00716365  0.16705746  0.12567976  1
  In  In1  1  0.00320214  0.16978398  0.62418244  1
  In  In2  1  -0.00297757  0.52200148  0.12324878  1
  In  In3  1  0.00135332  0.50064287  0.62555400  1
  In  In4  1  -0.01024203  0.81456398  0.11734473  1
  In  In5  1  -0.00787482  0.84248333  0.63401546  1
  In  In6  1  0.33742924  0.15035583  0.12593845  1
  In  In7  1  0.33372527  0.17015520  0.63082740  1
  In  In8  1  0.33226056  0.50154772  0.12462975  1
  In  In9  1  0.32457849  0.50619879  0.62544515  1
  In  In10  1  0.34399068  0.84535221  0.11672833  1
  In  In11  1  0.34688343  0.82359582  0.62375518  1
  In  In12  1  0.65861227  0.17614435  0.11994691  1
  In  In13  1  0.66504112  0.15496021  0.62521508  1
  In  In14  1  0.68062914  0.49284412  0.12412466  1
  In  In15  1  0.66963451  0.48694079  0.62469845  1
  In  In16  1  0.64925689  0.83789684  0.12520083  1
  In  In17  1  0.67480729  0.85301610  0.61167893  1
  In  In18  1  0.18183806  -0.00551772  0.37860009  1
  In  In19  1  0.16114187  -0.01180588  0.86248042  1
  In  In20  1  0.18376471  0.33413540  0.40144851  1
  In  In21  1  0.16226024  0.33221932  0.86408067  1
  In  In22  1  0.15204474  0.67133197  0.37594434  1
  In  In23  1  0.16985320  0.67372305  0.86667728  1
  In  In24  1  0.49553781  0.00827663  0.38923291  1
  In  In25  1  0.49674781  -0.00001686  0.86248334  1
  In  In26  1  0.49097800  0.32411700  0.38449300  1
  In  In27  1  0.48550422  0.31357342  0.85065877  1
  In  In28  1  0.52161892  0.65789227  0.37449988  1
  In  In29  1  0.49638152  0.67966587  0.87381423  1
  In  In30  1  0.81960626  0.00481516  0.39904151  1
  In  In31  1  0.83314342  0.00053224  0.86600519  1
  In  In32  1  0.83199477  0.33346314  0.39107578  1
  In  In33  1  0.83168175  0.33389717  0.86423468  1
  In  In34  1  0.83504829  0.66390572  0.38050395  1
  In  In35  1  0.83284560  0.65501577  0.87643702  1
  In  In36  1  0.00090238  0.17073392  0.39092683  1
  In  In37  1  -0.00495059  0.16797480  0.86004438  1
  In  In38  1  -0.00472608  0.50600240  0.38373187  1
  In  In39  1  -0.00707356  0.49737420  0.86526728  1
  In  In40  1  -0.00324312  0.81836332  0.37699203  1
  In  In41  1  0.00623831  0.83744279  0.86621008  1
  In  In42  1  0.34955908  0.15792394  0.39733151  1
  In  In43  1  0.35014277  0.16526051  0.85679276  1
  In  In44  1  0.33876946  0.48659376  0.38649424  1
  In  In45  1  0.32854339  0.49818855  0.86467930  1
  In  In46  1  0.32737804  0.84870999  0.37604171  1
  In  In47  1  0.33580784  0.83485063  0.86507397  1
  In  In48  1  0.65859939  0.16540100  0.39690610  1
  In  In49  1  0.63116574  0.13874248  0.83284441  1
  In  In50  1  0.66457604  0.51745116  0.37724021  1
  In  In51  1  0.67660594  0.49719501  0.87336561  1
  In  In52  1  0.67565501  0.82946485  0.38692770  1
  In  In53  1  0.65419135  0.84109035  0.88038792  1
  In  In54  1  0.18810352  0.00396777  0.12169318  1
  In  In55  1  0.15669801  0.01271323  0.63214064  1
  In  In56  1  0.16604343  0.33716526  0.12276225  1
  In  In57  1  0.16958515  0.33140610  0.62487645  1
  In  In58  1  0.15031306  0.67056281  0.12611322  1
  In  In59  1  0.17793895  0.65393330  0.62686083  1
  In  In60  1  0.49575839  -0.01293087  0.11420638  1
  In  In61  1  0.50028282  0.00275104  0.62950779  1
  In  In62  1  0.51199761  0.32534506  0.11945213  1
  In  In63  1  0.51067021  0.31627672  0.64145035  1
  In  In64  1  0.49083589  0.68141983  0.13012312  1
  In  In65  1  0.48192317  0.67587765  0.62279453  1
  In  In66  1  0.83216326  0.01048983  0.12722834  1
  In  In67  1  0.83195421  0.00441100  0.62434443  1
  In  In68  1  0.81217900  0.33872102  0.12010766  1
  In  In69  1  0.83660223  0.33468484  0.62244043  1
  In  In70  1  0.84396744  0.66113635  0.13106999  1
  In  In71  1  0.84249609  0.67619425  0.62153046  1
  In  In72  1  0.00547913  0.34040423  0.25261687  1
  In  In73  1  0.82021400  0.16816972  -0.00478886  1
  In  In74  1  0.01071898  -0.02494037  0.26141685  1
  In  In75  1  0.16613088  0.50662926  -0.00922658  1
  In  In76  1  0.66366973  0.67065350  0.75433794  1
  In  In77  1  0.16539480  0.83154631  0.50309945  1
  In  In78  1  0.82755411  0.83278781  -0.00793903  1
  In  In79  1  0.33862914  0.33076876  0.26705004  1
  In  In80  1  0.17258611  0.16048956  -0.01536966  1
  In  In81  1  0.66177989  -0.00247281  0.24987427  1
  In  In82  1  0.33481996  0.66876756  0.25434643  1
  In  In83  1  0.50210976  0.49331438  0.50486670  1
  In  In84  1  0.50833141  0.50085318  -0.00093436  1
  In  In85  1  0.66513195  0.33775573  0.25524212  1
  Cu  Cu86  1  0.49596863  0.84117811  0.25095336  1
  Cu  Cu87  1  0.17163437  0.83231087  0.74250034  1
  Cu  Cu88  1  0.16580000  0.50260824  0.25592667  1
  Cu  Cu89  1  0.16319807  0.49948295  0.74616084  1
  Cu  Cu90  1  0.33164970  0.67769246  -0.00658346  1
  Cu  Cu91  1  0.83682643  0.16970618  0.73938276  1
  Cu  Cu92  1  0.34308862  -0.00261984  -0.00617609  1
  Cu  Cu93  1  0.84089690  0.50902834  0.25333788  1
  Cu  Cu94  1  0.16770480  0.16817319  0.74590092  1
  Cu  Cu95  1  0.49504044  0.50194649  0.74294470  1
  Cu  Cu96  1  0.66765869  0.66942453  0.00249497  1
  Cu  Cu97  1  0.67087424  0.32924808  0.50986404  1
  Cu  Cu98  1  0.00524396  0.33496059  0.50900019  1
  Cu  Cu99  1  0.83089909  0.82492983  0.25670299  1
  Cu  Cu100  1  0.66978553  0.66772027  0.50377207  1
  Cu  Cu101  1  -0.00085103  0.66600681  0.50399674  1
  Cu  Cu102  1  0.16842304  0.83279618  0.24665327  1
  Cu  Cu103  1  0.34078722  0.32001395  -0.00798902  1
  Cu  Cu104  1  0.83541659  0.50367314  0.74469142  1
  Cu  Cu105  1  0.17371468  0.15981555  0.25726191  1
  Cu  Cu106  1  0.83567303  0.15848787  0.26046370  1
  Cu  Cu107  1  0.83120006  0.83789019  0.74719641  1
  Cu  Cu108  1  -0.00228069  -0.00156455  0.50812002  1
  Cu  Cu109  1  0.50231355  0.83469085  0.74593653  1
  Cu  Cu110  1  0.33082299  0.00312095  0.50859271  1
  Cu  Cu111  1  0.49267188  0.15889879  0.25721006  1
  Cu  Cu112  1  0.66172904  0.32701616  -0.01211350  1
  Cu  Cu113  1  -0.01152792  0.34420931  -0.01003073  1
  Cu  Cu114  1  0.00457001  -0.00342378  -0.00661841  1
  Se  Se115  1  0.07968349  0.08199448  0.05553440  1
  Se  Se116  1  0.08417738  0.08516926  0.55295021  1
  Se  Se117  1  0.07547949  0.41487811  0.05382227  1
  Se  Se118  1  0.08912687  0.42176346  0.55769657  1
  Se  Se119  1  0.08425571  0.75032475  0.04969719  1
  Se  Se120  1  0.07650946  0.74636813  0.56662370  1
  Se  Se121  1  0.41978764  0.08391039  0.04992882  1
  Se  Se122  1  0.41611555  0.08591512  0.56012096  1
  Se  Se123  1  0.40995195  0.40708492  0.05558858  1
  Se  Se124  1  0.42330817  0.40989565  0.57470941  1
  Se  Se125  1  0.41979753  0.75241838  0.05001768  1
  Se  Se126  1  0.41724202  0.75246068  0.54273324  1
  Se  Se127  1  0.73512373  0.07320328  0.05726348  1
  Se  Se128  1  0.74320864  0.07415690  0.55250039  1
  Se  Se129  1  0.74185310  0.41463288  0.04165952  1
  Se  Se130  1  0.75658780  0.42040163  0.55101239  1
  Se  Se131  1  0.74617621  0.74839038  0.06411285  1
  Se  Se132  1  0.75332241  0.75320054  0.55426863  1
  Se  Se133  1  0.25400516  0.25093103  0.05564532  1
  Se  Se134  1  0.24246890  0.23745589  0.55905977  1
  Se  Se135  1  0.25662336  0.59375563  0.05634375  1
  Se  Se136  1  0.25748340  0.58854909  0.54828225  1
  Se  Se137  1  0.25404609  0.91874046  0.04649188  1
  Se  Se138  1  0.24873590  0.92231486  0.56627654  1
  Se  Se139  1  0.57828937  0.24458949  0.04222181  1
  Se  Se140  1  0.58389848  0.24806324  0.55961261  1
  Se  Se141  1  0.58784033  0.59223011  0.06608526  1
  Se  Se142  1  0.58922298  0.58928912  0.56478666  1
  Se  Se143  1  0.58732156  0.91708718  0.04689467  1
  Se  Se144  1  0.55360470  0.89733951  0.56071812  1
  Se  Se145  1  0.91649976  0.25975682  0.05520062  1
  Se  Se146  1  0.91746106  0.24853996  0.55405625  1
  Se  Se147  1  0.90971351  0.58491994  0.05077529  1
  Se  Se148  1  0.91497658  0.58125841  0.55583410  1
  Se  Se149  1  0.91816640  0.92659679  0.05648064  1
  Se  Se150  1  0.91370075  0.91319146  0.55707394  1
  Se  Se151  1  0.08902081  0.24914769  0.45760336  1
  Se  Se152  1  0.07090544  0.25618288  0.93824960  1
  Se  Se153  1  0.08512733  0.58553243  0.45035766  1
  Se  Se154  1  0.07428577  0.59202288  0.93348302  1
  Se  Se155  1  0.07379196  0.92145119  0.44051970  1
  Se  Se156  1  0.08736927  0.91416628  0.94154616  1
  Se  Se157  1  0.41015677  0.26137203  0.46084258  1
  Se  Se158  1  0.42335809  0.24146426  0.93624525  1
  Se  Se159  1  0.42060208  0.58917442  0.44237858  1
  Se  Se160  1  0.40889878  0.58493669  0.94005611  1
  Se  Se161  1  0.40909260  0.91854937  0.45106795  1
  Se  Se162  1  0.42165867  0.91380609  0.93522349  1
  Se  Se163  1  0.75457306  0.24418682  0.45675047  1
  Se  Se164  1  0.73873095  0.24659381  0.92569248  1
  Se  Se165  1  0.75219936  0.58154828  0.45152707  1
  Se  Se166  1  0.74451641  0.58372322  0.94770020  1
  Se  Se167  1  0.73423715  0.92173025  0.46119191  1
  Se  Se168  1  0.74173742  0.93533962  0.94210242  1
  Se  Se169  1  0.24503552  0.08214780  0.45297525  1
  Se  Se170  1  0.26497262  0.07325835  0.92742976  1
  Se  Se171  1  0.26014849  0.42473002  0.46586108  1
  Se  Se172  1  0.25655745  0.40439915  0.93940368  1
  Se  Se173  1  0.25370080  0.74541349  0.43860289  1
  Se  Se174  1  0.25014629  0.75637116  0.93726099  1
  Se  Se175  1  0.58206913  0.07670185  0.46125532  1
  Se  Se176  1  0.57820079  0.09021748  0.92763458  1
  Se  Se177  1  0.59590629  0.40716728  0.44134253  1
  Se  Se178  1  0.57753175  0.40760485  0.92956819  1
  Se  Se179  1  0.58371607  0.74638145  0.44930114  1
  Se  Se180  1  0.58248681  0.74742359  0.94769781  1
  Se  Se181  1  0.91589491  0.08646336  0.45602751  1
  Se  Se182  1  0.92348573  0.08207080  0.93941719  1
  Se  Se183  1  0.92118738  0.41697614  0.45273118  1
  Se  Se184  1  0.90473334  0.42300411  0.93680918  1
  Se  Se185  1  0.91441090  0.74952529  0.45184894  1
  Se  Se186  1  0.92342323  0.74736025  0.93661662  1
  Se  Se187  1  0.24583423  0.24060019  0.32268984  1
  Se  Se188  1  0.25089738  0.24961653  0.80168433  1
  Se  Se189  1  0.24914121  0.57605594  0.31708417  1
  Se  Se190  1  0.24770099  0.58425527  0.79926596  1
  Se  Se191  1  0.24974336  0.91902153  0.29796906  1
  Se  Se192  1  0.25477482  0.91799744  0.79489359  1
  Se  Se193  1  0.57802875  0.23868229  0.31300030  1
  Se  Se194  1  0.60724835  0.27477067  0.79615134  1
  Se  Se195  1  0.58985695  0.58097158  0.29656548  1
  Se  Se196  1  0.57244589  0.57563740  0.81095344  1
  Se  Se197  1  0.57749062  0.91366724  0.31702833  1
  Se  Se198  1  0.58923063  0.91434726  0.79886115  1
  Se  Se199  1  0.91364575  0.24797069  0.31388711  1
  Se  Se200  1  0.91752908  0.25612907  0.79390499  1
  Se  Se201  1  0.92451146  0.58908310  0.30835535  1
  Se  Se202  1  0.91486491  0.58941597  0.79875928  1
  Se  Se203  1  0.89916117  0.91228659  0.32048094  1
  Se  Se204  1  0.91928129  0.91935202  0.80002750  1
  Se  Se205  1  0.08539478  0.08620865  0.31601799  1
  Se  Se206  1  0.08345561  0.08306717  0.79939987  1
  Se  Se207  1  0.09644250  0.41650005  0.32064635  1
  Se  Se208  1  0.07847716  0.41576683  0.79852397  1
  Se  Se209  1  0.08267740  0.75358208  0.29993946  1
  Se  Se210  1  0.08477297  0.75169498  0.79644819  1
  Se  Se211  1  0.41093626  0.07993415  0.31431753  1
  Se  Se212  1  0.42837976  0.08449169  0.78525189  1
  Se  Se213  1  0.43711426  0.42743109  0.31104309  1
  Se  Se214  1  0.41016502  0.41719908  0.79546614  1
  Se  Se215  1  0.42339258  0.75827589  0.31535830  1
  Se  Se216  1  0.41800477  0.74793870  0.79643256  1
  Se  Se217  1  0.74695733  0.08675399  0.31727063  1
  Se  Se218  1  0.75755336  0.08224800  0.79287044  1
  Se  Se219  1  0.76330940  0.42259938  0.31222928  1
  Se  Se220  1  0.74975122  0.42134360  0.79636261  1
  Se  Se221  1  0.74744644  0.74571517  0.31245262  1
  Se  Se222  1  0.75570682  0.76054528  0.81439604  1
  Se  Se223  1  0.25683765  0.07947685  0.20230671  1
  Se  Se224  1  0.25267520  0.08060108  0.69928043  1
  Se  Se225  1  0.24671306  0.41941056  0.19839500  1
  Se  Se226  1  0.24998760  0.41715490  0.69517421  1
  Se  Se227  1  0.25133466  0.75498979  0.18612058  1
  Se  Se228  1  0.25501781  0.74772270  0.69117503  1
  Se  Se229  1  0.57374333  0.08977736  0.18976677  1
  Se  Se230  1  0.57916558  0.08688341  0.70119799  1
  Se  Se231  1  0.57542795  0.42238509  0.19007967  1
  Se  Se232  1  0.58629901  0.41913303  0.69961227  1
  Se  Se233  1  0.57949726  0.75472574  0.20062646  1
  Se  Se234  1  0.58334680  0.75484434  0.68516526  1
  Se  Se235  1  0.92172312  0.08059269  0.20434006  1
  Se  Se236  1  0.92231152  0.08161432  0.69155006  1
  Se  Se237  1  0.90848237  0.41913452  0.18841497  1
  Se  Se238  1  0.91794233  0.41673816  0.69383585  1
  Se  Se239  1  0.91938326  0.74979797  0.20124370  1
  Se  Se240  1  0.91538479  0.74967080  0.70050001  1
  Se  Se241  1  0.09493412  0.23843141  0.19481474  1
  Se  Se242  1  0.08237026  0.25288054  0.69563566  1
  Se  Se243  1  0.08329030  0.58370821  0.20058896  1
  Se  Se244  1  0.08173660  0.58664657  0.69473823  1
  Se  Se245  1  0.09073380  0.91100748  0.17997996  1
  Se  Se246  1  0.08291761  0.91975407  0.69910394  1
  Se  Se247  1  0.42144886  0.24593992  0.19403399  1
  Se  Se248  1  0.41583939  0.24405453  0.70609259  1
  Se  Se249  1  0.42248151  0.57400206  0.19435937  1
  Se  Se250  1  0.41171217  0.58775586  0.69431469  1
  Se  Se251  1  0.41596978  0.92298414  0.19475661  1
  Se  Se252  1  0.41358641  0.91525970  0.69563463  1
  Se  Se253  1  0.75571064  0.23840137  0.19714506  1
  Se  Se254  1  0.74991613  0.24918110  0.68652916  1
  Se  Se255  1  0.75180956  0.58117291  0.19530599  1
  Se  Se256  1  0.75167559  0.58528139  0.68882846  1
  Se  Se257  1  0.75906528  0.90898423  0.19248699  1
  Se  Se258  1  0.74762953  0.92001992  0.69444379  1
