# generated using pymatgen
data_In86Cu29Se144
_symmetry_space_group_name_H-M   'P 1'
_cell_length_a   17.57556067
_cell_length_b   17.58125649
_cell_length_c   23.44355796
_cell_angle_alpha   90.02631894
_cell_angle_beta   89.97987414
_cell_angle_gamma   90.00972612
_symmetry_Int_Tables_number   1
_chemical_formula_structural   In86Cu29Se144
_chemical_formula_sum   'In86 Cu29 Se144'
_cell_volume   7244.06840953
_cell_formula_units_Z   1
loop_
 _symmetry_equiv_pos_site_id
 _symmetry_equiv_pos_as_xyz
  1  'x, y, z'
loop_
 _atom_site_type_symbol
 _atom_site_label
 _atom_site_symmetry_multiplicity
 _atom_site_fract_x
 _atom_site_fract_y
 _atom_site_fract_z
 _atom_site_occupancy
  In  In0  1  -0.00063626  0.18011363  0.12490576  1
  In  In1  1  0.01438444  0.16372564  0.63137667  1
  In  In2  1  -0.00108868  0.49379032  0.12247032  1
  In  In3  1  0.00166381  0.49034909  0.62854372  1
  In  In4  1  -0.00649703  0.82348225  0.12786080  1
  In  In5  1  0.01614748  0.84625942  0.62127783  1
  In  In6  1  0.34557347  0.16053562  0.13246130  1
  In  In7  1  0.31398516  0.15021049  0.59918897  1
  In  In8  1  0.33373499  0.49944381  0.12816273  1
  In  In9  1  0.33468155  0.50682103  0.62256677  1
  In  In10  1  0.33698034  0.83047758  0.14406193  1
  In  In11  1  0.34433830  0.82473610  0.62493983  1
  In  In12  1  0.67827968  0.17309621  0.10951685  1
  In  In13  1  0.66295577  0.16798512  0.63142332  1
  In  In14  1  0.66011465  0.50151005  0.11998351  1
  In  In15  1  0.65186940  0.48950399  0.62972640  1
  In  In16  1  0.65619560  0.83611883  0.12529496  1
  In  In17  1  0.66510971  0.84849363  0.62933941  1
  In  In18  1  0.18660267  0.00110149  0.38479493  1
  In  In19  1  0.16893364  0.00313539  0.86153028  1
  In  In20  1  0.17204828  0.33647090  0.37850586  1
  In  In21  1  0.16509158  0.34955919  0.87635635  1
  In  In22  1  0.16288321  0.66386337  0.36435307  1
  In  In23  1  0.16987067  0.65497461  0.87687250  1
  In  In24  1  0.47085820  0.02222330  0.39972118  1
  In  In25  1  0.50977917  0.00840571  0.86116606  1
  In  In26  1  0.49177053  0.32389009  0.36357886  1
  In  In27  1  0.50730554  0.31897083  0.88367883  1
  In  In28  1  0.49763662  0.67008377  0.36964581  1
  In  In29  1  0.48925946  0.66933854  0.87976939  1
  In  In30  1  0.83302588  0.00597006  0.37764904  1
  In  In31  1  0.83467357  0.00948412  0.87083168  1
  In  In32  1  0.83751614  0.34000614  0.36129921  1
  In  In33  1  0.82920457  0.33193667  0.87738760  1
  In  In34  1  0.83154294  0.66448946  0.36437308  1
  In  In35  1  0.82270711  0.65412407  0.88332784  1
  In  In36  1  -0.00062892  0.18156378  0.37606400  1
  In  In37  1  -0.00910702  0.15984127  0.86607894  1
  In  In38  1  0.01148890  0.50702028  0.36442543  1
  In  In39  1  0.00379705  0.49034050  0.88095336  1
  In  In40  1  0.02914342  0.83032833  0.37006667  1
  In  In41  1  -0.00517716  0.84331914  0.87250465  1
  In  In42  1  0.33708321  0.17488497  0.38123049  1
  In  In43  1  0.34624704  0.16413981  0.87523572  1
  In  In44  1  0.32196012  0.48874259  0.37139859  1
  In  In45  1  0.32515673  0.50380312  0.88253737  1
  In  In46  1  0.33493134  0.84292507  0.37010011  1
  In  In47  1  0.33433987  0.83195386  0.86559161  1
  In  In48  1  0.65433912  0.16758980  0.37246625  1
  In  In49  1  0.65958608  0.16706332  0.87601126  1
  In  In50  1  0.66316672  0.49917842  0.35907899  1
  In  In51  1  0.67790036  0.48968829  0.89409596  1
  In  In52  1  0.65598986  0.82157484  0.36955528  1
  In  In53  1  0.65641191  0.83303323  0.87396166  1
  In  In54  1  0.17590989  0.01019101  0.13163945  1
  In  In55  1  0.15999860  0.00984597  0.62713887  1
  In  In56  1  0.15749575  0.34246518  0.13350956  1
  In  In57  1  0.16465421  0.32747920  0.61345741  1
  In  In58  1  0.18604679  0.65300467  0.14445798  1
  In  In59  1  0.19156626  0.66988600  0.61314360  1
  In  In60  1  0.49431846  -0.00091673  0.12188397  1
  In  In61  1  0.49453470  0.00137250  0.62277547  1
  In  In62  1  0.49925267  0.33529760  0.12697453  1
  In  In63  1  0.51085696  0.32392554  0.62962634  1
  In  In64  1  0.51061225  0.65737568  0.13733686  1
  In  In65  1  0.48010806  0.66093907  0.62287798  1
  In  In66  1  0.82413349  0.01158124  0.11705932  1
  In  In67  1  0.83556801  0.00413409  0.63440161  1
  In  In68  1  0.82988455  0.33384329  0.12105443  1
  In  In69  1  0.83590693  0.32943374  0.63696722  1
  In  In70  1  0.83684259  0.65608321  0.12639278  1
  In  In71  1  0.83291730  0.66419978  0.62623665  1
  In  In72  1  0.33494515  0.32732307  0.74815597  1
  In  In73  1  0.50050788  0.83125921  0.00423167  1
  In  In74  1  0.16865098  0.17650415  0.00133667  1
  In  In75  1  0.00516935  0.67386417  0.74973707  1
  In  In76  1  0.65925854  -0.00174507  0.24560263  1
  In  In77  1  0.17495026  0.83645716  0.49370445  1
  In  In78  1  0.83359492  0.83046810  -0.00102000  1
  In  In79  1  0.16826021  0.83009320  0.01206699  1
  In  In80  1  0.00806723  -0.00400050  0.25743461  1
  In  In81  1  0.83609824  0.16786528  0.50445517  1
  In  In82  1  0.49203135  0.48885882  0.49167263  1
  In  In83  1  0.66105621  0.66348221  0.76039067  1
  In  In84  1  0.83467483  0.83225953  0.50640869  1
  In  In85  1  0.83355802  0.49973250  0.49440130  1
  Cu  Cu86  1  0.83048798  0.49480481  0.75813421  1
  Cu  Cu87  1  0.16808802  0.17437411  0.74181570  1
  Cu  Cu88  1  0.16529122  0.49021490  0.24991109  1
  Cu  Cu89  1  0.49719912  0.49255572  0.75406781  1
  Cu  Cu90  1  0.83776257  0.84387178  0.75149352  1
  Cu  Cu91  1  0.34172190  0.00152700  -0.00103273  1
  Cu  Cu92  1  0.49882941  0.83245222  0.74747009  1
  Cu  Cu93  1  0.49631276  0.50575956  0.24665539  1
  Cu  Cu94  1  0.49674110  0.15923872  0.74796730  1
  Cu  Cu95  1  0.49811292  0.84350097  0.25433321  1
  Cu  Cu96  1  0.83579812  0.82567982  0.25053871  1
  Cu  Cu97  1  0.49954286  0.17110686  0.25247589  1
  Cu  Cu98  1  0.82692555  0.17438450  0.75411053  1
  Cu  Cu99  1  0.82930562  0.49269926  0.23971619  1
  Cu  Cu100  1  -0.00928397  0.33332597  0.00095159  1
  Cu  Cu101  1  0.00341216  0.66504140  0.48734684  1
  Cu  Cu102  1  0.17739237  0.17213639  0.25390846  1
  Cu  Cu103  1  0.00147534  0.65305966  0.00208411  1
  Cu  Cu104  1  0.65834344  -0.00820106  0.50018118  1
  Cu  Cu105  1  0.17444029  0.83773981  0.74200856  1
  Cu  Cu106  1  0.66851318  0.32850087  0.50009844  1
  Cu  Cu107  1  0.16981793  0.50510769  0.75258665  1
  Cu  Cu108  1  0.00028468  0.00536774  -0.00776036  1
  Cu  Cu109  1  0.01279618  0.33637669  0.49961837  1
  Cu  Cu110  1  0.33346662  0.66132747  0.00635648  1
  Cu  Cu111  1  0.65396932  0.66800264  0.49496754  1
  Cu  Cu112  1  0.83394076  0.17231569  0.24288248  1
  Cu  Cu113  1  0.33603981  0.33772422  0.00463822  1
  Cu  Cu114  1  0.66168629  0.33310041  0.00148009  1
  Se  Se115  1  0.07954167  0.07865371  0.05854684  1
  Se  Se116  1  0.08674668  0.09221736  0.55377189  1
  Se  Se117  1  0.08236943  0.41012905  0.05270272  1
  Se  Se118  1  0.08689564  0.42736345  0.55288106  1
  Se  Se119  1  0.07845602  0.73319267  0.06362779  1
  Se  Se120  1  0.07887894  0.74330307  0.55384011  1
  Se  Se121  1  0.41987437  0.08827809  0.05243786  1
  Se  Se122  1  0.43153551  0.09329641  0.55006046  1
  Se  Se123  1  0.41878233  0.42178751  0.05741005  1
  Se  Se124  1  0.41637734  0.40460339  0.56439075  1
  Se  Se125  1  0.40907188  0.74595795  0.06643728  1
  Se  Se126  1  0.41036589  0.74060731  0.54894743  1
  Se  Se127  1  0.74811356  0.08040487  0.04123598  1
  Se  Se128  1  0.74314434  0.07239472  0.55811990  1
  Se  Se129  1  0.74617200  0.41674547  0.05360234  1
  Se  Se130  1  0.74632877  0.41104655  0.55980464  1
  Se  Se131  1  0.74439614  0.74693712  0.06252323  1
  Se  Se132  1  0.73640544  0.73950846  0.56029524  1
  Se  Se133  1  0.25761680  0.25674537  0.06718312  1
  Se  Se134  1  0.25908215  0.26471492  0.54480503  1
  Se  Se135  1  0.24616644  0.58158296  0.05905596  1
  Se  Se136  1  0.25149740  0.57242723  0.54636897  1
  Se  Se137  1  0.26483515  0.92403748  0.06265898  1
  Se  Se138  1  0.25286745  0.91894174  0.56560954  1
  Se  Se139  1  0.57641495  0.25075876  0.05409537  1
  Se  Se140  1  0.58841559  0.24566942  0.55460593  1
  Se  Se141  1  0.57573801  0.58860982  0.05527908  1
  Se  Se142  1  0.58386710  0.58064309  0.55637239  1
  Se  Se143  1  0.59455417  0.93097187  0.05196915  1
  Se  Se144  1  0.57695494  0.91049833  0.55535613  1
  Se  Se145  1  0.91074624  0.24522568  0.05198956  1
  Se  Se146  1  0.92544222  0.26290324  0.56041105  1
  Se  Se147  1  0.91279362  0.57456330  0.05307477  1
  Se  Se148  1  0.92419135  0.59170227  0.55465909  1
  Se  Se149  1  0.92682446  0.92397193  0.05722556  1
  Se  Se150  1  0.92409731  0.93090874  0.55758233  1
  Se  Se151  1  0.08986947  0.24785733  0.44715003  1
  Se  Se152  1  0.07361614  0.25632065  0.93821000  1
  Se  Se153  1  0.08923456  0.58057483  0.44049923  1
  Se  Se154  1  0.08826610  0.57631516  0.94660537  1
  Se  Se155  1  0.07495819  0.92954724  0.44521912  1
  Se  Se156  1  0.08717263  0.92234308  0.94218750  1
  Se  Se157  1  0.43220684  0.25145649  0.44598460  1
  Se  Se158  1  0.41192148  0.24778386  0.95128677  1
  Se  Se159  1  0.40826725  0.58492201  0.43571616  1
  Se  Se160  1  0.41561119  0.58161491  0.94974687  1
  Se  Se161  1  0.41300058  0.90724825  0.45042959  1
  Se  Se162  1  0.41532512  0.91803850  0.93715803  1
  Se  Se163  1  0.75246345  0.25576588  0.43682477  1
  Se  Se164  1  0.74376419  0.25020610  0.94478501  1
  Se  Se165  1  0.73783904  0.58925016  0.43817769  1
  Se  Se166  1  0.74548455  0.58719950  0.95965904  1
  Se  Se167  1  0.74294581  0.91696404  0.44017632  1
  Se  Se168  1  0.74625826  0.91939076  0.93748294  1
  Se  Se169  1  0.26784036  0.08102091  0.45181045  1
  Se  Se170  1  0.25174565  0.07613250  0.94241673  1
  Se  Se171  1  0.25530832  0.41234805  0.45094466  1
  Se  Se172  1  0.24766360  0.41711087  0.95245889  1
  Se  Se173  1  0.25512970  0.74053753  0.43429629  1
  Se  Se174  1  0.25773490  0.74651664  0.94497057  1
  Se  Se175  1  0.58725900  0.08684845  0.44896108  1
  Se  Se176  1  0.56836575  0.08753499  0.94081910  1
  Se  Se177  1  0.59542499  0.40932833  0.43574517  1
  Se  Se178  1  0.57412012  0.41622888  0.95106339  1
  Se  Se179  1  0.57268586  0.75306442  0.44497339  1
  Se  Se180  1  0.59234427  0.73883702  0.94642393  1
  Se  Se181  1  0.92731018  0.07933594  0.44408371  1
  Se  Se182  1  0.91423414  0.08864609  0.94454762  1
  Se  Se183  1  0.92675430  0.41020521  0.43824409  1
  Se  Se184  1  0.90958471  0.41890147  0.94700803  1
  Se  Se185  1  0.91956531  0.74887845  0.43544563  1
  Se  Se186  1  0.92979358  0.73959815  0.94023231  1
  Se  Se187  1  0.25778418  0.25617928  0.30849291  1
  Se  Se188  1  0.24170865  0.24426026  0.81440166  1
  Se  Se189  1  0.24887548  0.57705237  0.30044770  1
  Se  Se190  1  0.25675256  0.58569566  0.80405300  1
  Se  Se191  1  0.23012156  0.90699010  0.30806407  1
  Se  Se192  1  0.25657061  0.91997197  0.79819782  1
  Se  Se193  1  0.59101652  0.25461286  0.29756125  1
  Se  Se194  1  0.57624902  0.24636548  0.80257050  1
  Se  Se195  1  0.58150783  0.59078288  0.29846547  1
  Se  Se196  1  0.57560930  0.57011205  0.81860463  1
  Se  Se197  1  0.57211855  0.92578998  0.31759421  1
  Se  Se198  1  0.58688465  0.91311544  0.79800374  1
  Se  Se199  1  0.92003259  0.24995315  0.29815503  1
  Se  Se200  1  0.91487701  0.25659860  0.80461382  1
  Se  Se201  1  0.90892824  0.57218646  0.30114649  1
  Se  Se202  1  0.91314278  0.58284222  0.80913725  1
  Se  Se203  1  0.91005604  0.90599675  0.31417188  1
  Se  Se204  1  0.92225239  0.92837856  0.80206421  1
  Se  Se205  1  0.09424993  0.09240563  0.31417661  1
  Se  Se206  1  0.08561912  0.09005057  0.79824278  1
  Se  Se207  1  0.08285777  0.40586559  0.30419264  1
  Se  Se208  1  0.08263386  0.42179946  0.80173971  1
  Se  Se209  1  0.06652320  0.73170693  0.29651953  1
  Se  Se210  1  0.09756067  0.76277023  0.81125329  1
  Se  Se211  1  0.41828915  0.08860389  0.30943445  1
  Se  Se212  1  0.40800128  0.07800902  0.79838960  1
  Se  Se213  1  0.41729611  0.42058394  0.30207458  1
  Se  Se214  1  0.41708594  0.41398385  0.81643871  1
  Se  Se215  1  0.41458458  0.75474532  0.30215293  1
  Se  Se216  1  0.41882721  0.74549995  0.80100724  1
  Se  Se217  1  0.75598452  0.08995540  0.30368641  1
  Se  Se218  1  0.74508265  0.08707038  0.80490146  1
  Se  Se219  1  0.74467906  0.41103192  0.29433323  1
  Se  Se220  1  0.74229951  0.41728995  0.81062200  1
  Se  Se221  1  0.74402621  0.74785905  0.30007948  1
  Se  Se222  1  0.76274919  0.75644342  0.81006606  1
  Se  Se223  1  0.25845173  0.08373382  0.20346422  1
  Se  Se224  1  0.25286045  0.09133105  0.69009732  1
  Se  Se225  1  0.25541870  0.41175029  0.19796477  1
  Se  Se226  1  0.24518626  0.42065052  0.69110782  1
  Se  Se227  1  0.23821207  0.76222249  0.20551961  1
  Se  Se228  1  0.25459877  0.74659149  0.69442586  1
  Se  Se229  1  0.57853717  0.09537217  0.18652791  1
  Se  Se230  1  0.58277155  0.07683557  0.69481179  1
  Se  Se231  1  0.58117250  0.42136493  0.19450578  1
  Se  Se232  1  0.58274583  0.40830016  0.70492641  1
  Se  Se233  1  0.58096493  0.75981189  0.20005643  1
  Se  Se234  1  0.57952166  0.74704142  0.68910706  1
  Se  Se235  1  0.91575832  0.08226561  0.19214911  1
  Se  Se236  1  0.91396892  0.09676132  0.69675462  1
  Se  Se237  1  0.91775993  0.40899559  0.19169764  1
  Se  Se238  1  0.91676669  0.41937598  0.70116591  1
  Se  Se239  1  0.91645323  0.74054674  0.19758104  1
  Se  Se240  1  0.91245750  0.76373743  0.68792297  1
  Se  Se241  1  0.08612655  0.24527046  0.19907282  1
  Se  Se242  1  0.08550233  0.26355615  0.69467487  1
  Se  Se243  1  0.08146244  0.57319979  0.19543557  1
  Se  Se244  1  0.09305601  0.58549944  0.68793291  1
  Se  Se245  1  0.08907705  0.91050959  0.18830710  1
  Se  Se246  1  0.08382778  0.92282362  0.69942719  1
  Se  Se247  1  0.41575654  0.25543404  0.19928102  1
  Se  Se248  1  0.41422114  0.23384462  0.68527733  1
  Se  Se249  1  0.40783844  0.59026412  0.19877095  1
  Se  Se250  1  0.41685820  0.57613845  0.69976596  1
  Se  Se251  1  0.41750289  0.92939897  0.20062450  1
  Se  Se252  1  0.41618978  0.91591391  0.69407644  1
  Se  Se253  1  0.74576477  0.24895202  0.18979146  1
  Se  Se254  1  0.74154885  0.25497769  0.70002663  1
  Se  Se255  1  0.74479408  0.58087095  0.19257928  1
  Se  Se256  1  0.75218951  0.57413912  0.69455619  1
  Se  Se257  1  0.76156070  0.91111427  0.19035960  1
  Se  Se258  1  0.74867297  0.92300667  0.70069888  1
