# generated using pymatgen
data_In86Cu29Se144
_symmetry_space_group_name_H-M   'P 1'
_cell_length_a   17.59641432
_cell_length_b   17.59305982
_cell_length_c   23.45889549
_cell_angle_alpha   90.00246185
_cell_angle_beta   89.99666907
_cell_angle_gamma   89.99880701
_symmetry_Int_Tables_number   1
_chemical_formula_structural   In86Cu29Se144
_chemical_formula_sum   'In86 Cu29 Se144'
_cell_volume   7262.28215156
_cell_formula_units_Z   1
loop_
 _symmetry_equiv_pos_site_id
 _symmetry_equiv_pos_as_xyz
  1  'x, y, z'
loop_
 _atom_site_type_symbol
 _atom_site_label
 _atom_site_symmetry_multiplicity
 _atom_site_fract_x
 _atom_site_fract_y
 _atom_site_fract_z
 _atom_site_occupancy
  In  In0  1  0.00181518  0.15228909  0.12557963  1
  In  In1  1  0.00020804  0.17102231  0.61859368  1
  In  In2  1  0.00651104  0.50175446  0.12481571  1
  In  In3  1  -0.00036093  0.52087012  0.62129139  1
  In  In4  1  0.01546745  0.83654085  0.12162830  1
  In  In5  1  0.00260785  0.81237091  0.62407731  1
  In  In6  1  0.33634462  0.17424407  0.11820833  1
  In  In7  1  0.32328852  0.17346003  0.62897666  1
  In  In8  1  0.32367308  0.50594056  0.13562585  1
  In  In9  1  0.32738022  0.48724862  0.62681327  1
  In  In10  1  0.32751234  0.82913115  0.11978990  1
  In  In11  1  0.33927062  0.83942963  0.61976280  1
  In  In12  1  0.65244026  0.16143984  0.11882404  1
  In  In13  1  0.67811632  0.16031818  0.62035270  1
  In  In14  1  0.67444588  0.50676214  0.12805293  1
  In  In15  1  0.66551539  0.50354029  0.62378221  1
  In  In16  1  0.66320791  0.83529291  0.12726170  1
  In  In17  1  0.65459020  0.83661009  0.62420450  1
  In  In18  1  0.16224122  0.00220059  0.37588560  1
  In  In19  1  0.17658267  -0.01394169  0.88230209  1
  In  In20  1  0.16794065  0.32726300  0.37330126  1
  In  In21  1  0.19505024  0.31339508  0.89812664  1
  In  In22  1  0.18455550  0.65995194  0.37959216  1
  In  In23  1  0.16012349  0.67414538  0.88532471  1
  In  In24  1  0.49536699  -0.01989620  0.37233946  1
  In  In25  1  0.50107766  0.01098241  0.88704016  1
  In  In26  1  0.50351536  0.34931420  0.37494419  1
  In  In27  1  0.48432440  0.31886858  0.86333447  1
  In  In28  1  0.50138229  0.66644191  0.37548806  1
  In  In29  1  0.51446323  0.66352917  0.87338459  1
  In  In30  1  0.84364286  0.00180164  0.36276669  1
  In  In31  1  0.81848673  -0.01483322  0.87972813  1
  In  In32  1  0.83443134  0.33538597  0.38461354  1
  In  In33  1  0.83208204  0.34563020  0.86938075  1
  In  In34  1  0.82160895  0.67609600  0.37616812  1
  In  In35  1  0.83847587  0.67329085  0.86782889  1
  In  In36  1  0.00748076  0.16264918  0.37957888  1
  In  In37  1  0.00531634  0.17842105  0.87525152  1
  In  In38  1  0.00434358  0.48804156  0.37940535  1
  In  In39  1  0.00838995  0.51663929  0.87233337  1
  In  In40  1  -0.00599828  0.84670581  0.37300154  1
  In  In41  1  0.00572506  0.81435352  0.88964837  1
  In  In42  1  0.31634047  0.16323018  0.37325251  1
  In  In43  1  0.34161383  0.16241085  0.87757508  1
  In  In44  1  0.35058379  0.52068200  0.35837398  1
  In  In45  1  0.33063505  0.48456203  0.87633384  1
  In  In46  1  0.34671074  0.80938150  0.39433892  1
  In  In47  1  0.33016498  0.84357506  0.87849911  1
  In  In48  1  0.67889018  0.16953124  0.37412863  1
  In  In49  1  0.64404586  0.16284858  0.87309483  1
  In  In50  1  0.65245084  0.51369390  0.38481940  1
  In  In51  1  0.67006589  0.50124530  0.86206811  1
  In  In52  1  0.66568619  0.82032285  0.36002392  1
  In  In53  1  0.67491618  0.83008327  0.88742493  1
  In  In54  1  0.15963562  -0.00760572  0.11917701  1
  In  In55  1  0.17001670  0.00974128  0.62424934  1
  In  In56  1  0.18814781  0.35007248  0.10819153  1
  In  In57  1  0.17927898  0.33217703  0.62813147  1
  In  In58  1  0.17099766  0.67831019  0.12243561  1
  In  In59  1  0.15467771  0.66225251  0.62414574  1
  In  In60  1  0.51048598  0.00097257  0.11890831  1
  In  In61  1  0.49624377  -0.01742895  0.62203308  1
  In  In62  1  0.49348256  0.31801423  0.11688751  1
  In  In63  1  0.49092059  0.34142465  0.62982981  1
  In  In64  1  0.48778912  0.67628653  0.12850009  1
  In  In65  1  0.50731660  0.68243322  0.61738731  1
  In  In66  1  0.84312392  -0.01813309  0.14199023  1
  In  In67  1  0.82129276  0.00286519  0.61797831  1
  In  In68  1  0.83327228  0.34190282  0.12489241  1
  In  In69  1  0.82291196  0.32833001  0.61837168  1
  In  In70  1  0.82156279  0.67072794  0.13360778  1
  In  In71  1  0.84087012  0.65844452  0.62905859  1
  In  In72  1  0.66424757  0.33378501  0.24796165  1
  In  In73  1  0.00581020  0.67045127  0.25159496  1
  In  In74  1  0.32959799  -0.00465503  0.25010703  1
  In  In75  1  0.65896411  -0.00001042  0.75188074  1
  In  In76  1  0.00095811  -0.00458682  0.75494694  1
  In  In77  1  0.49559414  0.49866139  -0.00413182  1
  In  In78  1  0.33255537  0.66333612  0.74550124  1
  In  In79  1  0.83338537  0.15983381  -0.00121228  1
  In  In80  1  0.83706936  0.50754950  0.00198210  1
  In  In81  1  0.17084544  0.49902119  0.50175324  1
  In  In82  1  0.49768335  0.16780025  0.50161819  1
  In  In83  1  0.83569659  0.83655220  0.49533803  1
  In  In84  1  0.00843282  0.32922351  0.25344895  1
  In  In85  1  0.00732073  0.34741468  0.75072268  1
  Cu  Cu86  1  0.82848173  0.50030660  0.74487596  1
  Cu  Cu87  1  0.83131435  0.82362229  0.75359372  1
  Cu  Cu88  1  0.32553053  -0.00186138  0.49614369  1
  Cu  Cu89  1  0.66715849  0.66941398  0.49800288  1
  Cu  Cu90  1  0.82806581  0.16740309  0.74292478  1
  Cu  Cu91  1  0.49837889  0.83285773  0.74846055  1
  Cu  Cu92  1  -0.00368071  0.33268311  0.50156893  1
  Cu  Cu93  1  0.50072373  0.82623362  0.25041781  1
  Cu  Cu94  1  0.33609799  0.00226089  0.00326155  1
  Cu  Cu95  1  0.82846778  0.50492402  0.25716214  1
  Cu  Cu96  1  0.00756818  0.33400887  0.00123116  1
  Cu  Cu97  1  0.16382843  0.16746374  0.24926760  1
  Cu  Cu98  1  0.16476468  0.83033653  0.75785981  1
  Cu  Cu99  1  0.17319264  0.83547613  0.24972892  1
  Cu  Cu100  1  0.83213347  0.15986946  0.24926785  1
  Cu  Cu101  1  0.33010681  0.33264604  0.50075151  1
  Cu  Cu102  1  -0.00100328  -0.00317651  0.00234511  1
  Cu  Cu103  1  0.17834693  0.16517446  0.75473439  1
  Cu  Cu104  1  0.66709382  0.34140515  0.49997158  1
  Cu  Cu105  1  0.49647748  0.16344623  0.24253280  1
  Cu  Cu106  1  0.66672603  -0.00024123  0.49398034  1
  Cu  Cu107  1  0.49419804  0.16812024  0.74941313  1
  Cu  Cu108  1  0.65835020  0.32987032  -0.00960821  1
  Cu  Cu109  1  0.33099292  0.67087631  0.00239536  1
  Cu  Cu110  1  0.66596197  0.67257081  0.00224063  1
  Cu  Cu111  1  0.16647833  0.49678987  0.75211872  1
  Cu  Cu112  1  0.50449132  0.50043068  0.74830469  1
  Cu  Cu113  1  0.49991993  0.50264044  0.25075672  1
  Cu  Cu114  1  -0.00277804  0.00543525  0.49620127  1
  Se  Se115  1  0.08389834  0.08289114  0.05020760  1
  Se  Se116  1  0.08179027  0.08432119  0.55401837  1
  Se  Se117  1  0.08409607  0.42436155  0.05167648  1
  Se  Se118  1  0.07760778  0.41001824  0.56474325  1
  Se  Se119  1  0.08428020  0.74797585  0.05044643  1
  Se  Se120  1  0.08988566  0.74994177  0.55055047  1
  Se  Se121  1  0.42054296  0.08460432  0.05612917  1
  Se  Se122  1  0.40676383  0.07676852  0.55976917  1
  Se  Se123  1  0.40839514  0.41644766  0.06098529  1
  Se  Se124  1  0.41316320  0.41574465  0.55344420  1
  Se  Se125  1  0.41830309  0.75405421  0.05059239  1
  Se  Se126  1  0.41616386  0.75452614  0.55151402  1
  Se  Se127  1  0.75728265  0.07694067  0.06995118  1
  Se  Se128  1  0.75184066  0.08481086  0.54277885  1
  Se  Se129  1  0.73749864  0.40951224  0.05187617  1
  Se  Se130  1  0.75148991  0.42405169  0.55330282  1
  Se  Se131  1  0.74939742  0.75059407  0.05847629  1
  Se  Se132  1  0.74658486  0.75029648  0.55979364  1
  Se  Se133  1  0.24027422  0.23828545  0.05001812  1
  Se  Se134  1  0.24617579  0.24839099  0.55185898  1
  Se  Se135  1  0.25375367  0.58677860  0.05857625  1
  Se  Se136  1  0.25979520  0.58991258  0.56181626  1
  Se  Se137  1  0.24954689  0.91667771  0.05190138  1
  Se  Se138  1  0.24579311  0.91925690  0.55700109  1
  Se  Se139  1  0.58020927  0.24539609  0.04550912  1
  Se  Se140  1  0.58876903  0.25733172  0.56065101  1
  Se  Se141  1  0.58635013  0.58703868  0.05885466  1
  Se  Se142  1  0.58454745  0.58804686  0.55411718  1
  Se  Se143  1  0.57140564  0.90004119  0.05473501  1
  Se  Se144  1  0.58455612  0.91710421  0.54789452  1
  Se  Se145  1  0.92113341  0.25725201  0.05930460  1
  Se  Se146  1  0.91142998  0.24759264  0.55228002  1
  Se  Se147  1  0.92112360  0.59645198  0.06477261  1
  Se  Se148  1  0.91674191  0.59222323  0.54952990  1
  Se  Se149  1  0.91938113  0.91710941  0.05999886  1
  Se  Se150  1  0.92532377  0.92301664  0.56231521  1
  Se  Se151  1  0.08289593  0.25460395  0.44610288  1
  Se  Se152  1  0.08607534  0.24296722  0.95242214  1
  Se  Se153  1  0.07891900  0.58708367  0.44257186  1
  Se  Se154  1  0.07565789  0.59028155  0.95106252  1
  Se  Se155  1  0.07922051  0.91993598  0.44510991  1
  Se  Se156  1  0.08274037  0.91337041  0.94804996  1
  Se  Se157  1  0.41015979  0.25463727  0.43728358  1
  Se  Se158  1  0.42106072  0.24956096  0.94563762  1
  Se  Se159  1  0.41901873  0.58074388  0.44239740  1
  Se  Se160  1  0.40711995  0.59298229  0.93639782  1
  Se  Se161  1  0.41732701  0.91571427  0.45161504  1
  Se  Se162  1  0.41789938  0.91873412  0.94795627  1
  Se  Se163  1  0.74739107  0.25240586  0.44948486  1
  Se  Se164  1  0.74829372  0.25387083  0.93524027  1
  Se  Se165  1  0.75219009  0.58569595  0.44682785  1
  Se  Se166  1  0.74030709  0.58734259  0.94055691  1
  Se  Se167  1  0.74556963  0.92060756  0.43191794  1
  Se  Se168  1  0.73928246  0.92431766  0.95762163  1
  Se  Se169  1  0.24261984  0.08521267  0.44783504  1
  Se  Se170  1  0.25314223  0.08076408  0.94475171  1
  Se  Se171  1  0.25831622  0.41531096  0.43631716  1
  Se  Se172  1  0.24709022  0.42708449  0.95448090  1
  Se  Se173  1  0.23631374  0.75570394  0.45363455  1
  Se  Se174  1  0.25139111  0.75644896  0.94660841  1
  Se  Se175  1  0.58245841  0.07939104  0.43580295  1
  Se  Se176  1  0.60542341  0.07096038  0.95132630  1
  Se  Se177  1  0.57729766  0.42243511  0.45242465  1
  Se  Se178  1  0.58420884  0.41361319  0.93048555  1
  Se  Se179  1  0.58907946  0.75344783  0.44029214  1
  Se  Se180  1  0.57807817  0.74991842  0.94836241  1
  Se  Se181  1  0.91180829  0.08346298  0.44091269  1
  Se  Se182  1  0.92489858  0.07352480  0.93467182  1
  Se  Se183  1  0.91567136  0.42049805  0.45173626  1
  Se  Se184  1  0.92546305  0.41281365  0.94122215  1
  Se  Se185  1  0.92668936  0.74365321  0.44055782  1
  Se  Se186  1  0.89522567  0.75661999  0.94702098  1
  Se  Se187  1  0.24953067  0.25031652  0.29967877  1
  Se  Se188  1  0.25697161  0.24999087  0.81007584  1
  Se  Se189  1  0.24900312  0.58787860  0.29788300  1
  Se  Se190  1  0.24476671  0.58091367  0.81256496  1
  Se  Se191  1  0.25283026  0.90627257  0.31792623  1
  Se  Se192  1  0.25160236  0.91742925  0.80180950  1
  Se  Se193  1  0.57420182  0.24262218  0.30840572  1
  Se  Se194  1  0.58390054  0.25076701  0.79740506  1
  Se  Se195  1  0.58459939  0.58530852  0.30339595  1
  Se  Se196  1  0.58755887  0.58783439  0.79637127  1
  Se  Se197  1  0.58278189  0.91484966  0.29925403  1
  Se  Se198  1  0.57654374  0.90903885  0.81430774  1
  Se  Se199  1  0.90799691  0.24540875  0.30938099  1
  Se  Se200  1  0.91149174  0.24683715  0.80173408  1
  Se  Se201  1  0.91674123  0.57824450  0.31398287  1
  Se  Se202  1  0.91242689  0.57826088  0.80248769  1
  Se  Se203  1  0.91692304  0.91267058  0.29516869  1
  Se  Se204  1  0.91019104  0.90542260  0.81310182  1
  Se  Se205  1  0.08243045  0.08419774  0.30386825  1
  Se  Se206  1  0.09238878  0.08810137  0.81195483  1
  Se  Se207  1  0.09789047  0.42769450  0.30417620  1
  Se  Se208  1  0.09901756  0.41523538  0.82142200  1
  Se  Se209  1  0.09459238  0.75795811  0.31429431  1
  Se  Se210  1  0.08055313  0.74675677  0.80823511  1
  Se  Se211  1  0.42087067  0.08745831  0.31016129  1
  Se  Se212  1  0.42329618  0.07895516  0.80713488  1
  Se  Se213  1  0.41801586  0.41335770  0.29955250  1
  Se  Se214  1  0.41641897  0.42029367  0.80012436  1
  Se  Se215  1  0.41497377  0.74925401  0.30729836  1
  Se  Se216  1  0.41942221  0.75160292  0.80972443  1
  Se  Se217  1  0.74510078  0.08123888  0.30196101  1
  Se  Se218  1  0.75534539  0.08903652  0.80923113  1
  Se  Se219  1  0.74842062  0.42101235  0.31451725  1
  Se  Se220  1  0.74769874  0.41174970  0.79455052  1
  Se  Se221  1  0.76324685  0.75284194  0.29507578  1
  Se  Se222  1  0.73980787  0.74996142  0.80700647  1
  Se  Se223  1  0.24424904  0.08653463  0.18808481  1
  Se  Se224  1  0.25502961  0.07935151  0.69880690  1
  Se  Se225  1  0.25183324  0.40587191  0.19659682  1
  Se  Se226  1  0.25173562  0.41173420  0.70372110  1
  Se  Se227  1  0.25470887  0.75107362  0.19696276  1
  Se  Se228  1  0.24187901  0.75640596  0.68997602  1
  Se  Se229  1  0.58419761  0.08075507  0.19592765  1
  Se  Se230  1  0.57243990  0.08862409  0.68547218  1
  Se  Se231  1  0.57358937  0.42101398  0.18509192  1
  Se  Se232  1  0.58585511  0.41636182  0.69339504  1
  Se  Se233  1  0.58379514  0.74409978  0.19553143  1
  Se  Se234  1  0.58472842  0.75124906  0.69764165  1
  Se  Se235  1  0.92267835  0.08066423  0.20076397  1
  Se  Se236  1  0.91125895  0.08441447  0.68966882  1
  Se  Se237  1  0.91084986  0.42631656  0.19816919  1
  Se  Se238  1  0.91255151  0.42251294  0.68481392  1
  Se  Se239  1  0.91842550  0.75796440  0.19053359  1
  Se  Se240  1  0.91811993  0.74568706  0.69935270  1
  Se  Se241  1  0.09030022  0.24744285  0.18369468  1
  Se  Se242  1  0.09048346  0.24161165  0.69621147  1
  Se  Se243  1  0.09505134  0.57964181  0.19294460  1
  Se  Se244  1  0.08356250  0.58127526  0.70067987  1
  Se  Se245  1  0.08766808  0.91766410  0.19842793  1
  Se  Se246  1  0.08698111  0.90797400  0.69136910  1
  Se  Se247  1  0.41361434  0.25023316  0.19493975  1
  Se  Se248  1  0.41167597  0.25212899  0.69570552  1
  Se  Se249  1  0.41584415  0.58646694  0.19813195  1
  Se  Se250  1  0.42521102  0.57804470  0.68508086  1
  Se  Se251  1  0.42219367  0.91009371  0.18966932  1
  Se  Se252  1  0.41318542  0.91645064  0.69851290  1
  Se  Se253  1  0.75619488  0.24329388  0.18792728  1
  Se  Se254  1  0.74375863  0.25049667  0.69299375  1
  Se  Se255  1  0.74400966  0.58607836  0.20461940  1
  Se  Se256  1  0.74585785  0.58745094  0.69489243  1
  Se  Se257  1  0.73984904  0.91563435  0.20103724  1
  Se  Se258  1  0.75649188  0.91003600  0.69380250  1
