# generated using pymatgen
data_In86Cu29Se144
_symmetry_space_group_name_H-M   'P 1'
_cell_length_a   17.58562754
_cell_length_b   17.58495919
_cell_length_c   23.44966436
_cell_angle_alpha   89.98553315
_cell_angle_beta   90.02118944
_cell_angle_gamma   90.00970486
_symmetry_Int_Tables_number   1
_chemical_formula_structural   In86Cu29Se144
_chemical_formula_sum   'In86 Cu29 Se144'
_cell_volume   7251.63299730
_cell_formula_units_Z   1
loop_
 _symmetry_equiv_pos_site_id
 _symmetry_equiv_pos_as_xyz
  1  'x, y, z'
loop_
 _atom_site_type_symbol
 _atom_site_label
 _atom_site_symmetry_multiplicity
 _atom_site_fract_x
 _atom_site_fract_y
 _atom_site_fract_z
 _atom_site_occupancy
  In  In0  1  -0.00130794  0.15272344  0.11779416  1
  In  In1  1  0.00301854  0.18161932  0.62632974  1
  In  In2  1  0.01541238  0.49856989  0.12235727  1
  In  In3  1  0.00693330  0.50001936  0.61993266  1
  In  In4  1  -0.01137181  0.82621582  0.11227727  1
  In  In5  1  0.00087266  0.82098483  0.63596076  1
  In  In6  1  0.33282786  0.16440701  0.11600431  1
  In  In7  1  0.34112991  0.15319257  0.63038032  1
  In  In8  1  0.34308081  0.50793176  0.11727572  1
  In  In9  1  0.32782407  0.52463965  0.62570029  1
  In  In10  1  0.32327513  0.82435598  0.11727873  1
  In  In11  1  0.34918742  0.81890392  0.63884183  1
  In  In12  1  0.64777306  0.17209850  0.14345561  1
  In  In13  1  0.66189200  0.15900602  0.61502861  1
  In  In14  1  0.64751219  0.51626453  0.13762579  1
  In  In15  1  0.66949833  0.48618968  0.62084043  1
  In  In16  1  0.66340528  0.82942047  0.12325836  1
  In  In17  1  0.66566086  0.84996545  0.62863275  1
  In  In18  1  0.16065443  0.00248765  0.37266371  1
  In  In19  1  0.18791068  -0.02248436  0.88803745  1
  In  In20  1  0.17944306  0.34115672  0.37636145  1
  In  In21  1  0.16137780  0.34508303  0.87562342  1
  In  In22  1  0.15871421  0.66256017  0.36451891  1
  In  In23  1  0.16624499  0.67391503  0.87183678  1
  In  In24  1  0.50749288  -0.00389835  0.37475789  1
  In  In25  1  0.49657924  0.00042720  0.87336934  1
  In  In26  1  0.50376687  0.31814311  0.37724931  1
  In  In27  1  0.50366191  0.33090312  0.88275449  1
  In  In28  1  0.50186290  0.67054285  0.36999685  1
  In  In29  1  0.48106688  0.68952912  0.89450301  1
  In  In30  1  0.82765598  0.01226313  0.38016165  1
  In  In31  1  0.82034708  0.00129602  0.87188885  1
  In  In32  1  0.82630677  0.34412020  0.38124887  1
  In  In33  1  0.83691268  0.32408882  0.86966616  1
  In  In34  1  0.82618535  0.65922022  0.36837660  1
  In  In35  1  0.84391996  0.66754523  0.87843442  1
  In  In36  1  -0.00457508  0.15552745  0.37798516  1
  In  In37  1  -0.00238288  0.18029797  0.86754404  1
  In  In38  1  -0.01241461  0.50637054  0.38401162  1
  In  In39  1  0.01088640  0.51746303  0.86523630  1
  In  In40  1  0.01027365  0.82878263  0.37314275  1
  In  In41  1  0.01941325  0.81604057  0.89023550  1
  In  In42  1  0.33876711  0.17880112  0.37603860  1
  In  In43  1  0.34956882  0.15038904  0.87829263  1
  In  In44  1  0.32105382  0.50462755  0.37925849  1
  In  In45  1  0.32023353  0.51351656  0.87995729  1
  In  In46  1  0.34954016  0.83305480  0.37438359  1
  In  In47  1  0.33332450  0.83701146  0.87021341  1
  In  In48  1  0.66122972  0.16740496  0.36864862  1
  In  In49  1  0.66366957  0.15449173  0.87379226  1
  In  In50  1  0.67287640  0.51001744  0.36880160  1
  In  In51  1  0.66002733  0.50116093  0.88444068  1
  In  In52  1  0.65356663  0.81890742  0.36492321  1
  In  In53  1  0.65156897  0.84479632  0.89432714  1
  In  In54  1  0.15470925  -0.00621261  0.10212372  1
  In  In55  1  0.17926073  -0.00252180  0.63657893  1
  In  In56  1  0.17153546  0.33529856  0.11245862  1
  In  In57  1  0.15085335  0.33809656  0.62814020  1
  In  In58  1  0.16689186  0.66488204  0.12351301  1
  In  In59  1  0.18253766  0.65777286  0.63643770  1
  In  In60  1  0.51152810  0.00550113  0.12112907  1
  In  In61  1  0.50664956  0.00046015  0.62533138  1
  In  In62  1  0.50030628  0.33460783  0.12451026  1
  In  In63  1  0.51244585  0.32878654  0.62473975  1
  In  In64  1  0.49832914  0.66392680  0.12142639  1
  In  In65  1  0.48198130  0.67326847  0.62597140  1
  In  In66  1  0.81933225  -0.03065500  0.11224101  1
  In  In67  1  0.81500493  0.00046020  0.62736372  1
  In  In68  1  0.82296991  0.32266219  0.12851627  1
  In  In69  1  0.85277179  0.34157948  0.60737819  1
  In  In70  1  0.82533242  0.67813830  0.13168052  1
  In  In71  1  0.84600315  0.66353114  0.62342316  1
  In  In72  1  0.66670640  0.66652065  0.75877964  1
  In  In73  1  0.83024975  0.83480076  0.50391359  1
  In  In74  1  0.16992308  0.17221811  0.50245053  1
  In  In75  1  0.83156045  0.50138274  0.00087978  1
  In  In76  1  0.50015629  0.50193719  0.50227583  1
  In  In77  1  0.33339599  0.32891865  0.74613510  1
  In  In78  1  0.82949427  0.16449780  -0.00036874  1
  In  In79  1  -0.01213181  -0.00927297  0.23619151  1
  In  In80  1  0.33357261  -0.00174293  0.25098634  1
  In  In81  1  0.33979933  0.33721622  0.24670457  1
  In  In82  1  0.17626563  0.82808904  0.50746275  1
  In  In83  1  -0.00424112  0.33645406  0.25322867  1
  In  In84  1  0.00382774  -0.00114439  0.75955987  1
  In  In85  1  0.67324309  0.32887911  0.74983136  1
  Cu  Cu86  1  0.16425296  0.16401284  0.23729585  1
  Cu  Cu87  1  0.49930780  0.50078359  0.24864720  1
  Cu  Cu88  1  0.15943864  0.50568628  0.75247600  1
  Cu  Cu89  1  0.83376555  0.50153689  0.25399294  1
  Cu  Cu90  1  0.00236581  0.34072926  -0.00614595  1
  Cu  Cu91  1  0.17317328  0.16519469  0.75350870  1
  Cu  Cu92  1  0.34650755  0.00349314  0.50051726  1
  Cu  Cu93  1  0.49794621  0.82889782  0.24380412  1
  Cu  Cu94  1  0.33206985  0.32708944  -0.00572693  1
  Cu  Cu95  1  0.00543722  0.66458532  -0.00096530  1
  Cu  Cu96  1  0.83091940  0.83391468  0.75310941  1
  Cu  Cu97  1  0.16776029  0.50898475  0.24864243  1
  Cu  Cu98  1  -0.00138314  0.00260894  0.50768969  1
  Cu  Cu99  1  0.50477264  0.83829336  0.75814753  1
  Cu  Cu100  1  0.66702010  0.66542428  0.49372204  1
  Cu  Cu101  1  0.82976522  0.83361851  0.24788620  1
  Cu  Cu102  1  0.34217055  -0.00644001  -0.00160128  1
  Cu  Cu103  1  0.83443616  0.17126067  0.74260926  1
  Cu  Cu104  1  -0.00002134  0.65878619  0.49727538  1
  Cu  Cu105  1  0.65767528  0.33422615  0.00666171  1
  Cu  Cu106  1  0.84003659  0.49794980  0.74481048  1
  Cu  Cu107  1  0.82115414  0.16335481  0.25219221  1
  Cu  Cu108  1  0.33501807  0.33554103  0.50253455  1
  Cu  Cu109  1  0.16753460  0.82189858  0.24439137  1
  Cu  Cu110  1  0.67360636  0.32829964  0.49621854  1
  Cu  Cu111  1  0.48992543  0.50523922  0.75761338  1
  Cu  Cu112  1  0.66031809  0.00038376  0.49822342  1
  Cu  Cu113  1  0.32897470  0.66555736  -0.00035835  1
  Cu  Cu114  1  0.66156787  0.00021332  0.00120094  1
  Se  Se115  1  0.09278296  0.10224076  0.04445200  1
  Se  Se116  1  0.08685354  0.07642982  0.56548670  1
  Se  Se117  1  0.08848994  0.42142850  0.04634683  1
  Se  Se118  1  0.08261074  0.41215821  0.55038343  1
  Se  Se119  1  0.08760343  0.75031683  0.05273958  1
  Se  Se120  1  0.07471574  0.74171885  0.55837859  1
  Se  Se121  1  0.42044332  0.08016432  0.05307108  1
  Se  Se122  1  0.42597809  0.08778178  0.55492777  1
  Se  Se123  1  0.41187817  0.40763564  0.05461670  1
  Se  Se124  1  0.41136202  0.41462277  0.56724428  1
  Se  Se125  1  0.41548359  0.74754704  0.05196819  1
  Se  Se126  1  0.41135744  0.75416033  0.55240447  1
  Se  Se127  1  0.73894227  0.08234521  0.06441286  1
  Se  Se128  1  0.75166341  0.07983598  0.54767162  1
  Se  Se129  1  0.74196753  0.41349115  0.06307016  1
  Se  Se130  1  0.75277868  0.41803118  0.54693915  1
  Se  Se131  1  0.76943139  0.77125603  0.05842313  1
  Se  Se132  1  0.74041051  0.74296658  0.56326557  1
  Se  Se133  1  0.24809896  0.24440171  0.04758849  1
  Se  Se134  1  0.25916000  0.25633276  0.56784593  1
  Se  Se135  1  0.24674447  0.58064229  0.05293075  1
  Se  Se136  1  0.24598433  0.59196796  0.55115339  1
  Se  Se137  1  0.25075678  0.91153430  0.04567428  1
  Se  Se138  1  0.26362044  0.92662920  0.56015141  1
  Se  Se139  1  0.58247031  0.24368644  0.05959264  1
  Se  Se140  1  0.58437455  0.25089452  0.54881981  1
  Se  Se141  1  0.57972830  0.57743900  0.05394987  1
  Se  Se142  1  0.58989074  0.59249499  0.56396135  1
  Se  Se143  1  0.58009714  0.91157479  0.05255085  1
  Se  Se144  1  0.58162848  0.91326056  0.55205083  1
  Se  Se145  1  0.92237662  0.26171292  0.05555400  1
  Se  Se146  1  0.92008051  0.23834165  0.54773049  1
  Se  Se147  1  0.92269574  0.58908775  0.06198131  1
  Se  Se148  1  0.91475695  0.57807869  0.55079069  1
  Se  Se149  1  0.94561996  0.94942403  0.06057930  1
  Se  Se150  1  0.92312017  0.91915794  0.56792300  1
  Se  Se151  1  0.08225913  0.25336194  0.43560603  1
  Se  Se152  1  0.08106868  0.25378816  0.94076954  1
  Se  Se153  1  0.08807021  0.58355483  0.44200147  1
  Se  Se154  1  0.08925290  0.58446907  0.94351723  1
  Se  Se155  1  0.07860038  0.92281058  0.44840369  1
  Se  Se156  1  0.07797908  0.92454466  0.94881881  1
  Se  Se157  1  0.41766342  0.25017478  0.45233877  1
  Se  Se158  1  0.42083282  0.24401882  0.94713595  1
  Se  Se159  1  0.41207277  0.59154403  0.44291395  1
  Se  Se160  1  0.41512484  0.57905833  0.94963128  1
  Se  Se161  1  0.42318566  0.91679135  0.44547018  1
  Se  Se162  1  0.42203485  0.91018183  0.94231909  1
  Se  Se163  1  0.75032179  0.24344682  0.43925077  1
  Se  Se164  1  0.73822298  0.25953670  0.94171060  1
  Se  Se165  1  0.75321237  0.58161470  0.44597142  1
  Se  Se166  1  0.74268388  0.59647740  0.94586380  1
  Se  Se167  1  0.73890708  0.91484657  0.43845712  1
  Se  Se168  1  0.75400184  0.92243590  0.95139684  1
  Se  Se169  1  0.25833850  0.07650742  0.44050880  1
  Se  Se170  1  0.25756598  0.08093938  0.94800409  1
  Se  Se171  1  0.25008540  0.41957635  0.45331110  1
  Se  Se172  1  0.24980896  0.41728866  0.94615884  1
  Se  Se173  1  0.25136491  0.74745984  0.43290463  1
  Se  Se174  1  0.25322335  0.75123912  0.94123292  1
  Se  Se175  1  0.58153292  0.08675785  0.44296507  1
  Se  Se176  1  0.57963804  0.08297804  0.94611674  1
  Se  Se177  1  0.59007635  0.41435962  0.44002773  1
  Se  Se178  1  0.57794370  0.41936004  0.95246509  1
  Se  Se179  1  0.58038525  0.74856795  0.44543413  1
  Se  Se180  1  0.59107663  0.74021349  0.95519714  1
  Se  Se181  1  0.91544016  0.08201505  0.45274396  1
  Se  Se182  1  0.91888103  0.08428804  0.93434892  1
  Se  Se183  1  0.92704144  0.40383997  0.44664928  1
  Se  Se184  1  0.91971493  0.41742166  0.93409719  1
  Se  Se185  1  0.92052949  0.74675796  0.44137340  1
  Se  Se186  1  0.91584078  0.74989545  0.95311978  1
  Se  Se187  1  0.24078926  0.24241742  0.30137638  1
  Se  Se188  1  0.25048648  0.24644310  0.81575220  1
  Se  Se189  1  0.25622477  0.58669054  0.30129001  1
  Se  Se190  1  0.24824846  0.58782334  0.80173008  1
  Se  Se191  1  0.23815140  0.90610228  0.30875876  1
  Se  Se192  1  0.24857615  0.91636639  0.80094669  1
  Se  Se193  1  0.58028488  0.25185930  0.29995736  1
  Se  Se194  1  0.57757552  0.24414824  0.80680816  1
  Se  Se195  1  0.58332786  0.58597575  0.30173836  1
  Se  Se196  1  0.57039977  0.58363296  0.81797269  1
  Se  Se197  1  0.57840617  0.91253757  0.29980018  1
  Se  Se198  1  0.59113920  0.91830996  0.81003927  1
  Se  Se199  1  0.90895820  0.23914647  0.30945542  1
  Se  Se200  1  0.91788531  0.25687378  0.79281234  1
  Se  Se201  1  0.92129574  0.58380525  0.30373670  1
  Se  Se202  1  0.91280993  0.58767274  0.80078908  1
  Se  Se203  1  0.90779949  0.91110825  0.31338907  1
  Se  Se204  1  0.91352673  0.90753051  0.81654720  1
  Se  Se205  1  0.08183340  0.08575963  0.29741794  1
  Se  Se206  1  0.09617457  0.08678174  0.81746153  1
  Se  Se207  1  0.09102632  0.42539939  0.30923942  1
  Se  Se208  1  0.07785661  0.41622513  0.80053602  1
  Se  Se209  1  0.07563105  0.74708018  0.29652990  1
  Se  Se210  1  0.07108380  0.74380564  0.80436897  1
  Se  Se211  1  0.42058325  0.09145082  0.30888608  1
  Se  Se212  1  0.42008537  0.08015569  0.79911861  1
  Se  Se213  1  0.42285917  0.42441938  0.31535757  1
  Se  Se214  1  0.41499486  0.41782152  0.81425503  1
  Se  Se215  1  0.41464349  0.74777771  0.29912074  1
  Se  Se216  1  0.42057862  0.74967639  0.80517287  1
  Se  Se217  1  0.74298763  0.07451456  0.30380427  1
  Se  Se218  1  0.75282587  0.09089877  0.79926484  1
  Se  Se219  1  0.74963032  0.41623441  0.30369330  1
  Se  Se220  1  0.75598631  0.42841276  0.81020937  1
  Se  Se221  1  0.74876260  0.74596016  0.30034627  1
  Se  Se222  1  0.75084024  0.75981882  0.81863569  1
  Se  Se223  1  0.24119932  0.07728481  0.18289747  1
  Se  Se224  1  0.25903465  0.08151257  0.70504814  1
  Se  Se225  1  0.24404666  0.42332019  0.18902616  1
  Se  Se226  1  0.24418792  0.42739882  0.69178701  1
  Se  Se227  1  0.25511501  0.74214736  0.19388600  1
  Se  Se228  1  0.24192957  0.76155264  0.69902358  1
  Se  Se229  1  0.58205492  0.06953524  0.20417273  1
  Se  Se230  1  0.59925477  0.07647722  0.69126658  1
  Se  Se231  1  0.58040625  0.41210392  0.19875355  1
  Se  Se232  1  0.57488974  0.42758250  0.69927818  1
  Se  Se233  1  0.58233187  0.74483510  0.19212489  1
  Se  Se234  1  0.58004214  0.75507189  0.69361392  1
  Se  Se235  1  0.89664351  0.08820678  0.18523152  1
  Se  Se236  1  0.91669462  0.08337654  0.68932851  1
  Se  Se237  1  0.90917783  0.42398219  0.18764162  1
  Se  Se238  1  0.91963837  0.41663911  0.68855238  1
  Se  Se239  1  0.92046698  0.75614463  0.19573283  1
  Se  Se240  1  0.90970922  0.74574636  0.70216832  1
  Se  Se241  1  0.08278842  0.25030581  0.18498516  1
  Se  Se242  1  0.08783815  0.24822426  0.70238664  1
  Se  Se243  1  0.08011755  0.58702087  0.19554226  1
  Se  Se244  1  0.07796791  0.58637933  0.69382777  1
  Se  Se245  1  0.09205626  0.90856173  0.18520438  1
  Se  Se246  1  0.09142498  0.90715935  0.69842229  1
  Se  Se247  1  0.42046330  0.23671183  0.19189984  1
  Se  Se248  1  0.43324279  0.24115272  0.69458127  1
  Se  Se249  1  0.41584461  0.58312337  0.19485469  1
  Se  Se250  1  0.41294073  0.59006223  0.70186330  1
  Se  Se251  1  0.41646378  0.91030197  0.18515635  1
  Se  Se252  1  0.42502999  0.91831871  0.69738242  1
  Se  Se253  1  0.74170662  0.25470889  0.20398754  1
  Se  Se254  1  0.75865766  0.25141209  0.67896134  1
  Se  Se255  1  0.75176551  0.58418100  0.19761109  1
  Se  Se256  1  0.75099713  0.57624070  0.69034770  1
  Se  Se257  1  0.74357566  0.91482005  0.19642903  1
  Se  Se258  1  0.74695152  0.91998271  0.70481570  1
