# generated using pymatgen
data_In86Cu29Se144
_symmetry_space_group_name_H-M   'P 1'
_cell_length_a   17.58509026
_cell_length_b   17.58476984
_cell_length_c   23.44466662
_cell_angle_alpha   90.00130818
_cell_angle_beta   89.96609016
_cell_angle_gamma   90.01630102
_symmetry_Int_Tables_number   1
_chemical_formula_structural   In86Cu29Se144
_chemical_formula_sum   'In86 Cu29 Se144'
_cell_volume   7249.78717809
_cell_formula_units_Z   1
loop_
 _symmetry_equiv_pos_site_id
 _symmetry_equiv_pos_as_xyz
  1  'x, y, z'
loop_
 _atom_site_type_symbol
 _atom_site_label
 _atom_site_symmetry_multiplicity
 _atom_site_fract_x
 _atom_site_fract_y
 _atom_site_fract_z
 _atom_site_occupancy
  In  In0  1  -0.00830208  0.17373234  0.13271461  1
  In  In1  1  -0.00642496  0.15116385  0.62452904  1
  In  In2  1  -0.02355853  0.50371537  0.12337595  1
  In  In3  1  0.00000747  0.51319081  0.62704518  1
  In  In4  1  -0.00368112  0.84482575  0.13405249  1
  In  In5  1  0.00108886  0.83173732  0.61998413  1
  In  In6  1  0.33000646  0.16723504  0.13802704  1
  In  In7  1  0.34121929  0.17378820  0.61494106  1
  In  In8  1  0.33316484  0.49950398  0.14243552  1
  In  In9  1  0.33424100  0.50090820  0.63077758  1
  In  In10  1  0.32768801  0.83459952  0.15196213  1
  In  In11  1  0.32723817  0.82951887  0.61391658  1
  In  In12  1  0.67224671  0.16699526  0.13283143  1
  In  In13  1  0.66197511  0.17839123  0.61509099  1
  In  In14  1  0.68551041  0.48717938  0.13997473  1
  In  In15  1  0.67015287  0.48955178  0.61703529  1
  In  In16  1  0.67499713  0.82657866  0.13537383  1
  In  In17  1  0.67252240  0.83637745  0.59636534  1
  In  In18  1  0.16891651  -0.00522806  0.37303124  1
  In  In19  1  0.15801801  0.01443400  0.87380825  1
  In  In20  1  0.15391864  0.33007643  0.36574799  1
  In  In21  1  0.17403789  0.32390593  0.87026789  1
  In  In22  1  0.18071164  0.66951973  0.36763053  1
  In  In23  1  0.16673519  0.67015550  0.86419220  1
  In  In24  1  0.50285392  0.00479787  0.38331087  1
  In  In25  1  0.49840933  -0.00657562  0.87616136  1
  In  In26  1  0.49510051  0.32551845  0.37134155  1
  In  In27  1  0.50544903  0.33912026  0.86654366  1
  In  In28  1  0.51500227  0.68059646  0.37372830  1
  In  In29  1  0.49112849  0.67467337  0.86491674  1
  In  In30  1  0.81875614  -0.01244105  0.36610629  1
  In  In31  1  0.84320026  -0.00985468  0.88274474  1
  In  In32  1  0.83772757  0.33528433  0.37034738  1
  In  In33  1  0.81793826  0.34394522  0.89174412  1
  In  In34  1  0.81348999  0.67689568  0.39594685  1
  In  In35  1  0.84200164  0.65985139  0.88002425  1
  In  In36  1  0.00855728  0.17066992  0.37029555  1
  In  In37  1  -0.00301800  0.15373611  0.87013325  1
  In  In38  1  -0.00303650  0.48693655  0.37002054  1
  In  In39  1  -0.02067244  0.50015722  0.86702125  1
  In  In40  1  -0.00885864  0.84205690  0.37717877  1
  In  In41  1  -0.00713233  0.82516073  0.86420490  1
  In  In42  1  0.33398036  0.16245842  0.37806318  1
  In  In43  1  0.32233538  0.17554646  0.87332140  1
  In  In44  1  0.32768365  0.49963527  0.36125895  1
  In  In45  1  0.33557129  0.50043768  0.86800520  1
  In  In46  1  0.33137219  0.83622365  0.37389019  1
  In  In47  1  0.34307515  0.82502105  0.86785592  1
  In  In48  1  0.65679812  0.16026290  0.37371649  1
  In  In49  1  0.67187234  0.18222551  0.87056759  1
  In  In50  1  0.67567034  0.50611726  0.37444796  1
  In  In51  1  0.68180009  0.49314765  0.87273534  1
  In  In52  1  0.66761301  0.83748684  0.38622623  1
  In  In53  1  0.67294092  0.84683597  0.87271158  1
  In  In54  1  0.15468147  0.00477054  0.15007133  1
  In  In55  1  0.15816810  -0.00768536  0.61241747  1
  In  In56  1  0.17066977  0.33431315  0.14148672  1
  In  In57  1  0.17990047  0.33774203  0.61950403  1
  In  In58  1  0.16885590  0.67552285  0.13629731  1
  In  In59  1  0.16224055  0.67273742  0.62618348  1
  In  In60  1  0.50299651  -0.00256679  0.14070181  1
  In  In61  1  0.50540032  0.00074079  0.60183299  1
  In  In62  1  0.50520695  0.33105437  0.13510921  1
  In  In63  1  0.50775388  0.32733155  0.62242014  1
  In  In64  1  0.49829006  0.67292622  0.13697703  1
  In  In65  1  0.49293124  0.66299492  0.62041827  1
  In  In66  1  0.83230964  0.00155635  0.13202562  1
  In  In67  1  0.84726403  0.00000176  0.62501436  1
  In  In68  1  0.83010057  0.33523933  0.12836466  1
  In  In69  1  0.81739205  0.33466869  0.62418351  1
  In  In70  1  0.82402200  0.65913369  0.12028464  1
  In  In71  1  0.83622132  0.67076641  0.61549178  1
  In  In72  1  -0.00022624  0.65719152  0.25219792  1
  In  In73  1  0.15837807  0.50349024  0.00349381  1
  In  In74  1  0.16025677  0.83556540  0.00996965  1
  In  In75  1  0.32991138  -0.00127055  0.74893585  1
  In  In76  1  0.66392854  0.66232184  0.74120216  1
  In  In77  1  0.50418957  0.50245787  0.49427789  1
  In  In78  1  -0.00010604  0.33131712  0.74957711  1
  In  In79  1  0.51388273  0.16898326  0.00905841  1
  In  In80  1  0.82948643  0.15948237  0.49717547  1
  In  In81  1  0.15888498  0.17044251  0.00247330  1
  In  In82  1  0.66983654  0.00542957  0.73657035  1
  In  In83  1  0.51048451  0.50131138  0.00211467  1
  In  In84  1  0.16353345  0.50294017  0.49580654  1
  In  In85  1  0.51071570  0.82682568  0.00599410  1
  Cu  Cu86  1  0.50095299  0.16433461  0.25482913  1
  Cu  Cu87  1  0.83167234  0.16779472  0.74688325  1
  Cu  Cu88  1  0.34029328  0.33552185  0.00113349  1
  Cu  Cu89  1  0.83781979  0.82593925  0.74469446  1
  Cu  Cu90  1  0.83727231  0.16753502  0.25389300  1
  Cu  Cu91  1  0.82966395  0.50332623  0.25271340  1
  Cu  Cu92  1  0.00219534  0.67012410  0.49891172  1
  Cu  Cu93  1  0.33731809  0.66799717  0.49464638  1
  Cu  Cu94  1  0.17011036  0.16659654  0.74612857  1
  Cu  Cu95  1  0.67121164  0.66671563  0.00431001  1
  Cu  Cu96  1  0.17179155  0.50393858  0.74713810  1
  Cu  Cu97  1  -0.00065377  0.32848522  0.49620723  1
  Cu  Cu98  1  0.32747106  -0.00061957  0.49394160  1
  Cu  Cu99  1  -0.00625447  -0.00331281  0.00454117  1
  Cu  Cu100  1  0.33173365  -0.00558139  0.01308286  1
  Cu  Cu101  1  0.33143470  0.67011766  0.00243823  1
  Cu  Cu102  1  0.50306290  0.83779461  0.26356084  1
  Cu  Cu103  1  0.49351418  0.17679394  0.74458215  1
  Cu  Cu104  1  0.00043489  -0.00018073  0.49601929  1
  Cu  Cu105  1  0.49447121  0.83024312  0.73812701  1
  Cu  Cu106  1  0.49723635  0.49458130  0.74461098  1
  Cu  Cu107  1  0.67847134  0.00442833  0.00406545  1
  Cu  Cu108  1  0.50539834  0.50525965  0.25711416  1
  Cu  Cu109  1  0.16282192  0.83724172  0.73960982  1
  Cu  Cu110  1  0.82721688  0.83018940  0.25757088  1
  Cu  Cu111  1  -0.01026019  0.67073764  -0.00589467  1
  Cu  Cu112  1  -0.00775568  0.33456837  0.00603511  1
  Cu  Cu113  1  0.33273803  0.33149018  0.49509305  1
  Cu  Cu114  1  0.17276295  0.16053981  0.25846984  1
  Se  Se115  1  0.07910779  0.07368107  0.06417740  1
  Se  Se116  1  0.08019775  0.08729153  0.54896456  1
  Se  Se117  1  0.07868999  0.40665585  0.06576216  1
  Se  Se118  1  0.07478585  0.41183975  0.55873867  1
  Se  Se119  1  0.06889723  0.73835614  0.06327052  1
  Se  Se120  1  0.08809895  0.75085696  0.55127709  1
  Se  Se121  1  0.41480432  0.07892430  0.06547475  1
  Se  Se122  1  0.41214568  0.08495519  0.54443987  1
  Se  Se123  1  0.41404469  0.41658924  0.06340580  1
  Se  Se124  1  0.40895182  0.41612668  0.55558703  1
  Se  Se125  1  0.40552824  0.75296156  0.06513885  1
  Se  Se126  1  0.41935704  0.74983221  0.54978156  1
  Se  Se127  1  0.75452920  0.08801001  0.06083559  1
  Se  Se128  1  0.74321965  0.07156397  0.56224347  1
  Se  Se129  1  0.75789139  0.42601198  0.05830440  1
  Se  Se130  1  0.75369814  0.41453179  0.54589637  1
  Se  Se131  1  0.74996149  0.75614973  0.05534168  1
  Se  Se132  1  0.75678217  0.74428085  0.54094238  1
  Se  Se133  1  0.25748027  0.25620721  0.06009243  1
  Se  Se134  1  0.24714110  0.24883175  0.54793487  1
  Se  Se135  1  0.25521451  0.58839658  0.06339011  1
  Se  Se136  1  0.25809341  0.58751042  0.55635459  1
  Se  Se137  1  0.25045684  0.92088162  0.07401647  1
  Se  Se138  1  0.24582059  0.91306671  0.54636775  1
  Se  Se139  1  0.60062391  0.26680780  0.06128449  1
  Se  Se140  1  0.57537985  0.24944669  0.54503267  1
  Se  Se141  1  0.58892255  0.59402187  0.06625490  1
  Se  Se142  1  0.59277269  0.59128081  0.55572945  1
  Se  Se143  1  0.59207775  0.92664574  0.06303203  1
  Se  Se144  1  0.57480661  0.90793861  0.53590539  1
  Se  Se145  1  0.91291452  0.24863654  0.05863279  1
  Se  Se146  1  0.91956207  0.25231875  0.56034501  1
  Se  Se147  1  0.90860206  0.58401028  0.04686649  1
  Se  Se148  1  0.92181338  0.58210939  0.55023443  1
  Se  Se149  1  0.91278931  0.91575739  0.06047630  1
  Se  Se150  1  0.91812419  0.91695272  0.55109948  1
  Se  Se151  1  0.08699223  0.24985958  0.44484310  1
  Se  Se152  1  0.07071619  0.26039589  0.93939472  1
  Se  Se153  1  0.07632314  0.59119830  0.43400601  1
  Se  Se154  1  0.07673072  0.59223529  0.93654978  1
  Se  Se155  1  0.08426140  0.91489012  0.44481985  1
  Se  Se156  1  0.07695474  0.92235900  0.94091031  1
  Se  Se157  1  0.41806766  0.24761978  0.44642148  1
  Se  Se158  1  0.41733600  0.25194329  0.94180927  1
  Se  Se159  1  0.41060876  0.58622677  0.43244948  1
  Se  Se160  1  0.41243371  0.59165358  0.94276822  1
  Se  Se161  1  0.41428609  0.91602156  0.44474133  1
  Se  Se162  1  0.40810942  0.91578612  0.94786721  1
  Se  Se163  1  0.74671368  0.25311569  0.43792902  1
  Se  Se164  1  0.75412463  0.23778287  0.95018017  1
  Se  Se165  1  0.76293309  0.56165468  0.45331461  1
  Se  Se166  1  0.74760450  0.58429030  0.94443112  1
  Se  Se167  1  0.75770029  0.91959485  0.45084237  1
  Se  Se168  1  0.75243260  0.91330489  0.95009460  1
  Se  Se169  1  0.24284525  0.08405600  0.44398396  1
  Se  Se170  1  0.25843439  0.07640151  0.94802840  1
  Se  Se171  1  0.25283397  0.41233932  0.43730936  1
  Se  Se172  1  0.25502654  0.41290144  0.94364415  1
  Se  Se173  1  0.24990572  0.74938484  0.44444670  1
  Se  Se174  1  0.25222195  0.74981343  0.94212299  1
  Se  Se175  1  0.58422191  0.08868303  0.45235023  1
  Se  Se176  1  0.59203984  0.07427209  0.94033821  1
  Se  Se177  1  0.58853182  0.40932053  0.43625706  1
  Se  Se178  1  0.59355401  0.40636491  0.94290900  1
  Se  Se179  1  0.58569928  0.74992630  0.45350906  1
  Se  Se180  1  0.59307179  0.73987309  0.93543806  1
  Se  Se181  1  0.92018667  0.07735668  0.43336311  1
  Se  Se182  1  0.91812337  0.08462853  0.94840167  1
  Se  Se183  1  0.91737534  0.41374519  0.44523416  1
  Se  Se184  1  0.91836445  0.42232889  0.94883035  1
  Se  Se185  1  0.91731146  0.75505945  0.44860147  1
  Se  Se186  1  0.91159337  0.76078437  0.94361841  1
  Se  Se187  1  0.25271267  0.24876238  0.30909725  1
  Se  Se188  1  0.25430833  0.25278837  0.79423510  1
  Se  Se189  1  0.23594442  0.57333846  0.29651910  1
  Se  Se190  1  0.25548520  0.58694886  0.80148014  1
  Se  Se191  1  0.25330580  0.91776233  0.30237453  1
  Se  Se192  1  0.23872138  0.90940785  0.81178367  1
  Se  Se193  1  0.58592306  0.25095306  0.30264250  1
  Se  Se194  1  0.58387617  0.25211191  0.79877117  1
  Se  Se195  1  0.59009017  0.58853969  0.30733343  1
  Se  Se196  1  0.57633442  0.57384964  0.80876444  1
  Se  Se197  1  0.58770127  0.92090467  0.31481268  1
  Se  Se198  1  0.57475377  0.91123158  0.79880107  1
  Se  Se199  1  0.92281269  0.25268925  0.30304938  1
  Se  Se200  1  0.90877737  0.24606628  0.81120567  1
  Se  Se201  1  0.90360615  0.58376013  0.31720183  1
  Se  Se202  1  0.91361533  0.59197644  0.79895219  1
  Se  Se203  1  0.91627400  0.91761529  0.29964931  1
  Se  Se204  1  0.91133204  0.91611429  0.80075644  1
  Se  Se205  1  0.08244971  0.07706117  0.30414746  1
  Se  Se206  1  0.08280620  0.08420758  0.79536767  1
  Se  Se207  1  0.08430723  0.42171770  0.29749590  1
  Se  Se208  1  0.09264164  0.42450641  0.81012038  1
  Se  Se209  1  0.08152884  0.75395053  0.31058742  1
  Se  Se210  1  0.08362930  0.75173730  0.79669639  1
  Se  Se211  1  0.41915837  0.08137260  0.30919769  1
  Se  Se212  1  0.42319403  0.09219559  0.80929103  1
  Se  Se213  1  0.42065137  0.41623079  0.30276345  1
  Se  Se214  1  0.41323260  0.41352825  0.80045153  1
  Se  Se215  1  0.41712617  0.74870739  0.30811304  1
  Se  Se216  1  0.41006639  0.74594064  0.78925609  1
  Se  Se217  1  0.74847459  0.08729047  0.30399685  1
  Se  Se218  1  0.75474026  0.08261082  0.80853811  1
  Se  Se219  1  0.74840097  0.41550717  0.30375375  1
  Se  Se220  1  0.75653782  0.40778509  0.80432009  1
  Se  Se221  1  0.74569917  0.74953052  0.31394807  1
  Se  Se222  1  0.75033903  0.75377410  0.80571834  1
  Se  Se223  1  0.25872683  0.07661100  0.20669472  1
  Se  Se224  1  0.24657369  0.08512525  0.68295373  1
  Se  Se225  1  0.26399612  0.40409429  0.20625216  1
  Se  Se226  1  0.25106624  0.41554498  0.69656271  1
  Se  Se227  1  0.25481532  0.73644052  0.21145229  1
  Se  Se228  1  0.25126935  0.75458943  0.69168517  1
  Se  Se229  1  0.58899155  0.08429138  0.20164141  1
  Se  Se230  1  0.56766238  0.09042925  0.68459025  1
  Se  Se231  1  0.58456364  0.41883929  0.20166717  1
  Se  Se232  1  0.58357088  0.41835026  0.68964229  1
  Se  Se233  1  0.58225516  0.75588564  0.20339764  1
  Se  Se234  1  0.58434687  0.76038160  0.67953160  1
  Se  Se235  1  0.91937530  0.08142113  0.20045048  1
  Se  Se236  1  0.91720731  0.07908867  0.70266975  1
  Se  Se237  1  0.91290350  0.41886030  0.19947510  1
  Se  Se238  1  0.91247067  0.41939673  0.68843376  1
  Se  Se239  1  0.90623963  0.75024995  0.19342086  1
  Se  Se240  1  0.91966574  0.74573820  0.68897654  1
  Se  Se241  1  0.08944677  0.23992489  0.19987441  1
  Se  Se242  1  0.08902236  0.24546182  0.68448804  1
  Se  Se243  1  0.08544404  0.56903791  0.18592561  1
  Se  Se244  1  0.08650486  0.58662145  0.69678502  1
  Se  Se245  1  0.09550300  0.89419101  0.20504102  1
  Se  Se246  1  0.07927739  0.92143794  0.68997802  1
  Se  Se247  1  0.41875995  0.24973896  0.20083525  1
  Se  Se248  1  0.41071571  0.25790824  0.69034455  1
  Se  Se249  1  0.41830540  0.58720328  0.20416391  1
  Se  Se250  1  0.41818730  0.58590162  0.69638878  1
  Se  Se251  1  0.41828731  0.92076091  0.21020985  1
  Se  Se252  1  0.42083060  0.92022959  0.68145908  1
  Se  Se253  1  0.75298054  0.25197388  0.20129458  1
  Se  Se254  1  0.74440015  0.24401154  0.69301587  1
  Se  Se255  1  0.74839663  0.59300086  0.20185425  1
  Se  Se256  1  0.75805721  0.57569988  0.68533838  1
  Se  Se257  1  0.74888873  0.91874982  0.20206423  1
  Se  Se258  1  0.75336365  0.90226800  0.68408807  1
