# generated using pymatgen
data_In86Cu29Se144
_symmetry_space_group_name_H-M   'P 1'
_cell_length_a   17.58050574
_cell_length_b   17.58723810
_cell_length_c   23.44036025
_cell_angle_alpha   90.01171884
_cell_angle_beta   90.02530116
_cell_angle_gamma   90.00461091
_symmetry_Int_Tables_number   1
_chemical_formula_structural   In86Cu29Se144
_chemical_formula_sum   'In86 Cu29 Se144'
_cell_volume   7247.58365345
_cell_formula_units_Z   1
loop_
 _symmetry_equiv_pos_site_id
 _symmetry_equiv_pos_as_xyz
  1  'x, y, z'
loop_
 _atom_site_type_symbol
 _atom_site_label
 _atom_site_symmetry_multiplicity
 _atom_site_fract_x
 _atom_site_fract_y
 _atom_site_fract_z
 _atom_site_occupancy
  In  In0  1  0.00319984  0.16319002  0.12412995  1
  In  In1  1  -0.00584824  0.16373011  0.62196456  1
  In  In2  1  0.00627197  0.49367981  0.13374962  1
  In  In3  1  0.00211614  0.49858743  0.63355059  1
  In  In4  1  0.00303119  0.82414788  0.12879770  1
  In  In5  1  -0.00095679  0.83382952  0.62208742  1
  In  In6  1  0.32533545  0.17453012  0.12311621  1
  In  In7  1  0.31432759  0.16532801  0.62354186  1
  In  In8  1  0.34130502  0.50890414  0.12021995  1
  In  In9  1  0.33565029  0.49800914  0.62106655  1
  In  In10  1  0.31465990  0.83521990  0.12438524  1
  In  In11  1  0.33633142  0.84514350  0.62433387  1
  In  In12  1  0.68303812  0.15497180  0.12816940  1
  In  In13  1  0.67233682  0.14978660  0.62533174  1
  In  In14  1  0.67085733  0.50844578  0.12251882  1
  In  In15  1  0.66418371  0.51605236  0.62774891  1
  In  In16  1  0.67290206  0.83590505  0.12895566  1
  In  In17  1  0.67097574  0.82899126  0.62602498  1
  In  In18  1  0.13844014  0.01555011  0.38034615  1
  In  In19  1  0.16192754  0.00046428  0.87540380  1
  In  In20  1  0.15053008  0.32398289  0.36722353  1
  In  In21  1  0.15725294  0.34144109  0.88032351  1
  In  In22  1  0.17021265  0.67104828  0.36939399  1
  In  In23  1  0.15942051  0.67538248  0.88233103  1
  In  In24  1  0.50768717  -0.01282836  0.37444499  1
  In  In25  1  0.50242784  0.00345316  0.86786669  1
  In  In26  1  0.51340928  0.33928346  0.37993511  1
  In  In27  1  0.50580190  0.34500103  0.87953375  1
  In  In28  1  0.49062172  0.66486689  0.37088187  1
  In  In29  1  0.50679362  0.65347487  0.87349223  1
  In  In30  1  0.83825531  -0.00037136  0.37450495  1
  In  In31  1  0.84009198  0.00422669  0.87054435  1
  In  In32  1  0.84639926  0.32025945  0.38169972  1
  In  In33  1  0.83614971  0.31537556  0.87900753  1
  In  In34  1  0.84657267  0.67857761  0.36450433  1
  In  In35  1  0.83411211  0.66830766  0.86633247  1
  In  In36  1  -0.00029669  0.16554962  0.37026552  1
  In  In37  1  0.00025021  0.16632994  0.87424668  1
  In  In38  1  -0.00764271  0.49646012  0.35993820  1
  In  In39  1  0.00651744  0.50702743  0.87123538  1
  In  In40  1  0.00112548  0.83114793  0.37780057  1
  In  In41  1  0.00421278  0.84261115  0.86847550  1
  In  In42  1  0.31722409  0.16159098  0.37300311  1
  In  In43  1  0.32810386  0.15285708  0.87164120  1
  In  In44  1  0.33356399  0.52149632  0.38095994  1
  In  In45  1  0.33506758  0.49838695  0.88091560  1
  In  In46  1  0.32402778  0.81668644  0.37568819  1
  In  In47  1  0.31726676  0.83430412  0.87446702  1
  In  In48  1  0.69650424  0.16761421  0.37269667  1
  In  In49  1  0.68070096  0.16354278  0.87876513  1
  In  In50  1  0.65403086  0.50260577  0.37584233  1
  In  In51  1  0.65770245  0.50702365  0.87817509  1
  In  In52  1  0.67941300  0.84709791  0.36787891  1
  In  In53  1  0.67456928  0.83665401  0.86699165  1
  In  In54  1  0.15641138  -0.00508493  0.11886082  1
  In  In55  1  0.16065622  -0.00302116  0.62578868  1
  In  In56  1  0.15170971  0.32748497  0.11739794  1
  In  In57  1  0.16193451  0.31723210  0.62032208  1
  In  In58  1  0.16842471  0.66916112  0.12611313  1
  In  In59  1  0.15085062  0.66309180  0.62339400  1
  In  In60  1  0.51209304  0.00510206  0.12581656  1
  In  In61  1  0.50149977  -0.00673102  0.63379102  1
  In  In62  1  0.48692512  0.33677412  0.12074347  1
  In  In63  1  0.49689768  0.34265240  0.62308334  1
  In  In64  1  0.50957843  0.65882457  0.12932919  1
  In  In65  1  0.50356506  0.67081277  0.62328663  1
  In  In66  1  0.83918426  0.01520078  0.13980372  1
  In  In67  1  0.83607123  -0.00169597  0.62152369  1
  In  In68  1  0.87643351  0.31958399  0.14685880  1
  In  In69  1  0.85111603  0.33022415  0.62246779  1
  In  In70  1  0.83188600  0.65566322  0.14364284  1
  In  In71  1  0.82737452  0.67305457  0.62595496  1
  In  In72  1  0.50063954  0.83314152  0.00659204  1
  In  In73  1  0.83748738  0.83751077  -0.00066825  1
  In  In74  1  0.49575183  0.83069037  0.50099251  1
  In  In75  1  0.33377220  0.67051932  0.74707844  1
  In  In76  1  0.67031028  0.33295231  0.75650215  1
  In  In77  1  0.50078375  0.16819086  0.50495610  1
  In  In78  1  0.83532412  0.49239683  0.01466492  1
  In  In79  1  0.49399135  0.17250004  -0.00555065  1
  In  In80  1  0.16608087  0.49936346  0.49571855  1
  In  In81  1  0.83266101  0.50025473  0.49093621  1
  In  In82  1  0.32813947  -0.00722237  0.24775448  1
  In  In83  1  0.67665413  0.33755071  0.24791702  1
  In  In84  1  0.32603807  0.33516150  0.25507893  1
  In  In85  1  0.33113144  0.33167398  0.75616272  1
  Cu  Cu86  1  0.32973840  0.66370978  -0.00084631  1
  Cu  Cu87  1  0.16448278  0.82930867  0.25308404  1
  Cu  Cu88  1  0.67512882  0.00380875  0.49512378  1
  Cu  Cu89  1  0.83738373  0.16182197  0.75041491  1
  Cu  Cu90  1  0.00013823  -0.00125821  0.50035025  1
  Cu  Cu91  1  0.32639281  -0.00053658  -0.00243402  1
  Cu  Cu92  1  0.16528521  0.49917156  0.75215816  1
  Cu  Cu93  1  0.15511680  0.15725035  0.74629678  1
  Cu  Cu94  1  0.00045901  0.00397176  -0.00364159  1
  Cu  Cu95  1  0.32156402  0.34071864  0.00200389  1
  Cu  Cu96  1  0.50640757  0.16090954  0.25289283  1
  Cu  Cu97  1  0.83260880  0.83318139  0.74356401  1
  Cu  Cu98  1  0.66835534  0.33406144  0.00296757  1
  Cu  Cu99  1  0.66594029  0.67365178  0.50061472  1
  Cu  Cu100  1  -0.00034842  0.33035174  0.00258511  1
  Cu  Cu101  1  0.50551880  0.82877238  0.24957934  1
  Cu  Cu102  1  0.49724782  0.50580812  0.25068442  1
  Cu  Cu103  1  0.00859939  0.66747852  0.00185270  1
  Cu  Cu104  1  0.50252842  0.83392471  0.74939633  1
  Cu  Cu105  1  0.17198982  0.50390534  0.24746734  1
  Cu  Cu106  1  0.31927964  0.00073762  0.50078345  1
  Cu  Cu107  1  0.49754752  0.16394960  0.74915022  1
  Cu  Cu108  1  0.15951599  0.83734595  0.75157656  1
  Cu  Cu109  1  -0.00180417  0.66794518  0.49768061  1
  Cu  Cu110  1  0.83761478  0.83514994  0.25127098  1
  Cu  Cu111  1  0.83515772  0.49909073  0.74835257  1
  Cu  Cu112  1  0.67405921  0.33900358  0.49803721  1
  Cu  Cu113  1  0.66824400  0.66621363  0.00264139  1
  Cu  Cu114  1  0.33230507  0.33594347  0.49914963  1
  Se  Se115  1  0.08545092  0.08706595  0.04984908  1
  Se  Se116  1  0.08293835  0.08194061  0.55541219  1
  Se  Se117  1  0.07818341  0.42333820  0.05209291  1
  Se  Se118  1  0.07699650  0.41237521  0.55804636  1
  Se  Se119  1  0.08835426  0.75388461  0.05463648  1
  Se  Se120  1  0.08189757  0.75004290  0.55131730  1
  Se  Se121  1  0.40894353  0.07667013  0.05883932  1
  Se  Se122  1  0.40980625  0.07294297  0.55994951  1
  Se  Se123  1  0.41496442  0.42016060  0.04833399  1
  Se  Se124  1  0.41698624  0.41841269  0.54962554  1
  Se  Se125  1  0.40834199  0.74266686  0.06288700  1
  Se  Se126  1  0.40247440  0.74140055  0.55735189  1
  Se  Se127  1  0.76477379  0.08096667  0.05768898  1
  Se  Se128  1  0.75750405  0.08592372  0.55001501  1
  Se  Se129  1  0.74922526  0.39814230  0.07264354  1
  Se  Se130  1  0.74833750  0.41835046  0.56380577  1
  Se  Se131  1  0.75395325  0.74042261  0.06165046  1
  Se  Se132  1  0.75233041  0.75474739  0.55170934  1
  Se  Se133  1  0.24383286  0.24981848  0.05146704  1
  Se  Se134  1  0.24899398  0.24859842  0.54697835  1
  Se  Se135  1  0.24679267  0.58303987  0.05520653  1
  Se  Se136  1  0.25269090  0.58996622  0.55785448  1
  Se  Se137  1  0.24351641  0.91524991  0.04947047  1
  Se  Se138  1  0.24386161  0.91306849  0.55541845  1
  Se  Se139  1  0.58633427  0.25126546  0.06296824  1
  Se  Se140  1  0.59597356  0.25856573  0.56271867  1
  Se  Se141  1  0.58245706  0.58100748  0.05151275  1
  Se  Se142  1  0.58356466  0.58842229  0.55223682  1
  Se  Se143  1  0.59861695  0.92653366  0.05445315  1
  Se  Se144  1  0.58911124  0.92679562  0.55462248  1
  Se  Se145  1  0.91588745  0.24750722  0.05582130  1
  Se  Se146  1  0.91638629  0.24608425  0.54934246  1
  Se  Se147  1  0.92363611  0.59454414  0.06341813  1
  Se  Se148  1  0.92120652  0.58487868  0.55876833  1
  Se  Se149  1  0.92558003  0.92384906  0.06162223  1
  Se  Se150  1  0.91564502  0.91394228  0.55162505  1
  Se  Se151  1  0.08833179  0.23984837  0.44175648  1
  Se  Se152  1  0.08170440  0.24897444  0.94565438  1
  Se  Se153  1  0.07182316  0.58468545  0.43538676  1
  Se  Se154  1  0.08580579  0.57966022  0.94760056  1
  Se  Se155  1  0.08447628  0.91241630  0.44863332  1
  Se  Se156  1  0.08179211  0.91483815  0.94555670  1
  Se  Se157  1  0.41094752  0.25253944  0.43755665  1
  Se  Se158  1  0.40009712  0.26264031  0.93610545  1
  Se  Se159  1  0.42821913  0.58288063  0.44962945  1
  Se  Se160  1  0.41804693  0.58592526  0.94593393  1
  Se  Se161  1  0.40388990  0.92368392  0.44092469  1
  Se  Se162  1  0.41300838  0.92150556  0.94068208  1
  Se  Se163  1  0.75671647  0.24938456  0.45277772  1
  Se  Se164  1  0.75082748  0.24719927  0.95332046  1
  Se  Se165  1  0.74475277  0.59675500  0.43638959  1
  Se  Se166  1  0.75485398  0.58667219  0.94587301  1
  Se  Se167  1  0.75677143  0.91525796  0.44647560  1
  Se  Se168  1  0.74513199  0.92499508  0.94100250  1
  Se  Se169  1  0.23958757  0.08472902  0.44576483  1
  Se  Se170  1  0.24417605  0.08523203  0.94618483  1
  Se  Se171  1  0.25401614  0.40917285  0.43225890  1
  Se  Se172  1  0.24209580  0.42520290  0.94659051  1
  Se  Se173  1  0.24739344  0.73963199  0.44795161  1
  Se  Se174  1  0.24866835  0.75257301  0.95000581  1
  Se  Se175  1  0.58930702  0.08369873  0.43881339  1
  Se  Se176  1  0.58760188  0.07794917  0.94430904  1
  Se  Se177  1  0.58415901  0.42237117  0.45381059  1
  Se  Se178  1  0.58736288  0.42044649  0.95200101  1
  Se  Se179  1  0.58952435  0.75328569  0.43571411  1
  Se  Se180  1  0.59184505  0.74818628  0.94161637  1
  Se  Se181  1  0.92029760  0.08253722  0.44338358  1
  Se  Se182  1  0.91462283  0.08589749  0.94426334  1
  Se  Se183  1  0.93472527  0.41193050  0.44427943  1
  Se  Se184  1  0.92022044  0.41295674  0.94225640  1
  Se  Se185  1  0.91239280  0.75114567  0.44683906  1
  Se  Se186  1  0.92458113  0.74290145  0.94034224  1
  Se  Se187  1  0.23254195  0.23307286  0.29650197  1
  Se  Se188  1  0.23487949  0.24006840  0.80773359  1
  Se  Se189  1  0.25457737  0.58616754  0.30180965  1
  Se  Se190  1  0.24624213  0.58088520  0.81031510  1
  Se  Se191  1  0.23839963  0.91452406  0.31541039  1
  Se  Se192  1  0.24584884  0.91984354  0.80313406  1
  Se  Se193  1  0.58485275  0.24439996  0.31067034  1
  Se  Se194  1  0.57464165  0.24115197  0.81347095  1
  Se  Se195  1  0.58186124  0.58800696  0.30356792  1
  Se  Se196  1  0.59375741  0.58766765  0.80089303  1
  Se  Se197  1  0.58653469  0.91864550  0.29786055  1
  Se  Se198  1  0.58596071  0.91837656  0.80237278  1
  Se  Se199  1  0.92151502  0.25542520  0.30229180  1
  Se  Se200  1  0.91807825  0.24921777  0.80241960  1
  Se  Se201  1  0.91043999  0.58203910  0.29672975  1
  Se  Se202  1  0.91904331  0.58337198  0.80218084  1
  Se  Se203  1  0.92167651  0.91446726  0.30698033  1
  Se  Se204  1  0.91341084  0.91546644  0.80076936  1
  Se  Se205  1  0.06695405  0.07411421  0.29478372  1
  Se  Se206  1  0.07520752  0.07671889  0.80480681  1
  Se  Se207  1  0.08692254  0.41864635  0.29723187  1
  Se  Se208  1  0.08061196  0.41428521  0.80283003  1
  Se  Se209  1  0.07786737  0.74615301  0.30437082  1
  Se  Se210  1  0.08233313  0.74785504  0.80501682  1
  Se  Se211  1  0.42095123  0.08429773  0.31041420  1
  Se  Se212  1  0.41270732  0.07981772  0.80015902  1
  Se  Se213  1  0.42301707  0.42173260  0.31198826  1
  Se  Se214  1  0.42626917  0.42752585  0.80506971  1
  Se  Se215  1  0.41512952  0.75403411  0.30219820  1
  Se  Se216  1  0.42295995  0.75687523  0.81303914  1
  Se  Se217  1  0.74564119  0.06852255  0.30327404  1
  Se  Se218  1  0.74884300  0.08213145  0.80242137  1
  Se  Se219  1  0.75563920  0.41787969  0.32071890  1
  Se  Se220  1  0.76083830  0.42309289  0.81679331  1
  Se  Se221  1  0.74884589  0.75190618  0.30080383  1
  Se  Se222  1  0.74981562  0.74907159  0.79857223  1
  Se  Se223  1  0.24143993  0.08666673  0.18915767  1
  Se  Se224  1  0.24676425  0.07915682  0.69627010  1
  Se  Se225  1  0.24628107  0.42006544  0.18482871  1
  Se  Se226  1  0.24290851  0.41869231  0.69015349  1
  Se  Se227  1  0.25130124  0.74928541  0.19965311  1
  Se  Se228  1  0.23948990  0.75792506  0.68910280  1
  Se  Se229  1  0.59118755  0.08342160  0.19763496  1
  Se  Se230  1  0.58417311  0.08211374  0.69766749  1
  Se  Se231  1  0.57234931  0.41961957  0.19159772  1
  Se  Se232  1  0.58095626  0.42193190  0.69530964  1
  Se  Se233  1  0.58931171  0.74932662  0.19347728  1
  Se  Se234  1  0.58312701  0.75051597  0.69426313  1
  Se  Se235  1  0.94947089  0.06882091  0.20206278  1
  Se  Se236  1  0.91738716  0.07887847  0.69378094  1
  Se  Se237  1  0.89061507  0.44936636  0.19445193  1
  Se  Se238  1  0.91816608  0.41277238  0.69910069  1
  Se  Se239  1  0.91891175  0.74767090  0.20021875  1
  Se  Se240  1  0.91825320  0.74915426  0.69259976  1
  Se  Se241  1  0.05776805  0.27223184  0.19029913  1
  Se  Se242  1  0.07832508  0.24690023  0.69345938  1
  Se  Se243  1  0.08591010  0.58703957  0.19604896  1
  Se  Se244  1  0.08173210  0.58543561  0.70132249  1
  Se  Se245  1  0.08709935  0.91146612  0.19428559  1
  Se  Se246  1  0.07595180  0.91747794  0.69552867  1
  Se  Se247  1  0.42312730  0.24188999  0.19646462  1
  Se  Se248  1  0.41931698  0.24349208  0.68851771  1
  Se  Se249  1  0.41390577  0.58815687  0.19660859  1
  Se  Se250  1  0.42371490  0.57573832  0.69234712  1
  Se  Se251  1  0.42530044  0.90825359  0.18646190  1
  Se  Se252  1  0.41310296  0.91647611  0.70179722  1
  Se  Se253  1  0.76795911  0.23834689  0.19993247  1
  Se  Se254  1  0.75587536  0.24508854  0.69130095  1
  Se  Se255  1  0.73511336  0.58043044  0.20382122  1
  Se  Se256  1  0.75315697  0.58544668  0.69794088  1
  Se  Se257  1  0.75529707  0.91878242  0.19681909  1
  Se  Se258  1  0.74910951  0.91886223  0.69158436  1
