# generated using pymatgen
data_In86Cu29Se144
_symmetry_space_group_name_H-M   'P 1'
_cell_length_a   17.58089677
_cell_length_b   17.58637944
_cell_length_c   23.43633285
_cell_angle_alpha   89.96514875
_cell_angle_beta   90.03184069
_cell_angle_gamma   90.00247894
_symmetry_Int_Tables_number   1
_chemical_formula_structural   In86Cu29Se144
_chemical_formula_sum   'In86 Cu29 Se144'
_cell_volume   7246.14420707
_cell_formula_units_Z   1
loop_
 _symmetry_equiv_pos_site_id
 _symmetry_equiv_pos_as_xyz
  1  'x, y, z'
loop_
 _atom_site_type_symbol
 _atom_site_label
 _atom_site_symmetry_multiplicity
 _atom_site_fract_x
 _atom_site_fract_y
 _atom_site_fract_z
 _atom_site_occupancy
  In  In0  1  0.01093976  0.16265277  0.13275281  1
  In  In1  1  -0.00403951  0.16064417  0.61361006  1
  In  In2  1  0.00073537  0.50232131  0.13012134  1
  In  In3  1  0.00302194  0.51129150  0.61291432  1
  In  In4  1  -0.00007026  0.83367585  0.11848804  1
  In  In5  1  -0.00707616  0.83781178  0.63237574  1
  In  In6  1  0.33320913  0.16223144  0.12718682  1
  In  In7  1  0.34403656  0.17349632  0.61300168  1
  In  In8  1  0.31863400  0.48783019  0.12955316  1
  In  In9  1  0.32099422  0.48928284  0.61585984  1
  In  In10  1  0.32849168  0.85683550  0.12791113  1
  In  In11  1  0.33858074  0.83486685  0.61940161  1
  In  In12  1  0.66371260  0.18442224  0.12824872  1
  In  In13  1  0.66744900  0.16348741  0.61283088  1
  In  In14  1  0.66936265  0.48494351  0.12863012  1
  In  In15  1  0.68061020  0.51432873  0.61357593  1
  In  In16  1  0.67333200  0.82350671  0.12337286  1
  In  In17  1  0.66556566  0.81904900  0.63131820  1
  In  In18  1  0.18667435  0.00844065  0.36904425  1
  In  In19  1  0.16009487  0.01108115  0.88042526  1
  In  In20  1  0.16586684  0.33071225  0.37313730  1
  In  In21  1  0.17170239  0.31998767  0.87992019  1
  In  In22  1  0.14327363  0.66466937  0.37754584  1
  In  In23  1  0.17097739  0.68330611  0.87334526  1
  In  In24  1  0.46807668  0.02696189  0.40695199  1
  In  In25  1  0.50512734  0.00911955  0.87965558  1
  In  In26  1  0.49930187  0.33010527  0.37273715  1
  In  In27  1  0.48404201  0.33583099  0.87339453  1
  In  In28  1  0.50204952  0.66409094  0.38686759  1
  In  In29  1  0.50880493  0.66554381  0.86310387  1
  In  In30  1  0.83002859  0.00205005  0.38328480  1
  In  In31  1  0.83118890  -0.01965128  0.87351820  1
  In  In32  1  0.83760471  0.32973428  0.36709211  1
  In  In33  1  0.84896208  0.34012635  0.88181250  1
  In  In34  1  0.85938652  0.64991433  0.39700604  1
  In  In35  1  0.83368479  0.66947758  0.86863236  1
  In  In36  1  -0.00424059  0.17347349  0.37548567  1
  In  In37  1  0.01570684  0.16818666  0.87783341  1
  In  In38  1  0.00198716  0.50139827  0.38000250  1
  In  In39  1  -0.01463452  0.49988031  0.87645519  1
  In  In40  1  -0.00087049  0.82086495  0.37762994  1
  In  In41  1  -0.00229890  0.83376509  0.86637559  1
  In  In42  1  0.32553483  0.17442155  0.37320217  1
  In  In43  1  0.32171487  0.17268256  0.88338792  1
  In  In44  1  0.34255350  0.48679100  0.38206411  1
  In  In45  1  0.34587590  0.49777726  0.86986942  1
  In  In46  1  0.33411630  0.84887095  0.37938333  1
  In  In47  1  0.32735086  0.83249464  0.87890634  1
  In  In48  1  0.66287510  0.16861426  0.37578357  1
  In  In49  1  0.66195719  0.15484262  0.87660401  1
  In  In50  1  0.67674523  0.48608024  0.38124215  1
  In  In51  1  0.67298855  0.51480400  0.86837646  1
  In  In52  1  0.67094754  0.83108701  0.38284218  1
  In  In53  1  0.67636520  0.83661877  0.86965936  1
  In  In54  1  0.18526273  0.02095755  0.10302371  1
  In  In55  1  0.15666806  -0.00424854  0.61947646  1
  In  In56  1  0.18283272  0.29749985  0.16159693  1
  In  In57  1  0.16997564  0.33907309  0.61784699  1
  In  In58  1  0.14915517  0.66247255  0.12444540  1
  In  In59  1  0.16134470  0.65636745  0.62239739  1
  In  In60  1  0.47780283  0.00887334  0.13059642  1
  In  In61  1  0.49804253  0.00044090  0.61504408  1
  In  In62  1  0.50377887  0.31913224  0.13442648  1
  In  In63  1  0.49285436  0.32356648  0.61285313  1
  In  In64  1  0.50927933  0.66612170  0.12840072  1
  In  In65  1  0.51315451  0.67729871  0.61880352  1
  In  In66  1  0.84291858  -0.01089445  0.12241502  1
  In  In67  1  0.84052246  -0.00037569  0.62050033  1
  In  In68  1  0.82142724  0.34068658  0.13612940  1
  In  In69  1  0.83642322  0.33575151  0.61223377  1
  In  In70  1  0.84660212  0.67205873  0.11849919  1
  In  In71  1  0.84035316  0.66364772  0.62470657  1
  In  In72  1  0.15614476  0.49414836  0.00767980  1
  In  In73  1  0.49773938  0.84051337  -0.00337151  1
  In  In74  1  0.00444934  0.33534122  0.75125585  1
  In  In75  1  0.50501305  0.50030829  -0.00351126  1
  In  In76  1  0.67174478  0.66596001  0.26037166  1
  In  In77  1  0.33438308  0.66680630  0.74588409  1
  In  In78  1  0.32751786  0.66176212  0.25080248  1
  In  In79  1  0.16772399  0.83465705  0.50112904  1
  In  In80  1  0.66413053  0.00094948  0.26401821  1
  In  In81  1  0.33376744  0.00235008  0.74141429  1
  In  In82  1  0.66494323  0.33489425  0.73795601  1
  In  In83  1  0.00738611  0.00290334  0.24789349  1
  In  In84  1  0.83135023  0.16613767  0.00548004  1
  In  In85  1  0.66492565  -0.00655328  0.74159849  1
  Cu  Cu86  1  0.66843793  0.33811545  0.00466244  1
  Cu  Cu87  1  0.49533056  0.49522186  0.74075099  1
  Cu  Cu88  1  0.32960423  0.33290229  0.49391068  1
  Cu  Cu89  1  -0.00307397  0.66959317  -0.00465135  1
  Cu  Cu90  1  0.68268432  0.66737932  -0.00528083  1
  Cu  Cu91  1  0.00521204  0.00295279  0.49678777  1
  Cu  Cu92  1  0.33072473  0.33001638  0.00638941  1
  Cu  Cu93  1  0.84101487  0.82842623  0.24934861  1
  Cu  Cu94  1  0.00504699  0.33516780  0.01062587  1
  Cu  Cu95  1  0.84166075  0.15847606  0.74311429  1
  Cu  Cu96  1  -0.00324838  -0.00645531  -0.00411446  1
  Cu  Cu97  1  0.66328681  0.33223993  0.49396280  1
  Cu  Cu98  1  0.16152670  0.49684303  0.25590751  1
  Cu  Cu99  1  0.16988788  0.16817195  0.75209259  1
  Cu  Cu100  1  0.16153900  0.83568972  0.25057317  1
  Cu  Cu101  1  0.33317139  0.67674031  0.00154930  1
  Cu  Cu102  1  0.16414616  0.49682965  0.74283560  1
  Cu  Cu103  1  -0.00099377  0.33360462  0.49224771  1
  Cu  Cu104  1  0.83379616  0.50710468  0.25765831  1
  Cu  Cu105  1  0.32901638  0.66170581  0.50143766  1
  Cu  Cu106  1  0.15926345  0.83659887  0.74896628  1
  Cu  Cu107  1  0.49552021  0.16215875  0.25862934  1
  Cu  Cu108  1  0.83261561  0.50374093  0.74586906  1
  Cu  Cu109  1  0.49138208  0.17550063  0.74600207  1
  Cu  Cu110  1  0.49929315  0.49033630  0.25306730  1
  Cu  Cu111  1  0.66691124  0.66939269  0.50466127  1
  Cu  Cu112  1  0.65854308  0.00094061  0.00058148  1
  Cu  Cu113  1  0.67553421  -0.00746108  0.50365587  1
  Cu  Cu114  1  0.49629826  0.84211527  0.26038018  1
  Se  Se115  1  0.07102441  0.08434518  0.05024685  1
  Se  Se116  1  0.09035231  0.08648934  0.54751204  1
  Se  Se117  1  0.09007754  0.39976948  0.07721724  1
  Se  Se118  1  0.07938720  0.41499964  0.55114595  1
  Se  Se119  1  0.08298439  0.74851767  0.05008064  1
  Se  Se120  1  0.07587378  0.74785237  0.55947822  1
  Se  Se121  1  0.41631213  0.08894938  0.05316345  1
  Se  Se122  1  0.42178591  0.08498950  0.54679078  1
  Se  Se123  1  0.41489848  0.41398632  0.06078840  1
  Se  Se124  1  0.41364793  0.41565801  0.54864573  1
  Se  Se125  1  0.41574325  0.74833982  0.06514147  1
  Se  Se126  1  0.41347212  0.74561450  0.55278125  1
  Se  Se127  1  0.73955984  0.07571181  0.06531844  1
  Se  Se128  1  0.75885494  0.08295241  0.55113417  1
  Se  Se129  1  0.75552673  0.41878711  0.05405877  1
  Se  Se130  1  0.74698087  0.41504072  0.54792230  1
  Se  Se131  1  0.75849977  0.75331396  0.05131825  1
  Se  Se132  1  0.75258953  0.74899103  0.55876040  1
  Se  Se133  1  0.24585574  0.25614261  0.06611860  1
  Se  Se134  1  0.24814069  0.25039612  0.55052092  1
  Se  Se135  1  0.25629995  0.58913224  0.05876968  1
  Se  Se136  1  0.24124918  0.57914821  0.54985907  1
  Se  Se137  1  0.24406953  0.90834372  0.04830264  1
  Se  Se138  1  0.26197670  0.92957452  0.55347744  1
  Se  Se139  1  0.58144637  0.25463430  0.05266145  1
  Se  Se140  1  0.58225236  0.24519268  0.54662548  1
  Se  Se141  1  0.59901454  0.59064944  0.05634120  1
  Se  Se142  1  0.57883375  0.58124908  0.55004252  1
  Se  Se143  1  0.58438760  0.92201322  0.06737023  1
  Se  Se144  1  0.59383728  0.91402152  0.56191301  1
  Se  Se145  1  0.91923172  0.25428596  0.06696842  1
  Se  Se146  1  0.91670548  0.24865356  0.54683428  1
  Se  Se147  1  0.92474182  0.58090488  0.05335181  1
  Se  Se148  1  0.89598523  0.56700921  0.55135458  1
  Se  Se149  1  0.91225898  0.90942174  0.04663595  1
  Se  Se150  1  0.92625882  0.91785387  0.55245579  1
  Se  Se151  1  0.08548470  0.24797041  0.44487211  1
  Se  Se152  1  0.08402127  0.25252613  0.95310564  1
  Se  Se153  1  0.07081370  0.59018025  0.45330391  1
  Se  Se154  1  0.08268724  0.58843228  0.93818921  1
  Se  Se155  1  0.08463332  0.92471728  0.43339038  1
  Se  Se156  1  0.07957178  0.91439970  0.93879645  1
  Se  Se157  1  0.41602188  0.24997692  0.44288651  1
  Se  Se158  1  0.41488449  0.25302293  0.94768495  1
  Se  Se159  1  0.41543298  0.57909282  0.44983143  1
  Se  Se160  1  0.41275026  0.59795936  0.94070141  1
  Se  Se161  1  0.43034350  0.89876472  0.45218470  1
  Se  Se162  1  0.40423736  0.93209373  0.94255475  1
  Se  Se163  1  0.75068348  0.25298943  0.43948706  1
  Se  Se164  1  0.74461315  0.25685036  0.93922518  1
  Se  Se165  1  0.74334206  0.58656789  0.44566021  1
  Se  Se166  1  0.76025810  0.57907089  0.94235784  1
  Se  Se167  1  0.75880925  0.90936685  0.45070646  1
  Se  Se168  1  0.74242084  0.91703332  0.94872254  1
  Se  Se169  1  0.26117098  0.07982637  0.44531003  1
  Se  Se170  1  0.24288651  0.08867324  0.94970408  1
  Se  Se171  1  0.24258327  0.41771875  0.44518444  1
  Se  Se172  1  0.25927399  0.41768323  0.94456176  1
  Se  Se173  1  0.25324104  0.74218672  0.43681507  1
  Se  Se174  1  0.24537358  0.75661701  0.95128500  1
  Se  Se175  1  0.59551108  0.07714793  0.44805010  1
  Se  Se176  1  0.57814294  0.09161252  0.95387046  1
  Se  Se177  1  0.57681054  0.41666645  0.44407749  1
  Se  Se178  1  0.59359269  0.41123419  0.93371259  1
  Se  Se179  1  0.58348014  0.75235216  0.45082572  1
  Se  Se180  1  0.58783966  0.74244771  0.94172518  1
  Se  Se181  1  0.91911017  0.08593709  0.44523655  1
  Se  Se182  1  0.91611594  0.08016529  0.93783918  1
  Se  Se183  1  0.91122877  0.41464496  0.44112532  1
  Se  Se184  1  0.92266734  0.41852470  0.95682739  1
  Se  Se185  1  0.91127522  0.76402655  0.45375278  1
  Se  Se186  1  0.91679537  0.75101093  0.93816427  1
  Se  Se187  1  0.24918881  0.25518112  0.30035454  1
  Se  Se188  1  0.25372833  0.25201074  0.80356128  1
  Se  Se189  1  0.24224669  0.57723730  0.31693080  1
  Se  Se190  1  0.24339331  0.57617381  0.80778568  1
  Se  Se191  1  0.25276891  0.91299517  0.30000397  1
  Se  Se192  1  0.24427060  0.91556643  0.80638864  1
  Se  Se193  1  0.58363761  0.24821296  0.30318717  1
  Se  Se194  1  0.58058518  0.24673625  0.80637235  1
  Se  Se195  1  0.57608361  0.57353967  0.31193503  1
  Se  Se196  1  0.58037847  0.57544065  0.79473369  1
  Se  Se197  1  0.57320683  0.91673727  0.32423608  1
  Se  Se198  1  0.57204590  0.91465598  0.80913294  1
  Se  Se199  1  0.93136298  0.25816363  0.29797289  1
  Se  Se200  1  0.91147259  0.24128828  0.80888459  1
  Se  Se201  1  0.92049008  0.58813133  0.30860481  1
  Se  Se202  1  0.91844294  0.58278545  0.80120482  1
  Se  Se203  1  0.91452830  0.91543007  0.30952825  1
  Se  Se204  1  0.91460228  0.91746830  0.79885848  1
  Se  Se205  1  0.09332231  0.09377022  0.30788061  1
  Se  Se206  1  0.08369576  0.08512869  0.80215807  1
  Se  Se207  1  0.07701776  0.41553997  0.30866593  1
  Se  Se208  1  0.09298034  0.42316683  0.81558883  1
  Se  Se209  1  0.07905826  0.75009007  0.30050064  1
  Se  Se210  1  0.08239219  0.74564506  0.79966665  1
  Se  Se211  1  0.41316967  0.07958054  0.31247817  1
  Se  Se212  1  0.41840051  0.09174989  0.80820237  1
  Se  Se213  1  0.41149250  0.40981985  0.30314474  1
  Se  Se214  1  0.41352130  0.41339409  0.79525308  1
  Se  Se215  1  0.41962250  0.74843216  0.31194471  1
  Se  Se216  1  0.41949165  0.76193314  0.80647650  1
  Se  Se217  1  0.76402062  0.09366025  0.30831944  1
  Se  Se218  1  0.75476302  0.08649072  0.80432539  1
  Se  Se219  1  0.74957970  0.41650636  0.30131630  1
  Se  Se220  1  0.75945562  0.41494060  0.80536556  1
  Se  Se221  1  0.76638668  0.75237584  0.31573213  1
  Se  Se222  1  0.73451109  0.73755086  0.80383112  1
  Se  Se223  1  0.23915546  0.08521680  0.19157044  1
  Se  Se224  1  0.24383182  0.09308468  0.68376718  1
  Se  Se225  1  0.25101664  0.41383306  0.20865114  1
  Se  Se226  1  0.24913082  0.41262720  0.69485136  1
  Se  Se227  1  0.24276442  0.75380563  0.18832090  1
  Se  Se228  1  0.24106897  0.75900306  0.68739509  1
  Se  Se229  1  0.57870836  0.08678787  0.19484389  1
  Se  Se230  1  0.57451578  0.09438163  0.68945259  1
  Se  Se231  1  0.58443746  0.41078870  0.19849861  1
  Se  Se232  1  0.57781047  0.42327066  0.67687308  1
  Se  Se233  1  0.57737484  0.76169246  0.20113565  1
  Se  Se234  1  0.57791794  0.74640261  0.70179544  1
  Se  Se235  1  0.90468518  0.08657242  0.19226826  1
  Se  Se236  1  0.92632959  0.07898348  0.69077879  1
  Se  Se237  1  0.91143468  0.42514926  0.19753077  1
  Se  Se238  1  0.91285629  0.41970919  0.68883660  1
  Se  Se239  1  0.92396284  0.75061890  0.19255519  1
  Se  Se240  1  0.92712914  0.73740975  0.69551312  1
  Se  Se241  1  0.05451747  0.26099506  0.20885975  1
  Se  Se242  1  0.08765632  0.24439044  0.68839129  1
  Se  Se243  1  0.08214067  0.58354383  0.20222825  1
  Se  Se244  1  0.07829070  0.58002848  0.69466524  1
  Se  Se245  1  0.09312556  0.91708617  0.18312254  1
  Se  Se246  1  0.08076837  0.92418836  0.69647441  1
  Se  Se247  1  0.41391056  0.24396085  0.20076689  1
  Se  Se248  1  0.41033819  0.25664780  0.69089112  1
  Se  Se249  1  0.42351288  0.57217244  0.19022372  1
  Se  Se250  1  0.41616868  0.57790826  0.68082315  1
  Se  Se251  1  0.41232455  0.92128706  0.20512765  1
  Se  Se252  1  0.42936637  0.90902424  0.69151522  1
  Se  Se253  1  0.74956813  0.24673813  0.20193198  1
  Se  Se254  1  0.76116959  0.24042823  0.68629424  1
  Se  Se255  1  0.75550354  0.58315010  0.19007249  1
  Se  Se256  1  0.74761777  0.58695052  0.69510102  1
  Se  Se257  1  0.75321177  0.90941411  0.19664180  1
  Se  Se258  1  0.76370980  0.90663669  0.69152082  1
