# generated using pymatgen
data_In86Cu29Se144
_symmetry_space_group_name_H-M   'P 1'
_cell_length_a   17.57860838
_cell_length_b   17.58198714
_cell_length_c   23.44374321
_cell_angle_alpha   90.00020513
_cell_angle_beta   90.01025926
_cell_angle_gamma   90.00092928
_symmetry_Int_Tables_number   1
_chemical_formula_structural   In86Cu29Se144
_chemical_formula_sum   'In86 Cu29 Se144'
_cell_volume   7245.68413654
_cell_formula_units_Z   1
loop_
 _symmetry_equiv_pos_site_id
 _symmetry_equiv_pos_as_xyz
  1  'x, y, z'
loop_
 _atom_site_type_symbol
 _atom_site_label
 _atom_site_symmetry_multiplicity
 _atom_site_fract_x
 _atom_site_fract_y
 _atom_site_fract_z
 _atom_site_occupancy
  In  In0  1  -0.02363654  0.16170171  0.12726468  1
  In  In1  1  -0.00112167  0.16480492  0.62138938  1
  In  In2  1  -0.00398382  0.49498358  0.11575767  1
  In  In3  1  -0.01398658  0.51129225  0.63585914  1
  In  In4  1  0.01090641  0.83052190  0.12284507  1
  In  In5  1  -0.01796031  0.83995652  0.63987859  1
  In  In6  1  0.34598188  0.15636867  0.13415476  1
  In  In7  1  0.33776864  0.17855569  0.61472782  1
  In  In8  1  0.33177061  0.49336030  0.12354507  1
  In  In9  1  0.34055310  0.49266347  0.62363567  1
  In  In10  1  0.33847252  0.84139337  0.12204454  1
  In  In11  1  0.34213321  0.83121216  0.62455661  1
  In  In12  1  0.68587516  0.17762612  0.12150972  1
  In  In13  1  0.66798736  0.16648565  0.61092797  1
  In  In14  1  0.67034820  0.50516037  0.12982792  1
  In  In15  1  0.67495358  0.51322428  0.60574253  1
  In  In16  1  0.65289234  0.84169343  0.12924039  1
  In  In17  1  0.67234511  0.83572782  0.61524022  1
  In  In18  1  0.17767848  0.00484287  0.36811437  1
  In  In19  1  0.14952642  0.00036145  0.87491689  1
  In  In20  1  0.15856221  0.31753539  0.37134606  1
  In  In21  1  0.16431568  0.34355304  0.87879123  1
  In  In22  1  0.16407139  0.66532501  0.37519659  1
  In  In23  1  0.15717746  0.67556636  0.88317338  1
  In  In24  1  0.49750074  0.00953812  0.37723685  1
  In  In25  1  0.50867800  -0.00494179  0.88793984  1
  In  In26  1  0.50249210  0.33040342  0.36523713  1
  In  In27  1  0.50330467  0.33166635  0.88504211  1
  In  In28  1  0.53285358  0.64239525  0.39489512  1
  In  In29  1  0.49853679  0.66728337  0.88231758  1
  In  In30  1  0.84017361  -0.00644749  0.37648072  1
  In  In31  1  0.84404364  -0.00368877  0.87753232  1
  In  In32  1  0.82042933  0.33885754  0.37829308  1
  In  In33  1  0.84217741  0.32445847  0.88181463  1
  In  In34  1  0.81567652  0.66876391  0.38201457  1
  In  In35  1  0.82556568  0.65779168  0.87433784  1
  In  In36  1  0.00954670  0.15919107  0.38210100  1
  In  In37  1  -0.01131953  0.15569781  0.86775712  1
  In  In38  1  -0.01302790  0.48630963  0.37509445  1
  In  In39  1  -0.00312415  0.49936171  0.87673848  1
  In  In40  1  -0.02868168  0.84168425  0.37518635  1
  In  In41  1  -0.00089833  0.84551708  0.86996290  1
  In  In42  1  0.33328591  0.16653594  0.36794682  1
  In  In43  1  0.33961244  0.17523593  0.87868489  1
  In  In44  1  0.34896441  0.50229091  0.36672212  1
  In  In45  1  0.33682447  0.49661010  0.88498991  1
  In  In46  1  0.34439143  0.84827360  0.36956950  1
  In  In47  1  0.33784587  0.82497030  0.88121664  1
  In  In48  1  0.65843402  0.17452136  0.37710431  1
  In  In49  1  0.66822905  0.16323469  0.89097946  1
  In  In50  1  0.67584889  0.49166953  0.36737566  1
  In  In51  1  0.66654859  0.50245538  0.88600392  1
  In  In52  1  0.68249312  0.81873886  0.38161859  1
  In  In53  1  0.66660437  0.82590620  0.87865548  1
  In  In54  1  0.17423393  -0.00312864  0.12773003  1
  In  In55  1  0.15109916  -0.00379470  0.62576233  1
  In  In56  1  0.16414405  0.34444027  0.12474211  1
  In  In57  1  0.16492497  0.32241156  0.62143111  1
  In  In58  1  0.16400732  0.66470386  0.11401017  1
  In  In59  1  0.15641847  0.65731685  0.62770334  1
  In  In60  1  0.49937168  -0.01214464  0.12130856  1
  In  In61  1  0.49888235  0.00182277  0.61769315  1
  In  In62  1  0.50512321  0.33327962  0.13054777  1
  In  In63  1  0.50489907  0.33919960  0.61395233  1
  In  In64  1  0.51262859  0.67579701  0.12388071  1
  In  In65  1  0.52074550  0.67983602  0.60557770  1
  In  In66  1  0.82522366  0.01670534  0.13416439  1
  In  In67  1  0.83694039  0.00360373  0.61666486  1
  In  In68  1  0.82496685  0.33295749  0.12827042  1
  In  In69  1  0.84078148  0.33892156  0.61982428  1
  In  In70  1  0.83340000  0.65668531  0.13278707  1
  In  In71  1  0.84019130  0.68283108  0.60623497  1
  In  In72  1  0.67297757  -0.00368509  0.75211495  1
  In  In73  1  0.16986831  0.16590504  -0.00144232  1
  In  In74  1  0.16730689  0.83650753  0.50472932  1
  In  In75  1  0.66608056  0.33679977  0.74612448  1
  In  In76  1  0.66719999  0.00202051  0.25202977  1
  In  In77  1  0.17058815  0.49432575  0.50431895  1
  In  In78  1  -0.00567116  0.32862885  0.24602550  1
  In  In79  1  -0.00705823  0.67024539  0.25756006  1
  In  In80  1  0.32933393  0.00160123  0.74547087  1
  In  In81  1  0.67643922  0.67270349  0.74154810  1
  In  In82  1  0.33159024  0.66528558  0.75495036  1
  In  In83  1  0.34482757  0.67736915  0.24501165  1
  In  In84  1  0.32706496  0.33592646  0.75365525  1
  In  In85  1  0.82728299  0.83903191  0.00082190  1
  Cu  Cu86  1  0.16835295  0.50229190  0.24177276  1
  Cu  Cu87  1  0.67022485  -0.00040527  0.49208429  1
  Cu  Cu88  1  0.16286071  0.84085153  0.24834922  1
  Cu  Cu89  1  0.15351265  0.50089870  0.75553794  1
  Cu  Cu90  1  0.34029851  0.33072823  0.00560980  1
  Cu  Cu91  1  0.50152102  0.83233733  0.25261437  1
  Cu  Cu92  1  0.16077006  0.83126199  0.75411401  1
  Cu  Cu93  1  0.84014361  0.16475673  0.74649861  1
  Cu  Cu94  1  0.66635241  0.34006948  0.00727984  1
  Cu  Cu95  1  0.16845719  0.16382854  0.24980014  1
  Cu  Cu96  1  0.33778204  0.66082348  0.00515417  1
  Cu  Cu97  1  -0.00289008  0.66519994  -0.00126473  1
  Cu  Cu98  1  0.33513489  0.01188865  0.49349559  1
  Cu  Cu99  1  -0.00635233  0.32919567  0.49945831  1
  Cu  Cu100  1  0.34149203  0.67469142  0.49707733  1
  Cu  Cu101  1  -0.00291767  0.00142394  -0.00230828  1
  Cu  Cu102  1  0.83873269  0.49482405  0.75264088  1
  Cu  Cu103  1  0.15412799  0.16433009  0.74543178  1
  Cu  Cu104  1  0.50117990  0.16375769  0.24931334  1
  Cu  Cu105  1  0.66556331  0.66456329  0.00363182  1
  Cu  Cu106  1  0.66014440  0.32954337  0.49273129  1
  Cu  Cu107  1  0.33253502  -0.00917237  0.00440090  1
  Cu  Cu108  1  0.50145390  0.16518345  0.75047075  1
  Cu  Cu109  1  0.50977603  0.49573086  0.25163562  1
  Cu  Cu110  1  -0.00686442  0.66300950  0.50076321  1
  Cu  Cu111  1  0.33765792  0.33192134  0.48906217  1
  Cu  Cu112  1  0.00249954  -0.00200879  0.50101863  1
  Cu  Cu113  1  0.50209600  0.50989772  0.74833328  1
  Cu  Cu114  1  -0.00318210  0.33613371  0.00190012  1
  Se  Se115  1  0.07693746  0.08142423  0.06002076  1
  Se  Se116  1  0.08638669  0.08340985  0.55216718  1
  Se  Se117  1  0.08684911  0.41874216  0.04884632  1
  Se  Se118  1  0.07102835  0.41368496  0.56191406  1
  Se  Se119  1  0.08306689  0.75075689  0.04695641  1
  Se  Se120  1  0.07440104  0.74427051  0.55975820  1
  Se  Se121  1  0.41388342  0.07667014  0.05666264  1
  Se  Se122  1  0.41988615  0.09030395  0.55142270  1
  Se  Se123  1  0.42266491  0.41508876  0.05861272  1
  Se  Se124  1  0.41391935  0.41660720  0.54740723  1
  Se  Se125  1  0.41704051  0.74869681  0.05842120  1
  Se  Se126  1  0.42184470  0.76106812  0.54902644  1
  Se  Se127  1  0.75034314  0.07942277  0.05393966  1
  Se  Se128  1  0.75387097  0.08295994  0.54692890  1
  Se  Se129  1  0.75237288  0.42284875  0.05856281  1
  Se  Se130  1  0.74504944  0.40641177  0.55158301  1
  Se  Se131  1  0.74452043  0.74645862  0.06393120  1
  Se  Se132  1  0.71952376  0.72352483  0.55311277  1
  Se  Se133  1  0.25680593  0.25107043  0.06428789  1
  Se  Se134  1  0.25100668  0.25656198  0.54657425  1
  Se  Se135  1  0.25074914  0.57680522  0.05382844  1
  Se  Se136  1  0.26095551  0.59548269  0.55842656  1
  Se  Se137  1  0.24308353  0.91065133  0.05342266  1
  Se  Se138  1  0.26139889  0.93099132  0.56052536  1
  Se  Se139  1  0.58722088  0.25165086  0.05968206  1
  Se  Se140  1  0.57697990  0.24663313  0.54764455  1
  Se  Se141  1  0.58255989  0.58043594  0.05710202  1
  Se  Se142  1  0.56028465  0.56235857  0.54890636  1
  Se  Se143  1  0.58334032  0.91250339  0.04996321  1
  Se  Se144  1  0.58709114  0.92208863  0.55197347  1
  Se  Se145  1  0.91314245  0.25570391  0.05701655  1
  Se  Se146  1  0.91179615  0.24394524  0.55288137  1
  Se  Se147  1  0.91323790  0.58707576  0.05496653  1
  Se  Se148  1  0.91283901  0.57460356  0.55233112  1
  Se  Se149  1  0.91948820  0.92410644  0.06244962  1
  Se  Se150  1  0.92127765  0.91128397  0.55426686  1
  Se  Se151  1  0.08541790  0.24951554  0.45176941  1
  Se  Se152  1  0.07336055  0.25135383  0.94039762  1
  Se  Se153  1  0.07617077  0.58351569  0.44299165  1
  Se  Se154  1  0.08215109  0.58017310  0.94654278  1
  Se  Se155  1  0.08099769  0.91903530  0.43724404  1
  Se  Se156  1  0.08051956  0.91451065  0.94824680  1
  Se  Se157  1  0.41943110  0.24786254  0.43586701  1
  Se  Se158  1  0.42159754  0.24614938  0.95247453  1
  Se  Se159  1  0.41418331  0.58208725  0.44461807  1
  Se  Se160  1  0.42199323  0.57944178  0.95028552  1
  Se  Se161  1  0.41803530  0.92206934  0.44723510  1
  Se  Se162  1  0.41754113  0.91095020  0.94846230  1
  Se  Se163  1  0.75042489  0.24543080  0.44730807  1
  Se  Se164  1  0.74868352  0.25650288  0.95111711  1
  Se  Se165  1  0.74251367  0.57477718  0.44517019  1
  Se  Se166  1  0.75321999  0.58325449  0.95263788  1
  Se  Se167  1  0.75738878  0.91302123  0.44689837  1
  Se  Se168  1  0.73726014  0.93036904  0.94150125  1
  Se  Se169  1  0.24775350  0.09009023  0.44166464  1
  Se  Se170  1  0.25855300  0.07138393  0.93834347  1
  Se  Se171  1  0.25337256  0.41398413  0.43188417  1
  Se  Se172  1  0.25452010  0.40982876  0.95042192  1
  Se  Se173  1  0.25612028  0.74975492  0.43855510  1
  Se  Se174  1  0.25482486  0.74372314  0.94899348  1
  Se  Se175  1  0.58288399  0.08641914  0.44720553  1
  Se  Se176  1  0.56625046  0.09821398  0.95106455  1
  Se  Se177  1  0.58275628  0.41344357  0.43520792  1
  Se  Se178  1  0.58097223  0.41991877  0.95136368  1
  Se  Se179  1  0.57526521  0.76398587  0.44543648  1
  Se  Se180  1  0.58379893  0.74922132  0.94949669  1
  Se  Se181  1  0.91858334  0.07979433  0.44713533  1
  Se  Se182  1  0.91305828  0.08760732  0.94841776  1
  Se  Se183  1  0.90915498  0.41458198  0.45030105  1
  Se  Se184  1  0.91320924  0.41993596  0.94803817  1
  Se  Se185  1  0.91150134  0.74718804  0.44670090  1
  Se  Se186  1  0.91682202  0.74793936  0.93937131  1
  Se  Se187  1  0.24935544  0.25232532  0.29976559  1
  Se  Se188  1  0.23612380  0.23877667  0.80899052  1
  Se  Se189  1  0.24650133  0.58425117  0.30261203  1
  Se  Se190  1  0.24331107  0.57360907  0.81434464  1
  Se  Se191  1  0.25472638  0.91714361  0.29907919  1
  Se  Se192  1  0.24575479  0.91029584  0.81148769  1
  Se  Se193  1  0.58798856  0.24850363  0.29683872  1
  Se  Se194  1  0.58200475  0.24514861  0.81028412  1
  Se  Se195  1  0.58952975  0.58319973  0.30373736  1
  Se  Se196  1  0.58556653  0.58467929  0.80858912  1
  Se  Se197  1  0.58140166  0.91181627  0.31483199  1
  Se  Se198  1  0.57759044  0.90942783  0.80907302  1
  Se  Se199  1  0.91765174  0.24715410  0.31833295  1
  Se  Se200  1  0.91645008  0.25222441  0.80242694  1
  Se  Se201  1  0.90426600  0.57524187  0.31114401  1
  Se  Se202  1  0.91539091  0.58336935  0.80667489  1
  Se  Se203  1  0.92348334  0.93105979  0.29690181  1
  Se  Se204  1  0.91184838  0.91966364  0.80080866  1
  Se  Se205  1  0.08446817  0.08332677  0.30450143  1
  Se  Se206  1  0.07631666  0.07754614  0.79905932  1
  Se  Se207  1  0.08909917  0.42376263  0.30480503  1
  Se  Se208  1  0.07625973  0.41100413  0.80665322  1
  Se  Se209  1  0.08737315  0.76431872  0.31364642  1
  Se  Se210  1  0.07813858  0.74886539  0.80787324  1
  Se  Se211  1  0.41629983  0.07967450  0.30056849  1
  Se  Se212  1  0.42190137  0.08592889  0.80997977  1
  Se  Se213  1  0.41724889  0.41373872  0.29604628  1
  Se  Se214  1  0.42768314  0.42388769  0.80780709  1
  Se  Se215  1  0.43231585  0.74706340  0.31794333  1
  Se  Se216  1  0.42862770  0.75658188  0.80548805  1
  Se  Se217  1  0.75380312  0.08945299  0.31452098  1
  Se  Se218  1  0.75525187  0.09506560  0.81094567  1
  Se  Se219  1  0.74945091  0.40407477  0.29650656  1
  Se  Se220  1  0.75282041  0.42141847  0.81246015  1
  Se  Se221  1  0.75591604  0.75036871  0.30189400  1
  Se  Se222  1  0.76209091  0.76229540  0.80605157  1
  Se  Se223  1  0.25311786  0.07912974  0.19828989  1
  Se  Se224  1  0.24474580  0.09655026  0.68511778  1
  Se  Se225  1  0.25264593  0.41366038  0.19711926  1
  Se  Se226  1  0.23725252  0.42763259  0.69248790  1
  Se  Se227  1  0.23913398  0.75462283  0.18920358  1
  Se  Se228  1  0.24150103  0.75726810  0.69129171  1
  Se  Se229  1  0.58057913  0.08668274  0.18560008  1
  Se  Se230  1  0.58334494  0.08934684  0.69018107  1
  Se  Se231  1  0.59305451  0.41336106  0.19756739  1
  Se  Se232  1  0.58013966  0.43036927  0.68629701  1
  Se  Se233  1  0.58700009  0.74996848  0.20174925  1
  Se  Se234  1  0.57807461  0.76152190  0.68989251  1
  Se  Se235  1  0.91810816  0.07940804  0.20593087  1
  Se  Se236  1  0.91772954  0.07962573  0.69095033  1
  Se  Se237  1  0.91002101  0.42990399  0.19370742  1
  Se  Se238  1  0.91844787  0.40879217  0.69877089  1
  Se  Se239  1  0.91267454  0.76046962  0.19160876  1
  Se  Se240  1  0.91443128  0.73189712  0.69280133  1
  Se  Se241  1  0.08798981  0.23944654  0.18561565  1
  Se  Se242  1  0.07717453  0.25261492  0.69250743  1
  Se  Se243  1  0.08212764  0.58303221  0.18970361  1
  Se  Se244  1  0.07546300  0.58913900  0.70345572  1
  Se  Se245  1  0.08023906  0.92116001  0.19332001  1
  Se  Se246  1  0.07959730  0.91690483  0.70071349  1
  Se  Se247  1  0.41764077  0.25191558  0.19885966  1
  Se  Se248  1  0.42500385  0.25180160  0.69313471  1
  Se  Se249  1  0.42819621  0.57648658  0.19048530  1
  Se  Se250  1  0.42297664  0.58710781  0.68678456  1
  Se  Se251  1  0.41864903  0.91445125  0.19800361  1
  Se  Se252  1  0.42836387  0.91226795  0.69486240  1
  Se  Se253  1  0.76173945  0.24266640  0.20116594  1
  Se  Se254  1  0.75371723  0.24163015  0.68846661  1
  Se  Se255  1  0.73710271  0.59743452  0.20170087  1
  Se  Se256  1  0.75904919  0.57118128  0.68870408  1
  Se  Se257  1  0.75668509  0.90799061  0.19438885  1
  Se  Se258  1  0.75988415  0.90975543  0.68864674  1
