# generated using pymatgen
data_In86Cu29Se144
_symmetry_space_group_name_H-M   'P 1'
_cell_length_a   17.56616985
_cell_length_b   17.56702405
_cell_length_c   23.42591755
_cell_angle_alpha   90.01472798
_cell_angle_beta   90.01923126
_cell_angle_gamma   89.99410942
_symmetry_Int_Tables_number   1
_chemical_formula_structural   In86Cu29Se144
_chemical_formula_sum   'In86 Cu29 Se144'
_cell_volume   7228.89377139
_cell_formula_units_Z   1
loop_
 _symmetry_equiv_pos_site_id
 _symmetry_equiv_pos_as_xyz
  1  'x, y, z'
loop_
 _atom_site_type_symbol
 _atom_site_label
 _atom_site_symmetry_multiplicity
 _atom_site_fract_x
 _atom_site_fract_y
 _atom_site_fract_z
 _atom_site_occupancy
  In  In0  1  -0.00488768  0.17311963  0.13090753  1
  In  In1  1  -0.00296697  0.16473042  0.62366965  1
  In  In2  1  -0.00586118  0.49634705  0.12730929  1
  In  In3  1  0.01056433  0.49497743  0.61947324  1
  In  In4  1  -0.00271440  0.82530003  0.13931051  1
  In  In5  1  0.00069747  0.84123827  0.60338080  1
  In  In6  1  0.33086024  0.16551480  0.13160022  1
  In  In7  1  0.33649799  0.16073547  0.62673947  1
  In  In8  1  0.33018934  0.50466737  0.13080104  1
  In  In9  1  0.33581995  0.50096490  0.61718109  1
  In  In10  1  0.31222211  0.84898332  0.15515290  1
  In  In11  1  0.34383007  0.84889358  0.60436606  1
  In  In12  1  0.68495644  0.16744781  0.12059435  1
  In  In13  1  0.65867247  0.17247962  0.63645942  1
  In  In14  1  0.65630879  0.49243045  0.12028844  1
  In  In15  1  0.65322945  0.49760940  0.62394911  1
  In  In16  1  0.68028016  0.82402190  0.12859845  1
  In  In17  1  0.67917530  0.83773840  0.61334633  1
  In  In18  1  0.16300306  -0.01750598  0.36502985  1
  In  In19  1  0.16480765  -0.00746244  0.87710201  1
  In  In20  1  0.18111672  0.34280959  0.36542893  1
  In  In21  1  0.17830687  0.33189435  0.87785002  1
  In  In22  1  0.16091884  0.66851810  0.36464110  1
  In  In23  1  0.16426531  0.67563723  0.88931430  1
  In  In24  1  0.48752870  -0.01109441  0.37840985  1
  In  In25  1  0.49973031  0.00091983  0.86520821  1
  In  In26  1  0.50832944  0.34503066  0.37037473  1
  In  In27  1  0.50335041  0.33861605  0.87219703  1
  In  In28  1  0.48963892  0.68165971  0.38995856  1
  In  In29  1  0.48847742  0.66038211  0.87913067  1
  In  In30  1  0.85088881  -0.01824057  0.37006926  1
  In  In31  1  0.82895531  0.00619936  0.88758025  1
  In  In32  1  0.84218394  0.36293218  0.34660798  1
  In  In33  1  0.82468212  0.33830960  0.88570958  1
  In  In34  1  0.85016043  0.66997020  0.35552819  1
  In  In35  1  0.83755685  0.66314384  0.88696805  1
  In  In36  1  -0.00467592  0.16481371  0.36691710  1
  In  In37  1  -0.01128477  0.15137588  0.88501851  1
  In  In38  1  0.00710723  0.51960033  0.35116393  1
  In  In39  1  0.00220798  0.50001724  0.89079034  1
  In  In40  1  0.00855488  0.83398535  0.36562449  1
  In  In41  1  0.00097472  0.84875235  0.89401387  1
  In  In42  1  0.32690516  0.15660747  0.36543958  1
  In  In43  1  0.33585424  0.17278988  0.86791944  1
  In  In44  1  0.33107628  0.50103034  0.37510392  1
  In  In45  1  0.34016352  0.49740719  0.88754676  1
  In  In46  1  0.33090490  0.83403860  0.37188507  1
  In  In47  1  0.32293106  0.83630725  0.87592342  1
  In  In48  1  0.66524215  0.18048710  0.37374317  1
  In  In49  1  0.66933597  0.17086928  0.87386086  1
  In  In50  1  0.67196233  0.49236799  0.37406208  1
  In  In51  1  0.67218085  0.49151417  0.88409931  1
  In  In52  1  0.67260181  0.82186860  0.38961405  1
  In  In53  1  0.66500455  0.84165214  0.87104603  1
  In  In54  1  0.16301854  -0.01200638  0.13714297  1
  In  In55  1  0.17317910  -0.00198611  0.61902825  1
  In  In56  1  0.15355753  0.34676492  0.13485636  1
  In  In57  1  0.18078396  0.35478195  0.61613920  1
  In  In58  1  0.16841000  0.66978743  0.13652124  1
  In  In59  1  0.17375993  0.67266689  0.61169228  1
  In  In60  1  0.49370379  -0.01019326  0.12680469  1
  In  In61  1  0.50008032  0.00156850  0.62521973  1
  In  In62  1  0.48381665  0.34486511  0.13344284  1
  In  In63  1  0.49436857  0.33512892  0.62870985  1
  In  In64  1  0.49732412  0.65536038  0.12573481  1
  In  In65  1  0.50618334  0.65715509  0.60316595  1
  In  In66  1  0.84575018  0.00047418  0.12026744  1
  In  In67  1  0.83111962  -0.01709140  0.62342147  1
  In  In68  1  0.83245822  0.33503577  0.12844461  1
  In  In69  1  0.83207638  0.31756249  0.62682112  1
  In  In70  1  0.84911671  0.67698781  0.12509403  1
  In  In71  1  0.82055732  0.68024162  0.61850645  1
  In  In72  1  0.50386560  0.17074814  -0.00879645  1
  In  In73  1  0.16659781  0.15356249  0.49518104  1
  In  In74  1  0.33311608  0.66904016  0.74846545  1
  In  In75  1  0.83759313  0.51125984  0.49149842  1
  In  In76  1  0.49987927  0.82050368  0.00184327  1
  In  In77  1  0.49560003  0.16585803  0.50295144  1
  In  In78  1  0.66090211  0.66900722  0.74197713  1
  In  In79  1  0.00183329  0.67061902  0.75467409  1
  In  In80  1  0.66668444  0.66328596  0.25432372  1
  In  In81  1  0.83008818  0.16474249  0.48920883  1
  In  In82  1  0.16134077  0.16513161  0.00646553  1
  In  In83  1  0.66554738  0.00715918  0.24902149  1
  In  In84  1  0.00534070  0.33029151  0.75170447  1
  In  In85  1  -0.00109858  0.00216915  0.75431307  1
  Cu  Cu86  1  0.49380472  0.16188500  0.74933216  1
  Cu  Cu87  1  0.67941124  -0.01113462  0.00095232  1
  Cu  Cu88  1  0.32794207  -0.00454329  0.00636114  1
  Cu  Cu89  1  0.32629836  0.34878769  0.00715397  1
  Cu  Cu90  1  0.66517285  0.32921219  0.00290834  1
  Cu  Cu91  1  0.83077557  0.17068680  0.24924336  1
  Cu  Cu92  1  0.17875183  0.50117247  0.74871749  1
  Cu  Cu93  1  0.49931780  0.49585427  0.75107564  1
  Cu  Cu94  1  0.50117710  0.17076713  0.25224774  1
  Cu  Cu95  1  0.67289957  0.34210709  0.49552417  1
  Cu  Cu96  1  0.32522947  0.67283610  0.01226459  1
  Cu  Cu97  1  0.49962820  0.84042489  0.74028315  1
  Cu  Cu98  1  0.49852968  0.83260224  0.25901233  1
  Cu  Cu99  1  0.17254444  0.17339016  0.74575977  1
  Cu  Cu100  1  0.66797665  0.00318238  0.50218201  1
  Cu  Cu101  1  0.67415238  0.66131953  0.00729815  1
  Cu  Cu102  1  0.31911514  0.65866794  0.48851279  1
  Cu  Cu103  1  0.17208900  0.84144336  0.75074477  1
  Cu  Cu104  1  0.16927305  0.16312296  0.24838221  1
  Cu  Cu105  1  0.34020819  0.33445105  0.49546483  1
  Cu  Cu106  1  0.16837499  0.49625247  0.24885639  1
  Cu  Cu107  1  0.00966466  0.33897778  0.48987017  1
  Cu  Cu108  1  0.82169857  0.16721672  0.75706816  1
  Cu  Cu109  1  -0.00453940  0.33281028  0.00931511  1
  Cu  Cu110  1  0.49337051  0.50526668  0.25419233  1
  Cu  Cu111  1  0.82915109  0.83516715  0.74673778  1
  Cu  Cu112  1  0.00999498  0.66792557  0.01191429  1
  Cu  Cu113  1  0.00017561  0.66650685  0.48488341  1
  Cu  Cu114  1  0.82686868  0.48973864  0.75677985  1
  Se  Se115  1  0.07669822  0.07426813  0.06680084  1
  Se  Se116  1  0.06830620  0.07138179  0.55598283  1
  Se  Se117  1  0.08236784  0.41864655  0.05508236  1
  Se  Se118  1  0.09057633  0.42313621  0.54414626  1
  Se  Se119  1  0.08784660  0.75396758  0.06649065  1
  Se  Se120  1  0.08160003  0.74636428  0.54479446  1
  Se  Se121  1  0.41387438  0.08022487  0.05610733  1
  Se  Se122  1  0.40218155  0.06958336  0.55135250  1
  Se  Se123  1  0.41622086  0.42757712  0.05701041  1
  Se  Se124  1  0.42260376  0.41507374  0.55278495  1
  Se  Se125  1  0.40616671  0.75421442  0.07165679  1
  Se  Se126  1  0.40201903  0.73378264  0.55092354  1
  Se  Se127  1  0.75723052  0.07912467  0.05149957  1
  Se  Se128  1  0.74324622  0.08781265  0.56268388  1
  Se  Se129  1  0.74811064  0.41335660  0.05630025  1
  Se  Se130  1  0.75748164  0.41371130  0.55900099  1
  Se  Se131  1  0.75738748  0.75047053  0.05337604  1
  Se  Se132  1  0.75199504  0.75444873  0.54081765  1
  Se  Se133  1  0.25133696  0.25867168  0.06361171  1
  Se  Se134  1  0.25767977  0.25137208  0.55323589  1
  Se  Se135  1  0.24399450  0.58470620  0.06211113  1
  Se  Se136  1  0.24390841  0.57348580  0.54895375  1
  Se  Se137  1  0.25297741  0.91359216  0.06572446  1
  Se  Se138  1  0.22813133  0.90031850  0.54933072  1
  Se  Se139  1  0.58081149  0.25371832  0.06449466  1
  Se  Se140  1  0.59398428  0.25829181  0.55532469  1
  Se  Se141  1  0.57966231  0.58266935  0.05187033  1
  Se  Se142  1  0.60801043  0.58683647  0.54525951  1
  Se  Se143  1  0.59244218  0.91623294  0.06057386  1
  Se  Se144  1  0.58350795  0.92207479  0.55545332  1
  Se  Se145  1  0.91162797  0.24713695  0.05773181  1
  Se  Se146  1  0.92790455  0.25854580  0.54910002  1
  Se  Se147  1  0.91847331  0.58296901  0.05514366  1
  Se  Se148  1  0.92696046  0.59590169  0.55941231  1
  Se  Se149  1  0.90475358  0.88834678  0.06595060  1
  Se  Se150  1  0.90321079  0.91580072  0.54366236  1
  Se  Se151  1  0.08575747  0.25197319  0.43405465  1
  Se  Se152  1  0.07330586  0.25630530  0.94168590  1
  Se  Se153  1  0.08171045  0.57827016  0.43538000  1
  Se  Se154  1  0.08951029  0.58344188  0.95448723  1
  Se  Se155  1  0.08792760  0.90872846  0.44156781  1
  Se  Se156  1  0.09605927  0.92143937  0.95661389  1
  Se  Se157  1  0.41325189  0.25153164  0.43388018  1
  Se  Se158  1  0.40254794  0.26387031  0.94519427  1
  Se  Se159  1  0.41596390  0.57752501  0.44716751  1
  Se  Se160  1  0.41063421  0.59144070  0.95641555  1
  Se  Se161  1  0.41896779  0.90087917  0.44770368  1
  Se  Se162  1  0.41550480  0.92271301  0.94409663  1
  Se  Se163  1  0.75707748  0.27174448  0.43291631  1
  Se  Se164  1  0.74825938  0.24358448  0.95017693  1
  Se  Se165  1  0.75062629  0.59839047  0.42913909  1
  Se  Se166  1  0.75452855  0.57591783  0.95094073  1
  Se  Se167  1  0.74987037  0.92864228  0.44092495  1
  Se  Se168  1  0.75531245  0.90158393  0.94521377  1
  Se  Se169  1  0.25762990  0.06570960  0.43755853  1
  Se  Se170  1  0.25908970  0.08429260  0.94359238  1
  Se  Se171  1  0.25044014  0.41544567  0.44611196  1
  Se  Se172  1  0.24024766  0.42483023  0.94996292  1
  Se  Se173  1  0.24195816  0.74813166  0.43703730  1
  Se  Se174  1  0.25138042  0.76009555  0.95360698  1
  Se  Se175  1  0.58938460  0.08203073  0.43971289  1
  Se  Se176  1  0.59152814  0.06651355  0.94263206  1
  Se  Se177  1  0.58319473  0.42281081  0.44698103  1
  Se  Se178  1  0.58044143  0.41261995  0.94889171  1
  Se  Se179  1  0.57943960  0.75597619  0.45705410  1
  Se  Se180  1  0.59542119  0.73638870  0.93901016  1
  Se  Se181  1  0.92893283  0.07283722  0.44255853  1
  Se  Se182  1  0.92732382  0.06370083  0.95738707  1
  Se  Se183  1  0.92537150  0.41833596  0.43228216  1
  Se  Se184  1  0.91284991  0.41636578  0.95276441  1
  Se  Se185  1  0.91844307  0.75096643  0.43247339  1
  Se  Se186  1  0.92714564  0.74474700  0.95012675  1
  Se  Se187  1  0.25428970  0.24901611  0.29894071  1
  Se  Se188  1  0.25286170  0.25810586  0.80033093  1
  Se  Se189  1  0.24998138  0.58042232  0.30301073  1
  Se  Se190  1  0.24596241  0.58514193  0.81568062  1
  Se  Se191  1  0.25238794  0.91063794  0.29629767  1
  Se  Se192  1  0.25452098  0.92596814  0.80349381  1
  Se  Se193  1  0.58550332  0.25644865  0.30107797  1
  Se  Se194  1  0.57601068  0.24350935  0.80721185  1
  Se  Se195  1  0.57134302  0.58387913  0.31731718  1
  Se  Se196  1  0.57863759  0.57973140  0.81019397  1
  Se  Se197  1  0.58738909  0.91059956  0.31314289  1
  Se  Se198  1  0.58392082  0.91676302  0.79841847  1
  Se  Se199  1  0.91879132  0.25363000  0.29911289  1
  Se  Se200  1  0.91288861  0.24286304  0.81317362  1
  Se  Se201  1  0.88261004  0.54968337  0.29683361  1
  Se  Se202  1  0.91214875  0.57159765  0.81127563  1
  Se  Se203  1  0.93994261  0.92715614  0.29233237  1
  Se  Se204  1  0.91084236  0.90870248  0.81245098  1
  Se  Se205  1  0.08705229  0.08360037  0.30531820  1
  Se  Se206  1  0.09275102  0.09783742  0.80968308  1
  Se  Se207  1  0.08226064  0.41061478  0.29998758  1
  Se  Se208  1  0.09080151  0.42802171  0.81013261  1
  Se  Se209  1  0.05553160  0.72502029  0.29606671  1
  Se  Se210  1  0.08979104  0.76475288  0.81422716  1
  Se  Se211  1  0.42514523  0.08031815  0.30475039  1
  Se  Se212  1  0.40821785  0.07923420  0.80160427  1
  Se  Se213  1  0.41241733  0.41623298  0.30549794  1
  Se  Se214  1  0.41261847  0.42146677  0.80892002  1
  Se  Se215  1  0.41599721  0.74418760  0.30652477  1
  Se  Se216  1  0.42596996  0.76253218  0.80736747  1
  Se  Se217  1  0.75916756  0.08981691  0.31476436  1
  Se  Se218  1  0.74779295  0.07601448  0.81084166  1
  Se  Se219  1  0.73344830  0.42359359  0.28925625  1
  Se  Se220  1  0.74255077  0.40775825  0.80837612  1
  Se  Se221  1  0.75410091  0.76700735  0.30310521  1
  Se  Se222  1  0.75802939  0.74649364  0.80746091  1
  Se  Se223  1  0.25256247  0.07704856  0.19747149  1
  Se  Se224  1  0.24617539  0.08116438  0.69229550  1
  Se  Se225  1  0.25536633  0.41205126  0.19855182  1
  Se  Se226  1  0.26187369  0.41977138  0.69452308  1
  Se  Se227  1  0.25431584  0.73926194  0.21132011  1
  Se  Se228  1  0.24514262  0.75907762  0.68768985  1
  Se  Se229  1  0.57609186  0.09426039  0.18451733  1
  Se  Se230  1  0.58059330  0.07973645  0.69856647  1
  Se  Se231  1  0.57531503  0.42365921  0.19820727  1
  Se  Se232  1  0.58338494  0.41286294  0.69758531  1
  Se  Se233  1  0.57538058  0.75665259  0.19326250  1
  Se  Se234  1  0.57241306  0.75558267  0.67899086  1
  Se  Se235  1  0.91246255  0.08517638  0.19659588  1
  Se  Se236  1  0.90293708  0.09057703  0.69372422  1
  Se  Se237  1  0.92492759  0.40373105  0.19691203  1
  Se  Se238  1  0.91293273  0.42133812  0.69089629  1
  Se  Se239  1  0.92609081  0.73339746  0.21098891  1
  Se  Se240  1  0.91539306  0.75848576  0.68726351  1
  Se  Se241  1  0.08456012  0.24817075  0.19869923  1
  Se  Se242  1  0.09489331  0.25015968  0.68155828  1
  Se  Se243  1  0.08236226  0.57593469  0.19518379  1
  Se  Se244  1  0.09371429  0.58151902  0.69090750  1
  Se  Se245  1  0.06777932  0.92202112  0.20735532  1
  Se  Se246  1  0.08057478  0.90945181  0.68973854  1
  Se  Se247  1  0.41258469  0.24963767  0.19900271  1
  Se  Se248  1  0.41362638  0.24799241  0.69475791  1
  Se  Se249  1  0.41235549  0.58903788  0.20063921  1
  Se  Se250  1  0.42862877  0.58299614  0.68861725  1
  Se  Se251  1  0.42052513  0.92392069  0.20745967  1
  Se  Se252  1  0.40879973  0.91822180  0.68934148  1
  Se  Se253  1  0.74493617  0.25225730  0.19775656  1
  Se  Se254  1  0.74514617  0.25584120  0.70275380  1
  Se  Se255  1  0.74725512  0.58684737  0.18005929  1
  Se  Se256  1  0.75977682  0.57534400  0.68992979  1
  Se  Se257  1  0.75764365  0.91643948  0.19463488  1
  Se  Se258  1  0.74203997  0.91676510  0.69611063  1
