# generated using pymatgen
data_In86Cu29Se144
_symmetry_space_group_name_H-M   'P 1'
_cell_length_a   17.70740630
_cell_length_b   17.70616042
_cell_length_c   23.56490138
_cell_angle_alpha   89.97862664
_cell_angle_beta   90.00520886
_cell_angle_gamma   89.99066460
_symmetry_Int_Tables_number   1
_chemical_formula_structural   In86Cu29Se144
_chemical_formula_sum   'In86 Cu29 Se144'
_cell_volume   7388.30704301
_cell_formula_units_Z   1
loop_
 _symmetry_equiv_pos_site_id
 _symmetry_equiv_pos_as_xyz
  1  'x, y, z'
loop_
 _atom_site_type_symbol
 _atom_site_label
 _atom_site_symmetry_multiplicity
 _atom_site_fract_x
 _atom_site_fract_y
 _atom_site_fract_z
 _atom_site_occupancy
  In  In0  1  0.00991276  0.17433667  0.11732189  1
  In  In1  1  0.01351398  0.16111152  0.63733328  1
  In  In2  1  -0.00301910  0.49535486  0.11660880  1
  In  In3  1  -0.00376370  0.49498934  0.62112048  1
  In  In4  1  -0.00295308  0.82876246  0.11289722  1
  In  In5  1  0.01322774  0.84075560  0.62961961  1
  In  In6  1  0.33129600  0.16243605  0.13297378  1
  In  In7  1  0.33367268  0.18124557  0.62231655  1
  In  In8  1  0.32954612  0.50056144  0.12626180  1
  In  In9  1  0.33033264  0.51835859  0.62586417  1
  In  In10  1  0.33231196  0.83355838  0.13351667  1
  In  In11  1  0.33014628  0.81878256  0.62142626  1
  In  In12  1  0.66044805  0.15897903  0.12424658  1
  In  In13  1  0.66591091  0.15955204  0.62100219  1
  In  In14  1  0.67385073  0.50785604  0.12347781  1
  In  In15  1  0.66806331  0.49641434  0.61763944  1
  In  In16  1  0.66676122  0.83725355  0.13239882  1
  In  In17  1  0.65727426  0.84224866  0.62022996  1
  In  In18  1  0.18120936  0.00073801  0.37983589  1
  In  In19  1  0.15972509  0.01219978  0.88627478  1
  In  In20  1  0.16255202  0.33018135  0.37267910  1
  In  In21  1  0.15925001  0.34296242  0.87901758  1
  In  In22  1  0.16899948  0.65726353  0.37712625  1
  In  In23  1  0.17655714  0.66086442  0.88235816  1
  In  In24  1  0.46873695  -0.02959868  0.30133453  1
  In  In25  1  0.49858763  -0.00177066  0.88990864  1
  In  In26  1  0.49256747  0.34279052  0.36929109  1
  In  In27  1  0.50158675  0.33287286  0.89070528  1
  In  In28  1  0.49192913  0.66174868  0.36691550  1
  In  In29  1  0.48934060  0.67633102  0.88564768  1
  In  In30  1  0.82964637  0.00116077  0.37229202  1
  In  In31  1  0.83844289  -0.00361737  0.88303222  1
  In  In32  1  0.84900669  0.32535464  0.37214689  1
  In  In33  1  0.83945952  0.32511607  0.88381571  1
  In  In34  1  0.80791261  0.67117761  0.37073536  1
  In  In35  1  0.83193317  0.66711904  0.88524944  1
  In  In36  1  -0.00884134  0.17354592  0.37610503  1
  In  In37  1  -0.00049472  0.16948312  0.87573101  1
  In  In38  1  0.00690386  0.49245426  0.37942364  1
  In  In39  1  0.00654753  0.49238665  0.87687344  1
  In  In40  1  0.00728323  0.83676923  0.37669628  1
  In  In41  1  -0.00753968  0.84352570  0.88183598  1
  In  In42  1  0.32192013  0.14774590  0.35213957  1
  In  In43  1  0.33545721  0.16440086  0.88899564  1
  In  In44  1  0.32607207  0.49289238  0.36706693  1
  In  In45  1  0.32444414  0.50956184  0.88443970  1
  In  In46  1  0.34028594  0.83321676  0.36336692  1
  In  In47  1  0.33938093  0.82775878  0.88225964  1
  In  In48  1  0.66966178  0.15376076  0.36418328  1
  In  In49  1  0.66775860  0.16250178  0.89347176  1
  In  In50  1  0.66451559  0.50546579  0.37427157  1
  In  In51  1  0.67080626  0.49455813  0.89052928  1
  In  In52  1  0.62623900  0.80134883  0.31626674  1
  In  In53  1  0.66602353  0.83017298  0.88595145  1
  In  In54  1  0.16992202  0.01081591  0.12218082  1
  In  In55  1  0.16129677  -0.00261929  0.62324044  1
  In  In56  1  0.16660093  0.33492125  0.12476308  1
  In  In57  1  0.15732587  0.32311648  0.61917071  1
  In  In58  1  0.17556124  0.67578203  0.11807233  1
  In  In59  1  0.18077852  0.66783542  0.62443704  1
  In  In60  1  0.50554435  0.00442885  0.13327824  1
  In  In61  1  0.51143983  -0.00559660  0.61997582  1
  In  In62  1  0.48581002  0.32030835  0.12642771  1
  In  In63  1  0.51155322  0.33094204  0.61995758  1
  In  In64  1  0.49912318  0.67075920  0.13237459  1
  In  In65  1  0.48169532  0.66913896  0.62496964  1
  In  In66  1  0.82530666  -0.00893810  0.12205637  1
  In  In67  1  0.84040475  0.01080150  0.62413705  1
  In  In68  1  0.84392222  0.34117114  0.11930046  1
  In  In69  1  0.83978004  0.34303260  0.62099836  1
  In  In70  1  0.82826624  0.66474437  0.12281377  1
  In  In71  1  0.84051740  0.66430809  0.62225110  1
  In  In72  1  0.17198482  0.83425538  0.50320843  1
  In  In73  1  0.67577084  0.34000706  0.23916957  1
  In  In74  1  0.66951925  0.33394790  0.74931931  1
  In  In75  1  0.83261001  0.83063078  0.49635916  1
  In  In76  1  0.00401973  0.66919850  0.75584753  1
  In  In77  1  0.67110113  -0.00282060  0.76445567  1
  In  In78  1  0.48202466  0.14783158  0.47530219  1
  In  In79  1  0.00026549  0.00353735  0.24719477  1
  In  In80  1  0.83576367  0.16267398  0.49242791  1
  In  In81  1  -0.00677472  0.65865800  0.24095498  1
  In  In82  1  0.32952726  0.33864538  0.75248447  1
  In  In83  1  0.66522139  0.66541176  0.76233166  1
  In  In84  1  0.33032481  -0.00328420  0.75007502  1
  In  In85  1  0.49506845  0.50198149  0.49952944  1
  Cu  Cu86  1  0.16491278  0.16831137  0.75464393  1
  Cu  Cu87  1  0.49319262  0.50530653  0.75572647  1
  Cu  Cu88  1  -0.00282511  0.00500172  0.00228098  1
  Cu  Cu89  1  0.16858298  0.50240665  0.75499530  1
  Cu  Cu90  1  0.32268879  0.33902574  0.49727193  1
  Cu  Cu91  1  0.66102867  -0.01656023  0.48902785  1
  Cu  Cu92  1  0.16458164  0.49484884  0.25053645  1
  Cu  Cu93  1  0.66794062  0.32691794  0.50462926  1
  Cu  Cu94  1  0.00286033  0.66447137  -0.00155626  1
  Cu  Cu95  1  0.15957798  0.83016554  0.24773689  1
  Cu  Cu96  1  0.33078602  0.32783580  0.00790923  1
  Cu  Cu97  1  0.33741031  0.66715335  0.00733945  1
  Cu  Cu98  1  0.66011759  -0.00346413  0.00808641  1
  Cu  Cu99  1  0.50269714  0.16741256  0.75813490  1
  Cu  Cu100  1  0.84053053  0.84670984  0.75361760  1
  Cu  Cu101  1  0.16644289  0.83858552  0.75061728  1
  Cu  Cu102  1  0.49296293  0.82441537  0.75322207  1
  Cu  Cu103  1  -0.00389309  0.65885004  0.49912622  1
  Cu  Cu104  1  0.33708683  -0.00657208  0.01169188  1
  Cu  Cu105  1  0.16191546  0.16969498  0.24670392  1
  Cu  Cu106  1  0.00223746  0.33023810  0.49902996  1
  Cu  Cu107  1  0.66247551  0.67207370  0.00932498  1
  Cu  Cu108  1  0.83626345  0.49654588  0.74591710  1
  Cu  Cu109  1  0.84274401  0.17335369  0.75284993  1
  Cu  Cu110  1  0.66636489  0.33586518  0.01201610  1
  Cu  Cu111  1  0.65966863  0.67351365  0.48508997  1
  Cu  Cu112  1  0.83859311  0.50336894  0.24486317  1
  Cu  Cu113  1  0.49168671  0.50016021  0.24691102  1
  Cu  Cu114  1  0.00380728  0.33465860  -0.00228289  1
  Se  Se115  1  0.08680221  0.08580489  0.05014320  1
  Se  Se116  1  0.08242212  0.08549560  0.56034990  1
  Se  Se117  1  0.08702579  0.41642664  0.05201024  1
  Se  Se118  1  0.08190624  0.41522177  0.55402226  1
  Se  Se119  1  0.08607820  0.74938937  0.04915797  1
  Se  Se120  1  0.07472191  0.74127972  0.55886677  1
  Se  Se121  1  0.41640573  0.08031283  0.06442865  1
  Se  Se122  1  0.41409379  0.08021315  0.56314882  1
  Se  Se123  1  0.41227068  0.41251638  0.06035376  1
  Se  Se124  1  0.40795812  0.40850274  0.56180644  1
  Se  Se125  1  0.41452672  0.75220577  0.06327453  1
  Se  Se126  1  0.42303135  0.75716960  0.55150372  1
  Se  Se127  1  0.74719471  0.08078182  0.05516161  1
  Se  Se128  1  0.73861435  0.06684240  0.54948976  1
  Se  Se129  1  0.75378153  0.42255583  0.05577088  1
  Se  Se130  1  0.75090999  0.41484985  0.55137913  1
  Se  Se131  1  0.74704847  0.75559430  0.05992049  1
  Se  Se132  1  0.73840867  0.74145268  0.55852148  1
  Se  Se133  1  0.25036442  0.24439239  0.06210837  1
  Se  Se134  1  0.24754633  0.24977524  0.55097218  1
  Se  Se135  1  0.24995542  0.58167844  0.05381559  1
  Se  Se136  1  0.24848110  0.58449210  0.55148356  1
  Se  Se137  1  0.24929410  0.91434013  0.06318080  1
  Se  Se138  1  0.26353858  0.92636709  0.55948130  1
  Se  Se139  1  0.58179356  0.24999781  0.05998008  1
  Se  Se140  1  0.58120038  0.23831486  0.54875703  1
  Se  Se141  1  0.58120632  0.58808312  0.06166922  1
  Se  Se142  1  0.58769381  0.59581180  0.55628783  1
  Se  Se143  1  0.57912930  0.91514421  0.06297337  1
  Se  Se144  1  0.57457188  0.90783409  0.54439782  1
  Se  Se145  1  0.92016578  0.25308750  0.05090886  1
  Se  Se146  1  0.92182866  0.24821151  0.55949877  1
  Se  Se147  1  0.91709566  0.58789989  0.05485354  1
  Se  Se148  1  0.91246268  0.57830312  0.55317778  1
  Se  Se149  1  0.91388683  0.91806973  0.05136681  1
  Se  Se150  1  0.92234282  0.91828883  0.55971770  1
  Se  Se151  1  0.08107814  0.24713407  0.44347054  1
  Se  Se152  1  0.08566472  0.25013139  0.94415246  1
  Se  Se153  1  0.08372213  0.58166774  0.44643484  1
  Se  Se154  1  0.08360590  0.58104677  0.94348358  1
  Se  Se155  1  0.08064280  0.92567455  0.44627426  1
  Se  Se156  1  0.08082252  0.92018171  0.94924288  1
  Se  Se157  1  0.40408018  0.26247167  0.43644134  1
  Se  Se158  1  0.41834422  0.24754208  0.95452385  1
  Se  Se159  1  0.40435328  0.58441040  0.43945135  1
  Se  Se160  1  0.41660909  0.58250963  0.95115143  1
  Se  Se161  1  0.42577986  0.93915000  0.40465482  1
  Se  Se162  1  0.41606951  0.91207928  0.95271914  1
  Se  Se163  1  0.74282186  0.25366115  0.43793864  1
  Se  Se164  1  0.74757873  0.25562261  0.95293766  1
  Se  Se165  1  0.74666545  0.58258217  0.44609199  1
  Se  Se166  1  0.74567551  0.59006468  0.95247850  1
  Se  Se167  1  0.74402336  0.90802466  0.43072626  1
  Se  Se168  1  0.74451030  0.92209187  0.94754752  1
  Se  Se169  1  0.26609732  0.08607689  0.44121248  1
  Se  Se170  1  0.25713994  0.07653610  0.95369445  1
  Se  Se171  1  0.24323153  0.41874075  0.43998259  1
  Se  Se172  1  0.25534177  0.40942173  0.94603339  1
  Se  Se173  1  0.25618433  0.75015428  0.43782169  1
  Se  Se174  1  0.25412231  0.74771157  0.94997222  1
  Se  Se175  1  0.58739977  0.06736952  0.42900620  1
  Se  Se176  1  0.57743279  0.08394766  0.95641227  1
  Se  Se177  1  0.58851808  0.40797877  0.44470850  1
  Se  Se178  1  0.58273942  0.41776487  0.95673936  1
  Se  Se179  1  0.59012395  0.74943643  0.41819667  1
  Se  Se180  1  0.58004214  0.75158041  0.95170057  1
  Se  Se181  1  0.92865724  0.06749441  0.44349790  1
  Se  Se182  1  0.91632680  0.08828537  0.94597063  1
  Se  Se183  1  0.91754587  0.41095604  0.44524066  1
  Se  Se184  1  0.91799685  0.41874793  0.94576114  1
  Se  Se185  1  0.92207317  0.73877765  0.43634137  1
  Se  Se186  1  0.91861608  0.75028602  0.94753274  1
  Se  Se187  1  0.24563033  0.25234860  0.30051063  1
  Se  Se188  1  0.24970095  0.24284440  0.81402287  1
  Se  Se189  1  0.24489990  0.58195662  0.30194586  1
  Se  Se190  1  0.25235695  0.58469047  0.80588140  1
  Se  Se191  1  0.23913124  0.91121148  0.30487152  1
  Se  Se192  1  0.24441868  0.91372411  0.81605623  1
  Se  Se193  1  0.59054171  0.26034955  0.30977145  1
  Se  Se194  1  0.58404302  0.24648178  0.81558682  1
  Se  Se195  1  0.57880686  0.57437957  0.30309889  1
  Se  Se196  1  0.57705675  0.57392609  0.81962417  1
  Se  Se197  1  0.61653084  0.94590580  0.28762997  1
  Se  Se198  1  0.57106125  0.90574002  0.81320013  1
  Se  Se199  1  0.91537152  0.24193127  0.29845537  1
  Se  Se200  1  0.92046956  0.25794655  0.80681371  1
  Se  Se201  1  0.91072729  0.57990517  0.31383037  1
  Se  Se202  1  0.90749147  0.57976143  0.80948241  1
  Se  Se203  1  0.91583544  0.90888172  0.30750254  1
  Se  Se204  1  0.92166108  0.92760836  0.80709754  1
  Se  Se205  1  0.08899147  0.08729836  0.31193812  1
  Se  Se206  1  0.08450775  0.08470733  0.80871325  1
  Se  Se207  1  0.07969871  0.41478996  0.30368482  1
  Se  Se208  1  0.08400135  0.41705532  0.80168305  1
  Se  Se209  1  0.08305502  0.74709393  0.30643534  1
  Se  Se210  1  0.09126593  0.75932156  0.81507819  1
  Se  Se211  1  0.44251732  0.11821426  0.29489186  1
  Se  Se212  1  0.42210645  0.08518331  0.81288166  1
  Se  Se213  1  0.40962670  0.41381164  0.29663266  1
  Se  Se214  1  0.42240805  0.41916972  0.81601420  1
  Se  Se215  1  0.40744960  0.73769586  0.29767173  1
  Se  Se216  1  0.41054780  0.74435787  0.80704644  1
  Se  Se217  1  0.78936986  0.11442100  0.30962874  1
  Se  Se218  1  0.75775514  0.09853361  0.81339356  1
  Se  Se219  1  0.76106952  0.42352398  0.30910952  1
  Se  Se220  1  0.75571849  0.42338618  0.81058273  1
  Se  Se221  1  0.76211803  0.75611204  0.29136092  1
  Se  Se222  1  0.76109251  0.76287561  0.81048630  1
  Se  Se223  1  0.24569596  0.07965312  0.20143882  1
  Se  Se224  1  0.24798604  0.09558253  0.69228111  1
  Se  Se225  1  0.24924953  0.41522964  0.19522728  1
  Se  Se226  1  0.24294791  0.42407394  0.68838426  1
  Se  Se227  1  0.24611393  0.74744643  0.19819264  1
  Se  Se228  1  0.24810882  0.75381441  0.69847820  1
  Se  Se229  1  0.60405109  0.06959445  0.20188728  1
  Se  Se230  1  0.58060277  0.08584748  0.69802640  1
  Se  Se231  1  0.57448959  0.42340349  0.18591599  1
  Se  Se232  1  0.57447859  0.42952317  0.69380085  1
  Se  Se233  1  0.58336922  0.75328399  0.20082410  1
  Se  Se234  1  0.58133592  0.75266525  0.69401830  1
  Se  Se235  1  0.91748210  0.08600503  0.18002524  1
  Se  Se236  1  0.91715879  0.08354236  0.69913105  1
  Se  Se237  1  0.92111158  0.42046627  0.19351648  1
  Se  Se238  1  0.92042789  0.41469513  0.69550014  1
  Se  Se239  1  0.91047561  0.75970165  0.18929343  1
  Se  Se240  1  0.91152664  0.75976609  0.69331209  1
  Se  Se241  1  0.08118434  0.25326997  0.19379285  1
  Se  Se242  1  0.08613056  0.25622723  0.70189248  1
  Se  Se243  1  0.09224488  0.57639561  0.18547535  1
  Se  Se244  1  0.08869993  0.58142654  0.69155436  1
  Se  Se245  1  0.08414873  0.90942334  0.18583962  1
  Se  Se246  1  0.08493397  0.92490646  0.70117280  1
  Se  Se247  1  0.42822643  0.22931495  0.20186416  1
  Se  Se248  1  0.43064789  0.24933705  0.69580639  1
  Se  Se249  1  0.41071822  0.58513651  0.19500117  1
  Se  Se250  1  0.41337892  0.58737711  0.70088344  1
  Se  Se251  1  0.41594714  0.92323864  0.20010259  1
  Se  Se252  1  0.42465354  0.91087395  0.69045312  1
  Se  Se253  1  0.75999697  0.24621059  0.18253585  1
  Se  Se254  1  0.75721813  0.24109322  0.68825386  1
  Se  Se255  1  0.75124721  0.58605763  0.19759880  1
  Se  Se256  1  0.75210339  0.57918342  0.69231879  1
  Se  Se257  1  0.74043571  0.93043732  0.20070032  1
  Se  Se258  1  0.75426172  0.91504316  0.69064372  1
