# generated using pymatgen
data_In86Cu29Se144
_symmetry_space_group_name_H-M   'P 1'
_cell_length_a   17.58703898
_cell_length_b   17.58652318
_cell_length_c   23.45267020
_cell_angle_alpha   89.98922122
_cell_angle_beta   89.99135165
_cell_angle_gamma   90.01024680
_symmetry_Int_Tables_number   1
_chemical_formula_structural   In86Cu29Se144
_chemical_formula_sum   'In86 Cu29 Se144'
_cell_volume   7253.79021936
_cell_formula_units_Z   1
loop_
 _symmetry_equiv_pos_site_id
 _symmetry_equiv_pos_as_xyz
  1  'x, y, z'
loop_
 _atom_site_type_symbol
 _atom_site_label
 _atom_site_symmetry_multiplicity
 _atom_site_fract_x
 _atom_site_fract_y
 _atom_site_fract_z
 _atom_site_occupancy
  In  In0  1  -0.00176511  0.18077089  0.13075046  1
  In  In1  1  0.00556872  0.16379020  0.62478405  1
  In  In2  1  -0.01266445  0.49566932  0.11975513  1
  In  In3  1  -0.00484127  0.48441941  0.62476241  1
  In  In4  1  0.00261263  0.82096801  0.12138036  1
  In  In5  1  0.00473319  0.83846765  0.61684509  1
  In  In6  1  0.33969073  0.15419880  0.12970742  1
  In  In7  1  0.32840221  0.16388970  0.61841202  1
  In  In8  1  0.34714997  0.49473655  0.12885729  1
  In  In9  1  0.34362975  0.50895989  0.62067237  1
  In  In10  1  0.33600916  0.83343920  0.12449633  1
  In  In11  1  0.32666152  0.83863826  0.63134387  1
  In  In12  1  0.66286998  0.17139089  0.11681930  1
  In  In13  1  0.66064201  0.18363994  0.62855383  1
  In  In14  1  0.65485172  0.47858085  0.10526151  1
  In  In15  1  0.65060861  0.50062431  0.63741051  1
  In  In16  1  0.66356368  0.85383828  0.12736644  1
  In  In17  1  0.65624396  0.82237958  0.62421120  1
  In  In18  1  0.17904846  -0.01050143  0.37906758  1
  In  In19  1  0.16402431  -0.01007096  0.87843421  1
  In  In20  1  0.15754185  0.34467897  0.38038160  1
  In  In21  1  0.16641362  0.34176719  0.86811773  1
  In  In22  1  0.18165146  0.65274532  0.38610546  1
  In  In23  1  0.18454500  0.67382392  0.86832450  1
  In  In24  1  0.49898078  0.01291876  0.36454469  1
  In  In25  1  0.48744345  0.01367486  0.87853586  1
  In  In26  1  0.50507961  0.32720670  0.38317559  1
  In  In27  1  0.51253963  0.33068843  0.88251325  1
  In  In28  1  0.48426967  0.66727614  0.37550263  1
  In  In29  1  0.50204392  0.66654477  0.87929587  1
  In  In30  1  0.81767926  0.00348054  0.37272516  1
  In  In31  1  0.83419435  0.01959887  0.88514430  1
  In  In32  1  0.81784646  0.31066233  0.35220592  1
  In  In33  1  0.83115430  0.33374178  0.88169410  1
  In  In34  1  0.84487757  0.66476808  0.37682681  1
  In  In35  1  0.81007182  0.66507011  0.87308091  1
  In  In36  1  -0.00149692  0.18427678  0.37231053  1
  In  In37  1  -0.02012244  0.16978441  0.88217127  1
  In  In38  1  0.00938129  0.49140788  0.37442055  1
  In  In39  1  0.00273871  0.48280373  0.87053441  1
  In  In40  1  0.00696470  0.82797559  0.38401096  1
  In  In41  1  0.00290426  0.85557020  0.88262308  1
  In  In42  1  0.34385705  0.15705916  0.37956115  1
  In  In43  1  0.35556281  0.16343960  0.86979633  1
  In  In44  1  0.32422784  0.50968207  0.38004709  1
  In  In45  1  0.34159657  0.51494576  0.86959737  1
  In  In46  1  0.32677128  0.82249913  0.36916505  1
  In  In47  1  0.33441102  0.83730392  0.87569236  1
  In  In48  1  0.64543087  0.15725308  0.35710207  1
  In  In49  1  0.65098255  0.19453106  0.89873803  1
  In  In50  1  0.66796175  0.48279062  0.37482974  1
  In  In51  1  0.66188389  0.49704519  0.88614013  1
  In  In52  1  0.65791399  0.84767024  0.37703018  1
  In  In53  1  0.66271115  0.81490505  0.87214625  1
  In  In54  1  0.18480271  -0.00068863  0.13026967  1
  In  In55  1  0.17511636  0.00611816  0.61596578  1
  In  In56  1  0.16911231  0.32857547  0.13306812  1
  In  In57  1  0.15837752  0.32523243  0.61589699  1
  In  In58  1  0.16566592  0.67804151  0.12396040  1
  In  In59  1  0.17887630  0.67721561  0.61980427  1
  In  In60  1  0.50285523  0.00221889  0.11881582  1
  In  In61  1  0.48486059  -0.00073335  0.62697139  1
  In  In62  1  0.50916722  0.33353385  0.11703028  1
  In  In63  1  0.50125353  0.33673448  0.61989010  1
  In  In64  1  0.49022630  0.65964965  0.12172224  1
  In  In65  1  0.50220542  0.65010137  0.63921891  1
  In  In66  1  0.81278325  0.00449379  0.13019043  1
  In  In67  1  0.84374426  0.00199699  0.62139568  1
  In  In68  1  0.82580590  0.32722871  0.11918197  1
  In  In69  1  0.82534230  0.33441197  0.63578657  1
  In  In70  1  0.84355709  0.65796377  0.12006336  1
  In  In71  1  0.81503101  0.66389026  0.62482794  1
  In  In72  1  0.83267260  0.16595575  0.49347465  1
  In  In73  1  0.17089341  0.50613661  -0.00772677  1
  In  In74  1  0.66575764  0.66398070  0.24457769  1
  In  In75  1  0.66242866  0.00065251  0.75344284  1
  In  In76  1  0.34032781  0.32955936  0.25139443  1
  In  In77  1  0.00206407  0.00801396  0.75639733  1
  In  In78  1  0.00053480  0.66592491  0.74948560  1
  In  In79  1  0.16671995  0.16086690  0.00875663  1
  In  In80  1  0.34100963  0.33831995  0.74836452  1
  In  In81  1  0.83117920  0.83419555  0.00144691  1
  In  In82  1  -0.00124408  0.00332483  0.24635786  1
  In  In83  1  0.49450598  0.83393020  0.50217805  1
  In  In84  1  0.00709103  0.65773465  0.25100368  1
  In  In85  1  0.83701763  0.49909942  0.49687889  1
  Cu  Cu86  1  0.17209871  0.83741690  0.75076624  1
  Cu  Cu87  1  0.66503631  0.66586326  0.50940532  1
  Cu  Cu88  1  0.66159942  0.33629657  0.50238775  1
  Cu  Cu89  1  0.83067995  0.83277278  0.74896954  1
  Cu  Cu90  1  0.82474916  0.49342585  0.75540144  1
  Cu  Cu91  1  0.00574710  -0.00222528  0.49918542  1
  Cu  Cu92  1  -0.00291685  0.33469593  0.49665080  1
  Cu  Cu93  1  0.49970089  0.49889473  0.24647519  1
  Cu  Cu94  1  0.34472497  0.33316359  -0.00031943  1
  Cu  Cu95  1  0.33547033  -0.00285715  0.00178566  1
  Cu  Cu96  1  0.16953053  0.16725217  0.25523032  1
  Cu  Cu97  1  0.66598035  0.00703318  0.49199415  1
  Cu  Cu98  1  0.33357107  -0.00025997  0.49861590  1
  Cu  Cu99  1  0.16684764  0.49706007  0.74436140  1
  Cu  Cu100  1  0.32986871  0.33293663  0.49867903  1
  Cu  Cu101  1  0.49365895  0.82461208  0.75261176  1
  Cu  Cu102  1  0.82634888  0.18032667  0.75911858  1
  Cu  Cu103  1  0.17714624  0.82947971  0.25153143  1
  Cu  Cu104  1  0.16793374  0.16744470  0.74275097  1
  Cu  Cu105  1  0.49489247  0.84330291  0.24815555  1
  Cu  Cu106  1  -0.00110387  0.33262535  0.00071035  1
  Cu  Cu107  1  0.00289176  0.67062352  -0.00583712  1
  Cu  Cu108  1  0.33619218  0.67255128  -0.00279609  1
  Cu  Cu109  1  0.82971319  0.83595924  0.25450354  1
  Cu  Cu110  1  0.82981766  0.48573485  0.24049489  1
  Cu  Cu111  1  0.66282648  0.00064091  0.00180028  1
  Cu  Cu112  1  0.66220258  0.66672843  0.00088575  1
  Cu  Cu113  1  0.33392026  0.66527039  0.50281752  1
  Cu  Cu114  1  0.00264160  0.67107959  0.49981406  1
  Se  Se115  1  0.07849956  0.07564248  0.07233310  1
  Se  Se116  1  0.08347630  0.08626173  0.55199360  1
  Se  Se117  1  0.08807151  0.41035454  0.05571209  1
  Se  Se118  1  0.08009808  0.41826270  0.54965684  1
  Se  Se119  1  0.08685138  0.75089491  0.04736183  1
  Se  Se120  1  0.08801774  0.75298998  0.55244597  1
  Se  Se121  1  0.41712375  0.08658776  0.05080612  1
  Se  Se122  1  0.41740519  0.08235646  0.55128364  1
  Se  Se123  1  0.42194467  0.42093164  0.05290452  1
  Se  Se124  1  0.41427669  0.41581799  0.55236493  1
  Se  Se125  1  0.41936149  0.75297001  0.05367465  1
  Se  Se126  1  0.41388670  0.74220465  0.56674806  1
  Se  Se127  1  0.75034505  0.08333766  0.05009054  1
  Se  Se128  1  0.74251738  0.08197902  0.56046239  1
  Se  Se129  1  0.77304216  0.43270307  0.05184789  1
  Se  Se130  1  0.74500989  0.41572193  0.56062221  1
  Se  Se131  1  0.74168585  0.74555097  0.06479162  1
  Se  Se132  1  0.74932558  0.75573492  0.55303450  1
  Se  Se133  1  0.26226956  0.25758762  0.06109813  1
  Se  Se134  1  0.24610419  0.24624093  0.54957312  1
  Se  Se135  1  0.25856062  0.58831266  0.05890910  1
  Se  Se136  1  0.24821407  0.58044551  0.55382502  1
  Se  Se137  1  0.25050041  0.91543318  0.05441498  1
  Se  Se138  1  0.25336385  0.91264606  0.55228929  1
  Se  Se139  1  0.59288983  0.26066731  0.04362119  1
  Se  Se140  1  0.57896038  0.24689590  0.55028878  1
  Se  Se141  1  0.57767130  0.58315424  0.05267807  1
  Se  Se142  1  0.58129594  0.58181314  0.56004745  1
  Se  Se143  1  0.57949224  0.91181766  0.04844809  1
  Se  Se144  1  0.58869684  0.92777601  0.55755044  1
  Se  Se145  1  0.91823169  0.24625323  0.05227699  1
  Se  Se146  1  0.91559654  0.25747326  0.55960301  1
  Se  Se147  1  0.92221557  0.58384393  0.04501801  1
  Se  Se148  1  0.92228868  0.59169737  0.56158502  1
  Se  Se149  1  0.91479399  0.92018093  0.06808746  1
  Se  Se150  1  0.91645899  0.91789493  0.54988005  1
  Se  Se151  1  0.08347727  0.24975732  0.44789673  1
  Se  Se152  1  0.08627315  0.25611882  0.94220295  1
  Se  Se153  1  0.07751044  0.58222001  0.44527573  1
  Se  Se154  1  0.07906455  0.59277495  0.92922438  1
  Se  Se155  1  0.09092386  0.91325937  0.44851400  1
  Se  Se156  1  0.08740434  0.92123937  0.95629685  1
  Se  Se157  1  0.41582970  0.24850080  0.44877132  1
  Se  Se158  1  0.42150040  0.24612178  0.94612437  1
  Se  Se159  1  0.41738907  0.58210349  0.44981614  1
  Se  Se160  1  0.41777090  0.58250802  0.94905544  1
  Se  Se161  1  0.41248522  0.92106292  0.43531287  1
  Se  Se162  1  0.41908893  0.91686629  0.94573877  1
  Se  Se163  1  0.73872247  0.25580075  0.43931685  1
  Se  Se164  1  0.78188506  0.22048635  0.94323063  1
  Se  Se165  1  0.74083291  0.59016082  0.44060795  1
  Se  Se166  1  0.75025805  0.58411842  0.95240346  1
  Se  Se167  1  0.74958496  0.91703445  0.44729418  1
  Se  Se168  1  0.74047651  0.92051110  0.93752192  1
  Se  Se169  1  0.24946115  0.08429634  0.44649319  1
  Se  Se170  1  0.25775371  0.08225538  0.94093761  1
  Se  Se171  1  0.24756376  0.42034493  0.44798834  1
  Se  Se172  1  0.26361173  0.41025872  0.93810977  1
  Se  Se173  1  0.25309497  0.75212467  0.44964461  1
  Se  Se174  1  0.24934225  0.75426184  0.94613850  1
  Se  Se175  1  0.57921750  0.08686191  0.44069179  1
  Se  Se176  1  0.57915276  0.08340142  0.94868717  1
  Se  Se177  1  0.57950225  0.42225866  0.45024920  1
  Se  Se178  1  0.59422489  0.40376654  0.95700829  1
  Se  Se179  1  0.58701609  0.74257246  0.44265641  1
  Se  Se180  1  0.58045315  0.75355958  0.95073877  1
  Se  Se181  1  0.92659391  0.07565010  0.43600697  1
  Se  Se182  1  0.94712614  0.05768006  0.94794595  1
  Se  Se183  1  0.91044505  0.40210748  0.43220542  1
  Se  Se184  1  0.91962348  0.41950851  0.94726208  1
  Se  Se185  1  0.91388560  0.75102867  0.44918910  1
  Se  Se186  1  0.91781139  0.74703558  0.93390640  1
  Se  Se187  1  0.24738120  0.24894323  0.31630653  1
  Se  Se188  1  0.24893249  0.24379233  0.80758332  1
  Se  Se189  1  0.25118936  0.58767105  0.30402732  1
  Se  Se190  1  0.24846831  0.57986800  0.79823857  1
  Se  Se191  1  0.25735491  0.91889504  0.30137818  1
  Se  Se192  1  0.25121584  0.92201926  0.80578386  1
  Se  Se193  1  0.58571704  0.26885581  0.30254843  1
  Se  Se194  1  0.57674317  0.23832882  0.81068959  1
  Se  Se195  1  0.57875507  0.57814719  0.31066515  1
  Se  Se196  1  0.59674627  0.59154728  0.81613620  1
  Se  Se197  1  0.58232746  0.92163460  0.30181444  1
  Se  Se198  1  0.57374559  0.90809120  0.81203350  1
  Se  Se199  1  0.92478721  0.25068483  0.29316002  1
  Se  Se200  1  0.91938785  0.25805216  0.80737837  1
  Se  Se201  1  0.90610152  0.56728593  0.30363370  1
  Se  Se202  1  0.90867210  0.57828609  0.81064357  1
  Se  Se203  1  0.91702831  0.90979267  0.31273433  1
  Se  Se204  1  0.90320535  0.91641047  0.80949917  1
  Se  Se205  1  0.08914737  0.08374151  0.31361958  1
  Se  Se206  1  0.09162270  0.09841704  0.81506326  1
  Se  Se207  1  0.08214836  0.41291202  0.30087282  1
  Se  Se208  1  0.08274974  0.41222311  0.79403557  1
  Se  Se209  1  0.09389581  0.75034283  0.31101708  1
  Se  Se210  1  0.08322929  0.76440037  0.80981304  1
  Se  Se211  1  0.41434018  0.09161519  0.29710623  1
  Se  Se212  1  0.41480300  0.07528900  0.79497693  1
  Se  Se213  1  0.42148182  0.42497131  0.31372223  1
  Se  Se214  1  0.43058647  0.42193074  0.81164919  1
  Se  Se215  1  0.41879943  0.75132838  0.29972147  1
  Se  Se216  1  0.41238973  0.74495245  0.81048778  1
  Se  Se217  1  0.76398163  0.10437787  0.30667922  1
  Se  Se218  1  0.74754555  0.09355500  0.81379439  1
  Se  Se219  1  0.74058745  0.41172912  0.29543886  1
  Se  Se220  1  0.74529337  0.41473911  0.81453043  1
  Se  Se221  1  0.75134726  0.75143295  0.31274664  1
  Se  Se222  1  0.74472366  0.74641449  0.79510021  1
  Se  Se223  1  0.25418309  0.08441323  0.20367988  1
  Se  Se224  1  0.25013753  0.08209756  0.69231508  1
  Se  Se225  1  0.24744653  0.42465697  0.19612945  1
  Se  Se226  1  0.24530474  0.41613878  0.68337366  1
  Se  Se227  1  0.25546479  0.74642885  0.19448110  1
  Se  Se228  1  0.25130764  0.74774806  0.70037088  1
  Se  Se229  1  0.60020946  0.06997886  0.18377764  1
  Se  Se230  1  0.57577338  0.08744571  0.69026684  1
  Se  Se231  1  0.58247213  0.41874136  0.19096735  1
  Se  Se232  1  0.58907994  0.39565720  0.69689419  1
  Se  Se233  1  0.57533331  0.75891180  0.18937929  1
  Se  Se234  1  0.58223901  0.74675318  0.69941993  1
  Se  Se235  1  0.90467526  0.09282686  0.19306595  1
  Se  Se236  1  0.90435565  0.09737597  0.69776538  1
  Se  Se237  1  0.91738705  0.40660224  0.18914928  1
  Se  Se238  1  0.91319551  0.41654889  0.70086928  1
  Se  Se239  1  0.90886686  0.75304715  0.19682022  1
  Se  Se240  1  0.91269931  0.75699663  0.68742846  1
  Se  Se241  1  0.08660804  0.25042060  0.20296014  1
  Se  Se242  1  0.08123399  0.25054567  0.69414056  1
  Se  Se243  1  0.08928406  0.57253433  0.18336390  1
  Se  Se244  1  0.08710609  0.57946768  0.68486442  1
  Se  Se245  1  0.08929303  0.90387214  0.19299370  1
  Se  Se246  1  0.08819774  0.91773649  0.69234402  1
  Se  Se247  1  0.43070396  0.24402648  0.18987852  1
  Se  Se248  1  0.42001203  0.24203763  0.68764002  1
  Se  Se249  1  0.41475581  0.58627241  0.20016572  1
  Se  Se250  1  0.41126075  0.57472164  0.70420127  1
  Se  Se251  1  0.41548158  0.92387954  0.18991588  1
  Se  Se252  1  0.41567824  0.91372793  0.70025199  1
  Se  Se253  1  0.73837890  0.25571165  0.18951265  1
  Se  Se254  1  0.73943867  0.25659561  0.70446418  1
  Se  Se255  1  0.75312724  0.57372558  0.18403408  1
  Se  Se256  1  0.74804848  0.57900242  0.69831532  1
  Se  Se257  1  0.74445887  0.92007686  0.20574814  1
  Se  Se258  1  0.75357006  0.91492807  0.68740496  1
