# generated using pymatgen
data_In86Cu29Se144
_symmetry_space_group_name_H-M   'P 1'
_cell_length_a   17.58549273
_cell_length_b   17.58249184
_cell_length_c   23.44103841
_cell_angle_alpha   89.96964386
_cell_angle_beta   89.99541080
_cell_angle_gamma   90.03192319
_symmetry_Int_Tables_number   1
_chemical_formula_structural   In86Cu29Se144
_chemical_formula_sum   'In86 Cu29 Se144'
_cell_volume   7247.89148552
_cell_formula_units_Z   1
loop_
 _symmetry_equiv_pos_site_id
 _symmetry_equiv_pos_as_xyz
  1  'x, y, z'
loop_
 _atom_site_type_symbol
 _atom_site_label
 _atom_site_symmetry_multiplicity
 _atom_site_fract_x
 _atom_site_fract_y
 _atom_site_fract_z
 _atom_site_occupancy
  In  In0  1  0.00756701  0.16195234  0.13317699  1
  In  In1  1  -0.00524012  0.17227157  0.62547698  1
  In  In2  1  -0.00112244  0.48757014  0.12823574  1
  In  In3  1  0.00953501  0.48282705  0.61823226  1
  In  In4  1  0.00965813  0.84600354  0.11299865  1
  In  In5  1  0.01050881  0.84240431  0.61652300  1
  In  In6  1  0.33074313  0.14000795  0.11870551  1
  In  In7  1  0.35148595  0.15863497  0.64435061  1
  In  In8  1  0.34095902  0.51180505  0.12031537  1
  In  In9  1  0.32721965  0.49721210  0.62048776  1
  In  In10  1  0.32782158  0.82903880  0.12845742  1
  In  In11  1  0.33822303  0.83721230  0.62112744  1
  In  In12  1  0.65207818  0.17189655  0.12179130  1
  In  In13  1  0.66293695  0.14256939  0.63068381  1
  In  In14  1  0.66418459  0.51376989  0.13025457  1
  In  In15  1  0.66231936  0.51991707  0.61842172  1
  In  In16  1  0.65736964  0.82557498  0.12139739  1
  In  In17  1  0.67052056  0.84098054  0.61956971  1
  In  In18  1  0.16233164  -0.00866366  0.37045862  1
  In  In19  1  0.16347738  -0.00685535  0.87237027  1
  In  In20  1  0.16305829  0.34705503  0.37966919  1
  In  In21  1  0.17585098  0.33302396  0.86899538  1
  In  In22  1  0.17245898  0.65757936  0.38227439  1
  In  In23  1  0.16701906  0.67061089  0.88339464  1
  In  In24  1  0.48371483  -0.00783749  0.36975261  1
  In  In25  1  0.50118288  -0.00430094  0.86999187  1
  In  In26  1  0.51096679  0.33219407  0.37703336  1
  In  In27  1  0.48829719  0.34734507  0.87908459  1
  In  In28  1  0.50061605  0.67145024  0.37230564  1
  In  In29  1  0.49032909  0.67687491  0.88228755  1
  In  In30  1  0.83917758  -0.01353964  0.38333624  1
  In  In31  1  0.82960518  0.00101619  0.86978981  1
  In  In32  1  0.83757787  0.31837973  0.38272030  1
  In  In33  1  0.83688416  0.32282203  0.86828713  1
  In  In34  1  0.83756063  0.68444748  0.37837453  1
  In  In35  1  0.84491871  0.67621209  0.87284754  1
  In  In36  1  -0.00338201  0.15730478  0.37239363  1
  In  In37  1  -0.00156424  0.16259057  0.86488158  1
  In  In38  1  0.01628657  0.50238196  0.37851200  1
  In  In39  1  0.01533645  0.49654865  0.87522813  1
  In  In40  1  -0.00874017  0.83724597  0.38576503  1
  In  In41  1  -0.00874882  0.85125356  0.89102631  1
  In  In42  1  0.34138440  0.15367059  0.37243997  1
  In  In43  1  0.34356241  0.16631826  0.86546166  1
  In  In44  1  0.32274984  0.50927091  0.37997824  1
  In  In45  1  0.33181798  0.50060489  0.88067944  1
  In  In46  1  0.33599874  0.83128093  0.37395442  1
  In  In47  1  0.33463332  0.84351947  0.87888074  1
  In  In48  1  0.67155765  0.17382989  0.37901224  1
  In  In49  1  0.66512103  0.15157319  0.86705805  1
  In  In50  1  0.65149705  0.50223616  0.38002677  1
  In  In51  1  0.65623471  0.49737865  0.87400379  1
  In  In52  1  0.67277374  0.82152276  0.38507432  1
  In  In53  1  0.64899369  0.85606531  0.88557759  1
  In  In54  1  0.17160129  -0.00859781  0.12773276  1
  In  In55  1  0.17671740  -0.01099490  0.63264782  1
  In  In56  1  0.15230476  0.33336094  0.12403451  1
  In  In57  1  0.16630384  0.33564909  0.62854238  1
  In  In58  1  0.17698661  0.67947601  0.12120223  1
  In  In59  1  0.16620126  0.67038383  0.60751621  1
  In  In60  1  0.45727266  -0.03487353  0.08716634  1
  In  In61  1  0.51312659  -0.01494199  0.65459827  1
  In  In62  1  0.49037424  0.32992469  0.11450421  1
  In  In63  1  0.48696128  0.33310733  0.62961812  1
  In  In64  1  0.49843836  0.66752692  0.12860547  1
  In  In65  1  0.51164023  0.67210140  0.61007006  1
  In  In66  1  0.84929984  -0.00308507  0.12299568  1
  In  In67  1  0.83518710  0.00063283  0.62401163  1
  In  In68  1  0.83676831  0.33910704  0.12925752  1
  In  In69  1  0.85786333  0.33056073  0.61862812  1
  In  In70  1  0.81940597  0.66922915  0.13292910  1
  In  In71  1  0.83055669  0.68439525  0.61312802  1
  In  In72  1  0.66225993  -0.00009152  0.24503617  1
  In  In73  1  0.50213168  0.16028294  0.50766495  1
  In  In74  1  0.83542020  0.50378160  0.49970868  1
  In  In75  1  0.32577447  0.33203873  0.25327138  1
  In  In76  1  0.00232602  0.67151762  0.25416691  1
  In  In77  1  0.82978862  0.50593260  0.00766381  1
  In  In78  1  0.66945478  0.67813020  0.74308919  1
  In  In79  1  0.33531361  0.67227079  0.75284250  1
  In  In80  1  0.66858011  0.33500971  0.25095723  1
  In  In81  1  0.83153228  0.16364719  -0.00768710  1
  In  In82  1  0.66791397  0.33192786  0.74439013  1
  In  In83  1  0.00463525  0.66872813  0.74160442  1
  In  In84  1  0.16682367  0.17123111  0.50672140  1
  In  In85  1  0.17108212  0.16072652  -0.00340667  1
  Cu  Cu86  1  0.33447708  0.66643987  0.00337527  1
  Cu  Cu87  1  0.84113230  0.16467861  0.74496795  1
  Cu  Cu88  1  0.16715946  0.16314211  0.74926593  1
  Cu  Cu89  1  0.66551853  0.66564228  0.00378381  1
  Cu  Cu90  1  0.00302531  0.67076397  0.00040863  1
  Cu  Cu91  1  0.49275265  0.15452996  0.24197966  1
  Cu  Cu92  1  0.17002752  0.83604108  0.25098839  1
  Cu  Cu93  1  0.83171344  0.84524498  0.75138804  1
  Cu  Cu94  1  0.32515295  0.33641734  -0.00342562  1
  Cu  Cu95  1  0.65283152  0.33639562  -0.00350653  1
  Cu  Cu96  1  0.33083231  -0.00888931  0.50393971  1
  Cu  Cu97  1  0.84266410  0.49516694  0.74088713  1
  Cu  Cu98  1  0.33544903  0.33407812  0.50531246  1
  Cu  Cu99  1  0.83666438  0.83725279  0.25569649  1
  Cu  Cu100  1  0.33917673  0.66815734  0.49574060  1
  Cu  Cu101  1  0.66473460  -0.00179301  0.50312297  1
  Cu  Cu102  1  0.83415144  0.49805109  0.25208849  1
  Cu  Cu103  1  0.00018802  0.33434794  -0.00009263  1
  Cu  Cu104  1  0.66857830  0.00085471  -0.00434736  1
  Cu  Cu105  1  0.83999853  0.16057473  0.25376735  1
  Cu  Cu106  1  0.49212172  0.50594271  0.75118807  1
  Cu  Cu107  1  0.49608029  0.50421134  0.25163169  1
  Cu  Cu108  1  0.16781651  0.50377216  0.25368372  1
  Cu  Cu109  1  -0.00335977  0.00112414  0.49989721  1
  Cu  Cu110  1  0.49777370  0.83013962  0.24531928  1
  Cu  Cu111  1  0.16836095  0.48928409  0.74767585  1
  Cu  Cu112  1  0.66904114  0.33363235  0.50277321  1
  Cu  Cu113  1  0.15951251  0.16564671  0.24977711  1
  Cu  Cu114  1  0.16191549  0.83091954  0.75220184  1
  Se  Se115  1  0.07850470  0.07610521  0.05836558  1
  Se  Se116  1  0.08207362  0.07287507  0.56293377  1
  Se  Se117  1  0.08175707  0.42056142  0.05105651  1
  Se  Se118  1  0.09894957  0.41301399  0.54960504  1
  Se  Se119  1  0.09006824  0.75397556  0.05095316  1
  Se  Se120  1  0.07233999  0.74679920  0.54715589  1
  Se  Se121  1  0.43218746  0.09967795  0.04721187  1
  Se  Se122  1  0.41226577  0.06994171  0.56450861  1
  Se  Se123  1  0.41039071  0.41907788  0.05062077  1
  Se  Se124  1  0.42086152  0.41879071  0.55495520  1
  Se  Se125  1  0.41581184  0.74901694  0.05922700  1
  Se  Se126  1  0.41687353  0.75357140  0.55136146  1
  Se  Se127  1  0.74440495  0.08026151  0.06075679  1
  Se  Se128  1  0.74913612  0.08291996  0.55399894  1
  Se  Se129  1  0.73606799  0.40827516  0.06085755  1
  Se  Se130  1  0.74784465  0.41321692  0.56491544  1
  Se  Se131  1  0.75100330  0.74829304  0.05540606  1
  Se  Se132  1  0.72338430  0.73703869  0.55168236  1
  Se  Se133  1  0.25418102  0.25396706  0.06247858  1
  Se  Se134  1  0.26826419  0.24644250  0.56752807  1
  Se  Se135  1  0.24637190  0.58360200  0.05369451  1
  Se  Se136  1  0.25489747  0.58333716  0.54834345  1
  Se  Se137  1  0.26999930  0.93169428  0.05938058  1
  Se  Se138  1  0.24250445  0.90871605  0.55339330  1
  Se  Se139  1  0.57433916  0.24710735  0.04715436  1
  Se  Se140  1  0.59089292  0.25417708  0.56681953  1
  Se  Se141  1  0.58082165  0.58364590  0.05677772  1
  Se  Se142  1  0.57912822  0.57893871  0.54156641  1
  Se  Se143  1  0.58851304  0.91577840  0.05053215  1
  Se  Se144  1  0.57572965  0.92897854  0.56308962  1
  Se  Se145  1  0.92026584  0.25252777  0.05903620  1
  Se  Se146  1  0.92309142  0.24421925  0.54590803  1
  Se  Se147  1  0.92426647  0.59419440  0.06583672  1
  Se  Se148  1  0.92532535  0.58779850  0.56361348  1
  Se  Se149  1  0.91143704  0.91270711  0.04765207  1
  Se  Se150  1  0.91288365  0.91585717  0.55297865  1
  Se  Se151  1  0.07835048  0.25203783  0.44044611  1
  Se  Se152  1  0.07630085  0.25197287  0.93916629  1
  Se  Se153  1  0.08192875  0.58703708  0.45161669  1
  Se  Se154  1  0.08246204  0.58337015  0.94813869  1
  Se  Se155  1  0.08400025  0.92040824  0.44759851  1
  Se  Se156  1  0.09890284  0.90995923  0.95009610  1
  Se  Se157  1  0.41217196  0.25176308  0.44306203  1
  Se  Se158  1  0.40809538  0.25491576  0.94189271  1
  Se  Se159  1  0.42013342  0.58296518  0.44142764  1
  Se  Se160  1  0.41632558  0.58358067  0.94746181  1
  Se  Se161  1  0.41658428  0.91371232  0.44760217  1
  Se  Se162  1  0.43321854  0.90887931  0.94494013  1
  Se  Se163  1  0.75092278  0.24566168  0.45456907  1
  Se  Se164  1  0.73729641  0.25878550  0.93818205  1
  Se  Se165  1  0.74549149  0.59064732  0.43909922  1
  Se  Se166  1  0.74533564  0.59086742  0.93759806  1
  Se  Se167  1  0.74869031  0.91336061  0.45118104  1
  Se  Se168  1  0.75698203  0.91942247  0.94541079  1
  Se  Se169  1  0.25466637  0.07748971  0.44509821  1
  Se  Se170  1  0.26148524  0.07647840  0.93586843  1
  Se  Se171  1  0.25363656  0.41547552  0.44937625  1
  Se  Se172  1  0.24046753  0.41920114  0.94515171  1
  Se  Se173  1  0.25264581  0.75099091  0.44436025  1
  Se  Se174  1  0.25713912  0.75146128  0.94571036  1
  Se  Se175  1  0.58600214  0.07426684  0.43717603  1
  Se  Se176  1  0.58431416  0.08157040  0.94154448  1
  Se  Se177  1  0.58137746  0.41326799  0.45198787  1
  Se  Se178  1  0.57417684  0.42829824  0.94863592  1
  Se  Se179  1  0.56478539  0.76447836  0.44416802  1
  Se  Se180  1  0.58588640  0.74937914  0.94675557  1
  Se  Se181  1  0.91362280  0.08378376  0.44632981  1
  Se  Se182  1  0.92844876  0.07534677  0.94089958  1
  Se  Se183  1  0.92528836  0.41178439  0.44279717  1
  Se  Se184  1  0.91367049  0.41299471  0.94241387  1
  Se  Se185  1  0.91899147  0.74778098  0.45491724  1
  Se  Se186  1  0.91419928  0.75151652  0.95084642  1
  Se  Se187  1  0.23908054  0.24001570  0.31556094  1
  Se  Se188  1  0.25210896  0.24689038  0.80107181  1
  Se  Se189  1  0.25164656  0.58843220  0.30308016  1
  Se  Se190  1  0.23936639  0.57969674  0.80693176  1
  Se  Se191  1  0.25577058  0.91858723  0.30410309  1
  Se  Se192  1  0.24936849  0.91210126  0.80362342  1
  Se  Se193  1  0.57364463  0.23464030  0.30210643  1
  Se  Se194  1  0.58155304  0.25764114  0.81493307  1
  Se  Se195  1  0.58354801  0.58391202  0.30375152  1
  Se  Se196  1  0.57632734  0.58848150  0.80602939  1
  Se  Se197  1  0.57913497  0.90819309  0.30833718  1
  Se  Se198  1  0.59197906  0.92159571  0.79912750  1
  Se  Se199  1  0.91790237  0.24992629  0.30564808  1
  Se  Se200  1  0.92198256  0.25211753  0.79652483  1
  Se  Se201  1  0.91247166  0.57893756  0.31373805  1
  Se  Se202  1  0.91684050  0.57581469  0.80592991  1
  Se  Se203  1  0.92228511  0.91804448  0.30717187  1
  Se  Se204  1  0.92186349  0.91857029  0.80663442  1
  Se  Se205  1  0.08088606  0.07767076  0.30365203  1
  Se  Se206  1  0.08470591  0.07825027  0.80196999  1
  Se  Se207  1  0.08365638  0.41775396  0.30219453  1
  Se  Se208  1  0.08256825  0.40996000  0.80222180  1
  Se  Se209  1  0.09092494  0.75894056  0.31562459  1
  Se  Se210  1  0.08079756  0.75436255  0.81344178  1
  Se  Se211  1  0.40862670  0.07318488  0.29535921  1
  Se  Se212  1  0.42177167  0.07878803  0.79929345  1
  Se  Se213  1  0.42193613  0.41845031  0.31188782  1
  Se  Se214  1  0.40916641  0.42435253  0.80439477  1
  Se  Se215  1  0.41443159  0.74875568  0.30129029  1
  Se  Se216  1  0.42757073  0.76538721  0.80501588  1
  Se  Se217  1  0.75318998  0.08462671  0.31119583  1
  Se  Se218  1  0.75368576  0.08337875  0.79598609  1
  Se  Se219  1  0.75568372  0.41991810  0.31678760  1
  Se  Se220  1  0.75782693  0.42670023  0.80589386  1
  Se  Se221  1  0.75067933  0.75305741  0.30476865  1
  Se  Se222  1  0.75388849  0.76236723  0.81128439  1
  Se  Se223  1  0.24483257  0.08371408  0.19751787  1
  Se  Se224  1  0.25238118  0.07810450  0.70040549  1
  Se  Se225  1  0.24363314  0.42331961  0.18895681  1
  Se  Se226  1  0.25813279  0.41253998  0.69566560  1
  Se  Se227  1  0.25082504  0.74667302  0.20205593  1
  Se  Se228  1  0.23857919  0.75076220  0.68944033  1
  Se  Se229  1  0.56906276  0.07630165  0.18031261  1
  Se  Se230  1  0.56271225  0.10619783  0.70459884  1
  Se  Se231  1  0.57109217  0.41774805  0.19092665  1
  Se  Se232  1  0.58031224  0.43323325  0.69106191  1
  Se  Se233  1  0.58660590  0.74610826  0.19813801  1
  Se  Se234  1  0.57166336  0.76233714  0.68885953  1
  Se  Se235  1  0.92077498  0.07829661  0.19808165  1
  Se  Se236  1  0.92309901  0.07868899  0.69319864  1
  Se  Se237  1  0.91780929  0.41279917  0.20284672  1
  Se  Se238  1  0.92896138  0.41125341  0.69476873  1
  Se  Se239  1  0.91542304  0.75933779  0.19047340  1
  Se  Se240  1  0.90868527  0.76231035  0.69060566  1
  Se  Se241  1  0.07944122  0.25541484  0.20053522  1
  Se  Se242  1  0.08621283  0.24643342  0.69362874  1
  Se  Se243  1  0.08759085  0.58162908  0.18984188  1
  Se  Se244  1  0.09657203  0.57615714  0.68607525  1
  Se  Se245  1  0.08258618  0.91288305  0.19561486  1
  Se  Se246  1  0.07960029  0.91469600  0.69768033  1
  Se  Se247  1  0.41270384  0.24378852  0.18916717  1
  Se  Se248  1  0.42109862  0.25708784  0.70770187  1
  Se  Se249  1  0.41253115  0.58666027  0.19860078  1
  Se  Se250  1  0.42194389  0.58751124  0.68529963  1
  Se  Se251  1  0.42098754  0.91615525  0.18880862  1
  Se  Se252  1  0.39502637  0.92332377  0.69917580  1
  Se  Se253  1  0.75670957  0.23712790  0.19221266  1
  Se  Se254  1  0.76026111  0.24494655  0.68396227  1
  Se  Se255  1  0.74739183  0.58275881  0.20522198  1
  Se  Se256  1  0.76459466  0.58303776  0.68860610  1
  Se  Se257  1  0.75716228  0.91022787  0.18912114  1
  Se  Se258  1  0.74711586  0.92166061  0.69354970  1
