# generated using pymatgen
data_In86Cu29Se144
_symmetry_space_group_name_H-M   'P 1'
_cell_length_a   17.57385580
_cell_length_b   17.57615829
_cell_length_c   23.44119122
_cell_angle_alpha   89.99126481
_cell_angle_beta   90.00998290
_cell_angle_gamma   90.00711159
_symmetry_Int_Tables_number   1
_chemical_formula_structural   In86Cu29Se144
_chemical_formula_sum   'In86 Cu29 Se144'
_cell_volume   7240.53531967
_cell_formula_units_Z   1
loop_
 _symmetry_equiv_pos_site_id
 _symmetry_equiv_pos_as_xyz
  1  'x, y, z'
loop_
 _atom_site_type_symbol
 _atom_site_label
 _atom_site_symmetry_multiplicity
 _atom_site_fract_x
 _atom_site_fract_y
 _atom_site_fract_z
 _atom_site_occupancy
  In  In0  1  -0.00224193  0.16230333  0.12897656  1
  In  In1  1  -0.00743665  0.15931276  0.61746940  1
  In  In2  1  -0.00534304  0.50388292  0.13415884  1
  In  In3  1  -0.00366519  0.51478162  0.62227181  1
  In  In4  1  0.01133346  0.82861142  0.12977871  1
  In  In5  1  0.00434760  0.82902085  0.62783231  1
  In  In6  1  0.32726452  0.17085151  0.12927256  1
  In  In7  1  0.33535584  0.16699249  0.61548260  1
  In  In8  1  0.33640522  0.48693421  0.12631896  1
  In  In9  1  0.34509060  0.50249414  0.62876354  1
  In  In10  1  0.34010364  0.84667565  0.11526895  1
  In  In11  1  0.31805850  0.83304536  0.62117569  1
  In  In12  1  0.68609430  0.15984759  0.12396621  1
  In  In13  1  0.66921125  0.16738733  0.62583690  1
  In  In14  1  0.66252312  0.50739259  0.12916852  1
  In  In15  1  0.66370686  0.48959118  0.62216529  1
  In  In16  1  0.65353474  0.83600790  0.12582048  1
  In  In17  1  0.68326977  0.83973327  0.62798507  1
  In  In18  1  0.16433024  0.00012513  0.37192378  1
  In  In19  1  0.16519356  0.00645887  0.88775185  1
  In  In20  1  0.15528343  0.32011038  0.36658463  1
  In  In21  1  0.15743392  0.32228413  0.87870058  1
  In  In22  1  0.16885647  0.68890130  0.38170303  1
  In  In23  1  0.16915481  0.67791130  0.86969267  1
  In  In24  1  0.50418618  0.01675055  0.37244433  1
  In  In25  1  0.49708786  -0.00633437  0.87400706  1
  In  In26  1  0.49116577  0.32499073  0.36628577  1
  In  In27  1  0.51994410  0.32674566  0.87740569  1
  In  In28  1  0.50632727  0.65611250  0.37637760  1
  In  In29  1  0.48833377  0.67835858  0.88444379  1
  In  In30  1  0.84995182  -0.00124398  0.37286065  1
  In  In31  1  0.84194002  0.00969096  0.87177365  1
  In  In32  1  0.83142835  0.33122611  0.37711890  1
  In  In33  1  0.82230090  0.33424936  0.87053927  1
  In  In34  1  0.82192147  0.65466655  0.36746251  1
  In  In35  1  0.84092409  0.65127160  0.86646314  1
  In  In36  1  0.00044174  0.16419006  0.37645763  1
  In  In37  1  0.01075189  0.15426351  0.88390721  1
  In  In38  1  -0.00874007  0.48783929  0.37067738  1
  In  In39  1  -0.01509963  0.50881621  0.87005522  1
  In  In40  1  0.00355580  0.84627363  0.36247174  1
  In  In41  1  0.00607506  0.84135973  0.87225669  1
  In  In42  1  0.33133993  0.16292495  0.37015928  1
  In  In43  1  0.33019945  0.14827254  0.88069809  1
  In  In44  1  0.34454087  0.49587974  0.37458611  1
  In  In45  1  0.32832442  0.51533003  0.87738328  1
  In  In46  1  0.30800349  0.83247220  0.37810613  1
  In  In47  1  0.33861195  0.83386363  0.88437319  1
  In  In48  1  0.65525512  0.17599050  0.38027725  1
  In  In49  1  0.67101195  0.17845355  0.86564952  1
  In  In50  1  0.68009126  0.50729777  0.37009370  1
  In  In51  1  0.66705434  0.48236221  0.87367193  1
  In  In52  1  0.68050842  0.82430341  0.36875775  1
  In  In53  1  0.65198787  0.83588367  0.87669802  1
  In  In54  1  0.16836907  -0.00128513  0.12558113  1
  In  In55  1  0.16246120  -0.00879809  0.61904389  1
  In  In56  1  0.17082260  0.32346226  0.13582879  1
  In  In57  1  0.17501225  0.32342207  0.62001130  1
  In  In58  1  0.15390462  0.67355017  0.12772567  1
  In  In59  1  0.16155325  0.67564237  0.62524140  1
  In  In60  1  0.50344114  -0.01532180  0.11912666  1
  In  In61  1  0.50247598  0.01459480  0.62826144  1
  In  In62  1  0.49616930  0.33878475  0.12876142  1
  In  In63  1  0.51372591  0.33312623  0.62784271  1
  In  In64  1  0.50614063  0.67373678  0.11922697  1
  In  In65  1  0.49882514  0.65505701  0.62976340  1
  In  In66  1  0.82328021  0.01559307  0.12559670  1
  In  In67  1  0.82689107  0.00902884  0.63340994  1
  In  In68  1  0.84244122  0.32332469  0.13457209  1
  In  In69  1  0.82579695  0.32570241  0.61529922  1
  In  In70  1  0.83557068  0.67256836  0.13962111  1
  In  In71  1  0.84177556  0.67090811  0.61896842  1
  In  In72  1  0.83087201  0.49504531  -0.00425406  1
  In  In73  1  0.16567976  0.49985038  0.00789684  1
  In  In74  1  0.50297677  0.49577091  0.50003120  1
  In  In75  1  0.16523344  0.49764200  0.50273452  1
  In  In76  1  -0.00238295  0.33793572  0.74692380  1
  In  In77  1  0.49770908  0.83525147  0.49828361  1
  In  In78  1  0.84038831  0.83412632  0.49474964  1
  In  In79  1  0.33494553  -0.00176470  0.75753761  1
  In  In80  1  0.33919091  0.33566167  0.74621967  1
  In  In81  1  0.66777911  -0.00274235  0.24649506  1
  In  In82  1  0.66858918  0.66943594  0.74949595  1
  In  In83  1  0.33311169  0.66546614  0.25669414  1
  In  In84  1  0.50053408  0.16377874  -0.00178068  1
  In  In85  1  0.82963333  0.83688871  0.00112624  1
  Cu  Cu86  1  0.83278163  0.49272280  0.25249041  1
  Cu  Cu87  1  0.16257724  0.51187180  0.74949372  1
  Cu  Cu88  1  0.16122140  0.83235287  0.74811476  1
  Cu  Cu89  1  0.65723746  0.66567962  0.00188959  1
  Cu  Cu90  1  0.33224578  0.32201044  0.49251199  1
  Cu  Cu91  1  -0.00369799  0.32939682  0.49307221  1
  Cu  Cu92  1  -0.00039123  0.66964071  0.00177187  1
  Cu  Cu93  1  0.33015668  0.00420863  0.49598457  1
  Cu  Cu94  1  0.49537368  0.82995586  0.24584565  1
  Cu  Cu95  1  0.83887433  0.84025682  0.75157966  1
  Cu  Cu96  1  0.16462585  0.49913051  0.25031235  1
  Cu  Cu97  1  0.49268818  0.83296210  0.75519285  1
  Cu  Cu98  1  0.16601808  0.15817464  0.75338394  1
  Cu  Cu99  1  0.83417081  0.16772742  0.25474812  1
  Cu  Cu100  1  0.49943026  0.50514703  0.75535855  1
  Cu  Cu101  1  -0.00152308  0.31947797  0.00612946  1
  Cu  Cu102  1  0.83703004  0.17000345  0.74570522  1
  Cu  Cu103  1  0.00077533  0.66985427  0.49776423  1
  Cu  Cu104  1  0.49662091  0.16902599  0.24754320  1
  Cu  Cu105  1  0.50556046  0.49705584  0.25131964  1
  Cu  Cu106  1  0.00596750  0.00022187  0.49699535  1
  Cu  Cu107  1  0.67033094  0.01001174  0.50273793  1
  Cu  Cu108  1  0.16904317  0.84062138  0.24817313  1
  Cu  Cu109  1  0.33622173  0.66966129  0.00067274  1
  Cu  Cu110  1  0.66647704  0.32968155  0.49814404  1
  Cu  Cu111  1  0.16266771  0.16281394  0.25082045  1
  Cu  Cu112  1  0.33285883  0.33165635  0.00633492  1
  Cu  Cu113  1  0.66885837  0.33081791  -0.00020940  1
  Cu  Cu114  1  -0.00063359  0.00147637  0.00368394  1
  Se  Se115  1  0.08253402  0.08423663  0.05859363  1
  Se  Se116  1  0.08709913  0.08407315  0.55277955  1
  Se  Se117  1  0.07309878  0.40873401  0.06437459  1
  Se  Se118  1  0.07252865  0.40578876  0.56089150  1
  Se  Se119  1  0.08519613  0.75342799  0.05022102  1
  Se  Se120  1  0.08248715  0.75408916  0.55131442  1
  Se  Se121  1  0.41166587  0.07968480  0.06169002  1
  Se  Se122  1  0.41862591  0.07964367  0.55097082  1
  Se  Se123  1  0.42012910  0.41686954  0.05175549  1
  Se  Se124  1  0.40846200  0.40207916  0.55725808  1
  Se  Se125  1  0.42075933  0.75458619  0.05220878  1
  Se  Se126  1  0.41438236  0.74381798  0.56204677  1
  Se  Se127  1  0.74668504  0.07844969  0.04535461  1
  Se  Se128  1  0.75733727  0.08859937  0.55590332  1
  Se  Se129  1  0.74834923  0.40915117  0.06323629  1
  Se  Se130  1  0.74761768  0.41742255  0.54896271  1
  Se  Se131  1  0.74556585  0.73887745  0.06089051  1
  Se  Se132  1  0.74368152  0.74738949  0.55263007  1
  Se  Se133  1  0.24628067  0.25153861  0.05698009  1
  Se  Se134  1  0.24608032  0.24157329  0.54608740  1
  Se  Se135  1  0.25804509  0.59245167  0.06536198  1
  Se  Se136  1  0.25653623  0.58533066  0.56230863  1
  Se  Se137  1  0.23216876  0.90265734  0.05555198  1
  Se  Se138  1  0.24831042  0.91677000  0.54702835  1
  Se  Se139  1  0.58942979  0.25175263  0.06210871  1
  Se  Se140  1  0.58397652  0.24874998  0.55463140  1
  Se  Se141  1  0.57872614  0.57688723  0.05384163  1
  Se  Se142  1  0.59188890  0.59195921  0.55583966  1
  Se  Se143  1  0.59493108  0.92028384  0.04862863  1
  Se  Se144  1  0.59284339  0.92210079  0.55905827  1
  Se  Se145  1  0.91006028  0.24124292  0.05791361  1
  Se  Se146  1  0.91492792  0.24634444  0.54970055  1
  Se  Se147  1  0.91670653  0.58867188  0.05783283  1
  Se  Se148  1  0.91478592  0.58518867  0.54615874  1
  Se  Se149  1  0.92040212  0.92064852  0.06460058  1
  Se  Se150  1  0.92136927  0.92501708  0.56054002  1
  Se  Se151  1  0.08523059  0.24646511  0.44653860  1
  Se  Se152  1  0.08833160  0.24188054  0.95407585  1
  Se  Se153  1  0.07945185  0.58578620  0.43746116  1
  Se  Se154  1  0.07739754  0.58525173  0.94141474  1
  Se  Se155  1  0.08307872  0.91358812  0.44151402  1
  Se  Se156  1  0.08001910  0.91575152  0.94979957  1
  Se  Se157  1  0.41949602  0.24207156  0.44068470  1
  Se  Se158  1  0.40937571  0.25732733  0.93810525  1
  Se  Se159  1  0.40728573  0.59144720  0.44778822  1
  Se  Se160  1  0.41697248  0.58091614  0.95049693  1
  Se  Se161  1  0.41134460  0.92464614  0.43483180  1
  Se  Se162  1  0.40425423  0.93590969  0.94609965  1
  Se  Se163  1  0.75155890  0.24517648  0.44692332  1
  Se  Se164  1  0.75121632  0.25064169  0.94418203  1
  Se  Se165  1  0.74954910  0.58504355  0.44738151  1
  Se  Se166  1  0.73972423  0.59108658  0.93930800  1
  Se  Se167  1  0.74337318  0.92696129  0.43947822  1
  Se  Se168  1  0.74633294  0.92377779  0.93616976  1
  Se  Se169  1  0.24631042  0.08483964  0.44088853  1
  Se  Se170  1  0.24922098  0.08481938  0.95662235  1
  Se  Se171  1  0.25267408  0.40882169  0.43806176  1
  Se  Se172  1  0.25189782  0.41005876  0.94221014  1
  Se  Se173  1  0.25872594  0.74456600  0.45714596  1
  Se  Se174  1  0.24867435  0.74770085  0.94666419  1
  Se  Se175  1  0.58013126  0.08722499  0.45074836  1
  Se  Se176  1  0.59120621  0.08341503  0.93368357  1
  Se  Se177  1  0.58654491  0.40871896  0.43472012  1
  Se  Se178  1  0.58383761  0.41704376  0.95133055  1
  Se  Se179  1  0.59251204  0.74577549  0.44179410  1
  Se  Se180  1  0.57852438  0.75575128  0.95125724  1
  Se  Se181  1  0.91740314  0.08247377  0.44801041  1
  Se  Se182  1  0.91512880  0.08462054  0.95099270  1
  Se  Se183  1  0.91186492  0.41768481  0.44746937  1
  Se  Se184  1  0.92851999  0.40396217  0.94127145  1
  Se  Se185  1  0.92451975  0.74549985  0.43104068  1
  Se  Se186  1  0.91645792  0.74319269  0.93887529  1
  Se  Se187  1  0.25013592  0.24805556  0.30085826  1
  Se  Se188  1  0.24795946  0.24355816  0.80772828  1
  Se  Se189  1  0.23989263  0.57725189  0.31627333  1
  Se  Se190  1  0.24998929  0.58974093  0.80291390  1
  Se  Se191  1  0.25372408  0.92225316  0.30148729  1
  Se  Se192  1  0.23963406  0.90989742  0.81286195  1
  Se  Se193  1  0.58399361  0.24898617  0.29993788  1
  Se  Se194  1  0.59118427  0.26277877  0.79659216  1
  Se  Se195  1  0.58705224  0.58372035  0.30266882  1
  Se  Se196  1  0.57898265  0.58616465  0.81612251  1
  Se  Se197  1  0.57652155  0.90864685  0.30972810  1
  Se  Se198  1  0.58051312  0.91746753  0.80118315  1
  Se  Se199  1  0.91784069  0.25015655  0.30890201  1
  Se  Se200  1  0.91933296  0.24303103  0.81190614  1
  Se  Se201  1  0.91710932  0.57921835  0.30315239  1
  Se  Se202  1  0.91951588  0.58305783  0.79015414  1
  Se  Se203  1  0.90654953  0.91314910  0.29618334  1
  Se  Se204  1  0.92257501  0.92335612  0.80421172  1
  Se  Se205  1  0.07756130  0.08042928  0.30404589  1
  Se  Se206  1  0.08584897  0.07582038  0.80846011  1
  Se  Se207  1  0.08065284  0.41358648  0.30161033  1
  Se  Se208  1  0.09113357  0.42546499  0.81065326  1
  Se  Se209  1  0.08992876  0.75333083  0.30242503  1
  Se  Se210  1  0.07574160  0.74889647  0.80192191  1
  Se  Se211  1  0.41593533  0.08177522  0.29894852  1
  Se  Se212  1  0.42836453  0.09685455  0.80526464  1
  Se  Se213  1  0.41445042  0.41610913  0.29871764  1
  Se  Se214  1  0.42046000  0.42238944  0.81546956  1
  Se  Se215  1  0.42150376  0.75805269  0.31666378  1
  Se  Se216  1  0.40949414  0.75111854  0.80784818  1
  Se  Se217  1  0.74924871  0.08734943  0.31333600  1
  Se  Se218  1  0.75520975  0.08848585  0.80300510  1
  Se  Se219  1  0.74771878  0.40939546  0.30451820  1
  Se  Se220  1  0.76847340  0.43632970  0.80355108  1
  Se  Se221  1  0.75507804  0.74710978  0.29634138  1
  Se  Se222  1  0.75795151  0.75928242  0.81278450  1
  Se  Se223  1  0.24864164  0.08287739  0.19660617  1
  Se  Se224  1  0.24919627  0.08539334  0.68966884  1
  Se  Se225  1  0.25047409  0.41730616  0.19875455  1
  Se  Se226  1  0.23911179  0.42577117  0.69099084  1
  Se  Se227  1  0.25098286  0.75553637  0.19126866  1
  Se  Se228  1  0.24862253  0.75106659  0.69703176  1
  Se  Se229  1  0.57692116  0.08867806  0.18624407  1
  Se  Se230  1  0.59563192  0.07832584  0.69602016  1
  Se  Se231  1  0.58756625  0.41442390  0.19596428  1
  Se  Se232  1  0.58118161  0.42329871  0.69986900  1
  Se  Se233  1  0.58234713  0.74699814  0.19720492  1
  Se  Se234  1  0.57661634  0.76086886  0.68977913  1
  Se  Se235  1  0.91182780  0.08169762  0.19924531  1
  Se  Se236  1  0.92342133  0.08424998  0.69773781  1
  Se  Se237  1  0.92053771  0.41229290  0.20081469  1
  Se  Se238  1  0.90959026  0.42087269  0.68300438  1
  Se  Se239  1  0.93593660  0.74088227  0.19868763  1
  Se  Se240  1  0.91238405  0.75288314  0.69428373  1
  Se  Se241  1  0.07705510  0.24787585  0.19991112  1
  Se  Se242  1  0.09046171  0.24224692  0.69229589  1
  Se  Se243  1  0.08347417  0.58540060  0.19876491  1
  Se  Se244  1  0.07953046  0.59034712  0.69327382  1
  Se  Se245  1  0.08139891  0.92284990  0.19804080  1
  Se  Se246  1  0.08208645  0.91978412  0.69515019  1
  Se  Se247  1  0.41298630  0.25426489  0.19541389  1
  Se  Se248  1  0.42488308  0.23976068  0.69028713  1
  Se  Se249  1  0.42264371  0.57967650  0.19209342  1
  Se  Se250  1  0.41319083  0.58679340  0.70425369  1
  Se  Se251  1  0.41694932  0.91793133  0.19445024  1
  Se  Se252  1  0.41823010  0.91090577  0.68786635  1
  Se  Se253  1  0.74843391  0.24733847  0.20018583  1
  Se  Se254  1  0.75204813  0.25374632  0.69474778  1
  Se  Se255  1  0.75215018  0.57968306  0.19876910  1
  Se  Se256  1  0.75262550  0.58233933  0.68492667  1
  Se  Se257  1  0.75830962  0.90646307  0.18887711  1
  Se  Se258  1  0.74969270  0.92226473  0.70365797  1
