# generated using pymatgen
data_In86Cu29Se144
_symmetry_space_group_name_H-M   'P 1'
_cell_length_a   17.59426367
_cell_length_b   17.60711922
_cell_length_c   23.46557568
_cell_angle_alpha   89.99202083
_cell_angle_beta   90.02321630
_cell_angle_gamma   89.99649134
_symmetry_Int_Tables_number   1
_chemical_formula_structural   In86Cu29Se144
_chemical_formula_sum   'In86 Cu29 Se144'
_cell_volume   7269.26621160
_cell_formula_units_Z   1
loop_
 _symmetry_equiv_pos_site_id
 _symmetry_equiv_pos_as_xyz
  1  'x, y, z'
loop_
 _atom_site_type_symbol
 _atom_site_label
 _atom_site_symmetry_multiplicity
 _atom_site_fract_x
 _atom_site_fract_y
 _atom_site_fract_z
 _atom_site_occupancy
  In  In0  1  0.01141995  0.16853848  0.12994264  1
  In  In1  1  0.00022678  0.16303413  0.61315054  1
  In  In2  1  -0.00933261  0.50353413  0.12616530  1
  In  In3  1  -0.01048951  0.49756899  0.62634174  1
  In  In4  1  -0.00454165  0.83335327  0.11384979  1
  In  In5  1  0.01375981  0.82619915  0.62684697  1
  In  In6  1  0.34042487  0.16128622  0.13256596  1
  In  In7  1  0.35377141  0.17036861  0.60004851  1
  In  In8  1  0.34442670  0.48493646  0.13056916  1
  In  In9  1  0.36289711  0.48228742  0.64667767  1
  In  In10  1  0.34008482  0.84074025  0.12222752  1
  In  In11  1  0.32214077  0.83051649  0.62760906  1
  In  In12  1  0.65357590  0.18101982  0.13125392  1
  In  In13  1  0.66487921  0.16940537  0.62147794  1
  In  In14  1  0.66148493  0.49690561  0.12267917  1
  In  In15  1  0.64683743  0.50193242  0.63977834  1
  In  In16  1  0.66027119  0.83010751  0.12676213  1
  In  In17  1  0.67292645  0.83496549  0.64066897  1
  In  In18  1  0.18630144  -0.01006767  0.39131965  1
  In  In19  1  0.16276152  -0.00372546  0.87709899  1
  In  In20  1  0.16236561  0.32221104  0.37106665  1
  In  In21  1  0.17773003  0.32434977  0.87606638  1
  In  In22  1  0.18035087  0.67772645  0.37533679  1
  In  In23  1  0.18342486  0.67053759  0.87352107  1
  In  In24  1  0.51393962  0.00770933  0.36353692  1
  In  In25  1  0.50849048  -0.01499326  0.88673909  1
  In  In26  1  0.49500567  0.32959588  0.37287322  1
  In  In27  1  0.50191029  0.33465058  0.87551545  1
  In  In28  1  0.49853689  0.65820905  0.37560979  1
  In  In29  1  0.50489314  0.66895123  0.87693110  1
  In  In30  1  0.82922899  0.00634339  0.37626753  1
  In  In31  1  0.81690325  -0.00415553  0.87055373  1
  In  In32  1  0.81748139  0.32094873  0.36911854  1
  In  In33  1  0.82434835  0.35251539  0.88438743  1
  In  In34  1  0.81918931  0.67182037  0.37842407  1
  In  In35  1  0.80930878  0.68631623  0.88670220  1
  In  In36  1  -0.00966024  0.16864105  0.37955289  1
  In  In37  1  0.00922415  0.16899621  0.87424894  1
  In  In38  1  0.00756917  0.49350904  0.37475389  1
  In  In39  1  -0.00883036  0.49382582  0.88033518  1
  In  In40  1  0.00923954  0.84531084  0.37202295  1
  In  In41  1  0.00306961  0.82579088  0.88107214  1
  In  In42  1  0.33512709  0.16665386  0.37473777  1
  In  In43  1  0.34433227  0.18238093  0.86657921  1
  In  In44  1  0.35754335  0.50069626  0.37524678  1
  In  In45  1  0.37338462  0.52487760  0.84563966  1
  In  In46  1  0.31970683  0.83748679  0.37095366  1
  In  In47  1  0.33775083  0.83258005  0.88391901  1
  In  In48  1  0.66460771  0.16585971  0.37627857  1
  In  In49  1  0.65025940  0.15631828  0.86924974  1
  In  In50  1  0.62911136  0.47219744  0.34414737  1
  In  In51  1  0.65600093  0.50520574  0.87495687  1
  In  In52  1  0.65038234  0.82234106  0.35248765  1
  In  In53  1  0.66624011  0.83121174  0.87498707  1
  In  In54  1  0.17773979  -0.00649612  0.13002195  1
  In  In55  1  0.17386874  -0.00374468  0.61215052  1
  In  In56  1  0.17492005  0.32390793  0.13915289  1
  In  In57  1  0.18341263  0.33263073  0.62007059  1
  In  In58  1  0.16731344  0.67236398  0.11991046  1
  In  In59  1  0.18252512  0.68187091  0.62400810  1
  In  In60  1  0.49571648  0.00075888  0.13039080  1
  In  In61  1  0.50041987  0.01005518  0.62159992  1
  In  In62  1  0.50407405  0.33498773  0.12284563  1
  In  In63  1  0.50281401  0.32810879  0.62536000  1
  In  In64  1  0.51138215  0.67351484  0.12415510  1
  In  In65  1  0.51087962  0.65944688  0.63624287  1
  In  In66  1  0.82981750  -0.01613736  0.12020685  1
  In  In67  1  0.82095050  0.00513013  0.62559938  1
  In  In68  1  0.82048347  0.34705420  0.13336565  1
  In  In69  1  0.82745879  0.32168228  0.62152590  1
  In  In70  1  0.81746661  0.65714188  0.11382255  1
  In  In71  1  0.82876894  0.65956199  0.63117716  1
  In  In72  1  -0.00505811  0.33407294  0.75307503  1
  In  In73  1  0.17323596  0.16001657  0.00211204  1
  In  In74  1  0.17337199  0.49919360  -0.00145029  1
  In  In75  1  0.83336700  0.16438615  0.00363667  1
  In  In76  1  0.83391139  0.84206923  0.50078505  1
  In  In77  1  -0.00114862  0.00548230  0.24868444  1
  In  In78  1  -0.00271571  -0.00181193  0.74332332  1
  In  In79  1  0.17666842  0.50351864  0.50373842  1
  In  In80  1  0.49308712  0.84128769  0.49899109  1
  In  In81  1  -0.00214202  0.66580741  0.75105685  1
  In  In82  1  -0.00286683  0.66248408  0.25402068  1
  In  In83  1  0.34023902  0.66898086  0.24240215  1
  In  In84  1  0.82459301  0.49988177  0.50392931  1
  In  In85  1  0.33456364  -0.00018637  0.74655980  1
  Cu  Cu86  1  0.34402517  0.33520409  -0.00233339  1
  Cu  Cu87  1  0.50165455  0.83115303  0.75886726  1
  Cu  Cu88  1  0.16623257  0.50118100  0.74657801  1
  Cu  Cu89  1  0.00795032  0.67729085  0.49879373  1
  Cu  Cu90  1  0.66667880  0.00027966  0.49553580  1
  Cu  Cu91  1  0.16418260  0.16977207  0.25872096  1
  Cu  Cu92  1  0.65739520  0.33258674  0.49532173  1
  Cu  Cu93  1  0.17355687  0.16749625  0.73805314  1
  Cu  Cu94  1  -0.00557236  0.33323652  0.49776389  1
  Cu  Cu95  1  0.33872500  0.33656777  0.49734999  1
  Cu  Cu96  1  0.66449579  0.66777275  -0.00051593  1
  Cu  Cu97  1  0.33589733  0.00219735  0.00695260  1
  Cu  Cu98  1  0.50163544  0.17245560  0.25138508  1
  Cu  Cu99  1  0.82958938  0.82588741  0.24274043  1
  Cu  Cu100  1  0.66433717  0.33373629  0.00162922  1
  Cu  Cu101  1  0.83028622  0.16783592  0.25447703  1
  Cu  Cu102  1  0.81857420  0.50637916  0.75762652  1
  Cu  Cu103  1  0.33887662  0.66590838  0.50037913  1
  Cu  Cu104  1  0.50146131  0.16692662  0.74334162  1
  Cu  Cu105  1  0.66258742  0.66433705  0.50431080  1
  Cu  Cu106  1  -0.00045553  0.34042400  0.00976929  1
  Cu  Cu107  1  -0.00280878  0.66451686  0.00229538  1
  Cu  Cu108  1  0.82050176  0.17619058  0.75231254  1
  Cu  Cu109  1  0.17154742  0.49446042  0.25378561  1
  Cu  Cu110  1  0.00414989  0.00132772  0.49667370  1
  Cu  Cu111  1  0.34076946  0.66607104  -0.00327128  1
  Cu  Cu112  1  0.83201214  0.49676367  0.24467743  1
  Cu  Cu113  1  -0.00254474  -0.00646685  -0.00473998  1
  Cu  Cu114  1  0.66082226  -0.00611150  0.00255749  1
  Se  Se115  1  0.07570398  0.07115455  0.05798374  1
  Se  Se116  1  0.08926660  0.08420979  0.54882072  1
  Se  Se117  1  0.08842500  0.41218070  0.06746885  1
  Se  Se118  1  0.07515592  0.41293965  0.55803860  1
  Se  Se119  1  0.08336789  0.74919157  0.05027526  1
  Se  Se120  1  0.09499149  0.75469655  0.55209855  1
  Se  Se121  1  0.41865625  0.08772399  0.05714875  1
  Se  Se122  1  0.41544310  0.06299584  0.54249587  1
  Se  Se123  1  0.42358406  0.42056883  0.05156237  1
  Se  Se124  1  0.41865205  0.41577585  0.55747237  1
  Se  Se125  1  0.41640441  0.74785274  0.05800083  1
  Se  Se126  1  0.41853821  0.74395543  0.56403819  1
  Se  Se127  1  0.73921296  0.07877846  0.06211352  1
  Se  Se128  1  0.74836510  0.08416754  0.55101045  1
  Se  Se129  1  0.75020865  0.41744473  0.05237037  1
  Se  Se130  1  0.73293094  0.41122523  0.56204197  1
  Se  Se131  1  0.74571343  0.75612996  0.05220447  1
  Se  Se132  1  0.74587942  0.74538273  0.55908118  1
  Se  Se133  1  0.25902283  0.25825768  0.05727057  1
  Se  Se134  1  0.25097214  0.25104481  0.54522086  1
  Se  Se135  1  0.26440659  0.58583501  0.06139999  1
  Se  Se136  1  0.26862845  0.58350690  0.56686896  1
  Se  Se137  1  0.24768130  0.91681848  0.05260800  1
  Se  Se138  1  0.26335085  0.91453088  0.55015723  1
  Se  Se139  1  0.57978716  0.24817881  0.05037892  1
  Se  Se140  1  0.57862861  0.24614709  0.55094620  1
  Se  Se141  1  0.58249785  0.58368034  0.05365445  1
  Se  Se142  1  0.58216338  0.58110731  0.55897774  1
  Se  Se143  1  0.57708754  0.91672103  0.05989078  1
  Se  Se144  1  0.59648953  0.91653373  0.56049135  1
  Se  Se145  1  0.92094696  0.25501815  0.06577179  1
  Se  Se146  1  0.91231663  0.24873569  0.55086469  1
  Se  Se147  1  0.91402679  0.57885688  0.05187155  1
  Se  Se148  1  0.92508772  0.59666858  0.55497397  1
  Se  Se149  1  0.91002706  0.91222721  0.04505632  1
  Se  Se150  1  0.92800468  0.92436645  0.56357708  1
  Se  Se151  1  0.07906348  0.25157788  0.44539534  1
  Se  Se152  1  0.07810687  0.26023905  0.94994500  1
  Se  Se153  1  0.08365363  0.59251211  0.44047473  1
  Se  Se154  1  0.07980366  0.58944227  0.93908638  1
  Se  Se155  1  0.08654499  0.91153891  0.45029399  1
  Se  Se156  1  0.08716995  0.91258237  0.94684425  1
  Se  Se157  1  0.41864791  0.24856802  0.44586588  1
  Se  Se158  1  0.42255841  0.24555652  0.94638527  1
  Se  Se159  1  0.42507856  0.58144482  0.45270939  1
  Se  Se160  1  0.41894866  0.57950989  0.94216700  1
  Se  Se161  1  0.41555758  0.92556275  0.42963359  1
  Se  Se162  1  0.41746281  0.91369356  0.95512668  1
  Se  Se163  1  0.74649301  0.24877316  0.44839232  1
  Se  Se164  1  0.74296107  0.24946956  0.94104214  1
  Se  Se165  1  0.73449475  0.58252924  0.44095609  1
  Se  Se166  1  0.74599176  0.58012202  0.94614526  1
  Se  Se167  1  0.73635836  0.91192634  0.43414888  1
  Se  Se168  1  0.74721170  0.91686184  0.94670921  1
  Se  Se169  1  0.23853902  0.10445388  0.44482697  1
  Se  Se170  1  0.26420281  0.07921724  0.93659149  1
  Se  Se171  1  0.25697776  0.41540036  0.43635302  1
  Se  Se172  1  0.26291075  0.41371907  0.93767565  1
  Se  Se173  1  0.25575598  0.75205279  0.45040385  1
  Se  Se174  1  0.25089946  0.74924121  0.95133914  1
  Se  Se175  1  0.58100403  0.08272693  0.44519186  1
  Se  Se176  1  0.58142494  0.08301951  0.95035238  1
  Se  Se177  1  0.57994951  0.41857342  0.43974468  1
  Se  Se178  1  0.58187382  0.41689384  0.94664903  1
  Se  Se179  1  0.58930882  0.75007707  0.44300835  1
  Se  Se180  1  0.58273004  0.75365672  0.94698290  1
  Se  Se181  1  0.91229010  0.08016740  0.44830341  1
  Se  Se182  1  0.92301736  0.07888389  0.93626688  1
  Se  Se183  1  0.91392708  0.41294439  0.43957263  1
  Se  Se184  1  0.91453558  0.41957610  0.95651534  1
  Se  Se185  1  0.92464744  0.75020238  0.43817270  1
  Se  Se186  1  0.91474835  0.74935756  0.94876977  1
  Se  Se187  1  0.25670466  0.25367708  0.30314106  1
  Se  Se188  1  0.24908899  0.24942002  0.79766258  1
  Se  Se189  1  0.25088483  0.57850442  0.30987071  1
  Se  Se190  1  0.24876518  0.58155442  0.80174650  1
  Se  Se191  1  0.23796886  0.92037635  0.30353383  1
  Se  Se192  1  0.24717105  0.91266829  0.80981211  1
  Se  Se193  1  0.58740431  0.25169145  0.30618886  1
  Se  Se194  1  0.57982759  0.24980959  0.80212978  1
  Se  Se195  1  0.59680782  0.60418621  0.30558998  1
  Se  Se196  1  0.56259833  0.57145234  0.80471119  1
  Se  Se197  1  0.58038011  0.91814932  0.29093327  1
  Se  Se198  1  0.58511582  0.91968869  0.80637241  1
  Se  Se199  1  0.91667182  0.25024254  0.30471278  1
  Se  Se200  1  0.90438012  0.24655328  0.81647322  1
  Se  Se201  1  0.90451791  0.57361228  0.31395949  1
  Se  Se202  1  0.90783770  0.58096053  0.81389546  1
  Se  Se203  1  0.90532741  0.90833014  0.30503723  1
  Se  Se204  1  0.91683077  0.91159946  0.81132235  1
  Se  Se205  1  0.08613880  0.08476973  0.31621836  1
  Se  Se206  1  0.09477408  0.09222495  0.80128276  1
  Se  Se207  1  0.08378439  0.41305941  0.30391758  1
  Se  Se208  1  0.09069136  0.42271207  0.81072200  1
  Se  Se209  1  0.09232271  0.75669022  0.30404754  1
  Se  Se210  1  0.09257963  0.75562592  0.80615479  1
  Se  Se211  1  0.41798701  0.08819711  0.30320877  1
  Se  Se212  1  0.42788218  0.08327878  0.80833972  1
  Se  Se213  1  0.43177140  0.42534215  0.30145460  1
  Se  Se214  1  0.39379251  0.38926155  0.81053546  1
  Se  Se215  1  0.41934697  0.75624761  0.31126403  1
  Se  Se216  1  0.41496006  0.75250965  0.81100950  1
  Se  Se217  1  0.74719394  0.08240614  0.30506111  1
  Se  Se218  1  0.74411022  0.08420856  0.80183490  1
  Se  Se219  1  0.75058584  0.41359213  0.29923773  1
  Se  Se220  1  0.74106447  0.41633419  0.80827917  1
  Se  Se221  1  0.75019255  0.74126393  0.29707064  1
  Se  Se222  1  0.74858982  0.75314011  0.80266233  1
  Se  Se223  1  0.24064651  0.09135221  0.19629175  1
  Se  Se224  1  0.25423059  0.08968342  0.68004423  1
  Se  Se225  1  0.25714925  0.41342510  0.20158137  1
  Se  Se226  1  0.24858858  0.41389941  0.69649440  1
  Se  Se227  1  0.24233214  0.75849243  0.19137987  1
  Se  Se228  1  0.25450165  0.74925916  0.70381704  1
  Se  Se229  1  0.58218218  0.08655600  0.19680070  1
  Se  Se230  1  0.58661488  0.08253100  0.69251155  1
  Se  Se231  1  0.59711673  0.40292881  0.19275252  1
  Se  Se232  1  0.56610395  0.41425469  0.70245111  1
  Se  Se233  1  0.57580246  0.75808511  0.19993397  1
  Se  Se234  1  0.58687462  0.75039210  0.70324731  1
  Se  Se235  1  0.90448087  0.08992148  0.18674575  1
  Se  Se236  1  0.90952893  0.10140358  0.69344979  1
  Se  Se237  1  0.92233730  0.41509948  0.19778012  1
  Se  Se238  1  0.89818000  0.42432089  0.69690939  1
  Se  Se239  1  0.91216186  0.74586028  0.18547194  1
  Se  Se240  1  0.91025498  0.75938744  0.69120373  1
  Se  Se241  1  0.07989903  0.25123795  0.20480955  1
  Se  Se242  1  0.08369825  0.24870045  0.68642400  1
  Se  Se243  1  0.09424702  0.57689711  0.19262226  1
  Se  Se244  1  0.08759805  0.57815905  0.68510191  1
  Se  Se245  1  0.08053820  0.90778345  0.19024245  1
  Se  Se246  1  0.09982027  0.91302699  0.69271965  1
  Se  Se247  1  0.41961138  0.25436892  0.19456479  1
  Se  Se248  1  0.41219543  0.23971649  0.68722411  1
  Se  Se249  1  0.43256456  0.57461728  0.19262288  1
  Se  Se250  1  0.41146917  0.59679434  0.70350590  1
  Se  Se251  1  0.39734108  0.93286578  0.19618784  1
  Se  Se252  1  0.42861168  0.90865885  0.69002532  1
  Se  Se253  1  0.74964210  0.25090553  0.19777945  1
  Se  Se254  1  0.74048422  0.25637275  0.69499843  1
  Se  Se255  1  0.74857470  0.58001583  0.19169937  1
  Se  Se256  1  0.74059870  0.58753679  0.69949766  1
  Se  Se257  1  0.74810640  0.91485846  0.19471197  1
  Se  Se258  1  0.76237790  0.91867966  0.70039219  1
