# generated using pymatgen
data_In86Cu29Se144
_symmetry_space_group_name_H-M   'P 1'
_cell_length_a   17.57344509
_cell_length_b   17.57775508
_cell_length_c   23.43849661
_cell_angle_alpha   89.99451672
_cell_angle_beta   90.02156716
_cell_angle_gamma   90.01474633
_symmetry_Int_Tables_number   1
_chemical_formula_structural   In86Cu29Se144
_chemical_formula_sum   'In86 Cu29 Se144'
_cell_volume   7240.19098191
_cell_formula_units_Z   1
loop_
 _symmetry_equiv_pos_site_id
 _symmetry_equiv_pos_as_xyz
  1  'x, y, z'
loop_
 _atom_site_type_symbol
 _atom_site_label
 _atom_site_symmetry_multiplicity
 _atom_site_fract_x
 _atom_site_fract_y
 _atom_site_fract_z
 _atom_site_occupancy
  In  In0  1  -0.00130844  0.14840947  0.12231565  1
  In  In1  1  -0.03110119  0.18258544  0.65787938  1
  In  In2  1  0.00624532  0.49774893  0.12636992  1
  In  In3  1  -0.01454289  0.51162639  0.62650321  1
  In  In4  1  -0.00065891  0.83399659  0.12594272  1
  In  In5  1  -0.00728933  0.84077309  0.62748587  1
  In  In6  1  0.32291547  0.16709244  0.12068570  1
  In  In7  1  0.32491226  0.16427045  0.62637917  1
  In  In8  1  0.32578900  0.51232261  0.13366731  1
  In  In9  1  0.35164905  0.49681290  0.61891649  1
  In  In10  1  0.32931186  0.83871611  0.13087331  1
  In  In11  1  0.34657781  0.83317487  0.62576642  1
  In  In12  1  0.65892816  0.16515117  0.12314607  1
  In  In13  1  0.69570588  0.14547673  0.64444245  1
  In  In14  1  0.67150863  0.50674833  0.13003622  1
  In  In15  1  0.67041578  0.50487771  0.61806470  1
  In  In16  1  0.67001867  0.83619865  0.12768436  1
  In  In17  1  0.67070584  0.83357826  0.61660581  1
  In  In18  1  0.16022932  -0.00746234  0.36419940  1
  In  In19  1  0.16772411  -0.00550500  0.87793500  1
  In  In20  1  0.15945242  0.33471525  0.37480548  1
  In  In21  1  0.15533298  0.34069509  0.87944124  1
  In  In22  1  0.16724802  0.66727458  0.36446879  1
  In  In23  1  0.15097682  0.67570772  0.88841294  1
  In  In24  1  0.49445554  -0.01236713  0.36994809  1
  In  In25  1  0.50772694  0.00105902  0.86483944  1
  In  In26  1  0.50432086  0.33788281  0.38208402  1
  In  In27  1  0.50076940  0.33122026  0.86557486  1
  In  In28  1  0.50576066  0.66807108  0.38140548  1
  In  In29  1  0.50521494  0.66029552  0.87327170  1
  In  In30  1  0.82893069  -0.00107236  0.37621965  1
  In  In31  1  0.82359593  -0.01038688  0.86212183  1
  In  In32  1  0.82739935  0.34611408  0.39649879  1
  In  In33  1  0.83062816  0.32758072  0.84989236  1
  In  In34  1  0.83659103  0.67632239  0.38489937  1
  In  In35  1  0.84163999  0.67731907  0.86822749  1
  In  In36  1  -0.00067306  0.15853993  0.37661479  1
  In  In37  1  0.00234202  0.17073221  0.86440237  1
  In  In38  1  -0.02096531  0.51858253  0.39469027  1
  In  In39  1  0.00165235  0.50331708  0.86817924  1
  In  In40  1  -0.01228630  0.82697714  0.37014939  1
  In  In41  1  -0.00341239  0.83210131  0.87581038  1
  In  In42  1  0.33993149  0.15274803  0.37369935  1
  In  In43  1  0.32959315  0.15211880  0.87261755  1
  In  In44  1  0.33099953  0.51134035  0.37011612  1
  In  In45  1  0.32607747  0.48870376  0.87312123  1
  In  In46  1  0.33745260  0.83697546  0.36972952  1
  In  In47  1  0.32319870  0.82794251  0.87814838  1
  In  In48  1  0.67903518  0.17114414  0.37912199  1
  In  In49  1  0.66737188  0.16239724  0.85729953  1
  In  In50  1  0.65285297  0.53859914  0.41886104  1
  In  In51  1  0.67555546  0.51058258  0.86028497  1
  In  In52  1  0.66566873  0.82816466  0.38168248  1
  In  In53  1  0.68621694  0.84731001  0.86429982  1
  In  In54  1  0.16831220  -0.00344468  0.12088910  1
  In  In55  1  0.15663490  0.00758170  0.63969033  1
  In  In56  1  0.15853232  0.33188461  0.11315928  1
  In  In57  1  0.16477349  0.32765791  0.62870862  1
  In  In58  1  0.16109078  0.66919880  0.12642108  1
  In  In59  1  0.15767202  0.66185977  0.62873180  1
  In  In60  1  0.50863013  -0.01050444  0.13383114  1
  In  In61  1  0.51270782  -0.00763100  0.63084190  1
  In  In62  1  0.51184318  0.33193456  0.12542150  1
  In  In63  1  0.51123801  0.35512480  0.60939767  1
  In  In64  1  0.49716587  0.67058590  0.13977708  1
  In  In65  1  0.53538709  0.68988828  0.58588743  1
  In  In66  1  0.84083862  -0.00591077  0.13077140  1
  In  In67  1  0.83745220  -0.00455732  0.62359041  1
  In  In68  1  0.83056194  0.34549621  0.12702619  1
  In  In69  1  0.83780358  0.33051811  0.62584168  1
  In  In70  1  0.81816675  0.68388030  0.13842688  1
  In  In71  1  0.82538074  0.67102822  0.61146408  1
  In  In72  1  0.33832721  0.33378864  0.74117201  1
  In  In73  1  0.83809603  0.16127166  -0.00793382  1
  In  In74  1  0.49953838  0.83400220  0.00910566  1
  In  In75  1  0.33430177  0.32967287  0.25886114  1
  In  In76  1  0.49671526  0.15876777  -0.01676160  1
  In  In77  1  -0.00342487  0.33476273  0.25793366  1
  In  In78  1  0.84476004  0.50374116  -0.00490620  1
  In  In79  1  0.16958524  0.49825558  0.50026548  1
  In  In80  1  0.50541306  0.16939931  0.50274787  1
  In  In81  1  0.67151274  0.33972155  0.25885202  1
  In  In82  1  0.16232937  0.83837495  0.50796550  1
  In  In83  1  0.33426837  0.66306310  0.74894362  1
  In  In84  1  0.49260738  0.50039126  0.00901827  1
  In  In85  1  0.15765950  0.16586784  0.50830706  1
  Cu  Cu86  1  0.33124198  -0.00088218  0.49771075  1
  Cu  Cu87  1  0.82883090  0.51622003  0.26552196  1
  Cu  Cu88  1  0.33513883  0.67030461  0.49477821  1
  Cu  Cu89  1  0.33389691  -0.00048306  0.00089741  1
  Cu  Cu90  1  0.66807130  -0.00174450  0.50266755  1
  Cu  Cu91  1  0.67039270  0.67863719  0.00098377  1
  Cu  Cu92  1  0.16399058  0.83147781  0.75902958  1
  Cu  Cu93  1  0.16489717  0.50395263  0.24833868  1
  Cu  Cu94  1  0.66500472  0.33866836  -0.01505519  1
  Cu  Cu95  1  0.67613511  0.32341381  0.51075900  1
  Cu  Cu96  1  0.51108447  0.51505428  0.73899697  1
  Cu  Cu97  1  0.00544298  -0.00702418  -0.00056064  1
  Cu  Cu98  1  0.50596517  0.83115461  0.74084418  1
  Cu  Cu99  1  0.83154979  0.83712675  0.25520163  1
  Cu  Cu100  1  0.31953930  0.65935799  0.00345727  1
  Cu  Cu101  1  0.16581780  0.83596664  0.24534731  1
  Cu  Cu102  1  0.83013052  0.50283840  0.74003411  1
  Cu  Cu103  1  0.16263988  0.15737167  0.24331883  1
  Cu  Cu104  1  -0.00149132  0.32645930  -0.00627073  1
  Cu  Cu105  1  0.15946216  0.50285428  0.75232656  1
  Cu  Cu106  1  0.83267790  0.16129811  0.25466004  1
  Cu  Cu107  1  -0.00388067  0.66881991  0.00281997  1
  Cu  Cu108  1  -0.01275899  -0.00034332  0.50176914  1
  Cu  Cu109  1  0.82919731  0.82367643  0.74213917  1
  Cu  Cu110  1  0.50380642  0.17119008  0.74584306  1
  Cu  Cu111  1  0.17260365  0.16136264  0.75380170  1
  Cu  Cu112  1  0.49892218  0.15623558  0.25059070  1
  Cu  Cu113  1  0.50994747  0.82553357  0.25624459  1
  Cu  Cu114  1  0.31871247  0.33615756  0.00021532  1
  Se  Se115  1  0.08640387  0.08141275  0.05015534  1
  Se  Se116  1  0.06904985  0.07470529  0.56401222  1
  Se  Se117  1  0.07348987  0.41696106  0.04863312  1
  Se  Se118  1  0.08003126  0.41619045  0.56457098  1
  Se  Se119  1  0.08140196  0.75157783  0.05539200  1
  Se  Se120  1  0.07261464  0.74207313  0.55893151  1
  Se  Se121  1  0.41948515  0.07681794  0.05966460  1
  Se  Se122  1  0.41240868  0.07657461  0.55979921  1
  Se  Se123  1  0.40414733  0.40395954  0.06494529  1
  Se  Se124  1  0.40853290  0.40935451  0.54330320  1
  Se  Se125  1  0.40760263  0.73578925  0.06126616  1
  Se  Se126  1  0.41480985  0.75885964  0.54585752  1
  Se  Se127  1  0.75069599  0.08201856  0.06040601  1
  Se  Se128  1  0.75306662  0.08043598  0.55536963  1
  Se  Se129  1  0.73967685  0.41577350  0.05136300  1
  Se  Se130  1  0.75722802  0.41546972  0.55632435  1
  Se  Se131  1  0.75422010  0.75859458  0.05541696  1
  Se  Se132  1  0.72095835  0.73118656  0.54400937  1
  Se  Se133  1  0.24116558  0.24337464  0.04910921  1
  Se  Se134  1  0.25853838  0.26044544  0.55512286  1
  Se  Se135  1  0.23945837  0.57644866  0.05852290  1
  Se  Se136  1  0.25904172  0.59421183  0.55979821  1
  Se  Se137  1  0.25376591  0.91218166  0.05317321  1
  Se  Se138  1  0.25323637  0.92924554  0.56638484  1
  Se  Se139  1  0.58775173  0.25520325  0.04479035  1
  Se  Se140  1  0.59801255  0.24201791  0.57065483  1
  Se  Se141  1  0.58945656  0.59595838  0.05959671  1
  Se  Se142  1  0.57167103  0.55970475  0.54457044  1
  Se  Se143  1  0.59666281  0.93036850  0.05427485  1
  Se  Se144  1  0.57909449  0.91660759  0.55102904  1
  Se  Se145  1  0.91804908  0.25718465  0.06117512  1
  Se  Se146  1  0.92316501  0.24004969  0.56444732  1
  Se  Se147  1  0.91557091  0.59273399  0.06706228  1
  Se  Se148  1  0.90883613  0.57990462  0.54673499  1
  Se  Se149  1  0.91797663  0.91814089  0.05521006  1
  Se  Se150  1  0.90916232  0.90662237  0.54983770  1
  Se  Se151  1  0.07270877  0.25724971  0.44496718  1
  Se  Se152  1  0.08202709  0.24233885  0.94223718  1
  Se  Se153  1  0.08623064  0.59999929  0.44632335  1
  Se  Se154  1  0.07184620  0.57881472  0.94854092  1
  Se  Se155  1  0.07564938  0.92526077  0.44306094  1
  Se  Se156  1  0.08644445  0.90787859  0.94511460  1
  Se  Se157  1  0.40724653  0.25144477  0.44153567  1
  Se  Se158  1  0.40338181  0.26274946  0.93729742  1
  Se  Se159  1  0.41407094  0.58194125  0.44432877  1
  Se  Se160  1  0.40392882  0.58780782  0.94124635  1
  Se  Se161  1  0.41374741  0.91554665  0.44575232  1
  Se  Se162  1  0.41660296  0.92257433  0.93915388  1
  Se  Se163  1  0.75857711  0.24047410  0.45536116  1
  Se  Se164  1  0.74791008  0.25570539  0.93184348  1
  Se  Se165  1  0.78940608  0.56640142  0.45425869  1
  Se  Se166  1  0.74408030  0.59151708  0.94147298  1
  Se  Se167  1  0.74992208  0.91567629  0.44732446  1
  Se  Se168  1  0.75643513  0.91739577  0.94388510  1
  Se  Se169  1  0.24464266  0.07484479  0.44165075  1
  Se  Se170  1  0.24951006  0.08156334  0.94779458  1
  Se  Se171  1  0.25814618  0.40929953  0.43716926  1
  Se  Se172  1  0.24014095  0.42364186  0.94769662  1
  Se  Se173  1  0.24862111  0.75036550  0.44044371  1
  Se  Se174  1  0.24535385  0.75167661  0.95215400  1
  Se  Se175  1  0.58703211  0.07611210  0.43919653  1
  Se  Se176  1  0.60172933  0.07375542  0.93688488  1
  Se  Se177  1  0.59931529  0.40382663  0.44936154  1
  Se  Se178  1  0.58098080  0.42482589  0.93420892  1
  Se  Se179  1  0.59510996  0.73991096  0.45549842  1
  Se  Se180  1  0.58466878  0.75112322  0.94012968  1
  Se  Se181  1  0.91043224  0.08562266  0.44583430  1
  Se  Se182  1  0.92703888  0.07086107  0.93386077  1
  Se  Se183  1  0.94399235  0.39829223  0.44967803  1
  Se  Se184  1  0.91455872  0.40121443  0.93201590  1
  Se  Se185  1  0.91890197  0.76200681  0.45260723  1
  Se  Se186  1  0.91329582  0.75025005  0.94769566  1
  Se  Se187  1  0.23707492  0.23437037  0.31056009  1
  Se  Se188  1  0.25050310  0.25256681  0.80980399  1
  Se  Se189  1  0.25362940  0.58822808  0.29580550  1
  Se  Se190  1  0.24023148  0.58224018  0.81267681  1
  Se  Se191  1  0.25228396  0.91624570  0.30007618  1
  Se  Se192  1  0.25313128  0.91454331  0.80631250  1
  Se  Se193  1  0.57474489  0.24122404  0.31036471  1
  Se  Se194  1  0.58652492  0.25763854  0.79633433  1
  Se  Se195  1  0.59757284  0.58012392  0.32304102  1
  Se  Se196  1  0.58974158  0.59744593  0.79677170  1
  Se  Se197  1  0.59047727  0.91321292  0.30773524  1
  Se  Se198  1  0.58691865  0.91442082  0.79828989  1
  Se  Se199  1  0.90223121  0.24888480  0.31616036  1
  Se  Se200  1  0.91477061  0.23806925  0.79113392  1
  Se  Se201  1  0.92169768  0.59581922  0.31187651  1
  Se  Se202  1  0.91052116  0.57966333  0.80273846  1
  Se  Se203  1  0.91668935  0.92339356  0.30469753  1
  Se  Se204  1  0.91220521  0.90368021  0.80070775  1
  Se  Se205  1  0.07671879  0.08257869  0.30160701  1
  Se  Se206  1  0.08910076  0.07823093  0.80613630  1
  Se  Se207  1  0.08289332  0.43300483  0.31305552  1
  Se  Se208  1  0.07922964  0.41230255  0.80132292  1
  Se  Se209  1  0.08372672  0.75645806  0.30308493  1
  Se  Se210  1  0.07979442  0.74458709  0.80707101  1
  Se  Se211  1  0.41256579  0.07284110  0.30007217  1
  Se  Se212  1  0.42232226  0.08865862  0.80173680  1
  Se  Se213  1  0.42823803  0.42384014  0.30888665  1
  Se  Se214  1  0.42777925  0.43385244  0.79830872  1
  Se  Se215  1  0.42196123  0.74646016  0.30888702  1
  Se  Se216  1  0.42523513  0.75845782  0.80797004  1
  Se  Se217  1  0.74415770  0.08221778  0.30568542  1
  Se  Se218  1  0.76118586  0.08869797  0.79503461  1
  Se  Se219  1  0.75258021  0.42937454  0.32224854  1
  Se  Se220  1  0.74372692  0.41820839  0.79188880  1
  Se  Se221  1  0.75325269  0.75112455  0.31125546  1
  Se  Se222  1  0.74570585  0.74359674  0.79905960  1
  Se  Se223  1  0.25206676  0.07982833  0.19177365  1
  Se  Se224  1  0.25801149  0.08013960  0.70129884  1
  Se  Se225  1  0.23784553  0.40999573  0.19357482  1
  Se  Se226  1  0.24540234  0.43237247  0.68984128  1
  Se  Se227  1  0.24885134  0.74848057  0.19491796  1
  Se  Se228  1  0.24292260  0.75812538  0.69126480  1
  Se  Se229  1  0.58946274  0.08159843  0.19723720  1
  Se  Se230  1  0.58681304  0.07917926  0.70138819  1
  Se  Se231  1  0.57731445  0.42573591  0.19683363  1
  Se  Se232  1  0.58661233  0.42143829  0.68971609  1
  Se  Se233  1  0.59382832  0.74859952  0.19817119  1
  Se  Se234  1  0.58107206  0.74800755  0.68194774  1
  Se  Se235  1  0.91858649  0.08315638  0.20015620  1
  Se  Se236  1  0.93720290  0.05013405  0.69550109  1
  Se  Se237  1  0.90361185  0.43244667  0.20162870  1
  Se  Se238  1  0.91980939  0.41679832  0.69597554  1
  Se  Se239  1  0.91698749  0.75619114  0.20000783  1
  Se  Se240  1  0.91205857  0.74373085  0.68606225  1
  Se  Se241  1  0.08365569  0.24702404  0.19052906  1
  Se  Se242  1  0.09081642  0.24755924  0.70180600  1
  Se  Se243  1  0.07780418  0.58529865  0.19670018  1
  Se  Se244  1  0.07541474  0.58559104  0.69905440  1
  Se  Se245  1  0.08329150  0.92017904  0.19230466  1
  Se  Se246  1  0.08213434  0.90996904  0.70037693  1
  Se  Se247  1  0.42326481  0.24262078  0.19094028  1
  Se  Se248  1  0.43025066  0.24865758  0.68024695  1
  Se  Se249  1  0.42605958  0.57062722  0.19871980  1
  Se  Se250  1  0.42871079  0.59355829  0.68092071  1
  Se  Se251  1  0.42487450  0.90641314  0.19931459  1
  Se  Se252  1  0.41731550  0.91897596  0.69784286  1
  Se  Se253  1  0.75612719  0.24599827  0.19253978  1
  Se  Se254  1  0.75023578  0.25891330  0.69859975  1
  Se  Se255  1  0.74455703  0.58798039  0.20325855  1
  Se  Se256  1  0.74920044  0.58937335  0.68807115  1
  Se  Se257  1  0.74973880  0.91975135  0.19852106  1
  Se  Se258  1  0.74892990  0.91219813  0.69035942  1
