# generated using pymatgen
data_In86Cu29Se144
_symmetry_space_group_name_H-M   'P 1'
_cell_length_a   17.57715942
_cell_length_b   17.58023617
_cell_length_c   23.43637456
_cell_angle_alpha   89.98270005
_cell_angle_beta   90.02521932
_cell_angle_gamma   90.00126264
_symmetry_Int_Tables_number   1
_chemical_formula_structural   In86Cu29Se144
_chemical_formula_sum   'In86 Cu29 Se144'
_cell_volume   7242.08745567
_cell_formula_units_Z   1
loop_
 _symmetry_equiv_pos_site_id
 _symmetry_equiv_pos_as_xyz
  1  'x, y, z'
loop_
 _atom_site_type_symbol
 _atom_site_label
 _atom_site_symmetry_multiplicity
 _atom_site_fract_x
 _atom_site_fract_y
 _atom_site_fract_z
 _atom_site_occupancy
  In  In0  1  -0.01220023  0.14860565  0.10184712  1
  In  In1  1  -0.01206344  0.16811885  0.62885799  1
  In  In2  1  0.01525868  0.50137103  0.12526640  1
  In  In3  1  -0.00137167  0.50138468  0.61441703  1
  In  In4  1  0.00092170  0.83208993  0.12141003  1
  In  In5  1  0.01283094  0.83262047  0.62836329  1
  In  In6  1  0.32109912  0.16881568  0.12672630  1
  In  In7  1  0.33620419  0.15424629  0.62467953  1
  In  In8  1  0.33447024  0.49836809  0.12075099  1
  In  In9  1  0.34625757  0.51091965  0.61419966  1
  In  In10  1  0.33747312  0.84497473  0.11106706  1
  In  In11  1  0.32518945  0.82545996  0.62096318  1
  In  In12  1  0.67151854  0.15407728  0.12451111  1
  In  In13  1  0.67066293  0.16758289  0.62562760  1
  In  In14  1  0.66363390  0.51504327  0.12944698  1
  In  In15  1  0.66535282  0.49329442  0.62195586  1
  In  In16  1  0.65590763  0.82825610  0.11689430  1
  In  In17  1  0.66842371  0.85138681  0.62714025  1
  In  In18  1  0.15711103  -0.01068575  0.36579382  1
  In  In19  1  0.15939334  0.01012873  0.89943007  1
  In  In20  1  0.18494938  0.33547543  0.37939396  1
  In  In21  1  0.15942732  0.33211918  0.88636841  1
  In  In22  1  0.16420724  0.67202699  0.37497753  1
  In  In23  1  0.16889111  0.66848027  0.87745635  1
  In  In24  1  0.48742639  0.00817400  0.37910501  1
  In  In25  1  0.49699654  -0.01002332  0.87563790  1
  In  In26  1  0.49754709  0.33080252  0.38264870  1
  In  In27  1  0.51704989  0.33448294  0.86993735  1
  In  In28  1  0.51122086  0.65546433  0.37903249  1
  In  In29  1  0.48716715  0.67537330  0.87724976  1
  In  In30  1  0.84696099  -0.00217495  0.37536325  1
  In  In31  1  0.83315904  0.00286276  0.87930466  1
  In  In32  1  0.83137431  0.33274888  0.38220116  1
  In  In33  1  0.81851969  0.33440974  0.87175066  1
  In  In34  1  0.82413589  0.66213210  0.36635699  1
  In  In35  1  0.84437988  0.66876803  0.87467968  1
  In  In36  1  -0.00123508  0.15036595  0.37503540  1
  In  In37  1  0.00609978  0.15400645  0.89338364  1
  In  In38  1  -0.00686248  0.50698919  0.37901634  1
  In  In39  1  0.00069991  0.50830595  0.87578003  1
  In  In40  1  0.00792001  0.83758590  0.36572909  1
  In  In41  1  -0.01375227  0.85808175  0.90617564  1
  In  In42  1  0.35124073  0.15488137  0.37122324  1
  In  In43  1  0.32391821  0.15755740  0.88169032  1
  In  In44  1  0.33913652  0.48793304  0.39092702  1
  In  In45  1  0.32423127  0.51396930  0.87588068  1
  In  In46  1  0.32579245  0.84308665  0.37695863  1
  In  In47  1  0.34271921  0.83352208  0.88522427  1
  In  In48  1  0.66448243  0.16871417  0.38156665  1
  In  In49  1  0.67736196  0.17544025  0.86862170  1
  In  In50  1  0.65590352  0.51148347  0.38135746  1
  In  In51  1  0.66691085  0.48455765  0.86933590  1
  In  In52  1  0.66596542  0.81713582  0.37420975  1
  In  In53  1  0.65055206  0.84349210  0.87863600  1
  In  In54  1  0.16281339  -0.00339285  0.12037908  1
  In  In55  1  0.17164631  -0.01430802  0.62909774  1
  In  In56  1  0.15524836  0.33188217  0.11056116  1
  In  In57  1  0.15549862  0.33416558  0.62382519  1
  In  In58  1  0.16497225  0.65624554  0.12360006  1
  In  In59  1  0.17429039  0.67900641  0.62036465  1
  In  In60  1  0.50425222  -0.00809482  0.12818010  1
  In  In61  1  0.50634992  0.01099736  0.61520247  1
  In  In62  1  0.48888600  0.33686193  0.12634768  1
  In  In63  1  0.51272605  0.34715539  0.61476373  1
  In  In64  1  0.50072500  0.66828448  0.12432238  1
  In  In65  1  0.49219743  0.65845569  0.61730550  1
  In  In66  1  0.84461860  0.00150977  0.11128303  1
  In  In67  1  0.82470025  0.00898392  0.63642688  1
  In  In68  1  0.84310272  0.32346886  0.11964262  1
  In  In69  1  0.82801260  0.32697273  0.62080308  1
  In  In70  1  0.82472072  0.67993322  0.12817925  1
  In  In71  1  0.84516767  0.66462821  0.62320205  1
  In  In72  1  0.49717466  0.16725910  0.00090652  1
  In  In73  1  0.00413699  0.67092139  0.75928981  1
  In  In74  1  0.66854204  -0.00591773  0.24659235  1
  In  In75  1  0.00433499  0.33098066  0.24502405  1
  In  In76  1  0.83178380  0.49762965  -0.00530171  1
  In  In77  1  0.33211471  0.66830990  0.25275694  1
  In  In78  1  0.33559803  -0.00479778  0.75747781  1
  In  In79  1  0.16759563  0.16712817  0.49960543  1
  In  In80  1  -0.00804922  0.33343207  0.75566197  1
  In  In81  1  0.66289380  0.33779667  0.26138360  1
  In  In82  1  0.83245385  0.83420227  0.49999515  1
  In  In83  1  0.33407670  0.33002589  0.25646562  1
  In  In84  1  0.33761405  0.33531953  0.74163129  1
  In  In85  1  0.66393546  0.66713213  0.74451810  1
  Cu  Cu86  1  0.17126416  0.50966117  0.74834931  1
  Cu  Cu87  1  0.16167620  0.15300453  0.24427218  1
  Cu  Cu88  1  0.33263985  -0.00502876  0.49954065  1
  Cu  Cu89  1  0.66534361  0.66208199  0.49997236  1
  Cu  Cu90  1  0.33644392  0.66173909  0.00287043  1
  Cu  Cu91  1  0.00195272  0.66787132  0.49681240  1
  Cu  Cu92  1  0.00014808  0.66249459  0.00167636  1
  Cu  Cu93  1  0.83781753  0.51236029  0.25064193  1
  Cu  Cu94  1  0.66382703  0.00423465  0.50230546  1
  Cu  Cu95  1  -0.00161470  0.33557252  0.50057980  1
  Cu  Cu96  1  0.49482907  0.83615672  0.75135293  1
  Cu  Cu97  1  0.16134328  0.16143203  0.76634569  1
  Cu  Cu98  1  0.67204955  0.32768854  0.50120986  1
  Cu  Cu99  1  0.83378059  0.84074843  0.76101668  1
  Cu  Cu100  1  0.83981596  0.83483837  0.24648220  1
  Cu  Cu101  1  0.33190763  0.67180762  0.49506791  1
  Cu  Cu102  1  0.66589596  0.33526298  -0.00339815  1
  Cu  Cu103  1  0.16254677  0.83770075  0.75762489  1
  Cu  Cu104  1  0.51318023  0.16544649  0.74582923  1
  Cu  Cu105  1  0.83725501  0.15615308  0.75262657  1
  Cu  Cu106  1  0.65956731  0.66785356  -0.00055184  1
  Cu  Cu107  1  0.16613749  0.83463198  0.24383210  1
  Cu  Cu108  1  0.83739084  0.16182499  0.24319148  1
  Cu  Cu109  1  0.50001018  0.82974614  0.24619097  1
  Cu  Cu110  1  0.33704217  0.34591169  -0.00294772  1
  Cu  Cu111  1  0.16959382  0.49864281  0.24960945  1
  Cu  Cu112  1  -0.00114423  -0.00097514  0.49968825  1
  Cu  Cu113  1  0.49749738  0.50257329  0.74255944  1
  Cu  Cu114  1  0.67105889  0.00120652  -0.00166954  1
  Se  Se115  1  0.10504853  0.09655013  0.04995280  1
  Se  Se116  1  0.07986833  0.07694739  0.56287515  1
  Se  Se117  1  0.07703137  0.42202503  0.04693673  1
  Se  Se118  1  0.08545539  0.41800622  0.54999651  1
  Se  Se119  1  0.08421174  0.74240473  0.05653679  1
  Se  Se120  1  0.08200948  0.75321160  0.55161329  1
  Se  Se121  1  0.41235615  0.07913651  0.06354896  1
  Se  Se122  1  0.41440408  0.08506607  0.54720256  1
  Se  Se123  1  0.42385316  0.42261060  0.05141149  1
  Se  Se124  1  0.41199641  0.41051496  0.55170858  1
  Se  Se125  1  0.41954796  0.74879038  0.05346444  1
  Se  Se126  1  0.41588446  0.75200450  0.55243825  1
  Se  Se127  1  0.75337466  0.08718311  0.04930069  1
  Se  Se128  1  0.75259559  0.08098723  0.55635929  1
  Se  Se129  1  0.74284873  0.41339435  0.06262236  1
  Se  Se130  1  0.75285160  0.41679478  0.55223681  1
  Se  Se131  1  0.74636377  0.75017833  0.05012790  1
  Se  Se132  1  0.74209479  0.74447640  0.56235977  1
  Se  Se133  1  0.25984159  0.26048441  0.05344065  1
  Se  Se134  1  0.25540628  0.25356930  0.56327421  1
  Se  Se135  1  0.24954795  0.57810948  0.05305452  1
  Se  Se136  1  0.25012594  0.58961868  0.55271678  1
  Se  Se137  1  0.22812830  0.89976610  0.04945376  1
  Se  Se138  1  0.24606834  0.91334800  0.55164934  1
  Se  Se139  1  0.59035574  0.25625990  0.06199563  1
  Se  Se140  1  0.58608882  0.24632453  0.55462996  1
  Se  Se141  1  0.58033270  0.58222112  0.05344679  1
  Se  Se142  1  0.58292712  0.57767648  0.55400367  1
  Se  Se143  1  0.58229953  0.92184081  0.05043542  1
  Se  Se144  1  0.58250483  0.91500675  0.55120072  1
  Se  Se145  1  0.92115020  0.25519084  0.04474358  1
  Se  Se146  1  0.91798398  0.24814529  0.55310911  1
  Se  Se147  1  0.91498106  0.58545943  0.06175386  1
  Se  Se148  1  0.91485773  0.58513359  0.54688668  1
  Se  Se149  1  0.92145191  0.91057866  0.04754364  1
  Se  Se150  1  0.91969702  0.92137578  0.56421602  1
  Se  Se151  1  0.07543121  0.25534389  0.43698178  1
  Se  Se152  1  0.08625485  0.24638633  0.95465899  1
  Se  Se153  1  0.08595765  0.58432249  0.44382047  1
  Se  Se154  1  0.08449040  0.58397762  0.94568926  1
  Se  Se155  1  0.07947174  0.91676865  0.44374558  1
  Se  Se156  1  0.10970412  0.89598220  0.95960597  1
  Se  Se157  1  0.39451870  0.25902829  0.43995294  1
  Se  Se158  1  0.41311130  0.26101593  0.93603351  1
  Se  Se159  1  0.41935844  0.58521836  0.44867452  1
  Se  Se160  1  0.41907093  0.58017648  0.94563113  1
  Se  Se161  1  0.41852672  0.91263835  0.44701830  1
  Se  Se162  1  0.41244857  0.92957143  0.95108550  1
  Se  Se163  1  0.75532337  0.24277285  0.44880794  1
  Se  Se164  1  0.75047636  0.25013886  0.94763508  1
  Se  Se165  1  0.75359163  0.58543975  0.44527496  1
  Se  Se166  1  0.73938401  0.59013511  0.93589963  1
  Se  Se167  1  0.74126998  0.92374638  0.43845932  1
  Se  Se168  1  0.74736987  0.91315369  0.94376204  1
  Se  Se169  1  0.24991530  0.07350531  0.43715955  1
  Se  Se170  1  0.25620482  0.08592799  0.96071568  1
  Se  Se171  1  0.24369346  0.41915625  0.45642410  1
  Se  Se172  1  0.24862556  0.42284442  0.94303532  1
  Se  Se173  1  0.24620936  0.75478601  0.44384819  1
  Se  Se174  1  0.25618872  0.74453471  0.94683720  1
  Se  Se175  1  0.57944291  0.08387087  0.44597205  1
  Se  Se176  1  0.59018940  0.08372357  0.93780722  1
  Se  Se177  1  0.58907932  0.41095684  0.44566336  1
  Se  Se178  1  0.58226122  0.41973522  0.94652101  1
  Se  Se179  1  0.58270426  0.74857612  0.44927802  1
  Se  Se180  1  0.57566452  0.75241455  0.94556407  1
  Se  Se181  1  0.91337166  0.08402550  0.45100473  1
  Se  Se182  1  0.91975194  0.06825134  0.95499268  1
  Se  Se183  1  0.91517898  0.41874595  0.44666493  1
  Se  Se184  1  0.92231986  0.40790841  0.93616120  1
  Se  Se185  1  0.92000595  0.74815001  0.43582345  1
  Se  Se186  1  0.91184176  0.74558382  0.95302081  1
  Se  Se187  1  0.23913072  0.23258663  0.30750590  1
  Se  Se188  1  0.24749937  0.25116948  0.81055047  1
  Se  Se189  1  0.25083766  0.57108861  0.31386642  1
  Se  Se190  1  0.25075200  0.59501386  0.80105103  1
  Se  Se191  1  0.25023342  0.91611603  0.29866352  1
  Se  Se192  1  0.24221761  0.91609945  0.82014284  1
  Se  Se193  1  0.57118723  0.23851474  0.30913053  1
  Se  Se194  1  0.59268690  0.25396577  0.79741807  1
  Se  Se195  1  0.59070286  0.58821649  0.30157433  1
  Se  Se196  1  0.57470783  0.58092367  0.80846958  1
  Se  Se197  1  0.57865458  0.90926801  0.31012656  1
  Se  Se198  1  0.58015583  0.92111371  0.79966510  1
  Se  Se199  1  0.91152153  0.24445491  0.30710917  1
  Se  Se200  1  0.91361484  0.23579826  0.81712215  1
  Se  Se201  1  0.92514814  0.59129499  0.30326648  1
  Se  Se202  1  0.90535684  0.57104728  0.80129029  1
  Se  Se203  1  0.92005705  0.92054969  0.29967400  1
  Se  Se204  1  0.92258286  0.91570886  0.81555312  1
  Se  Se205  1  0.07416545  0.07615411  0.29895688  1
  Se  Se206  1  0.08283476  0.07536951  0.81785093  1
  Se  Se207  1  0.09106979  0.41694076  0.31118855  1
  Se  Se208  1  0.09331193  0.42573993  0.80657201  1
  Se  Se209  1  0.08713685  0.74864770  0.29906657  1
  Se  Se210  1  0.07814479  0.76787275  0.82239362  1
  Se  Se211  1  0.41077348  0.06712694  0.29620566  1
  Se  Se212  1  0.42596427  0.09698454  0.80904240  1
  Se  Se213  1  0.42534700  0.42555678  0.30949844  1
  Se  Se214  1  0.42077994  0.42345988  0.80812420  1
  Se  Se215  1  0.42354340  0.75512305  0.31369564  1
  Se  Se216  1  0.40984415  0.75568077  0.80384594  1
  Se  Se217  1  0.75637518  0.08781838  0.30802424  1
  Se  Se218  1  0.74882881  0.07731549  0.80526111  1
  Se  Se219  1  0.76136941  0.42917291  0.31154114  1
  Se  Se220  1  0.75225283  0.41717994  0.79670530  1
  Se  Se221  1  0.75167763  0.75426166  0.29784970  1
  Se  Se222  1  0.75046385  0.75393064  0.81200663  1
  Se  Se223  1  0.24967708  0.07427558  0.19253805  1
  Se  Se224  1  0.24152212  0.08877044  0.69941159  1
  Se  Se225  1  0.24301712  0.41363735  0.18945539  1
  Se  Se226  1  0.24374617  0.42656026  0.68614824  1
  Se  Se227  1  0.24978065  0.75542122  0.18569673  1
  Se  Se228  1  0.24323838  0.75782823  0.69909010  1
  Se  Se229  1  0.57545961  0.09201003  0.19645545  1
  Se  Se230  1  0.58930888  0.07726589  0.69224296  1
  Se  Se231  1  0.57714303  0.42215269  0.19405080  1
  Se  Se232  1  0.58425339  0.41674606  0.69637762  1
  Se  Se233  1  0.58550240  0.74854738  0.19429594  1
  Se  Se234  1  0.57331717  0.75890613  0.68668464  1
  Se  Se235  1  0.91921919  0.08264100  0.18677921  1
  Se  Se236  1  0.92572242  0.07610684  0.70146562  1
  Se  Se237  1  0.90932535  0.42520525  0.18988969  1
  Se  Se238  1  0.91371555  0.42121518  0.68724438  1
  Se  Se239  1  0.92164354  0.74857600  0.19425254  1
  Se  Se240  1  0.90998883  0.76083380  0.69731633  1
  Se  Se241  1  0.08691660  0.23806005  0.18415621  1
  Se  Se242  1  0.08871017  0.24116874  0.69952872  1
  Se  Se243  1  0.08461382  0.58387485  0.20096146  1
  Se  Se244  1  0.08478069  0.58405039  0.68842170  1
  Se  Se245  1  0.08014668  0.91738413  0.19223384  1
  Se  Se246  1  0.08151466  0.91983667  0.70185595  1
  Se  Se247  1  0.42268810  0.23932343  0.19512203  1
  Se  Se248  1  0.42892052  0.24214302  0.68633872  1
  Se  Se249  1  0.42003085  0.57572210  0.19411398  1
  Se  Se250  1  0.41213895  0.58843016  0.69504485  1
  Se  Se251  1  0.41538987  0.91074483  0.19295120  1
  Se  Se252  1  0.41901306  0.91610310  0.68540530  1
  Se  Se253  1  0.75250418  0.24855730  0.19385547  1
  Se  Se254  1  0.75925133  0.24304815  0.69653834  1
  Se  Se255  1  0.74969199  0.59073826  0.19820597  1
  Se  Se256  1  0.75848672  0.57868037  0.68917316  1
  Se  Se257  1  0.75873828  0.91129482  0.18257324  1
  Se  Se258  1  0.74870324  0.91885998  0.70449985  1
