# generated using pymatgen
data_In86Cu29Se144
_symmetry_space_group_name_H-M   'P 1'
_cell_length_a   17.58212833
_cell_length_b   17.58461094
_cell_length_c   23.43542733
_cell_angle_alpha   89.99638334
_cell_angle_beta   90.02684573
_cell_angle_gamma   89.99701654
_symmetry_Int_Tables_number   1
_chemical_formula_structural   In86Cu29Se144
_chemical_formula_sum   'In86 Cu29 Se144'
_cell_volume   7245.64475848
_cell_formula_units_Z   1
loop_
 _symmetry_equiv_pos_site_id
 _symmetry_equiv_pos_as_xyz
  1  'x, y, z'
loop_
 _atom_site_type_symbol
 _atom_site_label
 _atom_site_symmetry_multiplicity
 _atom_site_fract_x
 _atom_site_fract_y
 _atom_site_fract_z
 _atom_site_occupancy
  In  In0  1  0.00497194  0.16675034  0.12391148  1
  In  In1  1  0.00461759  0.15653077  0.62165633  1
  In  In2  1  -0.01127638  0.49876541  0.12901291  1
  In  In3  1  0.01341558  0.50826894  0.62913441  1
  In  In4  1  0.00060223  0.83378484  0.11920696  1
  In  In5  1  -0.00848932  0.83161183  0.62115992  1
  In  In6  1  0.33304600  0.17000620  0.12693593  1
  In  In7  1  0.33546794  0.16481840  0.61760029  1
  In  In8  1  0.31746325  0.49415198  0.12062693  1
  In  In9  1  0.31832201  0.48642134  0.62981224  1
  In  In10  1  0.33390006  0.83804386  0.12306653  1
  In  In11  1  0.33245441  0.84445856  0.62121475  1
  In  In12  1  0.66290194  0.16208049  0.11644057  1
  In  In13  1  0.65663257  0.17351440  0.63610149  1
  In  In14  1  0.69078578  0.50017369  0.12693871  1
  In  In15  1  0.65778411  0.49415966  0.62974866  1
  In  In16  1  0.66017352  0.82354362  0.12476509  1
  In  In17  1  0.68570936  0.83040204  0.62827251  1
  In  In18  1  0.17010671  -0.00070600  0.36168084  1
  In  In19  1  0.16745285  0.00804700  0.87959315  1
  In  In20  1  0.15878702  0.32603335  0.36480153  1
  In  In21  1  0.18259188  0.32633484  0.89278768  1
  In  In22  1  0.16196884  0.68631647  0.37180414  1
  In  In23  1  0.15324434  0.67285506  0.89014920  1
  In  In24  1  0.49160237  0.01999556  0.37617983  1
  In  In25  1  0.50407676  0.00010798  0.88047299  1
  In  In26  1  0.48510973  0.32644425  0.36677329  1
  In  In27  1  0.48624599  0.31792803  0.87115019  1
  In  In28  1  0.49544991  0.66043341  0.36714234  1
  In  In29  1  0.51243716  0.67118444  0.88144015  1
  In  In30  1  0.83369520  -0.01341080  0.37147806  1
  In  In31  1  0.82668115  0.00943475  0.88574233  1
  In  In32  1  0.83479639  0.32375940  0.36836049  1
  In  In33  1  0.82672101  0.34198405  0.88116933  1
  In  In34  1  0.85543933  0.68574077  0.35443056  1
  In  In35  1  0.85257284  0.65840344  0.89493539  1
  In  In36  1  0.01314746  0.17116899  0.36426460  1
  In  In37  1  0.00685558  0.16435441  0.88301728  1
  In  In38  1  -0.00105715  0.50455755  0.35747717  1
  In  In39  1  -0.00228994  0.50868109  0.88783176  1
  In  In40  1  0.00600113  0.83519293  0.36562746  1
  In  In41  1  0.00792775  0.82360436  0.88915373  1
  In  In42  1  0.33316105  0.16231754  0.36759302  1
  In  In43  1  0.32266886  0.18894942  0.89419421  1
  In  In44  1  0.34178293  0.49658956  0.36728973  1
  In  In45  1  0.32942747  0.48274632  0.88080166  1
  In  In46  1  0.28458269  0.83518667  0.37832901  1
  In  In47  1  0.33272635  0.83991205  0.88494680  1
  In  In48  1  0.66667573  0.15831399  0.37827601  1
  In  In49  1  0.66364851  0.16516204  0.87815370  1
  In  In50  1  0.65699863  0.50395389  0.36942350  1
  In  In51  1  0.67986711  0.49956685  0.87762317  1
  In  In52  1  0.68232880  0.83934070  0.37553057  1
  In  In53  1  0.66517521  0.84079362  0.88427541  1
  In  In54  1  0.16845430  0.00139558  0.12287908  1
  In  In55  1  0.16149450  0.00269253  0.61280126  1
  In  In56  1  0.16836415  0.32759711  0.12422554  1
  In  In57  1  0.17814335  0.32925559  0.62891469  1
  In  In58  1  0.13840429  0.64922246  0.10276819  1
  In  In59  1  0.15161277  0.66004660  0.62692352  1
  In  In60  1  0.49638301  0.00024571  0.12811238  1
  In  In61  1  0.49200457  0.01315628  0.62693869  1
  In  In62  1  0.48851726  0.31501331  0.12141634  1
  In  In63  1  0.50016292  0.32285332  0.63202722  1
  In  In64  1  0.49883809  0.68309609  0.12726728  1
  In  In65  1  0.50540936  0.67037829  0.62437613  1
  In  In66  1  0.84302025  0.01255830  0.11786940  1
  In  In67  1  0.83839151  -0.01554600  0.62982679  1
  In  In68  1  0.84969221  0.34710004  0.11351603  1
  In  In69  1  0.82794778  0.32075297  0.62990298  1
  In  In70  1  0.83786853  0.66308364  0.12241118  1
  In  In71  1  0.83979349  0.68384166  0.62336733  1
  In  In72  1  0.16868227  0.50264348  0.49868378  1
  In  In73  1  0.33144374  0.00776220  0.74541679  1
  In  In74  1  0.49715113  0.49697628  0.49148425  1
  In  In75  1  0.32625307  0.67120228  0.24755966  1
  In  In76  1  0.00023398  0.00194565  0.75762082  1
  In  In77  1  0.49608862  0.84170625  0.50001030  1
  In  In78  1  0.50120630  0.50016842  0.00333084  1
  In  In79  1  0.67104125  0.33497990  0.24242171  1
  In  In80  1  0.83098811  0.50375531  0.48863773  1
  In  In81  1  -0.00375451  0.33997737  0.75602961  1
  In  In82  1  0.84166216  0.14752842  0.49706453  1
  In  In83  1  0.33201794  0.66063000  0.74688860  1
  In  In84  1  0.67867277  0.66233888  0.76247537  1
  In  In85  1  0.66646983  -0.00272337  0.24756192  1
  Cu  Cu86  1  0.66141052  0.32544729  0.50828219  1
  Cu  Cu87  1  0.82246745  0.16540525  0.75798031  1
  Cu  Cu88  1  0.50263619  0.50005049  0.24337724  1
  Cu  Cu89  1  -0.00101673  0.67551003  0.49557156  1
  Cu  Cu90  1  0.84062809  0.83158732  0.75451668  1
  Cu  Cu91  1  0.17026474  0.16543460  0.24397976  1
  Cu  Cu92  1  0.32549612  0.00237515  0.49254061  1
  Cu  Cu93  1  0.33325770  0.67359578  0.00321313  1
  Cu  Cu94  1  0.16475956  0.49970469  0.75853453  1
  Cu  Cu95  1  0.66758922  0.33191649  -0.00023022  1
  Cu  Cu96  1  0.00360528  0.00015296  0.00224074  1
  Cu  Cu97  1  0.33265373  0.32438019  0.49689492  1
  Cu  Cu98  1  0.00240145  0.33295085  0.00406789  1
  Cu  Cu99  1  0.67210502  0.67482764  0.49645243  1
  Cu  Cu100  1  0.83607646  0.50453330  0.75882747  1
  Cu  Cu101  1  0.49771281  0.48421226  0.75103401  1
  Cu  Cu102  1  0.49594135  0.16504389  0.75383121  1
  Cu  Cu103  1  0.66602831  -0.00222872  0.00447032  1
  Cu  Cu104  1  0.50880676  0.83233772  0.76081390  1
  Cu  Cu105  1  0.84284093  0.17031173  0.24199764  1
  Cu  Cu106  1  0.49486848  0.83812906  0.25041595  1
  Cu  Cu107  1  0.00649682  0.32687322  0.49258188  1
  Cu  Cu108  1  0.16001376  0.83078098  0.75384369  1
  Cu  Cu109  1  0.16402359  0.49834428  0.24025907  1
  Cu  Cu110  1  0.83807338  0.83062596  0.24487605  1
  Cu  Cu111  1  0.66637691  0.00285622  0.50265598  1
  Cu  Cu112  1  0.33978377  0.00295199  0.00390296  1
  Cu  Cu113  1  0.16106936  0.83219306  0.23899074  1
  Cu  Cu114  1  0.67010860  0.67197037  0.00292677  1
  Se  Se115  1  0.08748965  0.08585380  0.05302975  1
  Se  Se116  1  0.07239253  0.07808539  0.54610674  1
  Se  Se117  1  0.07924566  0.41558032  0.06310855  1
  Se  Se118  1  0.07803307  0.40912748  0.55814106  1
  Se  Se119  1  0.09055575  0.76488778  0.04730766  1
  Se  Se120  1  0.08215261  0.74950218  0.55652058  1
  Se  Se121  1  0.42053934  0.08688650  0.05818258  1
  Se  Se122  1  0.41393961  0.07886406  0.54777391  1
  Se  Se123  1  0.40676398  0.40818022  0.05480172  1
  Se  Se124  1  0.40940738  0.40906929  0.55733747  1
  Se  Se125  1  0.41904719  0.75640775  0.05299144  1
  Se  Se126  1  0.41052780  0.74311949  0.55817141  1
  Se  Se127  1  0.75251692  0.08660157  0.04954518  1
  Se  Se128  1  0.74509708  0.08005312  0.56750795  1
  Se  Se129  1  0.75288350  0.41884872  0.04736910  1
  Se  Se130  1  0.74598771  0.41245328  0.55761948  1
  Se  Se131  1  0.75340322  0.75358185  0.05679709  1
  Se  Se132  1  0.75679057  0.75579479  0.54917673  1
  Se  Se133  1  0.24523363  0.24142476  0.05516828  1
  Se  Se134  1  0.24552356  0.24752624  0.55244321  1
  Se  Se135  1  0.25088219  0.58366492  0.04910676  1
  Se  Se136  1  0.25772146  0.58956778  0.56275978  1
  Se  Se137  1  0.25221038  0.91898313  0.05271586  1
  Se  Se138  1  0.24871040  0.91695698  0.54991612  1
  Se  Se139  1  0.58192560  0.25029712  0.05072779  1
  Se  Se140  1  0.57676236  0.24280243  0.55772583  1
  Se  Se141  1  0.58909668  0.59111862  0.06406086  1
  Se  Se142  1  0.59397522  0.58942677  0.55291486  1
  Se  Se143  1  0.58261903  0.91787648  0.06121923  1
  Se  Se144  1  0.59053658  0.92084557  0.56602983  1
  Se  Se145  1  0.91766686  0.24457711  0.05275406  1
  Se  Se146  1  0.92064380  0.25512549  0.55495556  1
  Se  Se147  1  0.92107173  0.58346960  0.05299271  1
  Se  Se148  1  0.92363419  0.58724734  0.55538778  1
  Se  Se149  1  0.91546979  0.91882700  0.05152027  1
  Se  Se150  1  0.92384714  0.92648421  0.55368579  1
  Se  Se151  1  0.09065169  0.24462040  0.44244794  1
  Se  Se152  1  0.08574465  0.24759822  0.95268197  1
  Se  Se153  1  0.07353116  0.58748930  0.43754403  1
  Se  Se154  1  0.07980981  0.58574776  0.95929508  1
  Se  Se155  1  0.11578443  0.89121722  0.42748360  1
  Se  Se156  1  0.08939571  0.92103321  0.94671598  1
  Se  Se157  1  0.41616582  0.24403315  0.44158537  1
  Se  Se158  1  0.42755243  0.24899326  0.95638435  1
  Se  Se159  1  0.40298830  0.59321421  0.44243308  1
  Se  Se160  1  0.41105839  0.59132132  0.94043786  1
  Se  Se161  1  0.40384690  0.91836088  0.43276716  1
  Se  Se162  1  0.42218179  0.91710279  0.95006375  1
  Se  Se163  1  0.74862812  0.25205724  0.44693352  1
  Se  Se164  1  0.75056246  0.24833065  0.94535262  1
  Se  Se165  1  0.74507278  0.59707998  0.43042968  1
  Se  Se166  1  0.74908525  0.58290938  0.95139952  1
  Se  Se167  1  0.75215222  0.92153833  0.45081382  1
  Se  Se168  1  0.75310893  0.91638423  0.95302208  1
  Se  Se169  1  0.24489654  0.08423743  0.43590377  1
  Se  Se170  1  0.25244493  0.08304788  0.95041256  1
  Se  Se171  1  0.25686134  0.41070867  0.43784710  1
  Se  Se172  1  0.24262744  0.42863195  0.95795657  1
  Se  Se173  1  0.25258260  0.73188136  0.45124275  1
  Se  Se174  1  0.24864295  0.75541587  0.94939660  1
  Se  Se175  1  0.58252983  0.08448001  0.45022620  1
  Se  Se176  1  0.58403203  0.08350099  0.95041220  1
  Se  Se177  1  0.59005139  0.40208875  0.43853423  1
  Se  Se178  1  0.58631003  0.41213718  0.93813872  1
  Se  Se179  1  0.58345668  0.74822027  0.43786818  1
  Se  Se180  1  0.58332411  0.75537853  0.95336317  1
  Se  Se181  1  0.93202350  0.07227085  0.43036917  1
  Se  Se182  1  0.91975986  0.08608224  0.95004702  1
  Se  Se183  1  0.92624747  0.40942083  0.43626392  1
  Se  Se184  1  0.91728765  0.41480556  0.94936125  1
  Se  Se185  1  0.91909361  0.75692362  0.43804714  1
  Se  Se186  1  0.91478599  0.75888554  0.95894557  1
  Se  Se187  1  0.25120646  0.24997272  0.30014602  1
  Se  Se188  1  0.25001295  0.25287921  0.81195669  1
  Se  Se189  1  0.23810495  0.57703221  0.30882110  1
  Se  Se190  1  0.24580819  0.58271015  0.81665955  1
  Se  Se191  1  0.25076535  0.91323437  0.28982456  1
  Se  Se192  1  0.24481626  0.91216748  0.80741270  1
  Se  Se193  1  0.58659525  0.24489345  0.30757396  1
  Se  Se194  1  0.58254239  0.24756461  0.80591043  1
  Se  Se195  1  0.58145430  0.58607452  0.29654450  1
  Se  Se196  1  0.57414004  0.57072398  0.80908553  1
  Se  Se197  1  0.57592720  0.91445769  0.31471593  1
  Se  Se198  1  0.58849668  0.92012449  0.80975187  1
  Se  Se199  1  0.92270561  0.25270365  0.29898007  1
  Se  Se200  1  0.90990582  0.24290087  0.81382388  1
  Se  Se201  1  0.90593721  0.57653966  0.29346423  1
  Se  Se202  1  0.91921416  0.58598354  0.81161216  1
  Se  Se203  1  0.91849736  0.91731729  0.29793679  1
  Se  Se204  1  0.91434463  0.91263344  0.81939490  1
  Se  Se205  1  0.08421441  0.08081203  0.29427428  1
  Se  Se206  1  0.09591854  0.09830380  0.80479832  1
  Se  Se207  1  0.08284319  0.41479281  0.29675198  1
  Se  Se208  1  0.08689540  0.41997821  0.82075212  1
  Se  Se209  1  0.07917712  0.74607716  0.29263130  1
  Se  Se210  1  0.08160284  0.74858336  0.81028713  1
  Se  Se211  1  0.42058729  0.08791670  0.29659525  1
  Se  Se212  1  0.41401566  0.08874809  0.81544282  1
  Se  Se213  1  0.41768471  0.41639232  0.29457311  1
  Se  Se214  1  0.40903360  0.40985184  0.80510649  1
  Se  Se215  1  0.41085302  0.76119901  0.31219404  1
  Se  Se216  1  0.42025265  0.75123205  0.81110155  1
  Se  Se217  1  0.76139749  0.09194965  0.30434317  1
  Se  Se218  1  0.74368197  0.07670856  0.80875938  1
  Se  Se219  1  0.75539401  0.42404605  0.30773332  1
  Se  Se220  1  0.75029681  0.41647521  0.80256744  1
  Se  Se221  1  0.74652236  0.75570115  0.29908021  1
  Se  Se222  1  0.76383300  0.75458298  0.82095642  1
  Se  Se223  1  0.25340954  0.07908937  0.19416836  1
  Se  Se224  1  0.23613495  0.09095593  0.68666792  1
  Se  Se225  1  0.25102983  0.41162470  0.19656253  1
  Se  Se226  1  0.24506944  0.41220276  0.70655334  1
  Se  Se227  1  0.23672982  0.74622533  0.17884673  1
  Se  Se228  1  0.24363016  0.75837443  0.69021911  1
  Se  Se229  1  0.57872264  0.09480216  0.19566664  1
  Se  Se230  1  0.57870951  0.08028870  0.70056261  1
  Se  Se231  1  0.57840714  0.42080809  0.17984032  1
  Se  Se232  1  0.58621748  0.40631751  0.69881211  1
  Se  Se233  1  0.58076948  0.75273687  0.20345500  1
  Se  Se234  1  0.58597740  0.75087473  0.69879334  1
  Se  Se235  1  0.92426260  0.08044119  0.19466931  1
  Se  Se236  1  0.90685455  0.09174720  0.69598482  1
  Se  Se237  1  0.90860640  0.41482446  0.19888610  1
  Se  Se238  1  0.90808362  0.42752247  0.68830941  1
  Se  Se239  1  0.92157676  0.74969287  0.19050833  1
  Se  Se240  1  0.92305259  0.75020399  0.69952675  1
  Se  Se241  1  0.08274095  0.25022745  0.19591190  1
  Se  Se242  1  0.07969055  0.24829529  0.69207068  1
  Se  Se243  1  0.08047030  0.58556299  0.19230215  1
  Se  Se244  1  0.08182564  0.58586231  0.70752470  1
  Se  Se245  1  0.07915753  0.92064745  0.18989105  1
  Se  Se246  1  0.08692409  0.91514533  0.69175044  1
  Se  Se247  1  0.41540902  0.24798209  0.20056000  1
  Se  Se248  1  0.40977221  0.24187019  0.69541811  1
  Se  Se249  1  0.41668210  0.57914824  0.18578195  1
  Se  Se250  1  0.42697188  0.56926628  0.68749694  1
  Se  Se251  1  0.41209008  0.91845953  0.19672238  1
  Se  Se252  1  0.42742721  0.90679462  0.69660832  1
  Se  Se253  1  0.75860992  0.24447073  0.18177213  1
  Se  Se254  1  0.74426609  0.25323638  0.70410211  1
  Se  Se255  1  0.74634294  0.59681864  0.19616817  1
  Se  Se256  1  0.75987019  0.58007632  0.68806784  1
  Se  Se257  1  0.75846885  0.91411620  0.18533354  1
  Se  Se258  1  0.75321246  0.91374837  0.70413578  1
