# generated using pymatgen
data_In86Cu29Se144
_symmetry_space_group_name_H-M   'P 1'
_cell_length_a   17.58563817
_cell_length_b   17.58897297
_cell_length_c   23.45698209
_cell_angle_alpha   90.00680125
_cell_angle_beta   89.99706128
_cell_angle_gamma   90.00382979
_symmetry_Int_Tables_number   1
_chemical_formula_structural   In86Cu29Se144
_chemical_formula_sum   'In86 Cu29 Se144'
_cell_volume   7255.55679580
_cell_formula_units_Z   1
loop_
 _symmetry_equiv_pos_site_id
 _symmetry_equiv_pos_as_xyz
  1  'x, y, z'
loop_
 _atom_site_type_symbol
 _atom_site_label
 _atom_site_symmetry_multiplicity
 _atom_site_fract_x
 _atom_site_fract_y
 _atom_site_fract_z
 _atom_site_occupancy
  In  In0  1  -0.01159372  0.15895596  0.11325144  1
  In  In1  1  0.00722338  0.16701932  0.61572645  1
  In  In2  1  0.00411809  0.48935657  0.12682210  1
  In  In3  1  0.00946345  0.50420837  0.62072810  1
  In  In4  1  -0.00055365  0.84761939  0.12463757  1
  In  In5  1  -0.01048159  0.82217419  0.62772713  1
  In  In6  1  0.32242672  0.15857593  0.12140096  1
  In  In7  1  0.32170990  0.17359703  0.62739136  1
  In  In8  1  0.33742807  0.50396669  0.11910690  1
  In  In9  1  0.34271380  0.50218862  0.61545151  1
  In  In10  1  0.33978862  0.82233645  0.12815464  1
  In  In11  1  0.33400505  0.83307064  0.63647602  1
  In  In12  1  0.66412154  0.16115055  0.12111100  1
  In  In13  1  0.68098547  0.16169948  0.62483479  1
  In  In14  1  0.66868584  0.51982266  0.12806119  1
  In  In15  1  0.66789410  0.49980935  0.62688766  1
  In  In16  1  0.66404678  0.83300671  0.11802855  1
  In  In17  1  0.66458530  0.82987627  0.62934358  1
  In  In18  1  0.16757286  0.00298993  0.36866793  1
  In  In19  1  0.17795012  0.00399972  0.87695523  1
  In  In20  1  0.16232087  0.34110595  0.38400879  1
  In  In21  1  0.16360624  0.33526185  0.88863430  1
  In  In22  1  0.17330665  0.64901129  0.37258769  1
  In  In23  1  0.16001335  0.65748014  0.86985651  1
  In  In24  1  0.50109486  -0.00292427  0.36107483  1
  In  In25  1  0.49200798  0.00615266  0.88522319  1
  In  In26  1  0.50737743  0.34050809  0.37748621  1
  In  In27  1  0.51059875  0.32926723  0.88173484  1
  In  In28  1  0.49269484  0.66001708  0.36950007  1
  In  In29  1  0.49942743  0.66764270  0.87580624  1
  In  In30  1  0.84856474  0.02340312  0.34709038  1
  In  In31  1  0.83455284  -0.00087187  0.88447478  1
  In  In32  1  0.83695612  0.33040428  0.38311575  1
  In  In33  1  0.81904349  0.34077774  0.87675879  1
  In  In34  1  0.82163293  0.66364200  0.37540436  1
  In  In35  1  0.83250962  0.67639377  0.86624285  1
  In  In36  1  0.00007739  0.16395076  0.37769425  1
  In  In37  1  -0.00066083  0.17284666  0.89066704  1
  In  In38  1  0.00366962  0.49495184  0.38309398  1
  In  In39  1  -0.00650694  0.51221989  0.87878051  1
  In  In40  1  -0.01423790  0.84028628  0.37129079  1
  In  In41  1  -0.00530953  0.82127995  0.87501766  1
  In  In42  1  0.33409713  0.15450378  0.37094468  1
  In  In43  1  0.33719397  0.16588123  0.88315690  1
  In  In44  1  0.32030160  0.51293663  0.38655629  1
  In  In45  1  0.32692217  0.50947194  0.87853701  1
  In  In46  1  0.33668553  0.83415391  0.36526625  1
  In  In47  1  0.33924392  0.84076987  0.87166654  1
  In  In48  1  0.68153148  0.16688180  0.36985675  1
  In  In49  1  0.66303761  0.16999384  0.88285756  1
  In  In50  1  0.65945164  0.50319752  0.38082895  1
  In  In51  1  0.66118952  0.49793762  0.86968546  1
  In  In52  1  0.66794005  0.83177247  0.36427308  1
  In  In53  1  0.67588794  0.82141407  0.88123376  1
  In  In54  1  0.15376765  0.00829416  0.13519683  1
  In  In55  1  0.17015740  0.01592309  0.62609224  1
  In  In56  1  0.16346516  0.33749464  0.11274105  1
  In  In57  1  0.17605719  0.33172015  0.60860163  1
  In  In58  1  0.17952730  0.66587346  0.12650728  1
  In  In59  1  0.17618640  0.65862108  0.63385484  1
  In  In60  1  0.49849887  -0.00329256  0.12159826  1
  In  In61  1  0.50056083  -0.01301460  0.62796285  1
  In  In62  1  0.50012488  0.33358407  0.11516762  1
  In  In63  1  0.49876267  0.35265466  0.62535978  1
  In  In64  1  0.50090426  0.66761924  0.11831100  1
  In  In65  1  0.51066118  0.65565857  0.63672295  1
  In  In66  1  0.83460135  0.00054426  0.12341973  1
  In  In67  1  0.83164444  0.00532735  0.61771495  1
  In  In68  1  0.84664664  0.32160328  0.12740616  1
  In  In69  1  0.82644734  0.32594290  0.62247572  1
  In  In70  1  0.80712901  0.66137713  0.12720683  1
  In  In71  1  0.84707665  0.66055269  0.63751393  1
  In  In72  1  0.33068982  0.33858440  0.24765384  1
  In  In73  1  0.00054881  0.67089522  0.25387776  1
  In  In74  1  0.83456250  0.49629822  0.00453659  1
  In  In75  1  0.00533392  -0.00526666  0.75108726  1
  In  In76  1  0.16449117  0.83609214  0.49121899  1
  In  In77  1  0.49423370  0.17262863  0.49854741  1
  In  In78  1  0.16833867  0.83535912  0.00072873  1
  In  In79  1  0.00245068  0.33355497  0.25440029  1
  In  In80  1  0.50178757  0.82801839  0.50259986  1
  In  In81  1  -0.00099684  0.33558609  0.74941963  1
  In  In82  1  0.67071766  0.33239525  0.24734867  1
  In  In83  1  0.83056130  0.83666057  0.50179530  1
  In  In84  1  0.33560919  0.33828007  0.74705814  1
  In  In85  1  0.66662329  -0.00563173  0.74968405  1
  Cu  Cu86  1  0.66423837  0.65702904  0.50337200  1
  Cu  Cu87  1  0.33159527  0.00232339  0.00344128  1
  Cu  Cu88  1  0.50388031  0.82914905  0.24081046  1
  Cu  Cu89  1  0.49880439  0.50989811  0.24806124  1
  Cu  Cu90  1  0.66318732  0.66666440  -0.00220932  1
  Cu  Cu91  1  0.49986249  0.16545933  0.76160501  1
  Cu  Cu92  1  0.49941854  0.16054734  0.24399748  1
  Cu  Cu93  1  0.16454464  0.50537911  0.74914022  1
  Cu  Cu94  1  0.16117284  0.16887977  0.24871256  1
  Cu  Cu95  1  -0.00631919  0.33282180  0.50099425  1
  Cu  Cu96  1  0.33755243  0.65926408  0.50284748  1
  Cu  Cu97  1  0.82775469  0.50266634  0.75163228  1
  Cu  Cu98  1  0.17180730  0.16738820  0.75061629  1
  Cu  Cu99  1  0.66712366  0.33725725  0.50137511  1
  Cu  Cu100  1  0.49682918  0.83288430  0.75624639  1
  Cu  Cu101  1  0.33923325  0.33820253  -0.00109138  1
  Cu  Cu102  1  0.82624197  0.83275862  0.24368082  1
  Cu  Cu103  1  0.00280698  0.66041050  0.50330864  1
  Cu  Cu104  1  0.66491652  -0.00101882  0.00244527  1
  Cu  Cu105  1  0.16737111  0.83106767  0.75616353  1
  Cu  Cu106  1  0.83198555  0.16960663  0.74814857  1
  Cu  Cu107  1  0.33632924  0.66590303  -0.00048349  1
  Cu  Cu108  1  0.67044337  0.33115570  0.00153765  1
  Cu  Cu109  1  0.17104309  0.83559978  0.24907609  1
  Cu  Cu110  1  0.67602121  0.00736345  0.49044696  1
  Cu  Cu111  1  -0.00335273  0.66563685  -0.00234295  1
  Cu  Cu112  1  0.50120425  0.50428482  0.75079777  1
  Cu  Cu113  1  0.32978642  0.00221613  0.49718551  1
  Cu  Cu114  1  -0.00199318  0.00184368  0.00419600  1
  Se  Se115  1  0.08850247  0.08200519  0.05316711  1
  Se  Se116  1  0.08485298  0.07758837  0.55155988  1
  Se  Se117  1  0.07904310  0.42274527  0.04846554  1
  Se  Se118  1  0.08206829  0.41552939  0.55108327  1
  Se  Se119  1  0.07738027  0.74451908  0.06057132  1
  Se  Se120  1  0.08352975  0.74504651  0.55932972  1
  Se  Se121  1  0.41685047  0.08620681  0.05506429  1
  Se  Se122  1  0.41364776  0.07414880  0.56072409  1
  Se  Se123  1  0.42215203  0.42345235  0.05021181  1
  Se  Se124  1  0.39955794  0.39553304  0.55306341  1
  Se  Se125  1  0.41778856  0.75314267  0.04995917  1
  Se  Se126  1  0.41265059  0.74161613  0.56490576  1
  Se  Se127  1  0.75128578  0.08277244  0.05275932  1
  Se  Se128  1  0.75618617  0.08932308  0.54649858  1
  Se  Se129  1  0.74406036  0.40924978  0.06800513  1
  Se  Se130  1  0.75093064  0.41841811  0.55667264  1
  Se  Se131  1  0.74959352  0.74828313  0.04966213  1
  Se  Se132  1  0.74513947  0.74047562  0.56138726  1
  Se  Se133  1  0.25644341  0.25482179  0.05315710  1
  Se  Se134  1  0.24623947  0.23360340  0.54671676  1
  Se  Se135  1  0.24913122  0.58449197  0.05077566  1
  Se  Se136  1  0.24633898  0.58283114  0.55477798  1
  Se  Se137  1  0.25129286  0.92335184  0.06616029  1
  Se  Se138  1  0.25718593  0.91684960  0.55872147  1
  Se  Se139  1  0.58439549  0.24701956  0.05211351  1
  Se  Se140  1  0.58914573  0.25343456  0.56231717  1
  Se  Se141  1  0.58330112  0.57994464  0.05041727  1
  Se  Se142  1  0.57791627  0.57801624  0.55753509  1
  Se  Se143  1  0.57797515  0.91399448  0.05007668  1
  Se  Se144  1  0.59921446  0.92598483  0.55298878  1
  Se  Se145  1  0.92375874  0.25943762  0.04855294  1
  Se  Se146  1  0.91376054  0.24706302  0.55484989  1
  Se  Se147  1  0.91989079  0.59154163  0.06543636  1
  Se  Se148  1  0.91471235  0.58357142  0.55765119  1
  Se  Se149  1  0.91331210  0.91416056  0.05088459  1
  Se  Se150  1  0.93014241  0.92342096  0.55686335  1
  Se  Se151  1  0.07766559  0.25215752  0.44529750  1
  Se  Se152  1  0.09438282  0.24226823  0.95437858  1
  Se  Se153  1  0.08800706  0.58217621  0.44765871  1
  Se  Se154  1  0.08405897  0.58392880  0.94813595  1
  Se  Se155  1  0.06987072  0.92692211  0.43874404  1
  Se  Se156  1  0.07541153  0.92294902  0.93876718  1
  Se  Se157  1  0.40587639  0.25761620  0.43535662  1
  Se  Se158  1  0.42155129  0.25077935  0.94805313  1
  Se  Se159  1  0.42445795  0.58113753  0.44823457  1
  Se  Se160  1  0.41979794  0.58207227  0.94590234  1
  Se  Se161  1  0.41503001  0.92194503  0.44104617  1
  Se  Se162  1  0.41149404  0.91557510  0.95035455  1
  Se  Se163  1  0.74578436  0.25005490  0.44741993  1
  Se  Se164  1  0.75442437  0.24895277  0.94831488  1
  Se  Se165  1  0.75143631  0.57916800  0.44921789  1
  Se  Se166  1  0.74899231  0.58538866  0.93985095  1
  Se  Se167  1  0.74996031  0.92070622  0.43233246  1
  Se  Se168  1  0.74816649  0.91533103  0.94826387  1
  Se  Se169  1  0.24725528  0.08225753  0.44260179  1
  Se  Se170  1  0.24838070  0.08674972  0.95108704  1
  Se  Se171  1  0.25117125  0.41673539  0.44996467  1
  Se  Se172  1  0.25257500  0.42137700  0.94834161  1
  Se  Se173  1  0.26332246  0.74398378  0.44119101  1
  Se  Se174  1  0.25297132  0.74443032  0.93804708  1
  Se  Se175  1  0.58237766  0.08026922  0.43679424  1
  Se  Se176  1  0.58196587  0.08528440  0.95014509  1
  Se  Se177  1  0.57992194  0.41997885  0.45238021  1
  Se  Se178  1  0.59088576  0.41837061  0.94767840  1
  Se  Se179  1  0.59249077  0.74281832  0.44083550  1
  Se  Se180  1  0.57909779  0.75174569  0.94677781  1
  Se  Se181  1  0.90548016  0.08150556  0.43697989  1
  Se  Se182  1  0.91306571  0.08552430  0.95204759  1
  Se  Se183  1  0.91266246  0.42046759  0.45042183  1
  Se  Se184  1  0.92365907  0.40828653  0.94173968  1
  Se  Se185  1  0.92267766  0.74112777  0.44359239  1
  Se  Se186  1  0.91035720  0.74660020  0.94648865  1
  Se  Se187  1  0.24100598  0.24846154  0.30961706  1
  Se  Se188  1  0.24596506  0.25263091  0.81126834  1
  Se  Se189  1  0.26315269  0.58496335  0.30141503  1
  Se  Se190  1  0.25262664  0.58507100  0.80114951  1
  Se  Se191  1  0.25345027  0.92108043  0.30169135  1
  Se  Se192  1  0.24927157  0.91975134  0.80449391  1
  Se  Se193  1  0.57426596  0.24266242  0.30642013  1
  Se  Se194  1  0.58770622  0.24955065  0.80739895  1
  Se  Se195  1  0.58714889  0.58439959  0.30471498  1
  Se  Se196  1  0.58369261  0.58868431  0.80403636  1
  Se  Se197  1  0.58481928  0.91321580  0.29607660  1
  Se  Se198  1  0.57686690  0.91426980  0.81601884  1
  Se  Se199  1  0.90679748  0.24298413  0.30662605  1
  Se  Se200  1  0.91218785  0.24500526  0.81156498  1
  Se  Se201  1  0.91530998  0.57679776  0.31299781  1
  Se  Se202  1  0.91472753  0.58360191  0.80370161  1
  Se  Se203  1  0.91648060  0.91433553  0.29217814  1
  Se  Se204  1  0.90828089  0.91208475  0.80900370  1
  Se  Se205  1  0.07926971  0.08555829  0.30355248  1
  Se  Se206  1  0.08587089  0.09443328  0.81135513  1
  Se  Se207  1  0.09525648  0.42895655  0.30599738  1
  Se  Se208  1  0.08921397  0.42343520  0.81111079  1
  Se  Se209  1  0.09343899  0.75916957  0.31557651  1
  Se  Se210  1  0.08049630  0.74798110  0.80445408  1
  Se  Se211  1  0.41304011  0.07959991  0.29669134  1
  Se  Se212  1  0.41314927  0.08324757  0.80990676  1
  Se  Se213  1  0.42350778  0.42481322  0.30806381  1
  Se  Se214  1  0.42390753  0.42180784  0.81263427  1
  Se  Se215  1  0.42110534  0.75041776  0.30027018  1
  Se  Se216  1  0.41254267  0.74683441  0.80581516  1
  Se  Se217  1  0.72727334  0.06865612  0.29699032  1
  Se  Se218  1  0.75577352  0.08638424  0.80945382  1
  Se  Se219  1  0.75287314  0.41852300  0.31454858  1
  Se  Se220  1  0.74510739  0.41499133  0.80042469  1
  Se  Se221  1  0.75148944  0.74508687  0.29949982  1
  Se  Se222  1  0.74206640  0.75060389  0.79946018  1
  Se  Se223  1  0.24883121  0.08453209  0.19974126  1
  Se  Se224  1  0.25668954  0.08307388  0.70088608  1
  Se  Se225  1  0.24086215  0.42456857  0.18666653  1
  Se  Se226  1  0.24023106  0.42248315  0.68746735  1
  Se  Se227  1  0.25254399  0.74827814  0.19969103  1
  Se  Se228  1  0.25160577  0.74797695  0.70186250  1
  Se  Se229  1  0.58319753  0.07914238  0.19099663  1
  Se  Se230  1  0.57590117  0.08983614  0.69224337  1
  Se  Se231  1  0.57544854  0.42210646  0.19052331  1
  Se  Se232  1  0.58438668  0.41865714  0.69917339  1
  Se  Se233  1  0.58754778  0.74488462  0.18866980  1
  Se  Se234  1  0.58198788  0.75398574  0.70014603  1
  Se  Se235  1  0.92363176  0.07898836  0.19045023  1
  Se  Se236  1  0.91559580  0.08968016  0.69165171  1
  Se  Se237  1  0.90635440  0.42433600  0.19766456  1
  Se  Se238  1  0.90910338  0.42403512  0.68939296  1
  Se  Se239  1  0.91128786  0.75212256  0.18613109  1
  Se  Se240  1  0.91512937  0.75446210  0.70519126  1
  Se  Se241  1  0.08583217  0.24806599  0.18586758  1
  Se  Se242  1  0.09346858  0.24859992  0.68972767  1
  Se  Se243  1  0.08850113  0.58093541  0.19289491  1
  Se  Se244  1  0.07714062  0.58670959  0.69776243  1
  Se  Se245  1  0.08006992  0.91553302  0.20180280  1
  Se  Se246  1  0.09432256  0.90753109  0.68707239  1
  Se  Se247  1  0.42070306  0.24646234  0.18850299  1
  Se  Se248  1  0.42762886  0.24346796  0.69203269  1
  Se  Se249  1  0.41653615  0.58727223  0.18960171  1
  Se  Se250  1  0.41082985  0.57874124  0.69574785  1
  Se  Se251  1  0.41697366  0.91481842  0.19304455  1
  Se  Se252  1  0.41679346  0.91941246  0.70256590  1
  Se  Se253  1  0.75908810  0.23636591  0.19357432  1
  Se  Se254  1  0.74560118  0.25142552  0.69823187  1
  Se  Se255  1  0.75543350  0.57445930  0.20598813  1
  Se  Se256  1  0.74586950  0.58649354  0.69686093  1
  Se  Se257  1  0.74646681  0.91565012  0.18769739  1
  Se  Se258  1  0.76423006  0.91155965  0.69007280  1
