# generated using pymatgen
data_Ti108Co54Ni53
_symmetry_space_group_name_H-M   'P 1'
_cell_length_a   14.64005424
_cell_length_b   14.61125718
_cell_length_c   14.59331436
_cell_angle_alpha   90.21017376
_cell_angle_beta   89.97223743
_cell_angle_gamma   90.36790144
_symmetry_Int_Tables_number   1
_chemical_formula_structural   Ti108Co54Ni53
_chemical_formula_sum   'Ti108 Co54 Ni53'
_cell_volume   3121.56431615
_cell_formula_units_Z   1
loop_
 _symmetry_equiv_pos_site_id
 _symmetry_equiv_pos_as_xyz
  1  'x, y, z'
loop_
 _atom_site_type_symbol
 _atom_site_label
 _atom_site_symmetry_multiplicity
 _atom_site_fract_x
 _atom_site_fract_y
 _atom_site_fract_z
 _atom_site_occupancy
  Ti  Ti0  1  0.05093867  0.08448532  0.19776758  1
  Ti  Ti1  1  0.09442252  0.15258321  0.60887591  1
  Ti  Ti2  1  -0.01849820  0.07022030  0.89596777  1
  Ti  Ti3  1  0.13158363  0.45440751  0.22865991  1
  Ti  Ti4  1  0.10293298  0.35486584  0.69479592  1
  Ti  Ti5  1  0.12021494  0.37473661  0.91824712  1
  Ti  Ti6  1  0.01767403  0.76708325  0.23940229  1
  Ti  Ti7  1  0.06233940  0.77013732  0.66061605  1
  Ti  Ti8  1  0.09907349  0.79770230  0.84561122  1
  Ti  Ti9  1  0.42827372  0.00760980  0.22234614  1
  Ti  Ti10  1  0.40205101  0.09792152  0.51458486  1
  Ti  Ti11  1  0.38759006  0.07113917  0.90679743  1
  Ti  Ti12  1  0.35154702  0.44875624  0.30392499  1
  Ti  Ti13  1  0.35988006  0.38083102  0.52710972  1
  Ti  Ti14  1  0.38745232  0.38662454  0.87046539  1
  Ti  Ti15  1  0.46649524  0.76798447  0.25319176  1
  Ti  Ti16  1  0.44839594  0.74533640  0.56909921  1
  Ti  Ti17  1  0.42859754  0.68541630  0.92699401  1
  Ti  Ti18  1  0.74665871  0.13032907  0.31281546  1
  Ti  Ti19  1  0.78702588  0.05724271  0.55989681  1
  Ti  Ti20  1  0.76034961  0.12550444  0.93255320  1
  Ti  Ti21  1  0.68175179  0.40156188  0.21921868  1
  Ti  Ti22  1  0.74749900  0.46770291  0.65652285  1
  Ti  Ti23  1  0.70545464  0.32299884  0.85917461  1
  Ti  Ti24  1  0.81258941  0.80107152  0.24826381  1
  Ti  Ti25  1  0.77235177  0.80068129  0.54806966  1
  Ti  Ti26  1  0.73389660  0.65886549  0.89747398  1
  Ti  Ti27  1  0.11000649  0.16658858  0.01673090  1
  Ti  Ti28  1  0.09748343  0.21405832  0.36892192  1
  Ti  Ti29  1  0.09867275  0.20662274  0.82362952  1
  Ti  Ti30  1  0.11011539  0.62501658  0.12993376  1
  Ti  Ti31  1  0.11418228  0.53093819  0.45304676  1
  Ti  Ti32  1  0.10911377  0.56148713  0.66064850  1
  Ti  Ti33  1  0.09932718  0.95564409  0.02427182  1
  Ti  Ti34  1  0.06468266  0.87052198  0.43163222  1
  Ti  Ti35  1  0.16873815  0.94584060  0.70094260  1
  Ti  Ti36  1  0.43317946  0.29734347  0.18254655  1
  Ti  Ti37  1  0.46439535  0.26634522  0.40153624  1
  Ti  Ti38  1  0.52691025  0.25566726  0.78361516  1
  Ti  Ti39  1  0.46191776  0.61379706  0.09886858  1
  Ti  Ti40  1  0.37328978  0.63753135  0.40217928  1
  Ti  Ti41  1  0.47334597  0.64567611  0.72894632  1
  Ti  Ti42  1  0.37510642  0.95057956  0.05828968  1
  Ti  Ti43  1  0.40310184  0.92149258  0.40530344  1
  Ti  Ti44  1  0.44229367  0.85011211  0.78836089  1
  Ti  Ti45  1  0.73299488  0.21842946  0.14017382  1
  Ti  Ti46  1  0.78354723  0.31231040  0.44101817  1
  Ti  Ti47  1  0.71603961  0.17803461  0.72173310  1
  Ti  Ti48  1  0.72413874  0.71179644  0.09900072  1
  Ti  Ti49  1  0.81073134  0.50920992  0.38078058  1
  Ti  Ti50  1  0.67907414  0.63213384  0.70871609  1
  Ti  Ti51  1  0.75771844  0.94033952  0.08142259  1
  Ti  Ti52  1  0.71234034  0.92175725  0.42946438  1
  Ti  Ti53  1  0.76269423  0.85199319  0.81727642  1
  Ti  Ti54  1  0.22795203  0.05692287  0.15821579  1
  Ti  Ti55  1  0.19882962  0.06833279  0.45459622  1
  Ti  Ti56  1  0.25453225  0.11757144  0.77254525  1
  Ti  Ti57  1  0.24579328  0.46106032  0.07684380  1
  Ti  Ti58  1  0.20578185  0.36729016  0.39585611  1
  Ti  Ti59  1  0.29856493  0.46714579  0.69928557  1
  Ti  Ti60  1  0.21470494  0.74850249  -0.00107100  1
  Ti  Ti61  1  0.17575259  0.71599538  0.37257616  1
  Ti  Ti62  1  0.27276627  0.79014785  0.69548590  1
  Ti  Ti63  1  0.59939929  0.09482768  0.03557839  1
  Ti  Ti64  1  0.62523740  0.12733071  0.44269610  1
  Ti  Ti65  1  0.51595141  0.05050870  0.76131619  1
  Ti  Ti66  1  0.52972488  0.40821719  0.04912062  1
  Ti  Ti67  1  0.61483328  0.40169836  0.42575143  1
  Ti  Ti68  1  0.52594338  0.44612622  0.73032018  1
  Ti  Ti69  1  0.50777822  0.80056749  0.08196377  1
  Ti  Ti70  1  0.64193040  0.72848329  0.35938038  1
  Ti  Ti71  1  0.61522651  0.80116233  0.67029114  1
  Ti  Ti72  1  0.89749307  0.16020003  0.05491780  1
  Ti  Ti73  1  0.99464729  0.06474405  0.43147966  1
  Ti  Ti74  1  0.86145059  0.04359912  0.74479674  1
  Ti  Ti75  1  0.90932043  0.35140004  0.12745103  1
  Ti  Ti76  1  0.96867459  0.38923366  0.38268801  1
  Ti  Ti77  1  0.93784992  0.48112182  0.70704631  1
  Ti  Ti78  1  0.91570308  0.69910788  0.06991892  1
  Ti  Ti79  1  0.83620939  0.69275871  0.40030989  1
  Ti  Ti80  1  0.86918274  0.73083295  0.70138354  1
  Ti  Ti81  1  0.21639494  0.26874015  0.16227288  1
  Ti  Ti82  1  0.26307760  0.25279113  0.62263924  1
  Ti  Ti83  1  0.26577133  0.24936213  0.94621717  1
  Ti  Ti84  1  0.30024150  0.63113911  0.20889897  1
  Ti  Ti85  1  0.25264171  0.64497447  0.55990294  1
  Ti  Ti86  1  0.23946619  0.55534022  0.88994372  1
  Ti  Ti87  1  0.25160612  0.89875026  0.24879036  1
  Ti  Ti88  1  0.30815512  0.92533079  0.56536274  1
  Ti  Ti89  1  0.26320762  0.91439909  0.87841033  1
  Ti  Ti90  1  0.55430751  0.16820337  0.23641578  1
  Ti  Ti91  1  0.55192861  0.20489445  0.59571381  1
  Ti  Ti92  1  0.46963993  0.23315065  0.97619447  1
  Ti  Ti93  1  0.52827177  0.55886747  0.29449005  1
  Ti  Ti94  1  0.56123337  0.53914871  0.57232593  1
  Ti  Ti95  1  0.55929399  0.54815713  0.89784522  1
  Ti  Ti96  1  0.58017505  0.94363176  0.30829418  1
  Ti  Ti97  1  0.62974329  0.99160499  0.61966073  1
  Ti  Ti98  1  0.61146645  0.82048703  0.94086442  1
  Ti  Ti99  1  0.91957838  0.19229173  0.28359280  1
  Ti  Ti100  1  0.89615145  0.26568788  0.61176514  1
  Ti  Ti101  1  0.88445954  0.23271839  0.84979529  1
  Ti  Ti102  1  0.98617405  0.57428472  0.29643069  1
  Ti  Ti103  1  0.94941076  0.58063904  0.52586730  1
  Ti  Ti104  1  1.03376705  0.64286987  0.92470444  1
  Ti  Ti105  1  0.94581276  0.95102213  0.26788589  1
  Ti  Ti106  1  0.93827286  0.92090174  0.58883041  1
  Ti  Ti107  1  0.94567510  0.86450453  0.94370743  1
  Co  Co108  1  0.00408816  0.70355090  0.39315505  1
  Co  Co109  1  0.68538874  0.48779995  0.81160347  1
  Co  Co110  1  0.56365307  0.38195535  0.89008961  1
  Co  Co111  1  0.94552736  0.09649839  0.58212311  1
  Co  Co112  1  -0.00786973  0.27349742  -0.03404245  1
  Co  Co113  1  0.79174322  0.81503568  -0.01961087  1
  Co  Co114  1  0.39617443  0.50303865  -0.01305716  1
  Co  Co115  1  0.84157067  -0.01634824  0.90652095  1
  Co  Co116  1  0.30166934  0.13577840  0.04404546  1
  Co  Co117  1  0.52259700  0.39201711  0.28174029  1
  Co  Co118  1  0.32498481  0.28418509  0.31408247  1
  Co  Co119  1  0.59203573  0.51782941  0.14773495  1
  Co  Co120  1  0.09409967  -0.09137964  0.18272543  1
  Co  Co121  1  0.36025455  0.15606030  0.21340596  1
  Co  Co122  1  0.21659738  0.16139573  0.29191018  1
  Co  Co123  1  0.18553600  0.75793742  0.18722119  1
  Co  Co124  1  0.34886989  0.76704998  0.12010812  1
  Co  Co125  1  0.77916028  0.90881522  0.66759475  1
  Co  Co126  1  0.28961916  0.51225451  0.46347746  1
  Co  Co127  1  0.10114725  -0.02161798  0.56056832  1
  Co  Co128  1  0.54776422  -0.01789717  0.47647566  1
  Co  Co129  1  -0.00895114  0.64000736  0.76104378  1
  Co  Co130  1  0.31639224  0.77966072  0.48012477  1
  Co  Co131  1  0.09184176  0.36889712  0.08665071  1
  Co  Co132  1  0.17660289  0.82246665  0.55513899  1
  Co  Co133  1  -0.01344086  0.34964634  0.80211622  1
  Co  Co134  1  0.41472902  0.47482861  0.16125069  1
  Co  Co135  1  -0.02494273  0.18196214  0.72632361  1
  Co  Co136  1  0.30842819  0.04041201  0.33838888  1
  Co  Co137  1  0.37439978  0.21706804  0.82192529  1
  Co  Co138  1  0.59864006  0.82937582  0.50825339  1
  Co  Co139  1  0.59548385  0.66169848  0.00959527  1
  Co  Co140  1  0.12438119  0.00903814  0.31804092  1
  Co  Co141  1  0.82578236  0.58602659  0.77331251  1
  Co  Co142  1  0.19694882  0.43943210  0.57464465  1
  Co  Co143  1  0.58757610  0.72143829  0.81941707  1
  Co  Co144  1  0.64340040  0.27252924  0.32296182  1
  Co  Co145  1  0.22658141  0.90109022  0.41300987  1
  Co  Co146  1  0.81301587  0.62388084  0.58307250  1
  Co  Co147  1  0.06432682  0.78199240  0.05935675  1
  Co  Co148  1  0.39258119  0.84009256  -0.05266697  1
  Co  Co149  1  0.71759150  0.21105208  0.56092338  1
  Co  Co150  1  0.52724085  0.63655596  0.44869348  1
  Co  Co151  1  0.70545584  0.02824223  0.77672160  1
  Co  Co152  1  0.23105210  0.88451830  0.08069223  1
  Co  Co153  1  0.28045322  0.22351053  0.45915733  1
  Co  Co154  1  0.40496088  0.57065549  0.58180995  1
  Co  Co155  1  0.48184311  0.78539132  0.40634148  1
  Co  Co156  1  0.31899985  0.77325443  0.31264185  1
  Co  Co157  1  0.09297521  0.68286876  0.52578517  1
  Co  Co158  1  0.39261529  0.54376629  0.82866475  1
  Co  Co159  1  0.45021777  0.10545115  0.08537804  1
  Co  Co160  1  -0.02390014  0.25445383  0.47220295  1
  Co  Co161  1  0.59553375  0.90673298  0.78910422  1
  Ni  Ni162  1  0.84881666  0.47259606  0.22821210  1
  Ni  Ni163  1  0.66949762  0.05680753  0.18182101  1
  Ni  Ni164  1  0.84644882  0.16503342  0.45453961  1
  Ni  Ni165  1  -0.06290729  0.75522378  0.53611683  1
  Ni  Ni166  1  0.29134713  0.74035347  0.85034723  1
  Ni  Ni167  1  0.47509470  0.08851958  0.36523532  1
  Ni  Ni168  1  0.75155040  -0.04898908  0.26768120  1
  Ni  Ni169  1  0.12907153  0.29354267  0.52322785  1
  Ni  Ni170  1  0.52271966  0.36548949  0.57028051  1
  Ni  Ni171  1  0.67976702  -0.02773564  -0.06934714  1
  Ni  Ni172  1  0.60770358  0.13959613  0.86991458  1
  Ni  Ni173  1  0.24394144  0.31968289  0.78645892  1
  Ni  Ni174  1  0.46452491  0.47578035  0.43806638  1
  Ni  Ni175  1  0.84605769  0.06244690  0.18225634  1
  Ni  Ni176  1  0.55443604  -0.04641196  0.11640489  1
  Ni  Ni177  1  0.59473429  0.67848264  0.18946086  1
  Ni  Ni178  1  0.25732698  0.07854475  0.61250611  1
  Ni  Ni179  1  0.81119485  0.31533737  0.27736665  1
  Ni  Ni180  1  0.89297806  0.85663490  0.40752023  1
  Ni  Ni181  1  0.63702494  0.26544341  0.00547397  1
  Ni  Ni182  1  0.07036830  0.50439280  0.82353986  1
  Ni  Ni183  1  0.47555803  0.91692392  0.62272787  1
  Ni  Ni184  1  0.04929639  0.32250909  0.25676635  1
  Ni  Ni185  1  0.70478771  0.57436816  0.26628035  1
  Ni  Ni186  1  0.40052236  0.32219347  0.69094107  1
  Ni  Ni187  1  -0.01235858  0.50387069  0.13788430  1
  Ni  Ni188  1  0.02530555  0.02630221  0.70991484  1
  Ni  Ni189  1  0.84512754  0.01673974  0.38698324  1
  Ni  Ni190  1  0.15617883  0.65755299  0.78908164  1
  Ni  Ni191  1  0.34822619  -0.02103132  0.72669774  1
  Ni  Ni192  1  0.51415956  -0.03458237  0.93547110  1
  Ni  Ni193  1  0.02295077  0.23216569  0.13363693  1
  Ni  Ni194  1  0.19545569  0.06875082  -0.08081206  1
  Ni  Ni195  1  0.64686950  0.83788523  0.19505987  1
  Ni  Ni196  1  0.86420484  0.43177373  0.53469302  1
  Ni  Ni197  1  0.09036194  -0.04007911  0.84821073  1
  Ni  Ni198  1  -0.05482279  0.88951784  0.76399290  1
  Ni  Ni199  1  0.82181776  0.34209395  0.73486866  1
  Ni  Ni200  1  0.80628036  0.29262784  -0.00152135  1
  Ni  Ni201  1  0.40500525  0.14602657  0.67625460  1
  Ni  Ni202  1  0.29486100  0.61788190  0.04260850  1
  Ni  Ni203  1  -0.07924053  0.85786739  0.12057280  1
  Ni  Ni204  1  0.65255134  0.32903840  0.67932114  1
  Ni  Ni205  1  0.89084101  0.72120278  0.87303392  1
  Ni  Ni206  1  0.02688743  0.42272943  0.55728178  1
  Ni  Ni207  1  0.30725076  0.63117849  0.72221591  1
  Ni  Ni208  1  0.09349060  0.51309063  0.00595371  1
  Ni  Ni209  1  0.71316907  0.51691926  0.50379027  1
  Ni  Ni210  1  0.35782105  0.35006479  0.04654596  1
  Ni  Ni211  1  0.21239375  0.55596802  0.32429591  1
  Ni  Ni212  1  0.85527712  0.63887219  0.21811379  1
  Ni  Ni213  1  0.66238947  0.67494450  0.53067553  1
  Ni  Ni214  1  -0.06191824  0.00455894  0.05842396  1
