# generated using pymatgen
data_Ti108Co54Ni53
_symmetry_space_group_name_H-M   'P 1'
_cell_length_a   14.71012003
_cell_length_b   14.72991174
_cell_length_c   14.66970879
_cell_angle_alpha   89.77694246
_cell_angle_beta   90.15825986
_cell_angle_gamma   90.40006422
_symmetry_Int_Tables_number   1
_chemical_formula_structural   Ti108Co54Ni53
_chemical_formula_sum   'Ti108 Co54 Ni53'
_cell_volume   3178.50099219
_cell_formula_units_Z   1
loop_
 _symmetry_equiv_pos_site_id
 _symmetry_equiv_pos_as_xyz
  1  'x, y, z'
loop_
 _atom_site_type_symbol
 _atom_site_label
 _atom_site_symmetry_multiplicity
 _atom_site_fract_x
 _atom_site_fract_y
 _atom_site_fract_z
 _atom_site_occupancy
  Ti  Ti0  1  0.07187361  0.03703289  0.30619907  1
  Ti  Ti1  1  0.05141747  0.04898100  0.56268815  1
  Ti  Ti2  1  0.11853493  0.13552695  0.86292588  1
  Ti  Ti3  1  0.05135103  0.46130428  0.32520984  1
  Ti  Ti4  1  0.12543610  0.40298177  0.61686194  1
  Ti  Ti5  1  0.14969557  0.51284014  0.93192924  1
  Ti  Ti6  1  0.10345146  0.82257857  0.25907801  1
  Ti  Ti7  1  0.13897938  0.76035873  0.60182784  1
  Ti  Ti8  1  0.13867304  0.72776015  0.89662348  1
  Ti  Ti9  1  0.45481420  0.11237150  0.31498896  1
  Ti  Ti10  1  0.42884108  0.08176834  0.60589005  1
  Ti  Ti11  1  0.49902675  0.03829017  0.97025748  1
  Ti  Ti12  1  0.44666696  0.43799508  0.21880032  1
  Ti  Ti13  1  0.39817004  0.41607166  0.54071325  1
  Ti  Ti14  1  0.42522441  0.45532801  0.84001452  1
  Ti  Ti15  1  0.34551409  0.69743959  0.20095032  1
  Ti  Ti16  1  0.44979646  0.73978788  0.55821817  1
  Ti  Ti17  1  0.41785977  0.76359558  0.87022975  1
  Ti  Ti18  1  0.75099833  -0.00515816  0.24123976  1
  Ti  Ti19  1  0.69382933  0.03347702  0.58818041  1
  Ti  Ti20  1  0.71059341  0.01252341  0.95635222  1
  Ti  Ti21  1  0.72883882  0.39978469  0.36427933  1
  Ti  Ti22  1  0.78571581  0.48222130  0.56484510  1
  Ti  Ti23  1  0.76114104  0.44511974  0.99672616  1
  Ti  Ti24  1  0.77940513  0.75042064  0.25244323  1
  Ti  Ti25  1  0.82197101  0.74259600  0.62772118  1
  Ti  Ti26  1  0.75612190  0.67790161  0.93201182  1
  Ti  Ti27  1  0.18145358  0.18081744  0.08208216  1
  Ti  Ti28  1  0.13278669  0.18022633  0.42705878  1
  Ti  Ti29  1  0.02337516  0.27757028  0.73874422  1
  Ti  Ti30  1  0.04086176  0.65143671  0.04528439  1
  Ti  Ti31  1  0.12721001  0.60567128  0.47176730  1
  Ti  Ti32  1  0.06647544  0.58076633  0.65910250  1
  Ti  Ti33  1  0.02203071  0.93683914  0.11776925  1
  Ti  Ti34  1  0.08163963  0.88567707  0.45391957  1
  Ti  Ti35  1  0.04554538  0.96876099  0.77128113  1
  Ti  Ti36  1  0.37280150  0.20964940  0.05673530  1
  Ti  Ti37  1  0.34557715  0.23477650  0.44618352  1
  Ti  Ti38  1  0.46341119  0.25636080  0.76317355  1
  Ti  Ti39  1  0.50985723  0.59259468  0.10862874  1
  Ti  Ti40  1  0.34987937  0.57164850  0.41053900  1
  Ti  Ti41  1  0.44987194  0.62759230  0.73465421  1
  Ti  Ti42  1  0.41479480  0.91690617  0.12979438  1
  Ti  Ti43  1  0.36140526  0.91286649  0.41756341  1
  Ti  Ti44  1  0.39501633  0.94336343  0.75821408  1
  Ti  Ti45  1  0.73058608  0.27160169  0.20353398  1
  Ti  Ti46  1  0.75957139  0.18982251  0.39408116  1
  Ti  Ti47  1  0.71033651  0.21172081  0.73943303  1
  Ti  Ti48  1  0.69433868  0.61667598  0.09953160  1
  Ti  Ti49  1  0.79382488  0.58138104  0.36008043  1
  Ti  Ti50  1  0.74109702  0.58946307  0.73053634  1
  Ti  Ti51  1  0.71923348  0.84091894  0.04440995  1
  Ti  Ti52  1  0.78151366  0.96533503  0.42307635  1
  Ti  Ti53  1  0.70858946  0.87686959  0.70893284  1
  Ti  Ti54  1  0.31318972  0.02820093  0.03215711  1
  Ti  Ti55  1  0.26580287  0.08912003  0.35224936  1
  Ti  Ti56  1  0.30051081  0.14200601  0.74524491  1
  Ti  Ti57  1  0.32781861  0.52604220  0.07651938  1
  Ti  Ti58  1  0.19999228  0.36932488  0.42039136  1
  Ti  Ti59  1  0.30467794  0.35995598  0.69570437  1
  Ti  Ti60  1  0.27259694  0.81026175  0.04149040  1
  Ti  Ti61  1  0.22604210  0.75832838  0.38597019  1
  Ti  Ti62  1  0.31412611  0.76755881  0.69287221  1
  Ti  Ti63  1  0.65589102  0.10810950  0.10730345  1
  Ti  Ti64  1  0.57702814  0.16203645  0.46166806  1
  Ti  Ti65  1  0.62773687  0.04915151  0.78769928  1
  Ti  Ti66  1  0.58647004  0.38888767  0.06722601  1
  Ti  Ti67  1  0.51987725  0.44600010  0.39025764  1
  Ti  Ti68  1  0.61317825  0.38550118  0.82945046  1
  Ti  Ti69  1  0.53968762  0.77712504  0.13226950  1
  Ti  Ti70  1  0.54559759  0.76258079  0.36762024  1
  Ti  Ti71  1  0.61187534  0.71467557  0.79599158  1
  Ti  Ti72  1  0.86843020  0.03082976  0.07529116  1
  Ti  Ti73  1  0.94932323  0.17499268  0.40129079  1
  Ti  Ti74  1  0.87168321  0.02531263  0.67308997  1
  Ti  Ti75  1  0.87013108  0.40954145  0.16053789  1
  Ti  Ti76  1  0.90724591  0.37097418  0.43654019  1
  Ti  Ti77  1  0.94290642  0.45595553  0.72559371  1
  Ti  Ti78  1  0.86502453  0.70315534  0.08583684  1
  Ti  Ti79  1  0.84765041  0.76338482  0.42672745  1
  Ti  Ti80  1  0.99076691  0.73281127  0.75624157  1
  Ti  Ti81  1  0.31065372  0.27708698  0.23921102  1
  Ti  Ti82  1  0.19231575  0.23616089  0.59521816  1
  Ti  Ti83  1  0.28505464  0.27312262  0.89082070  1
  Ti  Ti84  1  0.15914074  0.55631647  0.17828963  1
  Ti  Ti85  1  0.26571005  0.54761904  0.69559967  1
  Ti  Ti86  1  0.30548137  0.60921224  0.88315795  1
  Ti  Ti87  1  0.20165109  0.98568016  0.17288189  1
  Ti  Ti88  1  0.22599834  0.96126260  0.62705448  1
  Ti  Ti89  1  0.16945437  0.92899930  0.92118496  1
  Ti  Ti90  1  0.53260528  0.23711093  0.19891775  1
  Ti  Ti91  1  0.57872341  0.29656072  0.62527339  1
  Ti  Ti92  1  0.60433672  0.20573245  0.89619886  1
  Ti  Ti93  1  0.62091868  0.55479511  0.27566031  1
  Ti  Ti94  1  0.58851555  0.57539590  0.59411870  1
  Ti  Ti95  1  0.61709408  0.54913193  0.93536275  1
  Ti  Ti96  1  0.55329552  0.95358344  0.26433666  1
  Ti  Ti97  1  0.58188828  0.89272333  0.51429673  1
  Ti  Ti98  1  0.55626728  0.89158499  0.86461405  1
  Ti  Ti99  1  0.96443243  0.21755336  0.18546872  1
  Ti  Ti100  1  0.86118211  0.21996344  0.61219872  1
  Ti  Ti101  1  0.91727154  0.11022972  0.89612347  1
  Ti  Ti102  1  0.96467343  0.65181203  0.26800743  1
  Ti  Ti103  1  0.92971473  0.59898525  0.48025138  1
  Ti  Ti104  1  0.88457171  0.56952724  0.86033545  1
  Ti  Ti105  1  0.92362672  0.88055639  0.29709380  1
  Ti  Ti106  1  0.90500136  0.89556406  0.54350487  1
  Ti  Ti107  1  0.85794709  0.90539915  0.87307210  1
  Co  Co108  1  0.10126842  0.81548951  0.04177134  1
  Co  Co109  1  0.46773021  0.61954527  0.28496036  1
  Co  Co110  1  0.76153443  0.16221970  0.92184473  1
  Co  Co111  1  0.26235717  0.11123096  -0.08215034  1
  Co  Co112  1  0.02290528  0.84142036  0.87997913  1
  Co  Co113  1  0.57412338  0.13172991  0.64776511  1
  Co  Co114  1  0.49138786  0.80009190  0.71204318  1
  Co  Co115  1  0.10803267  0.45034162  0.76805851  1
  Co  Co116  1  0.73138575  0.83303609  0.52273827  1
  Co  Co117  1  0.89773451  0.47419667  0.30614459  1
  Co  Co118  1  0.58717423  -0.04802052  0.07976153  1
  Co  Co119  1  -0.01314461  0.77676151  0.15876271  1
  Co  Co120  1  0.23167600  -0.00741525  0.78788322  1
  Co  Co121  1  -0.00003333  -0.01629791  -0.04754798  1
  Co  Co122  1  0.14204811  0.12140137  0.69833158  1
  Co  Co123  1  0.47443772  0.07333012  0.14279030  1
  Co  Co124  1  0.04212575  -0.11169575  0.62884040  1
  Co  Co125  1  0.18018997  0.28256149  0.76495531  1
  Co  Co126  1  0.64303252  0.13269135  0.27601456  1
  Co  Co127  1  0.47584485  0.61194747  0.90331818  1
  Co  Co128  1  0.87513474  0.55421766  0.02714393  1
  Co  Co129  1  0.68594546  0.85431802  0.35445331  1
  Co  Co130  1  0.74842796  0.63545166  0.54261164  1
  Co  Co131  1  -0.01728141  0.73008791  0.56520943  1
  Co  Co132  1  0.01974612  0.20097255  0.58087581  1
  Co  Co133  1  0.36172524  -0.07007457  -0.08317498  1
  Co  Co134  1  0.87316483  0.29924551  0.29665855  1
  Co  Co135  1  0.13420429  0.04465900  0.02111705  1
  Co  Co136  1  -0.05820892  0.70353698  -0.07553850  1
  Co  Co137  1  0.17222388  0.72318521  0.15992146  1
  Co  Co138  1  0.05662560  0.31483835  0.47813648  1
  Co  Co139  1  0.86110058  0.21631164  0.78541691  1
  Co  Co140  1  0.26862578  0.81418153  0.84354609  1
  Co  Co141  1  0.20627523  0.92948527  0.33523306  1
  Co  Co142  1  0.27223846  0.83992863  0.21966223  1
  Co  Co143  1  0.04429956  0.58825683  0.83616653  1
  Co  Co144  1  0.28104801  0.83006269  0.53198122  1
  Co  Co145  1  0.65831873  0.54169612  0.43932726  1
  Co  Co146  1  0.84709345  -0.11859345  0.15204818  1
  Co  Co147  1  0.59175193  0.72261467  -0.02716129  1
  Co  Co148  1  0.04727643  0.09279638  0.14761642  1
  Co  Co149  1  0.34412280  0.41148252  0.36403478  1
  Co  Co150  1  0.67450825  0.86160178  0.19429702  1
  Co  Co151  1  0.62542356  0.70550852  0.24105757  1
  Co  Co152  1  0.68993106  0.69863425  0.40403172  1
  Co  Co153  1  0.14235681  0.83875768  0.75082586  1
  Co  Co154  1  0.20483834  0.51983263  0.35635920  1
  Co  Co155  1  0.27308654  0.11358822  0.55180544  1
  Co  Co156  1  0.42063981  0.35165456  0.09634049  1
  Co  Co157  1  0.47657295  0.08377829  0.77633941  1
  Co  Co158  1  0.81267012  0.73557887  0.79272093  1
  Co  Co159  1  0.18955788  0.00538110  0.47144748  1
  Co  Co160  1  0.46731247  0.47681247  0.00220980  1
  Co  Co161  1  0.70358589  0.18977785  0.56503292  1
  Ni  Ni162  1  0.62928445  0.74098397  0.62415447  1
  Ni  Ni163  1  0.35779174  -0.01869528  0.26283471  1
  Ni  Ni164  1  0.32221983  0.53789092  0.24747351  1
  Ni  Ni165  1  0.39400797  0.68939144  0.02953175  1
  Ni  Ni166  1  0.61445664  0.28323648  0.34366288  1
  Ni  Ni167  1  0.25707037  0.43747033  0.83353316  1
  Ni  Ni168  1  0.38798800  0.24856620  0.60540095  1
  Ni  Ni169  1  0.58524083  0.54090947  0.77200646  1
  Ni  Ni170  1  0.42521876  0.82937588  0.27829966  1
  Ni  Ni171  1  0.05101419  0.29379424  0.31476102  1
  Ni  Ni172  1  0.38416862  0.73086431  0.40433625  1
  Ni  Ni173  1  0.40435897  0.57428745  0.58718069  1
  Ni  Ni174  1  0.48508513  0.44009436  0.68360973  1
  Ni  Ni175  1  0.62856193  0.01777727  0.39531223  1
  Ni  Ni176  1  0.92428017  0.84549371  0.01291841  1
  Ni  Ni177  1  0.69464233  0.27173020  0.02736877  1
  Ni  Ni178  1  0.41829084  -0.09451865  0.58812278  1
  Ni  Ni179  1  0.15443850  0.17802780  0.24801542  1
  Ni  Ni180  1  -0.01576554  0.53172705  0.15875843  1
  Ni  Ni181  1  -0.01571565  0.12119501  0.73220723  1
  Ni  Ni182  1  0.70556748  0.83444652  0.87894383  1
  Ni  Ni183  1  0.55357238  -0.04609469  0.67449586  1
  Ni  Ni184  1  0.82210713  0.57053786  0.19197856  1
  Ni  Ni185  1  0.47318860  0.84446562  -0.00197483  1
  Ni  Ni186  1  0.31391048  0.11876618  0.18682164  1
  Ni  Ni187  1  0.47585143  0.32357957  0.93054764  1
  Ni  Ni188  1  0.70511946  0.44641627  0.17641951  1
  Ni  Ni189  1  0.02334772  0.47478950  0.51143934  1
  Ni  Ni190  1  0.89967428  0.86478092  0.71829713  1
  Ni  Ni191  1  -0.04768772  0.00094510  0.41450413  1
  Ni  Ni192  1  0.82778198  0.14018344  0.24374678  1
  Ni  Ni193  1  0.27519488  0.66673325  0.54132789  1
  Ni  Ni194  1  0.82041229  0.18481377  0.08475311  1
  Ni  Ni195  1  0.22068173  0.64428684  0.02703999  1
  Ni  Ni196  1  0.75426725  0.33084089  0.51710930  1
  Ni  Ni197  1  0.12330619  0.64986280  0.30846382  1
  Ni  Ni198  1  0.85445167  0.08390522  0.51458004  1
  Ni  Ni199  1  0.89642844  0.59799723  0.65071270  1
  Ni  Ni200  1  0.24760717  0.49730278  0.53573069  1
  Ni  Ni201  1  0.45153427  0.29454666  0.32725808  1
  Ni  Ni202  1  0.32209588  0.40358359  -0.02320796  1
  Ni  Ni203  1  0.75506696  0.31884253  0.87397676  1
  Ni  Ni204  1  0.49992791  0.30394422  0.47874739  1
  Ni  Ni205  1  0.47956648  0.01907812  0.46326696  1
  Ni  Ni206  1  0.53295119  0.20611629  0.03924858  1
  Ni  Ni207  1  -0.05460021  0.35744443  0.59881836  1
  Ni  Ni208  1  0.42065073  0.16820176  0.90060949  1
  Ni  Ni209  1  0.02281549  0.73991150  0.40429718  1
  Ni  Ni210  1  0.78757380  0.05399908  0.79999703  1
  Ni  Ni211  1  0.61055422  0.42263263  0.53267299  1
  Ni  Ni212  1  0.21802642  0.40763908  0.24132715  1
  Ni  Ni213  1  0.50936175  0.61344434  0.45010978  1
  Ni  Ni214  1  0.17708809  0.67328291  0.74962915  1
