# generated using pymatgen
data_Ti108Co54Ni53
_symmetry_space_group_name_H-M   'P 1'
_cell_length_a   14.58704294
_cell_length_b   14.64100105
_cell_length_c   14.68756968
_cell_angle_alpha   90.00958083
_cell_angle_beta   90.15337739
_cell_angle_gamma   90.20651152
_symmetry_Int_Tables_number   1
_chemical_formula_structural   Ti108Co54Ni53
_chemical_formula_sum   'Ti108 Co54 Ni53'
_cell_volume   3136.77659734
_cell_formula_units_Z   1
loop_
 _symmetry_equiv_pos_site_id
 _symmetry_equiv_pos_as_xyz
  1  'x, y, z'
loop_
 _atom_site_type_symbol
 _atom_site_label
 _atom_site_symmetry_multiplicity
 _atom_site_fract_x
 _atom_site_fract_y
 _atom_site_fract_z
 _atom_site_occupancy
  Ti  Ti0  1  0.01082336  0.10356457  0.27294885  1
  Ti  Ti1  1  0.05843588  0.12999387  0.57559750  1
  Ti  Ti2  1  0.03906762  0.11216780  0.86312240  1
  Ti  Ti3  1  0.04397887  0.44765916  0.23872728  1
  Ti  Ti4  1  0.08773839  0.46544764  0.55104410  1
  Ti  Ti5  1  0.04111240  0.45356700  0.91951790  1
  Ti  Ti6  1  0.15313639  0.70808327  0.23842483  1
  Ti  Ti7  1  0.11263184  0.77504420  0.55209722  1
  Ti  Ti8  1  0.09844310  0.78255452  0.88372701  1
  Ti  Ti9  1  0.42363648  0.00711513  0.25879848  1
  Ti  Ti10  1  0.44329057  -0.01494053  0.56214879  1
  Ti  Ti11  1  0.35180386  0.04307093  0.93576832  1
  Ti  Ti12  1  0.40301330  0.49767797  0.24114715  1
  Ti  Ti13  1  0.40738236  0.34698848  0.58229829  1
  Ti  Ti14  1  0.36791455  0.47141769  0.89865466  1
  Ti  Ti15  1  0.42037023  0.80042913  0.28101776  1
  Ti  Ti16  1  0.48357909  0.67773719  0.59314550  1
  Ti  Ti17  1  0.44137237  0.75556592  1.01418826  1
  Ti  Ti18  1  0.72634407  0.08727296  0.19735792  1
  Ti  Ti19  1  0.74280359  0.10218604  0.59190505  1
  Ti  Ti20  1  0.77080151  0.09555437  0.86105825  1
  Ti  Ti21  1  0.70650121  0.41139526  0.25657324  1
  Ti  Ti22  1  0.72046790  0.41316344  0.55005917  1
  Ti  Ti23  1  0.83664968  0.40400802  0.95445143  1
  Ti  Ti24  1  0.71248430  0.74718741  0.26503892  1
  Ti  Ti25  1  0.71105195  0.75825361  0.60295424  1
  Ti  Ti26  1  0.74956957  0.81043093  0.93292142  1
  Ti  Ti27  1  0.02829568  0.23919205  0.12734428  1
  Ti  Ti28  1  0.04657221  0.28868262  0.45788784  1
  Ti  Ti29  1  0.09046444  0.29771790  0.80479368  1
  Ti  Ti30  1  0.13710998  0.55687875  0.07110060  1
  Ti  Ti31  1  0.09314256  0.61825692  0.39886749  1
  Ti  Ti32  1  0.08180469  0.50389030  0.73952959  1
  Ti  Ti33  1  0.06275216  0.90183865  0.10702981  1
  Ti  Ti34  1  0.10695656  0.96489977  0.44042519  1
  Ti  Ti35  1  0.08219944  0.92328814  0.73469295  1
  Ti  Ti36  1  0.51742953  0.29131489  0.04268039  1
  Ti  Ti37  1  0.38956045  0.24012075  0.41818342  1
  Ti  Ti38  1  0.49597390  0.24329987  0.75619788  1
  Ti  Ti39  1  0.46469001  0.56318402  0.07682715  1
  Ti  Ti40  1  0.40599679  0.58120394  0.44758139  1
  Ti  Ti41  1  0.47630492  0.57703413  0.76097763  1
  Ti  Ti42  1  0.47935861  0.95229031  0.06564466  1
  Ti  Ti43  1  0.43384854  0.81237056  0.48079677  1
  Ti  Ti44  1  0.38234369  0.82752842  0.67389250  1
  Ti  Ti45  1  0.70168205  0.27696921  0.11214545  1
  Ti  Ti46  1  0.74866635  0.22688580  0.30936941  1
  Ti  Ti47  1  0.71518591  0.27265512  0.67923645  1
  Ti  Ti48  1  0.75527517  0.64374366  0.07746482  1
  Ti  Ti49  1  0.78636611  0.54373368  0.43688452  1
  Ti  Ti50  1  0.72833552  0.57270911  0.77427313  1
  Ti  Ti51  1  0.72087096  0.95289987  0.07439881  1
  Ti  Ti52  1  0.73357749  0.94187807  0.31708989  1
  Ti  Ti53  1  0.70625758  0.93072974  0.74305529  1
  Ti  Ti54  1  0.16106683  0.06722632  0.03169985  1
  Ti  Ti55  1  0.26997731  0.08286538  0.40687603  1
  Ti  Ti56  1  0.28001861  0.04834178  0.70497794  1
  Ti  Ti57  1  0.23058786  0.35320195  -0.00946128  1
  Ti  Ti58  1  0.26179003  0.42764811  0.47373320  1
  Ti  Ti59  1  0.31694988  0.32791830  0.76942879  1
  Ti  Ti60  1  0.24925742  0.75926115  0.06829632  1
  Ti  Ti61  1  0.26827594  0.76135139  0.40172249  1
  Ti  Ti62  1  0.18628285  0.71844390  0.72307573  1
  Ti  Ti63  1  0.62396240  0.10626603  0.01533139  1
  Ti  Ti64  1  0.58739635  0.18676379  0.39911108  1
  Ti  Ti65  1  0.54462020  0.05871345  0.82395231  1
  Ti  Ti66  1  0.67786205  0.46851170  0.08073876  1
  Ti  Ti67  1  0.55766001  0.48057802  0.40316180  1
  Ti  Ti68  1  0.63586900  0.41005165  0.78118512  1
  Ti  Ti69  1  0.56281866  0.73137094  0.15217679  1
  Ti  Ti70  1  0.58882025  0.74641601  0.41690319  1
  Ti  Ti71  1  0.55893615  0.75570974  0.76758823  1
  Ti  Ti72  1  0.86932722  0.07923582  0.02958375  1
  Ti  Ti73  1  0.87668685  0.16995991  0.44627084  1
  Ti  Ti74  1  0.90643410  0.00489291  0.73587655  1
  Ti  Ti75  1  0.87015961  0.47966778  0.13796175  1
  Ti  Ti76  1  0.95890007  0.45521609  0.43073810  1
  Ti  Ti77  1  0.92182477  0.36956845  0.76348887  1
  Ti  Ti78  1  0.91229745  0.74532015  0.04328580  1
  Ti  Ti79  1  0.82183728  0.73783082  0.42333745  1
  Ti  Ti80  1  0.87411225  0.69817413  0.73817195  1
  Ti  Ti81  1  0.24128146  0.33488934  0.26215339  1
  Ti  Ti82  1  0.21600613  0.25868160  0.57135622  1
  Ti  Ti83  1  0.22509653  0.18407824  0.87662577  1
  Ti  Ti84  1  0.22404055  0.51670519  0.29604466  1
  Ti  Ti85  1  0.23181726  0.58603060  0.60738512  1
  Ti  Ti86  1  0.29558170  0.66794080  0.87610531  1
  Ti  Ti87  1  0.22790155  0.91268329  0.27656269  1
  Ti  Ti88  1  0.26635395  0.91215659  0.51892908  1
  Ti  Ti89  1  0.26226504  0.87306573  0.83385428  1
  Ti  Ti90  1  0.51786944  0.33305840  0.28842147  1
  Ti  Ti91  1  0.53946502  0.17126538  0.57838969  1
  Ti  Ti92  1  0.63346974  0.22842897  0.87733448  1
  Ti  Ti93  1  0.59569032  0.56083850  0.21314307  1
  Ti  Ti94  1  0.55484709  0.48911666  0.60403209  1
  Ti  Ti95  1  0.55786286  0.49328941  0.93472407  1
  Ti  Ti96  1  0.59328257  0.90297768  0.20569329  1
  Ti  Ti97  1  0.61421328  0.98560133  0.47631217  1
  Ti  Ti98  1  0.51228083  0.89190950  0.89339871  1
  Ti  Ti99  1  0.92297110  0.29773450  0.28439815  1
  Ti  Ti100  1  0.89630922  0.29479008  0.59333213  1
  Ti  Ti101  1  0.93988434  0.24918226  0.93688968  1
  Ti  Ti102  1  0.93397253  0.60348059  0.28659102  1
  Ti  Ti103  1  0.91325929  0.53598200  0.62597209  1
  Ti  Ti104  1  0.98428470  0.64050459  0.90126817  1
  Ti  Ti105  1  1.01148579  0.90756082  0.28336438  1
  Ti  Ti106  1  0.82985540  0.94455117  0.52796750  1
  Ti  Ti107  1  1.00561957  0.94594639  0.93203031  1
  Co  Co108  1  0.75791284  0.57954156  0.60701776  1
  Co  Co109  1  0.53236419  0.33621794  0.47986465  1
  Co  Co110  1  0.62052818  0.63684836  0.67567403  1
  Co  Co111  1  0.71729855  0.23945289  0.50815646  1
  Co  Co112  1  0.70345195  0.85077448  0.45332621  1
  Co  Co113  1  0.85438619  0.06781803  0.31906513  1
  Co  Co114  1  0.79079586  0.43464939  0.69942324  1
  Co  Co115  1  0.12015369  0.41286448  0.38145427  1
  Co  Co116  1  0.88483419  -0.00495222  0.18188644  1
  Co  Co117  1  -0.12702508  0.16345387  0.18028184  1
  Co  Co118  1  0.13345072  0.02145392  0.20501549  1
  Co  Co119  1  0.05661296  0.32333764  0.63516816  1
  Co  Co120  1  0.66172750  0.12938087  0.73514784  1
  Co  Co121  1  0.48190886  0.16221487  -0.06163812  1
  Co  Co122  1  -0.09494279  0.09679567  0.59870317  1
  Co  Co123  1  0.54094445  0.41156588  0.15200298  1
  Co  Co124  1  0.38038371  0.40100882  0.37212768  1
  Co  Co125  1  0.45191644  0.08280086  0.68908332  1
  Co  Co126  1  0.72743698  0.09114539  0.41615696  1
  Co  Co127  1  0.59541759  0.05425916  0.30902212  1
  Co  Co128  1  0.81484736  0.66643145  0.89842726  1
  Co  Co129  1  0.35613863  0.66699802  0.70672186  1
  Co  Co130  1  0.35992860  -0.06954151  0.38969060  1
  Co  Co131  1  0.21353695  0.51795747  -0.06344822  1
  Co  Co132  1  0.86872827  0.70350163  0.57703209  1
  Co  Co133  1  -0.10183398  0.52731552  0.81306022  1
  Co  Co134  1  0.56952775  0.84500495  0.58209557  1
  Co  Co135  1  0.85811025  0.71560950  0.20581210  1
  Co  Co136  1  0.09843451  0.24419459  -0.01942699  1
  Co  Co137  1  0.21894672  0.86666319  0.66516925  1
  Co  Co138  1  -0.00390435  -0.04323777  0.59108920  1
  Co  Co139  1  0.32349929  0.60240247  0.02025043  1
  Co  Co140  1  0.02950658  0.66125957  0.72918055  1
  Co  Co141  1  0.88529989  0.55317360  -0.00556678  1
  Co  Co142  1  0.32928089  0.64892335  0.30782599  1
  Co  Co143  1  0.57143855  0.33079588  0.63660896  1
  Co  Co144  1  0.74713105  0.80250038  0.11498395  1
  Co  Co145  1  0.13505834  0.61448435  0.84678766  1
  Co  Co146  1  0.40739288  0.41010340  0.03929423  1
  Co  Co147  1  0.55950114  0.05911939  0.15341327  1
  Co  Co148  1  0.19523914  0.40525267  0.83274166  1
  Co  Co149  1  0.36579054  0.27902285  -0.07261731  1
  Co  Co150  1  0.01334365  0.07224389  0.09019539  1
  Co  Co151  1  0.37516864  0.14871590  0.81677152  1
  Co  Co152  1  0.39235714  0.69603190  0.16058710  1
  Co  Co153  1  0.39166859  -0.03515135  0.79519980  1
  Co  Co154  1  0.46147501  0.06924148  0.42109729  1
  Co  Co155  1  0.21922131  0.26374286  0.40549373  1
  Co  Co156  1  0.08684225  0.26889697  0.29195307  1
  Co  Co157  1  0.40810010  0.78202321  0.83170134  1
  Co  Co158  1  0.50275784  0.34736984  0.88693181  1
  Co  Co159  1  0.26219657  0.60872480  0.16599305  1
  Co  Co160  1  0.29124565  0.73619189  0.56451470  1
  Co  Co161  1  0.33646207  0.20494368  0.67255168  1
  Ni  Ni162  1  0.49482431  0.64510215  0.31251900  1
  Ni  Ni163  1  0.17621969  0.89812418  -0.01563950  1
  Ni  Ni164  1  0.01067170  0.76270223  0.18782182  1
  Ni  Ni165  1  0.24360832  0.60437130  0.44980086  1
  Ni  Ni166  1  -0.05022651  0.83179686  0.81487645  1
  Ni  Ni167  1  -0.00948614  0.39355887  0.05749802  1
  Ni  Ni168  1  0.72821564  0.53101528  0.93422075  1
  Ni  Ni169  1  -0.01390639  0.60948755  0.12233952  1
  Ni  Ni170  1  0.21137833  0.41135310  0.65454849  1
  Ni  Ni171  1  0.66667416  -0.03559689  -0.08491324  1
  Ni  Ni172  1  -0.04030224  0.02706048  0.44422635  1
  Ni  Ni173  1  0.66320080  0.61162562  0.35565529  1
  Ni  Ni174  1  0.59312997  0.20754653  0.21118478  1
  Ni  Ni175  1  0.78722347  0.29461423  0.83372787  1
  Ni  Ni176  1  0.11525891  0.80878716  0.38228735  1
  Ni  Ni177  1  0.77884736  0.21927141  -0.01733461  1
  Ni  Ni178  1  0.08553616  0.72920310  0.04486936  1
  Ni  Ni179  1  0.13580979  0.37190682  0.12677850  1
  Ni  Ni180  1  0.67111544  0.36531943  -0.05077366  1
  Ni  Ni181  1  0.17501957  0.01438710  0.86366779  1
  Ni  Ni182  1  0.87655963  0.89500920  0.37022724  1
  Ni  Ni183  1  0.38098186  0.51207002  0.62128574  1
  Ni  Ni184  1  -0.03801769  0.82630570  0.49488274  1
  Ni  Ni185  1  0.60490007  0.83094874  0.02393762  1
  Ni  Ni186  1  -0.05142544  0.62293315  0.46840659  1
  Ni  Ni187  1  0.27488682  0.52996248  0.76317480  1
  Ni  Ni188  1  0.88229611  0.90440451  0.04667593  1
  Ni  Ni189  1  0.52405465  -0.08758371  0.72290973  1
  Ni  Ni190  1  0.86675395  0.85461188  0.66470596  1
  Ni  Ni191  1  0.83864112  -0.05251913  0.88989250  1
  Ni  Ni192  1  0.35066293  0.87034064  0.14855908  1
  Ni  Ni193  1  0.52741047  0.91050874  0.36259812  1
  Ni  Ni194  1  0.46771727  0.63583557  0.90932354  1
  Ni  Ni195  1  0.72361091  0.75865516  0.77681006  1
  Ni  Ni196  1  0.83457365  0.33917627  0.43163268  1
  Ni  Ni197  1  0.35856105  0.12702253  0.54213046  1
  Ni  Ni198  1  0.15411624  0.00205449  0.60039934  1
  Ni  Ni199  1  0.86186080  0.31225767  0.11689118  1
  Ni  Ni200  1  0.34381027  -0.12010959  -0.02128238  1
  Ni  Ni201  1  0.60402444  0.64681398  0.00824901  1
  Ni  Ni202  1  0.10493343  0.14002629  0.40982108  1
  Ni  Ni203  1  0.16203133  0.17795139  0.71263783  1
  Ni  Ni204  1  -0.02980413  0.75066519  0.34503768  1
  Ni  Ni205  1  0.83449189  0.16861941  0.73082117  1
  Ni  Ni206  1  0.45963132  0.41638933  0.73760079  1
  Ni  Ni207  1  0.60284001  0.01547111  0.63627325  1
  Ni  Ni208  1  0.76613995  0.57532835  0.23674792  1
  Ni  Ni209  1  -0.00949389  0.18798356  0.71831178  1
  Ni  Ni210  1  0.45005836  0.16578040  0.28300807  1
  Ni  Ni211  1  0.85880407  0.45218405  0.30363369  1
  Ni  Ni212  1  0.66945222  0.35069098  0.39744965  1
  Ni  Ni213  1  0.62219941  0.60678380  0.51054005  1
  Ni  Ni214  1  0.27847210  0.45283525  0.12906693  1
