# generated using pymatgen
data_Ti108Co54Ni53
_symmetry_space_group_name_H-M   'P 1'
_cell_length_a   14.63256717
_cell_length_b   14.59093916
_cell_length_c   14.65182642
_cell_angle_alpha   90.06383926
_cell_angle_beta   90.30453030
_cell_angle_gamma   89.91774727
_symmetry_Int_Tables_number   1
_chemical_formula_structural   Ti108Co54Ni53
_chemical_formula_sum   'Ti108 Co54 Ni53'
_cell_volume   3128.15806608
_cell_formula_units_Z   1
loop_
 _symmetry_equiv_pos_site_id
 _symmetry_equiv_pos_as_xyz
  1  'x, y, z'
loop_
 _atom_site_type_symbol
 _atom_site_label
 _atom_site_symmetry_multiplicity
 _atom_site_fract_x
 _atom_site_fract_y
 _atom_site_fract_z
 _atom_site_occupancy
  Ti  Ti0  1  0.10594344  0.12460802  0.29832792  1
  Ti  Ti1  1  0.08489442  -0.02366461  0.61410017  1
  Ti  Ti2  1  0.12072504  0.10586267  0.96331493  1
  Ti  Ti3  1  0.04273036  0.34829413  0.28210769  1
  Ti  Ti4  1  0.11080819  0.38301704  0.50571659  1
  Ti  Ti5  1  0.08868882  0.41731881  0.85662614  1
  Ti  Ti6  1  0.10113535  0.74606352  0.13994714  1
  Ti  Ti7  1  0.01939549  0.80110399  0.57454671  1
  Ti  Ti8  1  0.07755607  0.78987897  0.96773355  1
  Ti  Ti9  1  0.39813480  0.05125858  0.24660086  1
  Ti  Ti10  1  0.44064940  0.06928673  0.53069886  1
  Ti  Ti11  1  0.40854730  0.08037543  0.94026821  1
  Ti  Ti12  1  0.43558869  0.38478275  0.19644988  1
  Ti  Ti13  1  0.30177472  0.41443103  0.60126253  1
  Ti  Ti14  1  0.44025832  0.39317279  0.92652329  1
  Ti  Ti15  1  0.50627593  0.80629359  0.20933990  1
  Ti  Ti16  1  0.49716750  0.63885243  0.52908770  1
  Ti  Ti17  1  0.44559010  0.69598725  0.90729540  1
  Ti  Ti18  1  0.73251766  0.11851165  0.28419874  1
  Ti  Ti19  1  0.72551753  0.08644026  0.72819501  1
  Ti  Ti20  1  0.77804012  0.15656267  0.92964132  1
  Ti  Ti21  1  0.77855173  0.48312483  0.25481049  1
  Ti  Ti22  1  0.77712097  0.46549798  0.58438705  1
  Ti  Ti23  1  0.77016688  0.49455377  0.96002702  1
  Ti  Ti24  1  0.71861427  0.67983805  0.27327745  1
  Ti  Ti25  1  0.69141167  0.79061396  0.58748845  1
  Ti  Ti26  1  0.67837573  0.66463622  0.87657551  1
  Ti  Ti27  1  0.03953108  0.21917302  0.10984699  1
  Ti  Ti28  1  0.02929698  0.22511698  0.43975450  1
  Ti  Ti29  1  0.09166153  0.22217752  0.80015227  1
  Ti  Ti30  1  0.05069575  0.56341909  0.13652948  1
  Ti  Ti31  1  0.05536015  0.53616467  0.39691757  1
  Ti  Ti32  1  0.03369256  0.58002173  0.78767840  1
  Ti  Ti33  1  0.05246909  0.93772093  0.11285653  1
  Ti  Ti34  1  0.11906840  0.88041440  0.43533754  1
  Ti  Ti35  1  0.09356959  0.86660500  0.77607661  1
  Ti  Ti36  1  0.38188782  0.24453262  0.05895362  1
  Ti  Ti37  1  0.37370164  0.29401444  0.37357466  1
  Ti  Ti38  1  0.42448508  0.27890543  0.68411586  1
  Ti  Ti39  1  0.38372271  0.56562977  0.05206616  1
  Ti  Ti40  1  0.38376913  0.61686451  0.35580138  1
  Ti  Ti41  1  0.43208593  0.67168065  0.71273262  1
  Ti  Ti42  1  0.49623658  0.95925014  0.09145946  1
  Ti  Ti43  1  0.35408615  0.90172509  0.36120341  1
  Ti  Ti44  1  0.42806872  0.89764081  0.66977424  1
  Ti  Ti45  1  0.81881190  0.32539766  0.03681882  1
  Ti  Ti46  1  0.83799792  0.17575765  0.47444514  1
  Ti  Ti47  1  0.73275729  0.29968133  0.71107980  1
  Ti  Ti48  1  0.75298287  0.67694669  0.06022788  1
  Ti  Ti49  1  0.70534250  0.55325818  0.43397380  1
  Ti  Ti50  1  0.75226265  0.51828679  0.76109216  1
  Ti  Ti51  1  0.73104632  0.88552245  0.00648745  1
  Ti  Ti52  1  0.77739027  0.84111038  0.40849387  1
  Ti  Ti53  1  0.77256671  0.89987197  0.71725714  1
  Ti  Ti54  1  0.28899168  0.05066881  0.07964739  1
  Ti  Ti55  1  0.28678945  0.12787652  0.41642653  1
  Ti  Ti56  1  0.27427556  0.12774247  0.77920203  1
  Ti  Ti57  1  0.27426180  0.41562416  0.08649813  1
  Ti  Ti58  1  0.25216161  0.46376716  0.39831067  1
  Ti  Ti59  1  0.23851775  0.53424875  0.74803437  1
  Ti  Ti60  1  0.29228623  0.75594200  0.09711577  1
  Ti  Ti61  1  0.23223881  0.73734076  0.44009120  1
  Ti  Ti62  1  0.25813418  0.74914452  0.74721665  1
  Ti  Ti63  1  0.63924328  0.07158505  0.05083786  1
  Ti  Ti64  1  0.60799296  0.05999639  0.42046431  1
  Ti  Ti65  1  0.53514676  0.10542853  0.78391982  1
  Ti  Ti66  1  0.66207530  0.38652097  0.12364126  1
  Ti  Ti67  1  0.49711824  0.37660436  0.50955656  1
  Ti  Ti68  1  0.57033033  0.42625519  0.69833348  1
  Ti  Ti69  1  0.55861306  0.67025334  0.08176872  1
  Ti  Ti70  1  0.52815731  0.75860578  0.37876492  1
  Ti  Ti71  1  0.57395043  0.78569729  0.75770930  1
  Ti  Ti72  1  0.90471350  -0.00036630  0.01368937  1
  Ti  Ti73  1  0.99132536  0.01787409  0.42877057  1
  Ti  Ti74  1  0.95185542  0.07125856  0.74094976  1
  Ti  Ti75  1  0.97888434  0.41594559  0.04806947  1
  Ti  Ti76  1  0.89347610  0.42803006  0.41328129  1
  Ti  Ti77  1  0.91472350  0.38670138  0.74423167  1
  Ti  Ti78  1  0.90255568  0.80266833  0.10283988  1
  Ti  Ti79  1  0.88172358  0.67919675  0.47439038  1
  Ti  Ti80  1  0.90193289  0.72356972  0.70934165  1
  Ti  Ti81  1  0.24617733  0.21695121  0.21552581  1
  Ti  Ti82  1  0.21199815  0.25533681  0.63859371  1
  Ti  Ti83  1  0.25618197  0.28841740  0.90158393  1
  Ti  Ti84  1  0.20162534  0.63861384  0.27043385  1
  Ti  Ti85  1  0.30712705  0.61376058  0.57326180  1
  Ti  Ti86  1  0.23625236  0.60981472  0.94765360  1
  Ti  Ti87  1  0.21616533  0.92475281  0.21420810  1
  Ti  Ti88  1  0.27727581  0.94759729  0.53804324  1
  Ti  Ti89  1  0.24650348  0.93822759  0.88130002  1
  Ti  Ti90  1  0.56738705  0.21898143  0.19182293  1
  Ti  Ti91  1  0.58511149  0.19307424  0.61060325  1
  Ti  Ti92  1  0.55628985  0.21283468  0.96149433  1
  Ti  Ti93  1  0.55602004  0.56355382  0.25956010  1
  Ti  Ti94  1  0.62824354  0.62096654  0.65805233  1
  Ti  Ti95  1  0.57704359  0.51698168  0.95655256  1
  Ti  Ti96  1  0.67687054  0.94307378  0.18347313  1
  Ti  Ti97  1  0.60519008  0.97233346  0.59987066  1
  Ti  Ti98  1  0.52435785  0.91248637  0.90527879  1
  Ti  Ti99  1  0.86524439  0.20784394  0.19489240  1
  Ti  Ti100  1  0.99796718  0.26857771  0.62899959  1
  Ti  Ti101  1  0.94711664  0.26597300  0.90581904  1
  Ti  Ti102  1  0.98735455  0.68805509  0.29682373  1
  Ti  Ti103  1  1.03173362  0.59522593  0.58514743  1
  Ti  Ti104  1  0.92096187  0.62500540  1.00041469  1
  Ti  Ti105  1  0.87024765  0.97276940  0.26370495  1
  Ti  Ti106  1  0.85303161  0.99090439  0.56785434  1
  Ti  Ti107  1  0.92210742  0.88536713  0.86135475  1
  Co  Co108  1  0.37175895  0.89644648  0.17528084  1
  Co  Co109  1  0.16755632  0.69189744  0.57877132  1
  Co  Co110  1  0.85978699  0.58760276  0.34663484  1
  Co  Co111  1  -0.01432969  0.72281891  0.85512281  1
  Co  Co112  1  0.14015454  0.08075579  0.14236542  1
  Co  Co113  1  0.92541449  0.12076116  0.32763232  1
  Co  Co114  1  -0.05803660  -0.09468309  0.69483353  1
  Co  Co115  1  0.51349838  0.93685529  0.32126613  1
  Co  Co116  1  0.08172021  0.71779743  0.70905254  1
  Co  Co117  1  0.74535989  0.72328287  0.74270567  1
  Co  Co118  1  0.17910052  0.27472055  0.35964199  1
  Co  Co119  1  0.46109674  0.13394710  0.37318701  1
  Co  Co120  1  0.59733902  -0.05186391  0.75486968  1
  Co  Co121  1  0.80369736  0.02541820  0.41289388  1
  Co  Co122  1  0.41896761  0.45094924  0.33934767  1
  Co  Co123  1  0.52670239  0.78672463  0.58245881  1
  Co  Co124  1  0.40673501  0.22697046  0.53143598  1
  Co  Co125  1  -0.08434308  0.46088750  0.89048768  1
  Co  Co126  1  0.14780018  0.70118111  0.85231735  1
  Co  Co127  1  0.33923584  0.77464932  0.60048794  1
  Co  Co128  1  0.90120379  0.16511794  0.03735971  1
  Co  Co129  1  0.51823213  0.34753429  0.05820683  1
  Co  Co130  1  0.35362381  -0.08031056  -0.00214571  1
  Co  Co131  1  0.53829094  0.53870080  0.40962125  1
  Co  Co132  1  0.64862132  0.43204494  0.84085613  1
  Co  Co133  1  0.27864179  0.77846592  -0.06598271  1
  Co  Co134  1  -0.03379823  0.50329847  0.25717746  1
  Co  Co135  1  0.85191868  0.82312054  0.57257003  1
  Co  Co136  1  0.40986034  0.11929232  0.68279227  1
  Co  Co137  1  0.21431810  0.58980864  0.11148457  1
  Co  Co138  1  0.65831700  0.33451908  -0.03341015  1
  Co  Co139  1  0.06330753  -0.04747248  -0.06350940  1
  Co  Co140  1  0.84023692  0.49755084  0.10351487  1
  Co  Co141  1  0.17262428  0.52349085  0.55979274  1
  Co  Co142  1  0.70923377  0.09646451  0.55663749  1
  Co  Co143  1  0.57442958  0.06466255  0.24031871  1
  Co  Co144  1  0.60356617  0.49575420  0.55240936  1
  Co  Co145  1  0.59840748  0.77739166  -0.03441621  1
  Co  Co146  1  0.40870974  0.21333978  0.23480710  1
  Co  Co147  1  0.66755990  0.20824276  0.82698190  1
  Co  Co148  1  0.55867326  0.57983299  0.79709579  1
  Co  Co149  1  0.26055269  0.29472507  0.49308990  1
  Co  Co150  1  0.21298130  0.36477464  0.76074520  1
  Co  Co151  1  0.06140374  0.70187493  0.43944571  1
  Co  Co152  1  0.47206176  0.11692818  0.10152190  1
  Co  Co153  1  0.27898645  0.10726189  0.58895717  1
  Co  Co154  1  0.06258426  -0.02762773  0.28046846  1
  Co  Co155  1  0.32661462  0.52583331  0.21879698  1
  Co  Co156  1  0.18648936  0.84224457  0.62087088  1
  Co  Co157  1  0.19363496  0.89156295  0.04146688  1
  Co  Co158  1  0.68831548  -0.04821897  0.33001989  1
  Co  Co159  1  -0.03125468  0.09700370  0.89595013  1
  Co  Co160  1  0.20517541  -0.00515858  0.37193626  1
  Co  Co161  1  0.38932058  0.76015462  0.45573972  1
  Ni  Ni162  1  0.10030803  0.30040333  -0.02535719  1
  Ni  Ni163  1  0.06622142  0.59167853  -0.04936482  1
  Ni  Ni164  1  0.39503004  0.55110808  0.84357235  1
  Ni  Ni165  1  0.26845152  0.37586902  0.25562176  1
  Ni  Ni166  1  0.43287014  0.51053691  0.66000513  1
  Ni  Ni167  1  0.14495573  0.48367770  0.25192980  1
  Ni  Ni168  1  0.13061688  0.35550089  0.14006407  1
  Ni  Ni169  1  0.66514702  0.78674272  0.13902758  1
  Ni  Ni170  1  0.87471085  0.63974054  0.18167161  1
  Ni  Ni171  1  0.13984937  0.46397737  0.01250236  1
  Ni  Ni172  1  0.32361516  0.76378048  0.27810043  1
  Ni  Ni173  1  0.11808990  0.03996728  0.80581888  1
  Ni  Ni174  1  0.13673901  0.09366077  0.49504334  1
  Ni  Ni175  1  0.21375890  0.21868773  0.05632578  1
  Ni  Ni176  1  0.66776671  0.70795783  0.44803186  1
  Ni  Ni177  1  0.42322624  0.66017066  0.19161353  1
  Ni  Ni178  1  0.08414542  0.43040431  0.67913321  1
  Ni  Ni179  1  0.61538595  0.87855445  0.45561117  1
  Ni  Ni180  1  0.90379271  0.54279742  0.68426071  1
  Ni  Ni181  1  0.39330908  -0.00261710  0.79755348  1
  Ni  Ni182  1  -0.03012758  0.07319007  0.16830607  1
  Ni  Ni183  1  -0.11171393  0.27865410  0.34700819  1
  Ni  Ni184  1  0.83801042  0.76143789  -0.06664329  1
  Ni  Ni185  1  0.84241420  0.31641842  0.57083667  1
  Ni  Ni186  1  0.67808807  0.55253137  0.13070853  1
  Ni  Ni187  1  -0.01583135  0.11294661  0.56972293  1
  Ni  Ni188  1  0.14454523  0.79955340  0.29568537  1
  Ni  Ni189  1  0.70370238  0.85127085  0.85302896  1
  Ni  Ni190  1  0.81746070  0.00910211  0.85471974  1
  Ni  Ni191  1  -0.02356609  0.84200801  0.25216543  1
  Ni  Ni192  1  0.79488698  0.05768784  0.12292401  1
  Ni  Ni193  1  0.71648134  0.21031979  0.10333195  1
  Ni  Ni194  1  0.44367901  0.79400291  0.04430566  1
  Ni  Ni195  1  -0.04068923  0.43460933  0.56620337  1
  Ni  Ni196  1  0.65703966  0.02964371  -0.11264391  1
  Ni  Ni197  1  0.36957062  0.40135528  0.77473371  1
  Ni  Ni198  1  0.78865530  0.63716407  0.60213510  1
  Ni  Ni199  1  0.85580668  0.61711081  0.84283190  1
  Ni  Ni200  1  0.39322537  0.83290179  0.82473022  1
  Ni  Ni201  1  0.65809381  0.33904482  0.56315161  1
  Ni  Ni202  1  0.80405832  0.81489483  0.23515524  1
  Ni  Ni203  1  0.40556250  0.23033114  0.85693735  1
  Ni  Ni204  1  0.52054863  0.49995352  0.10961163  1
  Ni  Ni205  1  0.84475957  0.17080949  0.64879613  1
  Ni  Ni206  1  0.24271880  -0.02188810  0.70628717  1
  Ni  Ni207  1  0.39647175  0.50148216  0.49062987  1
  Ni  Ni208  1  0.27548687  0.45327649  -0.09560844  1
  Ni  Ni209  1  0.45880911  -0.09129584  0.49101577  1
  Ni  Ni210  1  0.88953427  0.36976996  0.19830003  1
  Ni  Ni211  1  -0.05648749  0.85178316  0.42379495  1
  Ni  Ni212  1  0.79328278  0.34469592  0.86446594  1
  Ni  Ni213  1  0.12326070  0.12307927  0.66652522  1
  Ni  Ni214  1  0.54175776  0.30764185  0.81170208  1
