# generated using pymatgen
data_Ti108Co54Ni53
_symmetry_space_group_name_H-M   'P 1'
_cell_length_a   14.60644569
_cell_length_b   14.57918904
_cell_length_c   14.62847877
_cell_angle_alpha   90.02488704
_cell_angle_beta   89.64682987
_cell_angle_gamma   89.67696635
_symmetry_Int_Tables_number   1
_chemical_formula_structural   Ti108Co54Ni53
_chemical_formula_sum   'Ti108 Co54 Ni53'
_cell_volume   3115.02746595
_cell_formula_units_Z   1
loop_
 _symmetry_equiv_pos_site_id
 _symmetry_equiv_pos_as_xyz
  1  'x, y, z'
loop_
 _atom_site_type_symbol
 _atom_site_label
 _atom_site_symmetry_multiplicity
 _atom_site_fract_x
 _atom_site_fract_y
 _atom_site_fract_z
 _atom_site_occupancy
  Ti  Ti0  1  0.06139086  0.13093696  0.29577311  1
  Ti  Ti1  1  0.09746119  0.13229416  0.61088373  1
  Ti  Ti2  1  0.14928036  0.10151949  0.96910037  1
  Ti  Ti3  1  0.05782277  0.33471196  0.17703154  1
  Ti  Ti4  1  0.13451476  0.35417309  0.60730988  1
  Ti  Ti5  1  -0.00239393  0.37867373  0.93565964  1
  Ti  Ti6  1  0.05155436  0.82574625  0.25148791  1
  Ti  Ti7  1  0.05804846  0.78968557  0.61863579  1
  Ti  Ti8  1  0.08731976  0.79038629  0.88686420  1
  Ti  Ti9  1  0.38525778  0.13065894  0.29353994  1
  Ti  Ti10  1  0.42526214  0.02321986  0.61265720  1
  Ti  Ti11  1  0.40445460  0.10372642  0.93155735  1
  Ti  Ti12  1  0.43000681  0.46607857  0.21034515  1
  Ti  Ti13  1  0.33710083  0.43892536  0.58551632  1
  Ti  Ti14  1  0.39804919  0.41050591  0.87213668  1
  Ti  Ti15  1  0.43674537  0.75944062  0.23461173  1
  Ti  Ti16  1  0.39108422  0.77604857  0.59011504  1
  Ti  Ti17  1  0.39275761  0.75649576  0.91084848  1
  Ti  Ti18  1  0.83511305  0.04873728  0.31372501  1
  Ti  Ti19  1  0.77136121  0.09539263  0.52285950  1
  Ti  Ti20  1  0.76186342  0.08134469  0.87364478  1
  Ti  Ti21  1  0.70587509  0.40239671  0.12257692  1
  Ti  Ti22  1  0.73954492  0.43206187  0.52105937  1
  Ti  Ti23  1  0.81940244  0.44043661  0.96111107  1
  Ti  Ti24  1  0.77678294  0.75368865  0.28810384  1
  Ti  Ti25  1  0.73232190  0.77964316  0.61519734  1
  Ti  Ti26  1  0.77673638  0.67910645  0.95461983  1
  Ti  Ti27  1  0.00284906  0.20088659  0.03206604  1
  Ti  Ti28  1  0.14301496  0.22329620  0.45168217  1
  Ti  Ti29  1  0.06244903  0.21558808  0.83572397  1
  Ti  Ti30  1  0.07076634  0.56099629  0.16793521  1
  Ti  Ti31  1  0.14638670  0.58669139  0.36265808  1
  Ti  Ti32  1  0.10064583  0.63229348  0.77008676  1
  Ti  Ti33  1  0.14010566  0.93564030  0.07206814  1
  Ti  Ti34  1  0.17149868  0.93068711  0.38279583  1
  Ti  Ti35  1  0.00577381  0.91845255  0.76890122  1
  Ti  Ti36  1  0.38499839  0.27322274  0.14625826  1
  Ti  Ti37  1  0.41643803  0.26398317  0.45503484  1
  Ti  Ti38  1  0.39753768  0.20348774  0.75102848  1
  Ti  Ti39  1  0.43543444  0.61922214  0.05441094  1
  Ti  Ti40  1  0.33249446  0.62304130  0.46049007  1
  Ti  Ti41  1  0.43661299  0.55825150  0.73003100  1
  Ti  Ti42  1  0.42877568  0.95346831  0.12774567  1
  Ti  Ti43  1  0.45350093  0.94545798  0.33748486  1
  Ti  Ti44  1  0.49271237  0.85727559  0.75842629  1
  Ti  Ti45  1  0.74652496  0.21017041  0.08897491  1
  Ti  Ti46  1  0.64457054  0.22880726  0.44977527  1
  Ti  Ti47  1  0.69272729  0.24018018  0.77283995  1
  Ti  Ti48  1  0.77908228  0.58714833  0.13051810  1
  Ti  Ti49  1  0.73956865  0.57956179  0.40195136  1
  Ti  Ti50  1  0.72915158  0.53697160  0.82093188  1
  Ti  Ti51  1  0.70846934  0.86742365  0.01629953  1
  Ti  Ti52  1  0.76324192  0.89594440  0.45970125  1
  Ti  Ti53  1  0.68149601  0.92387397  0.77942586  1
  Ti  Ti54  1  0.24706067  0.08967486  0.16616179  1
  Ti  Ti55  1  0.29982406  0.06644371  0.47191152  1
  Ti  Ti56  1  0.26188012  0.06168184  0.70382409  1
  Ti  Ti57  1  0.23722869  0.38704566  0.09204697  1
  Ti  Ti58  1  0.29874465  0.46202500  0.35881496  1
  Ti  Ti59  1  0.24691673  0.49867933  0.77131270  1
  Ti  Ti60  1  0.13215490  0.72290410  0.06427486  1
  Ti  Ti61  1  0.30656056  0.80916040  0.40216721  1
  Ti  Ti62  1  0.21634091  0.78155295  0.72545994  1
  Ti  Ti63  1  0.56001528  0.15171798  0.06095936  1
  Ti  Ti64  1  0.61589559  0.05846124  0.36384973  1
  Ti  Ti65  1  0.58184377  0.08026261  0.71127859  1
  Ti  Ti66  1  0.54179750  0.35995996  0.03928758  1
  Ti  Ti67  1  0.55661464  0.38824351  0.37877793  1
  Ti  Ti68  1  0.58130584  0.42851493  0.77283612  1
  Ti  Ti69  1  0.61863016  0.69508804  0.11802698  1
  Ti  Ti70  1  0.61654529  0.71174973  0.47414157  1
  Ti  Ti71  1  0.66731087  0.71211073  0.76706669  1
  Ti  Ti72  1  0.81866700  0.02738025  0.08551677  1
  Ti  Ti73  1  0.94198450  0.16496932  0.44985565  1
  Ti  Ti74  1  0.93724145  0.10054745  0.71171474  1
  Ti  Ti75  1  0.91358508  0.44574008  0.14626431  1
  Ti  Ti76  1  0.88707965  0.36475918  0.36359254  1
  Ti  Ti77  1  0.96338414  0.41732982  0.74135307  1
  Ti  Ti78  1  0.93580742  0.71262290  0.13396028  1
  Ti  Ti79  1  0.94786837  0.78335232  0.42637864  1
  Ti  Ti80  1  0.83829488  0.79563560  0.80306085  1
  Ti  Ti81  1  0.23161662  0.28088699  0.28766913  1
  Ti  Ti82  1  0.30119434  0.22392516  0.59147767  1
  Ti  Ti83  1  0.24159584  0.30228383  0.88467013  1
  Ti  Ti84  1  0.27358050  0.57695877  0.16634006  1
  Ti  Ti85  1  0.23949244  0.61873960  0.62129551  1
  Ti  Ti86  1  0.23125532  0.53635051  0.96237242  1
  Ti  Ti87  1  0.25418514  0.82750318  0.20007802  1
  Ti  Ti88  1  0.22103140  0.91649868  0.57056896  1
  Ti  Ti89  1  0.25457422  0.95272556  0.86204132  1
  Ti  Ti90  1  0.66622604  0.23366033  0.25249398  1
  Ti  Ti91  1  0.55000359  0.34235271  0.58263990  1
  Ti  Ti92  1  0.53439308  0.25942868  0.86972464  1
  Ti  Ti93  1  0.62129874  0.52119780  0.26209511  1
  Ti  Ti94  1  0.64051834  0.57089814  0.63128476  1
  Ti  Ti95  1  0.57535974  0.64130876  0.93528817  1
  Ti  Ti96  1  0.60773921  0.85434279  0.23371493  1
  Ti  Ti97  1  0.56584055  0.89441914  0.57333888  1
  Ti  Ti98  1  0.55470268  0.95982037  0.93635183  1
  Ti  Ti99  1  0.90632577  0.19119744  0.20364255  1
  Ti  Ti100  1  0.84674708  0.27021278  0.64532927  1
  Ti  Ti101  1  0.87701132  0.24583096  0.85076650  1
  Ti  Ti102  1  0.90453167  0.57940454  0.30039544  1
  Ti  Ti103  1  0.94680478  0.59051011  0.64136849  1
  Ti  Ti104  1  0.93133223  0.58416410  0.85703910  1
  Ti  Ti105  1  0.96217519  0.96994260  0.18018097  1
  Ti  Ti106  1  0.88044570  0.91815464  0.62028655  1
  Ti  Ti107  1  0.90511709  0.91391867  0.94784655  1
  Co  Co108  1  0.87683798  0.88180316  0.31383934  1
  Co  Co109  1  -0.03923226  0.07273107  0.87276715  1
  Co  Co110  1  0.00546658  0.26429162  0.68961042  1
  Co  Co111  1  0.58978682  0.89335680  0.41543980  1
  Co  Co112  1  0.00864421  0.84697463  0.05925863  1
  Co  Co113  1  0.28458419  0.67853307  0.02601246  1
  Co  Co114  1  0.18242910  0.44901170  0.23608817  1
  Co  Co115  1  0.46050980  0.09658210  0.44560756  1
  Co  Co116  1  0.38134960  0.58665256  0.89138368  1
  Co  Co117  1  0.81796212  0.64825100  0.73502225  1
  Co  Co118  1  0.26095843  0.13992437  0.85423093  1
  Co  Co119  1  -0.02454732  0.73408084  0.75508736  1
  Co  Co120  1  0.40823708  0.91672187  0.49002360  1
  Co  Co121  1  0.12087339  0.36480943  0.77188120  1
  Co  Co122  1  0.77592312  0.75688803  0.11656980  1
  Co  Co123  1  0.71985701  0.37393587  0.36731642  1
  Co  Co124  1  0.58996321  0.10764213  0.87212210  1
  Co  Co125  1  0.40487704  0.12021399  0.10250923  1
  Co  Co126  1  0.77897978  -0.09529400  0.17838148  1
  Co  Co127  1  0.05644870  0.88338525  0.48670362  1
  Co  Co128  1  0.80550303  0.27752838  0.49392409  1
  Co  Co129  1  0.01723408  0.67796624  0.30631645  1
  Co  Co130  1  0.07562284  0.62635304  -0.04722933  1
  Co  Co131  1  0.17389722  0.23053555  0.14054000  1
  Co  Co132  1  0.08212359  0.95024086  0.91088764  1
  Co  Co133  1  0.81024333  0.31836194  0.22294403  1
  Co  Co134  1  0.68813573  0.53878906  -0.00005349  1
  Co  Co135  1  0.54940607  0.35255702  0.20299263  1
  Co  Co136  1  0.52541566  0.49098709  -0.07296325  1
  Co  Co137  1  0.43363548  0.45810284  0.45411179  1
  Co  Co138  1  0.60175738  0.06159811  0.53128098  1
  Co  Co139  1  0.55997687  0.73782237  0.63946191  1
  Co  Co140  1  0.13836484  0.76021255  0.38689635  1
  Co  Co141  1  0.59616953  0.52477174  0.46630515  1
  Co  Co142  1  0.53280512  0.80995895  0.04162273  1
  Co  Co143  1  0.50107667  0.48454016  0.60095883  1
  Co  Co144  1  0.67999601  0.05641324  0.00787938  1
  Co  Co145  1  0.56496397  0.51275201  0.10093863  1
  Co  Co146  1  0.79850025  0.72780378  0.45985841  1
  Co  Co147  1  0.03873485  -0.01999224  0.61458168  1
  Co  Co148  1  0.21278394  0.75634707  0.53307651  1
  Co  Co149  1  0.11474429  0.06740075  0.79140642  1
  Co  Co150  1  0.78415430  0.47744175  0.26064999  1
  Co  Co151  1  0.85823420  0.15044972  -0.01399791  1
  Co  Co152  1  0.78215250  0.61301462  0.56927976  1
  Co  Co153  1  0.15867933  0.92876663  0.72141510  1
  Co  Co154  1  0.48982889  0.61547099  0.20880814  1
  Co  Co155  1  0.79260325  0.20179260  0.35487968  1
  Co  Co156  1  -0.00856576  0.02676438  0.02792659  1
  Co  Co157  1  0.71447097  -0.06344458  0.31639855  1
  Co  Co158  1  0.07233598  0.10338387  0.14118403  1
  Co  Co159  1  0.10439222  0.50513144  0.66655389  1
  Co  Co160  1  0.27599655  0.18950650  0.02194315  1
  Co  Co161  1  0.12862341  0.30197477  -0.00106546  1
  Ni  Ni162  1  0.00683338  -0.02589327  0.34531345  1
  Ni  Ni163  1  0.79204487  0.37935315  0.79850422  1
  Ni  Ni164  1  0.25803368  0.34025081  0.46736317  1
  Ni  Ni165  1  0.48766766  0.18057198  0.59214518  1
  Ni  Ni166  1  0.44002712  0.36374665  0.71213610  1
  Ni  Ni167  1  0.52166751  0.21487042  0.32621203  1
  Ni  Ni168  1  0.84455090  -0.03153281  0.78668529  1
  Ni  Ni169  1  0.66133254  0.39266938  0.91606110  1
  Ni  Ni170  1  0.89242028  0.74283745  0.60501237  1
  Ni  Ni171  1  0.81216977  0.48827499  0.67531705  1
  Ni  Ni172  1  0.69450028  0.36728302  0.66333425  1
  Ni  Ni173  1  0.93181282  0.57375148  0.03073036  1
  Ni  Ni174  1  0.08456426  0.47239711  0.03287930  1
  Ni  Ni175  1  0.29360429  0.01013982  0.02732564  1
  Ni  Ni176  1  0.33558676  -0.10015933  0.71185898  1
  Ni  Ni177  1  0.39960752  0.32742608  0.30391365  1
  Ni  Ni178  1  0.31463011  0.66318250  0.30061348  1
  Ni  Ni179  1  0.52688442  0.07747998  0.21501192  1
  Ni  Ni180  1  0.18539942  0.21599906  0.72197243  1
  Ni  Ni181  1  0.70994790  -0.03483539  0.61959964  1
  Ni  Ni182  1  0.91819555  -0.00660061  0.47861256  1
  Ni  Ni183  1  0.40512872  0.27258832  -0.02249900  1
  Ni  Ni184  1  0.60748985  0.69374398  0.30295471  1
  Ni  Ni185  1  0.23086821  0.68319738  0.87234137  1
  Ni  Ni186  1  0.47908282  0.59719220  0.36810927  1
  Ni  Ni187  1  0.37474573  0.80032668  0.08044787  1
  Ni  Ni188  1  0.28233149  0.34288271  0.72029479  1
  Ni  Ni189  1  0.02850177  0.46158754  0.30018535  1
  Ni  Ni190  1  -0.12312821  0.31023260  0.05839527  1
  Ni  Ni191  1  0.93952461  0.73342901  -0.04863483  1
  Ni  Ni192  1  0.69402267  0.23338414  -0.05929328  1
  Ni  Ni193  1  0.61571039  0.80496362  0.89172273  1
  Ni  Ni194  1  0.40062497  0.91572849  0.95146354  1
  Ni  Ni195  1  0.47827638  0.63272877  0.53774111  1
  Ni  Ni196  1  0.09058827  0.05573135  0.46398818  1
  Ni  Ni197  1  0.16273797  0.69442915  0.23177378  1
  Ni  Ni198  1  0.30384324  -0.03384194  0.27769598  1
  Ni  Ni199  1  0.66581045  0.20356943  0.61148442  1
  Ni  Ni200  1  0.35273923  0.70117018  0.75010589  1
  Ni  Ni201  1  0.38721740  0.45654459  0.03906692  1
  Ni  Ni202  1  0.43056472  0.01501219  0.79131800  1
  Ni  Ni203  1  -0.01372618  0.30178311  0.52366694  1
  Ni  Ni204  1  0.03631223  0.29455880  0.34055630  1
  Ni  Ni205  1  0.19859076  0.49990405  0.50757118  1
  Ni  Ni206  1  0.13584916  -0.02050110  0.23366748  1
  Ni  Ni207  1  0.21707646  0.10368738  0.33867424  1
  Ni  Ni208  1  0.50699497  0.69160462  0.79521928  1
  Ni  Ni209  1  0.47413075  0.77059239  0.40442518  1
  Ni  Ni210  1  0.24399192  0.83507328  -0.01952069  1
  Ni  Ni211  1  0.69356577  0.06910434  0.19374512  1
  Ni  Ni212  1  0.09099532  0.49236464  0.85925730  1
  Ni  Ni213  1  0.59489535  0.96108277  0.10845237  1
  Ni  Ni214  1  0.77202900  0.10082424  0.69903895  1
