# generated using pymatgen
data_Ti108Co54Ni53
_symmetry_space_group_name_H-M   'P 1'
_cell_length_a   14.60431821
_cell_length_b   14.65014932
_cell_length_c   14.61795189
_cell_angle_alpha   90.00308350
_cell_angle_beta   89.94501462
_cell_angle_gamma   90.06006452
_symmetry_Int_Tables_number   1
_chemical_formula_structural   Ti108Co54Ni53
_chemical_formula_sum   'Ti108 Co54 Ni53'
_cell_volume   3127.58720161
_cell_formula_units_Z   1
loop_
 _symmetry_equiv_pos_site_id
 _symmetry_equiv_pos_as_xyz
  1  'x, y, z'
loop_
 _atom_site_type_symbol
 _atom_site_label
 _atom_site_symmetry_multiplicity
 _atom_site_fract_x
 _atom_site_fract_y
 _atom_site_fract_z
 _atom_site_occupancy
  Ti  Ti0  1  0.04773554  0.10376817  0.24611717  1
  Ti  Ti1  1  0.10561023  0.09237945  0.58405238  1
  Ti  Ti2  1  0.11690183  0.09877910  0.92466639  1
  Ti  Ti3  1  0.01163797  0.48937792  0.26106280  1
  Ti  Ti4  1  0.02383979  0.40871329  0.59826907  1
  Ti  Ti5  1  -0.00951033  0.40876216  0.88990374  1
  Ti  Ti6  1  0.10777569  0.66643822  0.29966086  1
  Ti  Ti7  1  0.11131858  0.74928142  0.62179615  1
  Ti  Ti8  1  0.13845536  0.80548057  0.89264599  1
  Ti  Ti9  1  0.43243982  0.01245716  0.23772684  1
  Ti  Ti10  1  0.43864749  0.01329583  0.61055426  1
  Ti  Ti11  1  0.42066207  0.04829946  0.84010896  1
  Ti  Ti12  1  0.47425876  0.42085473  0.31399365  1
  Ti  Ti13  1  0.44244861  0.41612321  0.55142583  1
  Ti  Ti14  1  0.38136205  0.38137040  0.87368681  1
  Ti  Ti15  1  0.32083825  0.78734579  0.27572217  1
  Ti  Ti16  1  0.43515159  0.70395885  0.56213078  1
  Ti  Ti17  1  0.38687544  0.71971603  0.89957573  1
  Ti  Ti18  1  0.73920841  0.11241281  0.24115236  1
  Ti  Ti19  1  0.76139199  0.07999499  0.56251739  1
  Ti  Ti20  1  0.79882806  0.05210731  0.89688679  1
  Ti  Ti21  1  0.75354573  0.31818738  0.28638024  1
  Ti  Ti22  1  0.81786571  0.45009554  0.56467607  1
  Ti  Ti23  1  0.68665753  0.49281558  0.90494638  1
  Ti  Ti24  1  0.82546200  0.79493642  0.20443998  1
  Ti  Ti25  1  0.79016443  0.82094979  0.58697172  1
  Ti  Ti26  1  0.75768174  0.77137088  0.79807184  1
  Ti  Ti27  1  0.12597428  0.22449373  0.08927776  1
  Ti  Ti28  1  0.06926075  0.21564645  0.42347526  1
  Ti  Ti29  1  0.05323424  0.25980291  0.77152038  1
  Ti  Ti30  1  0.05021663  0.62939967  0.10982165  1
  Ti  Ti31  1  0.09881568  0.51378854  0.43778141  1
  Ti  Ti32  1  0.04885077  0.62069723  0.79892096  1
  Ti  Ti33  1  0.02683459  0.91992507  0.08551332  1
  Ti  Ti34  1  0.04964286  0.85893494  0.42057285  1
  Ti  Ti35  1  0.08251013  0.92513556  0.69445418  1
  Ti  Ti36  1  0.42644351  0.24854163  0.03425880  1
  Ti  Ti37  1  0.43783846  0.23940038  0.38663634  1
  Ti  Ti38  1  0.42078552  0.31378811  0.69621987  1
  Ti  Ti39  1  0.39119240  0.46908969  0.05764581  1
  Ti  Ti40  1  0.40809106  0.62941956  0.34837696  1
  Ti  Ti41  1  0.35131258  0.54235217  0.66589560  1
  Ti  Ti42  1  0.40735317  1.02697449  0.04366288  1
  Ti  Ti43  1  0.44408161  0.93768169  0.41985355  1
  Ti  Ti44  1  0.39035374  0.84200248  0.74251051  1
  Ti  Ti45  1  0.76461969  0.26300226  0.09892008  1
  Ti  Ti46  1  0.80401179  0.19193747  0.41477532  1
  Ti  Ti47  1  0.71984119  0.28477581  0.80045008  1
  Ti  Ti48  1  0.77566782  0.55934063  0.19326143  1
  Ti  Ti49  1  0.74347039  0.54458892  0.39660482  1
  Ti  Ti50  1  0.77121344  0.55887145  0.73997878  1
  Ti  Ti51  1  0.75336742  0.94655599  0.10434063  1
  Ti  Ti52  1  0.68916111  0.86082014  0.38516245  1
  Ti  Ti53  1  0.79305726  0.97722353  0.71816551  1
  Ti  Ti54  1  0.26007869  0.09038384  0.21028149  1
  Ti  Ti55  1  0.23237849  0.11195389  0.41718011  1
  Ti  Ti56  1  0.25532463  0.03758950  0.74311174  1
  Ti  Ti57  1  0.17913329  0.45588592  0.11342097  1
  Ti  Ti58  1  0.28292997  0.44156480  0.40552947  1
  Ti  Ti59  1  0.22181999  0.36858345  0.73817939  1
  Ti  Ti60  1  0.27589028  0.77157647  0.06266959  1
  Ti  Ti61  1  0.21018650  0.77055668  0.44161571  1
  Ti  Ti62  1  0.24893961  0.68392981  0.77529466  1
  Ti  Ti63  1  0.59064543  0.09954172  0.10889324  1
  Ti  Ti64  1  0.55163650  0.10582584  0.46908049  1
  Ti  Ti65  1  0.62497359  0.07741696  0.80693222  1
  Ti  Ti66  1  0.65003582  0.42900468  0.09528734  1
  Ti  Ti67  1  0.61802370  0.41640638  0.46617608  1
  Ti  Ti68  1  0.62954956  0.42428033  0.67373474  1
  Ti  Ti69  1  0.47822201  0.74969726  0.14930088  1
  Ti  Ti70  1  0.53918873  0.76185467  0.38586641  1
  Ti  Ti71  1  0.56586642  0.75923814  0.75037942  1
  Ti  Ti72  1  0.95609049  0.09021783  0.02808665  1
  Ti  Ti73  1  0.88200371  0.02680565  0.37641447  1
  Ti  Ti74  1  0.93566488  0.10378056  0.69351986  1
  Ti  Ti75  1  0.98553730  0.36307477  0.07144398  1
  Ti  Ti76  1  0.95385867  0.36056839  0.43016461  1
  Ti  Ti77  1  0.88454405  0.36379036  0.72858181  1
  Ti  Ti78  1  0.94542695  0.77001339  -0.01456701  1
  Ti  Ti79  1  0.86994575  0.81159001  0.40011478  1
  Ti  Ti80  1  0.91313193  0.70308503  0.70358160  1
  Ti  Ti81  1  0.30054269  0.30153812  0.16940642  1
  Ti  Ti82  1  0.24875441  0.24604052  0.56549305  1
  Ti  Ti83  1  0.23344628  0.23555770  0.90642236  1
  Ti  Ti84  1  0.29801489  0.60424409  0.19922671  1
  Ti  Ti85  1  0.16914494  0.53638498  0.63538949  1
  Ti  Ti86  1  0.24580883  0.55743315  0.95393273  1
  Ti  Ti87  1  0.24794137  0.94426669  0.35114559  1
  Ti  Ti88  1  0.28690430  0.88247060  0.58193943  1
  Ti  Ti89  1  0.22237604  0.95192407  1.02277238  1
  Ti  Ti90  1  0.56837712  0.26458054  0.21509288  1
  Ti  Ti91  1  0.59415739  0.22605050  0.66152559  1
  Ti  Ti92  1  0.52781591  0.24574050  0.86378351  1
  Ti  Ti93  1  0.59334328  0.59792061  0.27912360  1
  Ti  Ti94  1  0.55892665  0.58549554  0.62134120  1
  Ti  Ti95  1  0.49990681  0.54893707  0.89814827  1
  Ti  Ti96  1  0.61653631  0.96175480  0.24836023  1
  Ti  Ti97  1  0.63612517  0.90058066  0.65323460  1
  Ti  Ti98  1  0.53638562  0.91070785  0.92437051  1
  Ti  Ti99  1  0.95670484  0.31231056  0.24966046  1
  Ti  Ti100  1  0.88169766  0.25268396  0.58116690  1
  Ti  Ti101  1  0.86496041  0.25478355  0.93582434  1
  Ti  Ti102  1  0.90883029  0.64120072  0.33116020  1
  Ti  Ti103  1  0.86376080  0.64531844  0.53550016  1
  Ti  Ti104  1  0.90281043  0.56471488  0.97551588  1
  Ti  Ti105  1  0.98298729  0.92513563  0.26245580  1
  Ti  Ti106  1  0.94294936  0.96448094  0.54894530  1
  Ti  Ti107  1  0.99114301  0.95842120  0.86925009  1
  Co  Co108  1  0.48654180  0.85835522  0.26692129  1
  Co  Co109  1  -0.08651268  0.53319331  0.81068467  1
  Co  Co110  1  0.81780628  0.41101065  0.86284150  1
  Co  Co111  1  0.12014304  0.06150649  0.09764568  1
  Co  Co112  1  0.27771143  0.70861648  0.61957371  1
  Co  Co113  1  0.61271246  0.06450231  0.63807172  1
  Co  Co114  1  0.77457701  -0.05426807  0.49333827  1
  Co  Co115  1  0.79205563  0.93670439  0.27639852  1
  Co  Co116  1  -0.07299692  0.20946050  0.11770962  1
  Co  Co117  1  0.87196610  0.68108871  0.86374492  1
  Co  Co118  1  0.17191146  0.63599962  0.50807057  1
  Co  Co119  1  0.48227816  0.48125473  0.73677467  1
  Co  Co120  1  0.05588055  0.44781071  0.74906041  1
  Co  Co121  1  0.84884587  -0.11469089  0.85486751  1
  Co  Co122  1  0.11522971  0.78680361  0.06422412  1
  Co  Co123  1  0.47434442  0.85834831  0.59361821  1
  Co  Co124  1  0.92302351  0.52889065  0.65622098  1
  Co  Co125  1  0.49721590  0.39166659  0.14771775  1
  Co  Co126  1  0.02201665  0.68891904  0.44589849  1
  Co  Co127  1  0.52740164  0.39798925  -0.02506253  1
  Co  Co128  1  0.05125130  0.24396634  0.59677440  1
  Co  Co129  1  -0.06087110  0.52618930  0.46176984  1
  Co  Co130  1  0.52714638  0.28447047  0.52818279  1
  Co  Co131  1  0.68820153  0.17223901  0.94109060  1
  Co  Co132  1  0.68979102  0.04812136  0.38721492  1
  Co  Co133  1  0.67398824  0.20186826  0.51073006  1
  Co  Co134  1  0.34043050  0.44632715  0.23038699  1
  Co  Co135  1  0.89258212  0.03485276  0.17504978  1
  Co  Co136  1  0.28365573  0.06213023  -0.08362506  1
  Co  Co137  1  0.03963955  0.25122742  -0.05024519  1
  Co  Co138  1  0.16555210  -0.03999224  0.85260079  1
  Co  Co139  1  -0.01161279  0.79165990  0.82272331  1
  Co  Co140  1  0.52060955  -0.05435211  0.75419460  1
  Co  Co141  1  0.38442677  0.08542882  0.37741937  1
  Co  Co142  1  0.10863015  0.36250242  0.35567294  1
  Co  Co143  1  0.24928400  0.62373767  0.36320155  1
  Co  Co144  1  0.03163078  0.61159286  0.58952493  1
  Co  Co145  1  0.70601564  0.55655810  0.56092431  1
  Co  Co146  1  0.10068540  0.66174112  -0.05196640  1
  Co  Co147  1  0.14465068  0.35860844  0.50806034  1
  Co  Co148  1  -0.06804470  0.50387539  0.12470312  1
  Co  Co149  1  0.88127994  0.92857324  0.00946477  1
  Co  Co150  1  0.53145233  -0.07731399  0.10848301  1
  Co  Co151  1  0.59799784  0.76512982  0.55527513  1
  Co  Co152  1  0.57624197  0.38839117  0.82190488  1
  Co  Co153  1  0.22438617  0.84385426  0.73261235  1
  Co  Co154  1  0.81834202  0.40634070  0.17817425  1
  Co  Co155  1  0.08332999  0.07669741  0.76042189  1
  Co  Co156  1  0.60897571  0.59073673  0.77899518  1
  Co  Co157  1  0.11135561  0.34266085  0.20026870  1
  Co  Co158  1  0.65525051  0.00827673  -0.01233993  1
  Co  Co159  1  0.05426933  0.03239527  0.40559459  1
  Co  Co160  1  0.69542544  0.33407361  -0.04948909  1
  Co  Co161  1  0.20257914  0.63360890  0.08205457  1
  Ni  Ni162  1  0.59136368  0.26274099  0.04818703  1
  Ni  Ni163  1  0.15581605  0.38444696  0.89445902  1
  Ni  Ni164  1  0.46565460  0.13985201  0.70730802  1
  Ni  Ni165  1  0.18736546  0.52383219  0.80534416  1
  Ni  Ni166  1  0.92097792  0.87565913  0.69888326  1
  Ni  Ni167  1  0.14538171  0.82188419  0.28114862  1
  Ni  Ni168  1  0.16929047  0.21386699  0.28072479  1
  Ni  Ni169  1  -0.04439210  0.13618124  0.85584653  1
  Ni  Ni170  1  0.34629704  0.90147776  0.15424225  1
  Ni  Ni171  1  0.47639634  0.52510500  0.44611959  1
  Ni  Ni172  1  0.52829125  0.10945933  -0.04376104  1
  Ni  Ni173  1  0.59544342  -0.05421587  0.50075149  1
  Ni  Ni174  1  0.86080400  0.45566782  0.32919219  1
  Ni  Ni175  1  0.18129906  0.49795596  0.27827475  1
  Ni  Ni176  1  -0.04120393  0.79519666  0.55644901  1
  Ni  Ni177  1  0.72899238  0.71116937  0.46932237  1
  Ni  Ni178  1  0.73043995  0.69759230  0.30816499  1
  Ni  Ni179  1  0.63690679  0.79802100  0.21264480  1
  Ni  Ni180  1  0.41697198  0.84436938  0.01538447  1
  Ni  Ni181  1  0.76572226  0.15087006  0.71321494  1
  Ni  Ni182  1  0.28512187  0.15389656  0.05783178  1
  Ni  Ni183  1  0.55125101  0.11885671  0.29970636  1
  Ni  Ni184  1  0.07691819  0.50597296  -0.00757306  1
  Ni  Ni185  1  0.28076853  0.41000407  0.58355542  1
  Ni  Ni186  1  0.30624647  0.87389286  0.88903523  1
  Ni  Ni187  1  0.70444964  0.69297657  0.65743679  1
  Ni  Ni188  1  0.34940212  0.20727649  0.79975740  1
  Ni  Ni189  1  0.39392908  0.63788060  0.04338142  1
  Ni  Ni190  1  0.89873276  0.65888358  0.15496428  1
  Ni  Ni191  1  0.67771078  0.91877174  0.83487627  1
  Ni  Ni192  1  0.27418540  0.35792576  0.00913510  1
  Ni  Ni193  1  0.61473600  0.26695665  0.37625735  1
  Ni  Ni194  1  0.37045593  0.79726538  0.44572753  1
  Ni  Ni195  1  0.77077307  0.34983538  0.44773910  1
  Ni  Ni196  1  0.32126656  0.57068552  0.50645432  1
  Ni  Ni197  1  0.46174664  0.56154769  0.18650700  1
  Ni  Ni198  1  -0.05156044  0.12711560  0.50566823  1
  Ni  Ni199  1  0.18186248  -0.06137066  0.18530278  1
  Ni  Ni200  1  0.41842406  0.17678624  0.19653109  1
  Ni  Ni201  1  0.39772053  0.16971848  0.53844388  1
  Ni  Ni202  1  0.27498632  0.05533160  0.56952680  1
  Ni  Ni203  1  0.82373231  0.41878716  0.02082877  1
  Ni  Ni204  1  0.00443333  0.77535633  0.19499457  1
  Ni  Ni205  1  0.64171936  0.43791424  0.26521371  1
  Ni  Ni206  1  0.78697242  0.10619467  0.05979508  1
  Ni  Ni207  1  0.15223154  -0.05162832  0.51460208  1
  Ni  Ni208  1  0.43971066  0.65764911  0.74837653  1
  Ni  Ni209  1  0.88968194  0.17025116  0.27426924  1
  Ni  Ni210  1  0.35030759  0.54068295  0.82849339  1
  Ni  Ni211  1  0.73253527  0.30930996  0.61418469  1
  Ni  Ni212  1  0.29791951  0.29731990  0.33349652  1
  Ni  Ni213  1  0.59480339  0.62299820  0.45446882  1
  Ni  Ni214  1  0.19582434  0.19545953  0.71732006  1
