# generated using pymatgen
data_Ti108Co54Ni53
_symmetry_space_group_name_H-M   'P 1'
_cell_length_a   14.60324805
_cell_length_b   14.65623103
_cell_length_c   14.65933036
_cell_angle_alpha   89.80091694
_cell_angle_beta   89.89186972
_cell_angle_gamma   90.05967380
_symmetry_Int_Tables_number   1
_chemical_formula_structural   Ti108Co54Ni53
_chemical_formula_sum   'Ti108 Co54 Ni53'
_cell_volume   3137.48937087
_cell_formula_units_Z   1
loop_
 _symmetry_equiv_pos_site_id
 _symmetry_equiv_pos_as_xyz
  1  'x, y, z'
loop_
 _atom_site_type_symbol
 _atom_site_label
 _atom_site_symmetry_multiplicity
 _atom_site_fract_x
 _atom_site_fract_y
 _atom_site_fract_z
 _atom_site_occupancy
  Ti  Ti0  1  0.04214200  0.06528385  0.16905780  1
  Ti  Ti1  1  0.16631997  0.11005016  0.60467250  1
  Ti  Ti2  1  0.13513329  0.09208281  0.96661165  1
  Ti  Ti3  1  0.11589204  0.41290548  0.19673299  1
  Ti  Ti4  1  0.10613478  0.41001034  0.62489791  1
  Ti  Ti5  1  0.06883132  0.36887110  0.91401808  1
  Ti  Ti6  1  0.14872313  0.81694523  0.29144883  1
  Ti  Ti7  1  0.11002805  0.75955352  0.57915834  1
  Ti  Ti8  1  0.05564375  0.67532588  0.90387606  1
  Ti  Ti9  1  0.38532251  0.08545645  0.33102047  1
  Ti  Ti10  1  0.49590905  0.13422314  0.60183101  1
  Ti  Ti11  1  0.44205967  0.02788304  0.88215924  1
  Ti  Ti12  1  0.38892490  0.49881792  0.28823743  1
  Ti  Ti13  1  0.35333185  0.44104020  0.55494571  1
  Ti  Ti14  1  0.41991783  0.44264733  0.90276857  1
  Ti  Ti15  1  0.44973588  0.71579693  0.25835292  1
  Ti  Ti16  1  0.39840478  0.78525371  0.58592578  1
  Ti  Ti17  1  0.36086949  0.76691571  0.95427077  1
  Ti  Ti18  1  0.84650867  0.08839358  0.23376989  1
  Ti  Ti19  1  0.73647266  0.01427836  0.51577710  1
  Ti  Ti20  1  0.71543249  0.05636619  0.94964601  1
  Ti  Ti21  1  0.77218287  0.50449786  0.26236121  1
  Ti  Ti22  1  0.67012207  0.40785572  0.59509951  1
  Ti  Ti23  1  0.80612796  0.41023059  0.86224357  1
  Ti  Ti24  1  0.74287421  0.72130570  0.26459073  1
  Ti  Ti25  1  0.71156618  0.74422834  0.52560333  1
  Ti  Ti26  1  0.72331414  0.70322668  0.91398798  1
  Ti  Ti27  1  0.09206084  0.23490797  0.08223106  1
  Ti  Ti28  1  0.05194232  0.22378081  0.37971482  1
  Ti  Ti29  1  0.07422301  0.22404069  0.73898241  1
  Ti  Ti30  1  0.04922954  0.56219401  0.06946622  1
  Ti  Ti31  1  0.02072572  0.53952258  0.35786616  1
  Ti  Ti32  1  0.14023779  0.53146450  0.79312656  1
  Ti  Ti33  1  0.02255394  0.94727673  -0.00018027  1
  Ti  Ti34  1  0.11630359  0.94385665  0.42893577  1
  Ti  Ti35  1  0.10876436  0.89020064  0.74293028  1
  Ti  Ti36  1  0.41444227  0.17066507  0.02480904  1
  Ti  Ti37  1  0.39512424  0.24901963  0.44267779  1
  Ti  Ti38  1  0.42329428  0.22826385  0.79280191  1
  Ti  Ti39  1  0.33983805  0.60732239  0.10888066  1
  Ti  Ti40  1  0.42172508  0.62143266  0.46655743  1
  Ti  Ti41  1  0.43696321  0.60311855  0.67548571  1
  Ti  Ti42  1  0.38177953  0.93558030  0.04716142  1
  Ti  Ti43  1  0.39717258  0.85752893  0.42188161  1
  Ti  Ti44  1  0.34650677  0.89769733  0.76334717  1
  Ti  Ti45  1  0.76294143  0.21366262  0.09679540  1
  Ti  Ti46  1  0.80373646  0.27649330  0.49574039  1
  Ti  Ti47  1  0.81843143  0.29227267  0.70620252  1
  Ti  Ti48  1  0.77517384  0.63343279  0.09948917  1
  Ti  Ti49  1  0.82859306  0.57868202  0.46055057  1
  Ti  Ti50  1  0.75993285  0.64669113  0.67884038  1
  Ti  Ti51  1  0.73901119  0.95725850  0.12554953  1
  Ti  Ti52  1  0.69053682  0.87761750  0.38530256  1
  Ti  Ti53  1  0.75668371  0.97868102  0.77025931  1
  Ti  Ti54  1  0.25286377  0.06029623  0.13835103  1
  Ti  Ti55  1  0.21109108  0.11749958  0.41204421  1
  Ti  Ti56  1  0.21411370  0.05551670  0.78013122  1
  Ti  Ti57  1  0.23697638  0.40475821  0.03186900  1
  Ti  Ti58  1  0.16651813  0.41107708  0.44622666  1
  Ti  Ti59  1  0.33496479  0.37503018  0.73033061  1
  Ti  Ti60  1  0.23083201  0.81483829  0.11703775  1
  Ti  Ti61  1  0.17208691  0.66660316  0.41524855  1
  Ti  Ti62  1  0.26690858  0.71019128  0.73311914  1
  Ti  Ti63  1  0.55859132  -0.00664173  0.05495818  1
  Ti  Ti64  1  0.54265747  0.02240633  0.44540927  1
  Ti  Ti65  1  0.58618174  0.14328600  0.79378729  1
  Ti  Ti66  1  0.61307110  0.44579546  -0.03903639  1
  Ti  Ti67  1  0.52175687  0.41071105  0.42655210  1
  Ti  Ti68  1  0.55646329  0.44308846  0.77022822  1
  Ti  Ti69  1  0.62973355  0.76745175  0.08485516  1
  Ti  Ti70  1  0.57391205  0.72374335  0.39697865  1
  Ti  Ti71  1  0.59707451  0.70921570  0.74587973  1
  Ti  Ti72  1  0.89886326  0.09081379  0.04387170  1
  Ti  Ti73  1  0.90333952  0.07550677  0.41780559  1
  Ti  Ti74  1  0.90737452  0.11113696  0.76880334  1
  Ti  Ti75  1  0.87456681  0.47195303  0.05972246  1
  Ti  Ti76  1  0.97742330  0.38347253  0.48450127  1
  Ti  Ti77  1  0.96978005  0.43501174  0.75906125  1
  Ti  Ti78  1  0.94540670  0.76634409  0.04830131  1
  Ti  Ti79  1  0.88079136  0.75588263  0.38699592  1
  Ti  Ti80  1  0.94353443  0.76199230  0.71311762  1
  Ti  Ti81  1  0.24178396  0.30068810  0.31530300  1
  Ti  Ti82  1  0.24157875  0.28159610  0.55915868  1
  Ti  Ti83  1  0.21152088  0.25675565  0.87777949  1
  Ti  Ti84  1  0.17053535  0.61323426  0.21341163  1
  Ti  Ti85  1  0.22082706  0.56421554  0.61329511  1
  Ti  Ti86  1  0.30067599  0.59758973  0.90349896  1
  Ti  Ti87  1  0.38465495  0.91983108  0.23544525  1
  Ti  Ti88  1  0.29473618  0.97099394  0.55035271  1
  Ti  Ti89  1  0.20569717  0.90810651  0.91674170  1
  Ti  Ti90  1  0.65377248  0.19461098  0.27775878  1
  Ti  Ti91  1  0.66773684  0.22138794  0.62283518  1
  Ti  Ti92  1  0.68967712  0.25166449  0.91419175  1
  Ti  Ti93  1  0.58266264  0.58865827  0.18330282  1
  Ti  Ti94  1  0.60673700  0.56831939  0.51523688  1
  Ti  Ti95  1  0.51141176  0.62730319  0.90908741  1
  Ti  Ti96  1  0.57473079  1.01882165  0.25390694  1
  Ti  Ti97  1  0.63750659  0.88550614  0.64574810  1
  Ti  Ti98  1  0.55875766  0.86573339  0.85387688  1
  Ti  Ti99  1  0.87996392  0.30006420  0.30122312  1
  Ti  Ti100  1  0.95014868  0.16809807  0.58047225  1
  Ti  Ti101  1  0.90658085  0.28711651  0.99143837  1
  Ti  Ti102  1  0.92609645  0.62064206  0.21194025  1
  Ti  Ti103  1  0.92705272  0.55477783  0.61362962  1
  Ti  Ti104  1  0.87048859  0.58938643  0.82485051  1
  Ti  Ti105  1  0.97419803  0.92229410  0.30169921  1
  Ti  Ti106  1  0.92384448  0.95580515  0.59111550  1
  Ti  Ti107  1  0.82970419  0.88521946  0.94510102  1
  Co  Co108  1  0.20285053  0.66744765  0.03384374  1
  Co  Co109  1  0.11512956  -0.06330972  0.58571266  1
  Co  Co110  1  0.33971905  0.39845436  0.40086999  1
  Co  Co111  1  0.28195135  0.68990029  0.54386919  1
  Co  Co112  1  0.67084847  0.09757879  0.13644825  1
  Co  Co113  1  0.67102414  -0.11455825  -0.03499007  1
  Co  Co114  1  -0.10133530  0.62707316  -0.01205363  1
  Co  Co115  1  0.40166412  0.27565424  0.61375329  1
  Co  Co116  1  0.65145530  0.14622441  0.47787704  1
  Co  Co117  1  0.67149227  0.32555359  0.77429546  1
  Co  Co118  1  0.25557357  0.20046041  0.02581529  1
  Co  Co119  1  0.04170534  0.37606046  0.33129863  1
  Co  Co120  1  0.21269848  0.75380271  0.88204388  1
  Co  Co121  1  0.53645982  0.29835841  0.69515367  1
  Co  Co122  1  0.52722953  0.17843469  0.38323582  1
  Co  Co123  1  0.72475527  0.03026051  0.33083981  1
  Co  Co124  1  0.27660223  -0.04451409  0.37039301  1
  Co  Co125  1  0.16650557  0.35828997  0.75195202  1
  Co  Co126  1  0.27896767  0.45709448  0.18030484  1
  Co  Co127  1  0.31901138  0.14203875  0.86594457  1
  Co  Co128  1  0.87565847  0.44417735  0.37793419  1
  Co  Co129  1  0.72518127  0.81844027  0.79843421  1
  Co  Co130  1  0.91744990  -0.07895978  0.76352446  1
  Co  Co131  1  0.48697518  0.67830900  0.06873983  1
  Co  Co132  1  0.93759265  0.28453266  0.81810186  1
  Co  Co133  1  0.78110289  0.47956552  0.71278472  1
  Co  Co134  1  0.15393446  0.53179727  -0.04437319  1
  Co  Co135  1  0.23595682  0.82389985  0.46214853  1
  Co  Co136  1  0.01873955  0.38538744  0.06860164  1
  Co  Co137  1  0.75755026  0.53345740  -0.03945504  1
  Co  Co138  1  -0.01657169  0.50333937  0.91646144  1
  Co  Co139  1  0.55193885  0.71011631  0.58398291  1
  Co  Co140  1  0.38779149  0.78583342  0.12900815  1
  Co  Co141  1  -0.10166496  0.01745449  -0.10217649  1
  Co  Co142  1  0.83196366  0.16801907  -0.09182739  1
  Co  Co143  1  0.29976421  0.79392189  0.29555067  1
  Co  Co144  1  0.74094458  0.15310686  0.77202494  1
  Co  Co145  1  0.80353098  0.12156919  0.61552290  1
  Co  Co146  1  0.05076090  0.07263206  0.49954461  1
  Co  Co147  1  0.24227258  0.84060899  0.63519446  1
  Co  Co148  1  0.10618406  0.72943034  0.76096618  1
  Co  Co149  1  0.69554755  0.48435196  0.11612618  1
  Co  Co150  1  0.08630057  0.25224355  0.53453292  1
  Co  Co151  1  0.20488934  0.49297023  0.31679929  1
  Co  Co152  1  0.01587474  0.84399875  0.87492080  1
  Co  Co153  1  0.04742268  0.07262281  0.33089700  1
  Co  Co154  1  0.26597173  0.20876515  0.71227382  1
  Co  Co155  1  0.60620960  0.56235270  0.67322303  1
  Co  Co156  1  0.62437790  0.60121595  0.02332552  1
  Co  Co157  1  0.54157078  0.28369085  0.52831812  1
  Co  Co158  1  0.52920126  0.29998127  0.89238238  1
  Co  Co159  1  0.35665856  0.30209992  -0.06044072  1
  Co  Co160  1  0.05626426  0.00926523  0.84521035  1
  Co  Co161  1  0.31459903  0.52949830  0.74923055  1
  Ni  Ni162  1  0.06487594  0.61027636  0.66808430  1
  Ni  Ni163  1  0.47092592  0.52022308  0.04288542  1
  Ni  Ni164  1  0.33898884  0.18758991  0.20699203  1
  Ni  Ni165  1  -0.00088804  0.67159565  0.48028030  1
  Ni  Ni166  1  0.79726142  0.80463184  0.11552196  1
  Ni  Ni167  1  0.50410314  0.44080231  0.60541690  1
  Ni  Ni168  1  0.69339913  0.60532155  0.37080164  1
  Ni  Ni169  1  0.17208603  0.15823557  0.24805630  1
  Ni  Ni170  1  0.06880411  0.88723244  0.15293584  1
  Ni  Ni171  1  0.07879671  0.53807386  0.51776694  1
  Ni  Ni172  1  0.52328103  -0.00471660  0.73920050  1
  Ni  Ni173  1  -0.05527557  0.45027194  0.21608120  1
  Ni  Ni174  1  0.42437040  0.72863979  0.80336467  1
  Ni  Ni175  1  0.16309905  -0.01937961  0.25519868  1
  Ni  Ni176  1  0.37212178  0.06623123  0.71103204  1
  Ni  Ni177  1  0.49251770  0.83805934  0.69974736  1
  Ni  Ni178  1  0.56523388  0.13862727  -0.03911860  1
  Ni  Ni179  1  0.88008360  0.75147502  0.86552865  1
  Ni  Ni180  1  -0.00987726  0.84065999  0.48666841  1
  Ni  Ni181  1  0.80733112  0.35856416  0.16891766  1
  Ni  Ni182  1  0.25128305  0.42661098  0.87088163  1
  Ni  Ni183  1  0.80296748  0.84823307  0.65093939  1
  Ni  Ni184  1  0.28978739  0.03926344  -0.02641859  1
  Ni  Ni185  1  0.07044072  0.72210566  0.15255389  1
  Ni  Ni186  1  0.03055487  0.70396893  0.31874592  1
  Ni  Ni187  1  0.78211391  0.17856232  0.37145937  1
  Ni  Ni188  1  0.03544175  0.04278742  0.68394656  1
  Ni  Ni189  1  -0.03730061  0.32063096  0.63707185  1
  Ni  Ni190  1  0.27818159  0.54791427  0.44898138  1
  Ni  Ni191  1  0.33225855  0.13407713  0.55563485  1
  Ni  Ni192  1  0.56236603  0.85916659  0.50155156  1
  Ni  Ni193  1  0.85143812  -0.08169460  0.42958433  1
  Ni  Ni194  1  0.30488727  0.63382905  0.30559092  1
  Ni  Ni195  1  0.67568106  0.56575469  0.82349696  1
  Ni  Ni196  1  0.65534718  0.29950186  0.41248317  1
  Ni  Ni197  1  0.43199961  0.06242545  0.16023771  1
  Ni  Ni198  1  0.50690556  0.83373167  0.00678299  1
  Ni  Ni199  1  0.92876871  0.78730907  0.21646988  1
  Ni  Ni200  1  0.71035515  0.45236706  0.43224659  1
  Ni  Ni201  1  -0.06635353  0.22789257  0.15594533  1
  Ni  Ni202  1  0.00507315  0.16854657  0.91095147  1
  Ni  Ni203  1  0.52721208  0.87758710  0.32954672  1
  Ni  Ni204  1  0.74702361  0.36658189  0.01875313  1
  Ni  Ni205  1  0.53546377  0.56382124  0.34695957  1
  Ni  Ni206  1  0.91036421  -0.05905863  0.13533711  1
  Ni  Ni207  1  0.83105360  0.42802458  0.55878582  1
  Ni  Ni208  1  0.87301405  0.72063174  0.56578402  1
  Ni  Ni209  1  0.64891210  0.05652541  0.65167885  1
  Ni  Ni210  1  0.64440660  0.85194830  0.22377094  1
  Ni  Ni211  1  0.45819671  -0.03695189  0.58927873  1
  Ni  Ni212  1  0.23152335  0.29260237  0.15441308  1
  Ni  Ni213  1  0.80977479  0.89250926  0.26590308  1
  Ni  Ni214  1  0.10755492  0.79953390  0.00749974  1
