# generated using pymatgen
data_Ti108Co54Ni53
_symmetry_space_group_name_H-M   'P 1'
_cell_length_a   14.72580779
_cell_length_b   14.67537673
_cell_length_c   14.66720288
_cell_angle_alpha   90.09485203
_cell_angle_beta   90.03395635
_cell_angle_gamma   89.46703735
_symmetry_Int_Tables_number   1
_chemical_formula_structural   Ti108Co54Ni53
_chemical_formula_sum   'Ti108 Co54 Ni53'
_cell_volume   3169.53994164
_cell_formula_units_Z   1
loop_
 _symmetry_equiv_pos_site_id
 _symmetry_equiv_pos_as_xyz
  1  'x, y, z'
loop_
 _atom_site_type_symbol
 _atom_site_label
 _atom_site_symmetry_multiplicity
 _atom_site_fract_x
 _atom_site_fract_y
 _atom_site_fract_z
 _atom_site_occupancy
  Ti  Ti0  1  0.09758688  0.06530163  0.21512831  1
  Ti  Ti1  1  0.12607388  0.13112799  0.53543643  1
  Ti  Ti2  1  0.11024674  0.12033591  0.81757054  1
  Ti  Ti3  1  0.05132960  0.35003776  0.24000657  1
  Ti  Ti4  1  0.11376452  0.44354048  0.53678316  1
  Ti  Ti5  1  0.14021320  0.44842972  0.93012820  1
  Ti  Ti6  1  0.20205070  0.75494740  0.21696547  1
  Ti  Ti7  1  0.03674996  0.75723311  0.52880536  1
  Ti  Ti8  1  0.05545746  0.73383251  0.86077162  1
  Ti  Ti9  1  0.36999638  0.04832645  0.25937553  1
  Ti  Ti10  1  0.39237542  0.04816711  0.57394655  1
  Ti  Ti11  1  0.41160172  0.09681673  0.96809247  1
  Ti  Ti12  1  0.48383475  0.37692265  0.29218361  1
  Ti  Ti13  1  0.42281376  0.39874374  0.62622843  1
  Ti  Ti14  1  0.45011575  0.37792445  0.94286265  1
  Ti  Ti15  1  0.44470735  0.73365735  0.27982952  1
  Ti  Ti16  1  0.39615144  0.73767745  0.61236935  1
  Ti  Ti17  1  0.41059847  0.71814884  0.98239187  1
  Ti  Ti18  1  0.72062306  0.08306825  0.28485432  1
  Ti  Ti19  1  0.81091419  0.12124921  0.58471764  1
  Ti  Ti20  1  0.85281157  0.10480056  0.90742440  1
  Ti  Ti21  1  0.76129050  0.37294978  0.23201697  1
  Ti  Ti22  1  0.79581138  0.45099012  0.60907063  1
  Ti  Ti23  1  0.77673610  0.43326120  0.86166145  1
  Ti  Ti24  1  0.74487398  0.71640908  0.28431089  1
  Ti  Ti25  1  0.74571393  0.73339086  0.63651112  1
  Ti  Ti26  1  0.68338924  0.73646745  0.93340159  1
  Ti  Ti27  1  0.07831875  0.17226434  0.00990696  1
  Ti  Ti28  1  0.03117547  0.25806013  0.40553899  1
  Ti  Ti29  1  0.09446575  0.32293206  0.77568507  1
  Ti  Ti30  1  0.03949383  0.50218998  0.10075688  1
  Ti  Ti31  1  0.04224560  0.58927641  0.41276973  1
  Ti  Ti32  1  0.09987186  0.55859280  0.76517544  1
  Ti  Ti33  1  0.04945068  0.88033216  0.11253353  1
  Ti  Ti34  1  0.07889123  0.99448637  0.41388198  1
  Ti  Ti35  1  0.05655320  0.92657055  0.77896481  1
  Ti  Ti36  1  0.39782135  0.34757434  0.12708755  1
  Ti  Ti37  1  0.35992235  0.30928664  0.42937892  1
  Ti  Ti38  1  0.41287653  0.17458702  0.74162564  1
  Ti  Ti39  1  0.35288670  0.53488502  0.05201766  1
  Ti  Ti40  1  0.39456516  0.62382517  0.45126458  1
  Ti  Ti41  1  0.37191840  0.66326840  0.78838658  1
  Ti  Ti42  1  0.40054644  0.88119358  0.09458712  1
  Ti  Ti43  1  0.43533630  0.92918334  0.40745926  1
  Ti  Ti44  1  0.40833160  0.92329314  0.71990617  1
  Ti  Ti45  1  0.76985475  0.32299538  0.03697281  1
  Ti  Ti46  1  0.72677290  0.27680221  0.47231473  1
  Ti  Ti47  1  0.73726250  0.28639461  0.69922415  1
  Ti  Ti48  1  0.75784430  0.65343558  0.11086309  1
  Ti  Ti49  1  0.82971597  0.55426389  0.39669204  1
  Ti  Ti50  1  0.75771023  0.59652851  0.75231925  1
  Ti  Ti51  1  0.84917050  0.89725754  0.09630836  1
  Ti  Ti52  1  0.72435564  0.91124180  0.41330755  1
  Ti  Ti53  1  0.77033798  0.91394125  0.71920466  1
  Ti  Ti54  1  0.25665514  0.10047312  0.10352782  1
  Ti  Ti55  1  0.29720600  0.12835760  0.42783127  1
  Ti  Ti56  1  0.29445437  0.03084492  0.81571941  1
  Ti  Ti57  1  0.21194803  0.40312037  0.14891747  1
  Ti  Ti58  1  0.20316799  0.44059418  0.37470989  1
  Ti  Ti59  1  0.29365328  0.37853657  0.80730571  1
  Ti  Ti60  1  0.22268722  0.83001710  0.00967257  1
  Ti  Ti61  1  0.22845861  0.84115409  0.43098057  1
  Ti  Ti62  1  0.20920426  0.73955790  0.60453183  1
  Ti  Ti63  1  0.54086286  0.08241433  0.18858812  1
  Ti  Ti64  1  0.49661515  0.14412714  0.43425260  1
  Ti  Ti65  1  0.63895317  0.07292389  0.77638206  1
  Ti  Ti66  1  0.59514750  0.35711390  0.10281611  1
  Ti  Ti67  1  0.54210834  0.34010844  0.47466207  1
  Ti  Ti68  1  0.59645240  0.42556947  0.75961607  1
  Ti  Ti69  1  0.57115356  0.75748159  0.10971379  1
  Ti  Ti70  1  0.60598949  0.73002623  0.43467689  1
  Ti  Ti71  1  0.56430674  0.62031076  0.71881005  1
  Ti  Ti72  1  0.94980273  0.05794791  0.08073676  1
  Ti  Ti73  1  0.87081684  0.03759154  0.40325742  1
  Ti  Ti74  1  0.95445465  0.15296801  0.70449822  1
  Ti  Ti75  1  0.85551880  0.49541539  0.08816467  1
  Ti  Ti76  1  0.87756232  0.37159697  0.41369393  1
  Ti  Ti77  1  0.90728702  0.34058815  0.75244436  1
  Ti  Ti78  1  0.97224780  0.70567653  0.05314741  1
  Ti  Ti79  1  0.91341637  0.75513416  0.36975806  1
  Ti  Ti80  1  0.94471472  0.69477363  0.71074160  1
  Ti  Ti81  1  0.28498692  0.24403048  0.25798696  1
  Ti  Ti82  1  0.23002636  0.26637306  0.63854938  1
  Ti  Ti83  1  0.29007539  0.25440445  1.00190965  1
  Ti  Ti84  1  0.28344053  0.57331218  0.23867846  1
  Ti  Ti85  1  0.27560503  0.55100906  0.60637959  1
  Ti  Ti86  1  0.21140768  0.64287751  0.94253594  1
  Ti  Ti87  1  0.23339677  0.93268553  0.17084600  1
  Ti  Ti88  1  0.22342171  0.92341548  0.66082302  1
  Ti  Ti89  1  0.23837029  0.82522686  0.82330943  1
  Ti  Ti90  1  0.61937733  0.24060417  0.31632170  1
  Ti  Ti91  1  0.62244130  0.16296012  0.58491571  1
  Ti  Ti92  1  0.62882793  0.27547783  0.89743260  1
  Ti  Ti93  1  0.59189243  0.56483206  0.21140440  1
  Ti  Ti94  1  0.57121065  0.52840128  0.52159756  1
  Ti  Ti95  1  0.49287696  0.55329681  0.90575776  1
  Ti  Ti96  1  0.62060147  0.86037176  0.26675619  1
  Ti  Ti97  1  0.54710549  0.88003939  0.60527491  1
  Ti  Ti98  1  0.57361697  0.89178087  0.83009649  1
  Ti  Ti99  1  0.86024427  0.21058309  0.22798473  1
  Ti  Ti100  1  1.02251170  0.29628039  0.59150752  1
  Ti  Ti101  1  0.95597011  0.35519005  0.96203379  1
  Ti  Ti102  1  0.94612753  0.61414690  0.23604720  1
  Ti  Ti103  1  0.88989042  0.61973571  0.55316302  1
  Ti  Ti104  1  0.89425051  0.60998139  0.89443440  1
  Ti  Ti105  1  0.95397302  0.91397957  0.27162934  1
  Ti  Ti106  1  0.96116543  0.97094371  0.60694814  1
  Ti  Ti107  1  0.90191886  0.88007580  0.89726906  1
  Co  Co108  1  0.81118014  -0.04117479  0.54455750  1
  Co  Co109  1  0.53399893  0.71156567  0.87872867  1
  Co  Co110  1  0.02589124  0.44157727  0.67639956  1
  Co  Co111  1  0.81002363  0.27279128  0.88035000  1
  Co  Co112  1  0.65923091  0.76144337  0.76926953  1
  Co  Co113  1  0.09058783  0.78538567  0.70038319  1
  Co  Co114  1  0.06485628  0.85495610  -0.04451252  1
  Co  Co115  1  0.67668970  0.00469461  0.61880200  1
  Co  Co116  1  0.69220555  0.84927790  0.55351900  1
  Co  Co117  1  0.10189592  -0.09920760  0.55878741  1
  Co  Co118  1  0.64213753  0.57962334  0.85791426  1
  Co  Co119  1  0.22852822  0.11588023  -0.06100400  1
  Co  Co120  1  -0.05340197  0.46892927  0.53205921  1
  Co  Co121  1  0.59681003  0.22525727  0.74761477  1
  Co  Co122  1  0.84608485  0.20023586  0.39782211  1
  Co  Co123  1  0.36137477  0.21612151  0.56092841  1
  Co  Co124  1  0.10650979  0.51394960  0.25553341  1
  Co  Co125  1  0.56252042  0.70899255  0.58505718  1
  Co  Co126  1  0.79212806  0.88714762  0.26633466  1
  Co  Co127  1  0.52281666  0.05771681  0.66302178  1
  Co  Co128  1  0.90061442  0.01370819  0.77617276  1
  Co  Co129  1  0.42937790  0.50549712  0.20843736  1
  Co  Co130  1  0.27875988  0.41022479  -0.01169474  1
  Co  Co131  1  0.02548442  0.43517220  0.38331266  1
  Co  Co132  1  0.00126986  0.01860495  -0.07871138  1
  Co  Co133  1  0.87397655  0.76442551  0.18751708  1
  Co  Co134  1  0.51234696  0.49298131  0.06799389  1
  Co  Co135  1  0.32321004  0.41067589  0.27946632  1
  Co  Co136  1  0.86650858  0.28036214  0.57162303  1
  Co  Co137  1  0.05071891  0.58505519  -0.04781858  1
  Co  Co138  1  0.48350112  0.23852745  0.01166466  1
  Co  Co139  1  0.40868090  0.46233651  0.47272620  1
  Co  Co140  1  0.08394987  0.33732736  0.06434962  1
  Co  Co141  1  0.72064779  0.80986164  0.13028559  1
  Co  Co142  1  0.52652814  0.24303275  0.17913240  1
  Co  Co143  1  0.45332292  0.77981520  0.46287463  1
  Co  Co144  1  0.19060368  0.43290238  0.69061268  1
  Co  Co145  1  0.12413796  0.71045987  0.06987346  1
  Co  Co146  1  0.59775139  0.61909531  0.02593730  1
  Co  Co147  1  -0.07701927  0.84956817  0.72711411  1
  Co  Co148  1  0.39730974  0.16581587  0.13229807  1
  Co  Co149  1  0.92317282  0.35219931  0.12959836  1
  Co  Co150  1  0.43589762  0.19456322  0.30099252  1
  Co  Co151  1  0.29862394  -0.02879993  -0.00795004  1
  Co  Co152  1  0.69150307  0.48631338  0.10020960  1
  Co  Co153  1  0.18840241  0.55712332  0.08833533  1
  Co  Co154  1  0.82440274  0.75150828  0.81594999  1
  Co  Co155  1  0.16671247  0.23072394  0.15762227  1
  Co  Co156  1  0.15118201  0.28202981  0.91714881  1
  Co  Co157  1  0.71385471  0.59924224  0.55037329  1
  Co  Co158  1  0.89478303  0.21565523  0.03131764  1
  Co  Co159  1  0.16542007  -0.03338770  0.88770785  1
  Co  Co160  1  0.62607225  0.36778209  0.60939223  1
  Co  Co161  1  0.62681518  0.43593380  -0.05103637  1
  Ni  Ni162  1  0.21182065  0.67288190  0.75964680  1
  Ni  Ni163  1  0.10602456  0.04383458  0.66820171  1
  Ni  Ni164  1  0.77450075  0.72302343  0.45574528  1
  Ni  Ni165  1  0.50744193  0.53897923  0.35849769  1
  Ni  Ni166  1  0.66687462  0.58310698  0.37903483  1
  Ni  Ni167  1  0.35016385  0.88098603  0.55063151  1
  Ni  Ni168  1  0.46783596  0.32306146  0.78939220  1
  Ni  Ni169  1  0.47712285  0.03576664  0.82590033  1
  Ni  Ni170  1  0.78575511  0.14214782  0.75893079  1
  Ni  Ni171  1  0.26156070  0.10367398  0.66076575  1
  Ni  Ni172  1  0.19086022  0.27390901  0.46443838  1
  Ni  Ni173  1  0.49726388  0.77723818  0.73603760  1
  Ni  Ni174  1  0.85882128  0.03279655  0.21476332  1
  Ni  Ni175  1  0.27478607  0.39511346  0.54430326  1
  Ni  Ni176  1  -0.01662060  0.46853236  0.84679836  1
  Ni  Ni177  1  0.07321184  0.59996488  0.59749823  1
  Ni  Ni178  1  0.11822374  0.88783977  0.28644567  1
  Ni  Ni179  1  0.52746294  0.84831436  -0.01886900  1
  Ni  Ni180  1  0.69513028  0.21703108  0.16952386  1
  Ni  Ni181  1  0.42493799  0.48849497  0.76512900  1
  Ni  Ni182  1  -0.02470144  0.21600026  0.87248991  1
  Ni  Ni183  1  0.23275753  -0.00295617  0.51005922  1
  Ni  Ni184  1  0.31487856  0.53213943  0.88038122  1
  Ni  Ni185  1  0.29370053  0.69096422  0.09825094  1
  Ni  Ni186  1  0.57938672  0.00964659  0.34089949  1
  Ni  Ni187  1  0.50030795  0.25608703  0.62080216  1
  Ni  Ni188  1  0.28925321  0.70716229  0.35457004  1
  Ni  Ni189  1  0.45330160  0.64644464  0.13421602  1
  Ni  Ni190  1  0.56451684  0.00437566  0.50133787  1
  Ni  Ni191  1  0.03192120  0.75566428  0.22351317  1
  Ni  Ni192  1  0.87758229  0.80473680  0.56421752  1
  Ni  Ni193  1  -0.08641332  0.45534619  0.26145946  1
  Ni  Ni194  1  0.70887979  0.44536539  0.47159149  1
  Ni  Ni195  1  0.12999664  0.00530666  0.03890762  1
  Ni  Ni196  1  0.00741706  0.20600379  0.15831593  1
  Ni  Ni197  1  0.83145371  0.75813572  -0.00721237  1
  Ni  Ni198  1  0.76474584  0.54243311  0.24234688  1
  Ni  Ni199  1  0.70339492  0.08340114  0.45274778  1
  Ni  Ni200  1  0.23320241  -0.00677674  0.34026386  1
  Ni  Ni201  1  0.32940563  0.85956007  0.28703437  1
  Ni  Ni202  1  0.15550319  0.15523504  0.34400478  1
  Ni  Ni203  1  0.90159214  0.52909603  0.72004793  1
  Ni  Ni204  1  0.43914343  0.57047158  0.61730511  1
  Ni  Ni205  1  0.25688985  0.20936270  0.80300057  1
  Ni  Ni206  1  -0.01349660  0.12032781  0.32282330  1
  Ni  Ni207  1  0.40272932  0.83572533  0.86638479  1
  Ni  Ni208  1  -0.03843165  0.14122003  0.50985237  1
  Ni  Ni209  1  0.10736469  0.73680604  0.36847229  1
  Ni  Ni210  1  0.47530658  -0.08163968  0.23421944  1
  Ni  Ni211  1  -0.05088800  0.89588020  0.45025757  1
  Ni  Ni212  1  0.63822845  0.42066791  0.32988168  1
  Ni  Ni213  1  0.75220711  0.56357820  -0.03220933  1
  Ni  Ni214  1  0.19331963  0.63117200  0.47482884  1
