# generated using pymatgen
data_Ti108Co54Ni53
_symmetry_space_group_name_H-M   'P 1'
_cell_length_a   14.58038824
_cell_length_b   14.61364268
_cell_length_c   14.63688091
_cell_angle_alpha   89.81275159
_cell_angle_beta   89.78736997
_cell_angle_gamma   89.93220168
_symmetry_Int_Tables_number   1
_chemical_formula_structural   Ti108Co54Ni53
_chemical_formula_sum   'Ti108 Co54 Ni53'
_cell_volume   3118.67776458
_cell_formula_units_Z   1
loop_
 _symmetry_equiv_pos_site_id
 _symmetry_equiv_pos_as_xyz
  1  'x, y, z'
loop_
 _atom_site_type_symbol
 _atom_site_label
 _atom_site_symmetry_multiplicity
 _atom_site_fract_x
 _atom_site_fract_y
 _atom_site_fract_z
 _atom_site_occupancy
  Ti  Ti0  1  0.07245201  0.12664529  0.41302041  1
  Ti  Ti1  1  0.01301148  0.08175968  0.63087636  1
  Ti  Ti2  1  0.09086176  0.08471578  0.92691380  1
  Ti  Ti3  1  0.04939726  0.47630725  0.29302352  1
  Ti  Ti4  1  0.09128182  0.46464406  0.64739395  1
  Ti  Ti5  1  0.19305745  0.46123732  0.90488700  1
  Ti  Ti6  1  0.14370450  0.76354332  0.25387170  1
  Ti  Ti7  1  0.05551169  0.76232703  0.62318653  1
  Ti  Ti8  1  0.12557764  0.67932468  0.91833736  1
  Ti  Ti9  1  0.42673857  0.14909519  0.26259452  1
  Ti  Ti10  1  0.43113231  0.04524806  0.55646591  1
  Ti  Ti11  1  0.38053055  0.10066730  0.94040014  1
  Ti  Ti12  1  0.42441375  0.35515536  0.22392340  1
  Ti  Ti13  1  0.42646285  0.36309794  0.60783145  1
  Ti  Ti14  1  0.47168436  0.40349195  0.93989010  1
  Ti  Ti15  1  0.40198143  0.84327846  0.22662893  1
  Ti  Ti16  1  0.42944556  0.72061301  0.57049754  1
  Ti  Ti17  1  0.54891602  0.71946750  0.94814871  1
  Ti  Ti18  1  0.72869866  0.08196532  0.21922190  1
  Ti  Ti19  1  0.73775312  0.04882444  0.52934877  1
  Ti  Ti20  1  0.70700060  -0.01483582  0.90958526  1
  Ti  Ti21  1  0.81274875  0.47009054  0.25810953  1
  Ti  Ti22  1  0.76116026  0.41305059  0.57851775  1
  Ti  Ti23  1  0.75954778  0.36267873  0.91627794  1
  Ti  Ti24  1  0.75530544  0.80677579  0.25360940  1
  Ti  Ti25  1  0.72769512  0.69763729  0.53703063  1
  Ti  Ti26  1  0.80065483  0.80366812  0.93851742  1
  Ti  Ti27  1  0.06100485  0.22729992  0.08516884  1
  Ti  Ti28  1  0.05144466  0.27220270  0.54586952  1
  Ti  Ti29  1  0.12465438  0.21237929  0.71577104  1
  Ti  Ti30  1  0.06159878  0.53593741  0.04374513  1
  Ti  Ti31  1  0.02980032  0.55854758  0.48496413  1
  Ti  Ti32  1  0.02945733  0.52651625  0.82181000  1
  Ti  Ti33  1  0.13849688  0.88806064  0.05307718  1
  Ti  Ti34  1  0.10667196  0.83783802  0.43084139  1
  Ti  Ti35  1  0.13794493  0.92972416  0.66027532  1
  Ti  Ti36  1  0.48600436  0.21813451  0.06082921  1
  Ti  Ti37  1  0.37025231  0.28614744  0.40477900  1
  Ti  Ti38  1  0.39272342  0.27433185  0.82195215  1
  Ti  Ti39  1  0.43792455  0.64945903  0.13059146  1
  Ti  Ti40  1  0.40630957  0.59962995  0.40056044  1
  Ti  Ti41  1  0.38504322  0.64656819  0.80965042  1
  Ti  Ti42  1  0.33856910  0.89742791  0.03965274  1
  Ti  Ti43  1  0.44515634  0.95815621  0.37662944  1
  Ti  Ti44  1  0.40615457  0.96783514  0.77226977  1
  Ti  Ti45  1  0.71354229  0.25600290  0.11590593  1
  Ti  Ti46  1  0.77262262  0.27286787  0.32892326  1
  Ti  Ti47  1  0.70539099  0.28303282  0.72891875  1
  Ti  Ti48  1  0.78385025  0.56664505  0.07903623  1
  Ti  Ti49  1  0.72568377  0.54217640  0.41999816  1
  Ti  Ti50  1  0.70633269  0.61121012  0.77609729  1
  Ti  Ti51  1  0.77285833  0.93675237  0.10034511  1
  Ti  Ti52  1  0.81758777  0.88091430  0.44207857  1
  Ti  Ti53  1  0.71936842  0.80611577  0.71488916  1
  Ti  Ti54  1  0.29001283  0.07646206  0.13299925  1
  Ti  Ti55  1  0.29347158  0.09534298  0.40766841  1
  Ti  Ti56  1  0.28442152  0.08873539  0.68320715  1
  Ti  Ti57  1  0.21060544  0.35983688  0.07768195  1
  Ti  Ti58  1  0.21585441  0.41303513  0.37560788  1
  Ti  Ti59  1  0.28779203  0.47127854  0.71554580  1
  Ti  Ti60  1  0.23936259  0.71765427  0.09995761  1
  Ti  Ti61  1  0.27738013  0.73801869  0.42565605  1
  Ti  Ti62  1  0.23923088  0.76521512  0.74788709  1
  Ti  Ti63  1  0.58632732  0.02930503  0.06195927  1
  Ti  Ti64  1  0.59701002  0.08790194  0.37545671  1
  Ti  Ti65  1  0.52922844  0.11725770  0.74410952  1
  Ti  Ti66  1  0.54139976  0.46980802  0.10732563  1
  Ti  Ti67  1  0.54178086  0.46840710  0.36525686  1
  Ti  Ti68  1  0.50267918  0.48691406  0.74597747  1
  Ti  Ti69  1  0.62642480  0.72772123  0.12128411  1
  Ti  Ti70  1  0.61147991  0.82249378  0.41039739  1
  Ti  Ti71  1  0.51236064  0.78638641  0.75091609  1
  Ti  Ti72  1  0.96240801  0.05510847  0.18858185  1
  Ti  Ti73  1  0.85044814  0.09400932  0.36126777  1
  Ti  Ti74  1  0.83694182  0.08576657  0.78191135  1
  Ti  Ti75  1  0.90103473  0.41644463  0.03527230  1
  Ti  Ti76  1  0.91382747  0.39449543  0.42832703  1
  Ti  Ti77  1  0.83972597  0.44796337  0.74948912  1
  Ti  Ti78  1  0.93269817  0.83461001  0.10628472  1
  Ti  Ti79  1  0.93021730  0.71215248  0.47706333  1
  Ti  Ti80  1  0.92570064  0.80355886  0.75840110  1
  Ti  Ti81  1  0.22499347  0.22279240  0.26803992  1
  Ti  Ti82  1  0.23752093  0.34880465  0.56459817  1
  Ti  Ti83  1  0.20876590  0.26524033  0.89253853  1
  Ti  Ti84  1  0.27840914  0.55305759  0.23486249  1
  Ti  Ti85  1  0.23828656  0.55233475  0.51845565  1
  Ti  Ti86  1  0.30461979  0.59435992  0.97202239  1
  Ti  Ti87  1  0.15340096  0.99638019  0.28368843  1
  Ti  Ti88  1  0.25299519  0.95523024  0.51253591  1
  Ti  Ti89  1  0.23393522  0.93987389  0.84749582  1
  Ti  Ti90  1  0.57414012  0.26580690  0.33248211  1
  Ti  Ti91  1  0.57513721  0.21677805  0.57449564  1
  Ti  Ti92  1  0.59127475  0.24997258  0.88414230  1
  Ti  Ti93  1  0.63871449  0.56553046  0.22471880  1
  Ti  Ti94  1  0.56489146  0.52986283  0.55435592  1
  Ti  Ti95  1  0.64064314  0.50987023  0.93675593  1
  Ti  Ti96  1  0.59295269  0.94190022  0.22694540  1
  Ti  Ti97  1  0.56809292  0.94423144  0.63493633  1
  Ti  Ti98  1  0.49878562  0.90745098  0.93516806  1
  Ti  Ti99  1  0.96012026  0.26593191  0.27252299  1
  Ti  Ti100  1  0.88864919  0.23396218  0.65053331  1
  Ti  Ti101  1  1.01432448  0.27648790  0.88471165  1
  Ti  Ti102  1  0.92590623  0.66085253  0.20475217  1
  Ti  Ti103  1  0.90507242  0.61448597  0.65854381  1
  Ti  Ti104  1  0.92297269  0.64818410  0.97186410  1
  Ti  Ti105  1  0.95235123  0.81907040  0.31029679  1
  Ti  Ti106  1  0.86789032  0.94676407  0.64146767  1
  Ti  Ti107  1  0.99740848  0.83860987  0.92883221  1
  Co  Co108  1  0.82000295  0.70912384  0.36796485  1
  Co  Co109  1  0.66372772  0.43773931  0.77388539  1
  Co  Co110  1  0.51024146  0.64957805  0.28332097  1
  Co  Co111  1  0.16559464  0.11555984  0.57033600  1
  Co  Co112  1  0.72635466  0.55943328  0.62602564  1
  Co  Co113  1  0.21653351  0.59553519  0.80177736  1
  Co  Co114  1  0.60600877  0.38146388  0.61060976  1
  Co  Co115  1  0.10726087  0.33270364  0.21852382  1
  Co  Co116  1  0.26539607  0.88328350  0.35639817  1
  Co  Co117  1  0.59051330  -0.03484931  0.47841717  1
  Co  Co118  1  -0.06691368  0.41761713  0.87971783  1
  Co  Co119  1  0.09739133  0.41781909  0.48516059  1
  Co  Co120  1  -0.05202459  0.50850532  0.16750598  1
  Co  Co121  1  0.12602230  0.68730742  0.49168453  1
  Co  Co122  1  0.12822035  0.05222766  0.76188012  1
  Co  Co123  1  0.56891993  0.30531810  0.16999766  1
  Co  Co124  1  -0.06125982  0.21459939  0.43973045  1
  Co  Co125  1  0.72812911  0.14606119  0.65050569  1
  Co  Co126  1  0.35577621  0.47484512  0.85987246  1
  Co  Co127  1  0.44340095  0.51698757  0.23647882  1
  Co  Co128  1  0.38395169  0.86313191  0.49072216  1
  Co  Co129  1  0.45305967  0.76739341  0.38218872  1
  Co  Co130  1  0.71484829  0.42866529  0.10907528  1
  Co  Co131  1  0.25728480  0.12222300  0.84031813  1
  Co  Co132  1  0.58420483  0.65177543  0.66333309  1
  Co  Co133  1  0.64983112  -0.13607352  0.02985389  1
  Co  Co134  1  0.71741064  0.88102437  0.56799062  1
  Co  Co135  1  0.33365014  0.24125178  0.13819836  1
  Co  Co136  1  0.82255968  -0.08154967  0.81319992  1
  Co  Co137  1  0.56205814  0.79462794  0.25332532  1
  Co  Co138  1  0.37553729  0.82429778  0.84679731  1
  Co  Co139  1  0.54977567  0.62087852  0.82259501  1
  Co  Co140  1  0.23735789  0.88566800  0.18420328  1
  Co  Co141  1  0.21641034  0.18543186  0.02861206  1
  Co  Co142  1  0.03741395  0.67372690  0.34432271  1
  Co  Co143  1  0.56326323  0.65359680  0.45432436  1
  Co  Co144  1  0.46038005  0.15772380  0.44167357  1
  Co  Co145  1  0.08304261  0.15996240  0.24010078  1
  Co  Co146  1  0.18091436  0.59264819  0.35988471  1
  Co  Co147  1  0.37088464  0.46859871  0.08418509  1
  Co  Co148  1  0.86893043  0.95171024  -0.03571306  1
  Co  Co149  1  0.51636273  0.34544042  0.47329133  1
  Co  Co150  1  0.12260706  0.06750882  0.10911142  1
  Co  Co151  1  0.03376730  0.68341160  0.78522499  1
  Co  Co152  1  0.85603336  0.54730689  0.51729884  1
  Co  Co153  1  0.86119273  0.78223155  0.60757838  1
  Co  Co154  1  0.07339467  0.30404421  0.37490720  1
  Co  Co155  1  0.49992663  0.84464505  0.09201939  1
  Co  Co156  1  0.71494331  -0.00851480  0.70395169  1
  Co  Co157  1  0.32606343  0.00577590  0.27213405  1
  Co  Co158  1  0.21476802  0.53453916  0.08854711  1
  Co  Co159  1  0.07060008  0.38091797  -0.01263028  1
  Co  Co160  1  0.80817107  0.52630460  -0.09319765  1
  Co  Co161  1  0.04527350  0.90955003  0.20014704  1
  Ni  Ni162  1  0.39069149  0.74388867  -0.00575136  1
  Ni  Ni163  1  0.30099594  0.64030942  0.65655336  1
  Ni  Ni164  1  0.85849040  0.66526579  0.82229735  1
  Ni  Ni165  1  0.09959659  0.84027616  0.80137905  1
  Ni  Ni166  1  0.68850576  0.19639549  0.45670481  1
  Ni  Ni167  1  0.67830613  0.37194414  0.43556856  1
  Ni  Ni168  1  0.00169985  -0.01633782  0.04177724  1
  Ni  Ni169  1  0.66127186  0.39685842  0.26615373  1
  Ni  Ni170  1  0.58312787  0.78665149  0.57634351  1
  Ni  Ni171  1  0.31946052  0.19409982  0.54680486  1
  Ni  Ni172  1  0.57390663  0.13549899  0.19252300  1
  Ni  Ni173  1  0.14896253  0.37088128  0.76899916  1
  Ni  Ni174  1  0.71339036  -0.03236224  0.34969166  1
  Ni  Ni175  1  -0.01804111  -0.02975174  0.77888841  1
  Ni  Ni176  1  0.44876253  0.00498239  0.15487740  1
  Ni  Ni177  1  0.86090155  0.27386923  0.81305382  1
  Ni  Ni178  1  0.58025918  -0.03552606  0.79997222  1
  Ni  Ni179  1  0.23416776  0.78326398  0.57997759  1
  Ni  Ni180  1  0.53485311  0.31600283  0.73978500  1
  Ni  Ni181  1  -0.01135742  0.14185753  0.79297198  1
  Ni  Ni182  1  -0.01265536  -0.02304105  0.36052963  1
  Ni  Ni183  1  0.35371089  -0.12029622  0.64916493  1
  Ni  Ni184  1  0.34570066  0.30458828  -0.01213792  1
  Ni  Ni185  1  0.10276937  0.60825903  0.19659015  1
  Ni  Ni186  1  0.31997038  0.70869513  0.26609844  1
  Ni  Ni187  1  -0.06144610  0.41887997  0.59023024  1
  Ni  Ni188  1  0.66855609  0.68251217  0.33228107  1
  Ni  Ni189  1  0.79423258  0.73686958  0.09795875  1
  Ni  Ni190  1  0.71734368  0.66358808  -0.04497738  1
  Ni  Ni191  1  0.85303609  0.34221508  0.17003497  1
  Ni  Ni192  1  0.27852196  0.27577368  0.70796050  1
  Ni  Ni193  1  0.23983041  0.79126136  -0.06530090  1
  Ni  Ni194  1  0.42283128  0.20393864  0.66481865  1
  Ni  Ni195  1  0.26713433  0.38566195  0.22441173  1
  Ni  Ni196  1  0.85239388  0.17966972  0.18018261  1
  Ni  Ni197  1  0.40170260  0.53412135  0.59099793  1
  Ni  Ni198  1  0.23376875  0.02673733  -0.01553640  1
  Ni  Ni199  1  0.13670265  0.62285802  0.65369430  1
  Ni  Ni200  1  0.61599967  0.34686682  0.01236147  1
  Ni  Ni201  1  0.20141398  0.23665980  0.44511034  1
  Ni  Ni202  1  0.05099958  0.71592844  0.07214394  1
  Ni  Ni203  1  0.37392714  0.44205340  0.45812529  1
  Ni  Ni204  1  0.47010630  0.56986359  -0.02896216  1
  Ni  Ni205  1  0.54485112  0.09156552  -0.08323337  1
  Ni  Ni206  1  -0.01027502  0.34969495  0.73022968  1
  Ni  Ni207  1  0.64859101  0.82544205  0.86480831  1
  Ni  Ni208  1  0.81364508  0.27415690  0.50999083  1
  Ni  Ni209  1  0.91704580  0.04400767  0.50108613  1
  Ni  Ni210  1  0.67723425  0.12204296  0.81197263  1
  Ni  Ni211  1  0.85303686  -0.05179627  0.25809182  1
  Ni  Ni212  1  -0.03339452  0.87988041  0.51595604  1
  Ni  Ni213  1  0.90692935  0.56548589  0.35730822  1
  Ni  Ni214  1  0.08407739  -0.01171038  0.50207522  1
