# generated using pymatgen
data_Ti108Co54Ni53
_symmetry_space_group_name_H-M   'P 1'
_cell_length_a   14.62857267
_cell_length_b   14.65085532
_cell_length_c   14.68228912
_cell_angle_alpha   90.28253424
_cell_angle_beta   89.83661440
_cell_angle_gamma   90.27908533
_symmetry_Int_Tables_number   1
_chemical_formula_structural   Ti108Co54Ni53
_chemical_formula_sum   'Ti108 Co54 Ni53'
_cell_volume   3146.63621358
_cell_formula_units_Z   1
loop_
 _symmetry_equiv_pos_site_id
 _symmetry_equiv_pos_as_xyz
  1  'x, y, z'
loop_
 _atom_site_type_symbol
 _atom_site_label
 _atom_site_symmetry_multiplicity
 _atom_site_fract_x
 _atom_site_fract_y
 _atom_site_fract_z
 _atom_site_occupancy
  Ti  Ti0  1  0.06269860  0.13884104  0.30113752  1
  Ti  Ti1  1  0.10207191  0.08463699  0.62627498  1
  Ti  Ti2  1  0.08555694  0.08402784  0.95725344  1
  Ti  Ti3  1  0.09308939  0.41889670  0.24454800  1
  Ti  Ti4  1  0.11841940  0.41343534  0.58019315  1
  Ti  Ti5  1  0.04255980  0.39207114  0.93429852  1
  Ti  Ti6  1  0.04098027  0.79524424  0.23059825  1
  Ti  Ti7  1  0.09943401  0.68127423  0.62124326  1
  Ti  Ti8  1  0.01830616  0.70107854  0.90449436  1
  Ti  Ti9  1  0.44851920  0.03194447  0.27216861  1
  Ti  Ti10  1  0.44662548  0.08895524  0.63670922  1
  Ti  Ti11  1  0.50000308  0.06414796  0.91434392  1
  Ti  Ti12  1  0.38336479  0.37679526  0.27321602  1
  Ti  Ti13  1  0.46464382  0.41343996  0.58916973  1
  Ti  Ti14  1  0.37418323  0.38737406  0.87548220  1
  Ti  Ti15  1  0.41042983  0.67230948  0.30926157  1
  Ti  Ti16  1  0.35842515  0.74082445  0.49687733  1
  Ti  Ti17  1  0.48858007  0.84230898  0.89286645  1
  Ti  Ti18  1  0.66329299  0.10821809  0.24970718  1
  Ti  Ti19  1  0.78062968  0.14071105  0.55953023  1
  Ti  Ti20  1  0.78566098  0.10510990  0.86424192  1
  Ti  Ti21  1  0.67828159  0.38278358  0.26310135  1
  Ti  Ti22  1  0.77720498  0.43327259  0.59660479  1
  Ti  Ti23  1  0.72933170  0.40509066  0.89566530  1
  Ti  Ti24  1  0.75780991  0.71708834  0.30670057  1
  Ti  Ti25  1  0.73922024  0.77985249  0.60580123  1
  Ti  Ti26  1  0.69974356  0.80876644  0.95625034  1
  Ti  Ti27  1  -0.07762557  0.27573840  0.06621212  1
  Ti  Ti28  1  0.03614445  0.30230606  0.43818982  1
  Ti  Ti29  1  0.09168175  0.28180121  0.72988493  1
  Ti  Ti30  1  0.07494460  0.58039613  0.03185147  1
  Ti  Ti31  1  0.11227718  0.61207854  0.33911446  1
  Ti  Ti32  1  0.14966228  0.60547515  0.80900523  1
  Ti  Ti33  1  0.01836025  0.91382261  0.07485703  1
  Ti  Ti34  1  0.04834511  1.00420766  0.44229151  1
  Ti  Ti35  1  0.05547290  0.90680213  0.69015521  1
  Ti  Ti36  1  0.35616133  0.26689474  0.02694997  1
  Ti  Ti37  1  0.38023495  0.18209542  0.38849798  1
  Ti  Ti38  1  0.44052485  0.27145176  0.71280724  1
  Ti  Ti39  1  0.45548042  0.54413509  0.13188133  1
  Ti  Ti40  1  0.47779512  0.57299565  0.47503853  1
  Ti  Ti41  1  0.42548936  0.65380289  0.79970664  1
  Ti  Ti42  1  0.45736532  0.86461622  0.09557353  1
  Ti  Ti43  1  0.44853788  0.88892907  0.40679161  1
  Ti  Ti44  1  0.39534371  0.85756703  0.70543240  1
  Ti  Ti45  1  0.77622387  0.15671964  0.08159333  1
  Ti  Ti46  1  0.69486778  0.23237033  0.39290784  1
  Ti  Ti47  1  0.75961968  0.28385483  0.74363425  1
  Ti  Ti48  1  0.74811821  0.65081516  0.10811217  1
  Ti  Ti49  1  0.73728211  0.60372323  0.46998710  1
  Ti  Ti50  1  0.72075025  0.65562602  0.78949972  1
  Ti  Ti51  1  0.73904164  0.93391475  0.14067363  1
  Ti  Ti52  1  0.78166468  0.87383963  0.42341065  1
  Ti  Ti53  1  0.80320155  0.97943084  0.70442447  1
  Ti  Ti54  1  0.18699003  0.13269589  0.13379129  1
  Ti  Ti55  1  0.18876681  0.13956317  0.44877887  1
  Ti  Ti56  1  0.25966602  0.14551580  0.71134267  1
  Ti  Ti57  1  0.18778768  0.43803837  0.06648759  1
  Ti  Ti58  1  0.19648305  0.45227610  0.40674189  1
  Ti  Ti59  1  0.27629219  0.38100831  0.71839153  1
  Ti  Ti60  1  0.26157992  0.79094113  0.09351125  1
  Ti  Ti61  1  0.23800618  0.76120420  0.28837556  1
  Ti  Ti62  1  0.27670173  0.69674460  0.70422068  1
  Ti  Ti63  1  0.60200058  0.08109029  0.07057453  1
  Ti  Ti64  1  0.63918302  0.03070336  0.43057022  1
  Ti  Ti65  1  0.65232133  0.10580574  0.70458975  1
  Ti  Ti66  1  0.62146440  0.46208720  0.05670646  1
  Ti  Ti67  1  0.53460714  0.38002675  0.39695588  1
  Ti  Ti68  1  0.57105185  0.33238249  0.82369290  1
  Ti  Ti69  1  0.56223033  0.68412586  0.04092789  1
  Ti  Ti70  1  0.57574600  0.72562516  0.41164970  1
  Ti  Ti71  1  0.57645635  0.78540047  0.72391780  1
  Ti  Ti72  1  0.99215713  0.11216743  0.12762301  1
  Ti  Ti73  1  0.87462980  0.16419551  0.38244966  1
  Ti  Ti74  1  0.97799404  0.05111750  0.79248781  1
  Ti  Ti75  1  0.83762990  0.43795926  0.16887210  1
  Ti  Ti76  1  0.84631615  0.43535152  0.38048366  1
  Ti  Ti77  1  0.92671570  0.41346496  0.76294211  1
  Ti  Ti78  1  0.92929218  0.73600877  0.05840265  1
  Ti  Ti79  1  1.00428455  0.72789222  0.45880294  1
  Ti  Ti80  1  0.91335037  0.63323349  0.74453223  1
  Ti  Ti81  1  0.21143482  0.27459933  0.29288339  1
  Ti  Ti82  1  0.30714527  0.25740065  0.57225853  1
  Ti  Ti83  1  0.19676612  0.29217294  0.90570579  1
  Ti  Ti84  1  0.27383866  0.59594107  0.16644874  1
  Ti  Ti85  1  0.26235042  0.58891048  0.52096406  1
  Ti  Ti86  1  0.27023676  0.63421276  0.96485918  1
  Ti  Ti87  1  0.20620313  0.95893611  0.29309869  1
  Ti  Ti88  1  0.22951232  0.84831266  0.60306314  1
  Ti  Ti89  1  0.10338536  0.89415550  0.88878690  1
  Ti  Ti90  1  0.50260748  0.22301268  0.21896740  1
  Ti  Ti91  1  0.62869021  0.29182139  0.57888085  1
  Ti  Ti92  1  0.58365259  0.27181403  1.01957991  1
  Ti  Ti93  1  0.58020866  0.67462073  0.22995709  1
  Ti  Ti94  1  0.55869438  0.57818228  0.67265428  1
  Ti  Ti95  1  0.49240601  0.53508487  0.92276558  1
  Ti  Ti96  1  0.63500639  0.88878565  0.30317327  1
  Ti  Ti97  1  0.55873644  0.94673216  0.59790553  1
  Ti  Ti98  1  0.64799261  0.95557448  0.83961186  1
  Ti  Ti99  1  0.94140564  0.29869993  0.26552210  1
  Ti  Ti100  1  0.94360926  0.23963966  0.62107170  1
  Ti  Ti101  1  0.95254353  0.23384876  0.85808996  1
  Ti  Ti102  1  0.97093928  0.56436103  0.23102024  1
  Ti  Ti103  1  0.91475224  0.57805871  0.56018053  1
  Ti  Ti104  1  0.86631375  0.56568405  0.91498224  1
  Ti  Ti105  1  0.93228030  0.96370917  0.27577879  1
  Ti  Ti106  1  0.90225816  0.89509945  0.57317696  1
  Ti  Ti107  1  0.91512818  0.83352836  0.81531693  1
  Co  Co108  1  0.53055744  0.38705421  0.18643152  1
  Co  Co109  1  0.34045469  0.49839438  -0.00995820  1
  Co  Co110  1  0.91039562  0.12753096  -0.02635918  1
  Co  Co111  1  0.54577763  0.16753288  0.37403003  1
  Co  Co112  1  0.46546365  0.45802418  0.75664937  1
  Co  Co113  1  -0.12269910  0.84503395  0.17767348  1
  Co  Co114  1  0.84530823  0.15022257  0.71835078  1
  Co  Co115  1  0.33724049  0.77673740  0.85174994  1
  Co  Co116  1  0.22107214  0.85160653  0.76735757  1
  Co  Co117  1  -0.08656677  0.57071802  0.07587545  1
  Co  Co118  1  0.47228293  0.05505002  0.46934048  1
  Co  Co119  1  0.01597665  0.52987661  0.85590158  1
  Co  Co120  1  0.21123120  0.30542292  0.45339318  1
  Co  Co121  1  0.46968030  0.22853686  0.90609699  1
  Co  Co122  1  -0.04828890  -0.11922599  0.41961706  1
  Co  Co123  1  0.56267940  -0.03594107  0.17770168  1
  Co  Co124  1  0.87727381  0.00263229  0.08926799  1
  Co  Co125  1  0.52191424  0.14826051  0.77639419  1
  Co  Co126  1  0.78167337  0.55436131  0.28115228  1
  Co  Co127  1  0.49496526  0.51816394  0.29097033  1
  Co  Co128  1  0.19265807  0.47772674  -0.08607107  1
  Co  Co129  1  0.13632374  0.23913557  0.58355358  1
  Co  Co130  1  0.87686987  0.68060379  0.20089552  1
  Co  Co131  1  0.64801067  0.24978672  0.16436418  1
  Co  Co132  1  0.91129875  0.76530032  0.32716353  1
  Co  Co133  1  0.60414498  0.12999952  0.55089560  1
  Co  Co134  1  0.74702148  0.33816937  0.07187818  1
  Co  Co135  1  0.33132645  0.01234193  0.40058346  1
  Co  Co136  1  0.62670810  0.85604507  0.48179677  1
  Co  Co137  1  0.61455602  0.68467292  0.56502246  1
  Co  Co138  1  0.84347843  0.73481165  0.48375711  1
  Co  Co139  1  0.36696514  0.49633900  0.39073219  1
  Co  Co140  1  -0.04826759  -0.02808431  -0.06268589  1
  Co  Co141  1  0.24626922  0.46773225  0.25272885  1
  Co  Co142  1  0.81381737  -0.05773857  0.86465566  1
  Co  Co143  1  0.37450143  -0.07005825  0.54863851  1
  Co  Co144  1  0.39991123  0.71682838  0.15298752  1
  Co  Co145  1  0.27107478  0.61766961  0.36096438  1
  Co  Co146  1  0.08504943  0.56481041  0.50706528  1
  Co  Co147  1  0.79367763  0.26710254  0.22821249  1
  Co  Co148  1  0.32491803  0.23102212  0.83049683  1
  Co  Co149  1  0.00183636  0.15357994  0.48821716  1
  Co  Co150  1  0.08610004  -0.00494649  0.19848499  1
  Co  Co151  1  0.08505051  0.23530031  0.01240135  1
  Co  Co152  1  0.84309584  0.86412513  0.00957225  1
  Co  Co153  1  0.18520903  0.75321447  0.89465848  1
  Co  Co154  1  0.73148219  0.58825123  0.63404237  1
  Co  Co155  1  0.34779300  0.87255234  0.24538475  1
  Co  Co156  1  0.83444210  0.72415969  0.90445053  1
  Co  Co157  1  0.73899726  0.00311618  -0.00794933  1
  Co  Co158  1  0.31963333  0.09598312  0.54101345  1
  Co  Co159  1  0.60835554  0.49486231  0.53567982  1
  Co  Co160  1  0.72340382  -0.03071854  0.56613734  1
  Co  Co161  1  0.58825147  0.92797249  0.00578677  1
  Ni  Ni162  1  0.03116089  0.52505208  0.67839356  1
  Ni  Ni163  1  0.63964043  0.18086292  0.88818064  1
  Ni  Ni164  1  -0.05361896  0.40331384  0.58399651  1
  Ni  Ni165  1  0.25653214  0.11168300  0.28965146  1
  Ni  Ni166  1  0.44904293  0.13984784  0.06797558  1
  Ni  Ni167  1  0.68742374  0.60988932  -0.04922149  1
  Ni  Ni168  1  0.50386089  -0.02606866  0.76147222  1
  Ni  Ni169  1  0.83341483  0.29764829  0.49709843  1
  Ni  Ni170  1  -0.06313345  0.05565322  0.61256902  1
  Ni  Ni171  1  -0.09636596  0.60385918  0.38709632  1
  Ni  Ni172  1  0.16374415  0.00744239  0.77075067  1
  Ni  Ni173  1  0.20576769  0.53318405  0.66612330  1
  Ni  Ni174  1  0.12839299  0.66986277  0.16555787  1
  Ni  Ni175  1  0.69891605  0.39178914  0.44689635  1
  Ni  Ni176  1  0.77457521  0.49767741  0.03325192  1
  Ni  Ni177  1  0.95170427  0.74956988  0.63002427  1
  Ni  Ni178  1  0.85859420  0.11720692  0.22513521  1
  Ni  Ni179  1  0.07753947  0.85925511  0.53444812  1
  Ni  Ni180  1  0.10945951  0.84480512  0.37345198  1
  Ni  Ni181  1  0.62053156  0.51876503  0.82394858  1
  Ni  Ni182  1  0.74348851  0.82134017  0.77530061  1
  Ni  Ni183  1  0.41338188  0.71502232  -0.01454259  1
  Ni  Ni184  1  0.62732042  0.80975918  0.13212864  1
  Ni  Ni185  1  0.20018731  -0.01658867  0.51549977  1
  Ni  Ni186  1  0.63501471  0.53077025  0.36740581  1
  Ni  Ni187  1  0.34397175  0.20300374  0.19102105  1
  Ni  Ni188  1  0.77128792  0.00479338  0.31367507  1
  Ni  Ni189  1  0.30965153  0.53169485  0.80683831  1
  Ni  Ni190  1  0.85864846  0.02199848  0.46145898  1
  Ni  Ni191  1  0.63231965  0.42121619  0.69079390  1
  Ni  Ni192  1  0.01012758  0.46668999  0.38794282  1
  Ni  Ni193  1  0.47067932  0.39645474  0.02184390  1
  Ni  Ni194  1  0.47652159  0.23354964  0.52501314  1
  Ni  Ni195  1  0.12554990  0.43093727  0.77558104  1
  Ni  Ni196  1  0.29820809  0.43211312  0.55332698  1
  Ni  Ni197  1  0.64255587  0.53214690  0.19735591  1
  Ni  Ni198  1  -0.11675738  0.39605210  -0.03686207  1
  Ni  Ni199  1  0.27116099  0.86230037  0.42513704  1
  Ni  Ni200  1  0.49832345  0.81847066  0.25295244  1
  Ni  Ni201  1  0.07512628  0.76227118  0.76330749  1
  Ni  Ni202  1  0.57151357  0.69064580  0.86835214  1
  Ni  Ni203  1  0.34274879  0.41499961  0.12494458  1
  Ni  Ni204  1  0.10297300  0.77132571  0.03800762  1
  Ni  Ni205  1  0.79597947  0.25359461  0.93614231  1
  Ni  Ni206  1  0.49270859  0.79346452  0.56894766  1
  Ni  Ni207  1  0.37823665  0.55458993  0.64881547  1
  Ni  Ni208  1  0.22453119  0.29819750  0.12837978  1
  Ni  Ni209  1  0.78031002  0.49050422  0.75812028  1
  Ni  Ni210  1  0.00101150  0.42721811  0.10607721  1
  Ni  Ni211  1  0.37731690  0.34303667  0.44142210  1
  Ni  Ni212  1  0.07391619  0.26229279  0.17179046  1
  Ni  Ni213  1  0.12796034  0.15555616  0.81969382  1
  Ni  Ni214  1  0.17931920  0.72418456  0.46942630  1
