# generated using pymatgen
data_Ti108Co54Ni53
_symmetry_space_group_name_H-M   'P 1'
_cell_length_a   14.63354465
_cell_length_b   14.70063973
_cell_length_c   14.60070935
_cell_angle_alpha   90.00089547
_cell_angle_beta   89.74750836
_cell_angle_gamma   89.92451485
_symmetry_Int_Tables_number   1
_chemical_formula_structural   Ti108Co54Ni53
_chemical_formula_sum   'Ti108 Co54 Ni53'
_cell_volume   3140.90740257
_cell_formula_units_Z   1
loop_
 _symmetry_equiv_pos_site_id
 _symmetry_equiv_pos_as_xyz
  1  'x, y, z'
loop_
 _atom_site_type_symbol
 _atom_site_label
 _atom_site_symmetry_multiplicity
 _atom_site_fract_x
 _atom_site_fract_y
 _atom_site_fract_z
 _atom_site_occupancy
  Ti  Ti0  1  -0.03678562  0.05302084  0.21296513  1
  Ti  Ti1  1  0.04078096  0.06511539  0.51800563  1
  Ti  Ti2  1  0.12584832  0.07445594  0.94190410  1
  Ti  Ti3  1  0.05805462  0.39282001  0.29478087  1
  Ti  Ti4  1  0.03148030  0.38089391  0.51455955  1
  Ti  Ti5  1  0.10448564  0.42721396  0.95159535  1
  Ti  Ti6  1  0.12148167  0.71622283  0.23848364  1
  Ti  Ti7  1  0.14585556  0.75813979  0.55721653  1
  Ti  Ti8  1  0.01324678  0.80225586  0.93841171  1
  Ti  Ti9  1  0.40343664  0.13732615  0.28797217  1
  Ti  Ti10  1  0.38410343  0.13731275  0.63013970  1
  Ti  Ti11  1  0.43937099  0.09210935  0.92252175  1
  Ti  Ti12  1  0.40091162  0.47462849  0.19372013  1
  Ti  Ti13  1  0.43698791  0.36355743  0.63790030  1
  Ti  Ti14  1  0.41303405  0.46074442  0.96225105  1
  Ti  Ti15  1  0.39831231  0.72799187  0.22390516  1
  Ti  Ti16  1  0.51160454  0.76480151  0.62118242  1
  Ti  Ti17  1  0.36816238  0.75256666  0.90958022  1
  Ti  Ti18  1  0.77098626  0.03248436  0.25555710  1
  Ti  Ti19  1  0.72350422  0.08886774  0.55351183  1
  Ti  Ti20  1  0.75486643  0.14666548  0.91463941  1
  Ti  Ti21  1  0.74871532  0.37078343  0.18955834  1
  Ti  Ti22  1  0.84006230  0.46451825  0.67065594  1
  Ti  Ti23  1  0.78071175  0.45257325  0.85758095  1
  Ti  Ti24  1  0.79008133  0.70377428  0.23962238  1
  Ti  Ti25  1  0.69812733  0.78175806  0.64010323  1
  Ti  Ti26  1  0.68381785  0.81244798  0.95550366  1
  Ti  Ti27  1  0.12122911  0.22369229  0.17510837  1
  Ti  Ti28  1  0.05117018  0.19629188  0.35162955  1
  Ti  Ti29  1  0.06461487  0.21823064  0.70056917  1
  Ti  Ti30  1  0.08627047  0.58164238  0.07074843  1
  Ti  Ti31  1  0.08136537  0.61227895  0.40217681  1
  Ti  Ti32  1  -0.05573302  0.56445874  0.80700821  1
  Ti  Ti33  1  0.06441534  0.93792343  0.07255835  1
  Ti  Ti34  1  0.09793887  0.98829328  0.34488945  1
  Ti  Ti35  1  0.09625697  0.84630775  0.74809149  1
  Ti  Ti36  1  0.46905469  0.19007030  0.10136003  1
  Ti  Ti37  1  0.44344036  0.28329840  0.43347579  1
  Ti  Ti38  1  0.48533866  0.21504960  0.75746948  1
  Ti  Ti39  1  0.40440498  0.62715989  0.05178998  1
  Ti  Ti40  1  0.46192038  0.54858358  0.40292698  1
  Ti  Ti41  1  0.39917821  0.60404395  0.69074808  1
  Ti  Ti42  1  0.41154416  0.93112359  0.06259527  1
  Ti  Ti43  1  0.44200768  0.86246772  0.44802618  1
  Ti  Ti44  1  0.41277347  0.91326897  0.66347436  1
  Ti  Ti45  1  0.66040060  0.23619418  0.06243235  1
  Ti  Ti46  1  0.75765356  0.29343727  0.52063404  1
  Ti  Ti47  1  0.78372601  0.28099325  0.73032142  1
  Ti  Ti48  1  0.69455764  0.56382131  0.12578502  1
  Ti  Ti49  1  0.80058997  0.56581920  0.45823381  1
  Ti  Ti50  1  0.72365627  0.63712203  0.81268259  1
  Ti  Ti51  1  0.71552717  0.87750123  0.13418199  1
  Ti  Ti52  1  0.78556054  0.88482875  0.47180159  1
  Ti  Ti53  1  0.73699926  0.96860623  0.83380688  1
  Ti  Ti54  1  0.28617528  0.08920924  0.08339915  1
  Ti  Ti55  1  0.20617673  0.13842685  0.43493795  1
  Ti  Ti56  1  0.22687277  0.14552137  0.78120426  1
  Ti  Ti57  1  0.26061994  0.37377887  0.09001350  1
  Ti  Ti58  1  0.32204771  0.42722593  0.39997670  1
  Ti  Ti59  1  0.25407215  0.35926917  0.84487302  1
  Ti  Ti60  1  0.18499962  0.75469461  0.04387883  1
  Ti  Ti61  1  0.24353466  0.84850150  0.34855946  1
  Ti  Ti62  1  0.27719411  0.75482420  0.75290359  1
  Ti  Ti63  1  0.61302007  0.05834737  0.11550069  1
  Ti  Ti64  1  0.54779887  0.09867437  0.43382555  1
  Ti  Ti65  1  0.61906572  0.07923629  0.75485336  1
  Ti  Ti66  1  0.64356404  0.41670384  0.01272640  1
  Ti  Ti67  1  0.67326410  0.41278637  0.38782123  1
  Ti  Ti68  1  0.51409627  0.48389926  0.77488025  1
  Ti  Ti69  1  0.57903818  0.71743478  0.11663550  1
  Ti  Ti70  1  0.53581450  0.73172738  0.36638527  1
  Ti  Ti71  1  0.54508849  0.76790746  0.81366255  1
  Ti  Ti72  1  0.91380107  0.03909520  0.00378965  1
  Ti  Ti73  1  0.87863173  0.10908244  0.40628579  1
  Ti  Ti74  1  0.96974701  0.01599730  0.70307644  1
  Ti  Ti75  1  0.94062264  0.40321957  0.12073685  1
  Ti  Ti76  1  0.87364574  0.39300247  0.35797713  1
  Ti  Ti77  1  0.95788787  0.35639605  0.80618268  1
  Ti  Ti78  1  0.86598841  0.75127856  0.06761350  1
  Ti  Ti79  1  0.91951030  0.73160066  0.39723402  1
  Ti  Ti80  1  0.86080560  0.70703866  0.71245414  1
  Ti  Ti81  1  0.24548972  0.30020867  0.29108158  1
  Ti  Ti82  1  0.26805618  0.29143182  0.55176936  1
  Ti  Ti83  1  0.21406223  0.22894234  0.98214927  1
  Ti  Ti84  1  0.27438759  0.59405028  0.30496294  1
  Ti  Ti85  1  0.28398144  0.61058132  0.51702816  1
  Ti  Ti86  1  0.25137736  0.58779589  0.91551442  1
  Ti  Ti87  1  0.28995113  0.98003191  0.22713191  1
  Ti  Ti88  1  0.26886567  1.00578483  0.56271132  1
  Ti  Ti89  1  0.21751480  0.88335927  0.90611410  1
  Ti  Ti90  1  0.58066258  0.26937215  0.25276843  1
  Ti  Ti91  1  0.58723540  0.22599244  0.58906978  1
  Ti  Ti92  1  0.53407585  0.27696320  0.93028213  1
  Ti  Ti93  1  0.64085187  0.59354165  0.32471614  1
  Ti  Ti94  1  0.63322019  0.62687478  0.53330439  1
  Ti  Ti95  1  0.57922094  0.59219639  0.93128381  1
  Ti  Ti96  1  0.57973264  0.92286249  0.27775781  1
  Ti  Ti97  1  0.59663597  0.94098011  0.56112102  1
  Ti  Ti98  1  0.55202612  0.94679101  0.90343405  1
  Ti  Ti99  1  0.89730565  0.24037621  0.24694339  1
  Ti  Ti100  1  0.89748463  0.17488078  0.59710192  1
  Ti  Ti101  1  0.93839562  0.22556199  0.93926197  1
  Ti  Ti102  1  0.92408123  0.55806715  0.29859399  1
  Ti  Ti103  1  0.95274720  0.60687450  0.57764717  1
  Ti  Ti104  1  0.85745815  0.58339112  0.98366613  1
  Ti  Ti105  1  0.94924133  0.85404641  0.25285430  1
  Ti  Ti106  1  0.98899804  0.87956529  0.51886710  1
  Ti  Ti107  1  0.90022076  0.86708885  0.80167519  1
  Co  Co108  1  0.01465566  -0.04448394  -0.11503361  1
  Co  Co109  1  0.06897564  0.80785112  0.38376171  1
  Co  Co110  1  0.81423673  0.27207475  0.06937597  1
  Co  Co111  1  0.43631125  0.61562954  0.86248786  1
  Co  Co112  1  0.76570197  0.30529915  0.91490917  1
  Co  Co113  1  0.00431591  0.71544548  0.79844379  1
  Co  Co114  1  0.78075601  0.87312888  0.29649741  1
  Co  Co115  1  0.06542098  0.11815341  0.06952236  1
  Co  Co116  1  0.86166492  0.41633400  0.52158109  1
  Co  Co117  1  0.23254893  0.13022592  0.27660246  1
  Co  Co118  1  0.16145315  0.72494133  0.87925260  1
  Co  Co119  1  0.46206244  0.03228046  0.76755496  1
  Co  Co120  1  0.38205211  0.48025269  0.54384749  1
  Co  Co121  1  0.31529617  0.27170233  0.71036293  1
  Co  Co122  1  0.78848613  0.09319391  0.09573396  1
  Co  Co123  1  0.06507506  0.21960455  0.52695240  1
  Co  Co124  1  0.76828341  0.60352644  0.62932923  1
  Co  Co125  1  -0.03002448  0.51303881  0.44653627  1
  Co  Co126  1  -0.06564558  0.18190995  0.10910048  1
  Co  Co127  1  0.80277513  0.43426186  0.03472744  1
  Co  Co128  1  0.15051119  -0.07700668  0.48803370  1
  Co  Co129  1  0.23053876  0.93027225  0.06762328  1
  Co  Co130  1  0.09750910  0.26594457  0.87039201  1
  Co  Co131  1  0.61238160  0.25232909  0.42030028  1
  Co  Co132  1  0.11882120  0.88191316  0.21923133  1
  Co  Co133  1  0.00870185  0.64065424  -0.05545875  1
  Co  Co134  1  -0.04796514  0.45969665  0.94123595  1
  Co  Co135  1  -0.07675025  -0.04776105  0.38339060  1
  Co  Co136  1  0.29324024  0.83867716  0.50173737  1
  Co  Co137  1  0.25856914  0.52339776  0.06290600  1
  Co  Co138  1  0.64449195  0.77018553  0.25344559  1
  Co  Co139  1  0.58201693  0.90630176  0.73129499  1
  Co  Co140  1  -0.08280199  0.26356520  0.44742821  1
  Co  Co141  1  0.71896805  0.13486694  0.39465965  1
  Co  Co142  1  0.25946527  0.65221709  0.14968278  1
  Co  Co143  1  0.59865907  0.10215924  0.27851318  1
  Co  Co144  1  -0.06303394  0.32097005  0.63725020  1
  Co  Co145  1  0.53449407  0.07562458  0.62108649  1
  Co  Co146  1  0.60768641  0.44815264  0.21251231  1
  Co  Co147  1  0.26481476  0.81892521  0.18955102  1
  Co  Co148  1  0.23021160  0.87015817  0.64801491  1
  Co  Co149  1  0.34930607  0.78164615  0.06483148  1
  Co  Co150  1  0.06774853  0.54603087  0.22796009  1
  Co  Co151  1  0.02548203  0.12360919  0.82611889  1
  Co  Co152  1  0.85409958  0.72715095  0.89154041  1
  Co  Co153  1  0.34077039  0.49847923  0.80829183  1
  Co  Co154  1  0.87538766  0.01107217  0.55714517  1
  Co  Co155  1  0.59969116  0.11275520  -0.04879394  1
  Co  Co156  1  0.34428232  0.74363288  0.60865485  1
  Co  Co157  1  0.57612486  0.63784881  0.72210141  1
  Co  Co158  1  0.19660500  0.15868219  0.61505326  1
  Co  Co159  1  0.46460181  0.03025560  0.18463139  1
  Co  Co160  1  0.76354063  0.27591035  0.34850577  1
  Co  Co161  1  0.61461245  0.80220064  0.48609245  1
  Ni  Ni162  1  -0.00343696  0.76572523  0.63980359  1
  Ni  Ni163  1  0.53110123  0.52263160  0.08269450  1
  Ni  Ni164  1  0.43354588  0.00624204  0.51364326  1
  Ni  Ni165  1  0.41750406  0.88486462  0.27585016  1
  Ni  Ni166  1  0.50897616  0.59903268  0.22549266  1
  Ni  Ni167  1  0.64806390  0.23338456  0.80489128  1
  Ni  Ni168  1  0.31205725  0.22956256  0.15278412  1
  Ni  Ni169  1  0.36384417  0.14567484  0.46452810  1
  Ni  Ni170  1  0.20653008  0.70966439  0.40746324  1
  Ni  Ni171  1  0.05791033  0.28507596  0.03321994  1
  Ni  Ni172  1  0.39590022  0.90422006  0.85228946  1
  Ni  Ni173  1  0.73459829  0.72670050  0.39845535  1
  Ni  Ni174  1  0.53425676  0.51347294  0.60604971  1
  Ni  Ni175  1  0.73384404  -0.04175650  0.66323605  1
  Ni  Ni176  1  0.88188923  0.04981494  0.84180722  1
  Ni  Ni177  1  0.71489971  0.66488373  -0.00605962  1
  Ni  Ni178  1  0.50398507  0.35609957  0.10297978  1
  Ni  Ni179  1  0.12418754  -0.00196802  0.64236386  1
  Ni  Ni180  1  0.51036792  0.41073149  0.34057454  1
  Ni  Ni181  1  0.62174597  0.35757621  0.67310746  1
  Ni  Ni182  1  -0.04285145  0.68230909  0.20479502  1
  Ni  Ni183  1  0.50736092  0.80402352  -0.00725647  1
  Ni  Ni184  1  0.16152618  0.31111596  0.42902322  1
  Ni  Ni185  1  0.55626496  0.38464658  0.50803467  1
  Ni  Ni186  1  0.62705134  0.39016115  -0.15639182  1
  Ni  Ni187  1  0.76626182  0.51043709  0.27520719  1
  Ni  Ni188  1  0.34978836  0.21361195  0.86710333  1
  Ni  Ni189  1  0.16124982  0.47188853  0.39687494  1
  Ni  Ni190  1  0.73204737  0.19337531  0.21010843  1
  Ni  Ni191  1  0.31261414  -0.00246132  0.39491619  1
  Ni  Ni192  1  0.83070778  0.72734209  0.53889461  1
  Ni  Ni193  1  0.02905100  0.78042414  0.10542117  1
  Ni  Ni194  1  0.84185586  0.88523222  -0.03453081  1
  Ni  Ni195  1  0.69870392  0.46358535  0.55938724  1
  Ni  Ni196  1  0.42115267  0.35415312  0.82638250  1
  Ni  Ni197  1  0.29050968  0.02938563  -0.07747767  1
  Ni  Ni198  1  0.13953993  0.04167659  0.18339976  1
  Ni  Ni199  1  0.41033503  0.31406503  0.25624272  1
  Ni  Ni200  1  0.67613348  0.50268261  0.72121944  1
  Ni  Ni201  1  0.78601697  0.11124562  0.72310685  1
  Ni  Ni202  1  0.29777461  -0.00469948  0.75009546  1
  Ni  Ni203  1  0.86123959  0.86393573  0.63500696  1
  Ni  Ni204  1  0.14503250  -0.00281806  0.79900185  1
  Ni  Ni205  1  0.73573802  0.81067685  0.79376674  1
  Ni  Ni206  1  0.67329744  -0.01933791  0.40007292  1
  Ni  Ni207  1  0.21725258  0.46066777  0.23474874  1
  Ni  Ni208  1  0.37671584  0.29820155  -0.00035334  1
  Ni  Ni209  1  0.10546759  0.41332218  0.12786554  1
  Ni  Ni210  1  0.87315195  -0.07235887  0.12587151  1
  Ni  Ni211  1  0.36832434  0.71210563  0.40009697  1
  Ni  Ni212  1  0.86269183  0.55639410  0.14513413  1
  Ni  Ni213  1  0.45399840  0.64619925  0.52965838  1
  Ni  Ni214  1  0.70490364  -0.01776232  -0.00233102  1
