# generated using pymatgen
data_Ti108Co54Ni53
_symmetry_space_group_name_H-M   'P 1'
_cell_length_a   14.62869790
_cell_length_b   14.67535139
_cell_length_c   14.58748612
_cell_angle_alpha   90.11742555
_cell_angle_beta   90.00536663
_cell_angle_gamma   89.94979611
_symmetry_Int_Tables_number   1
_chemical_formula_structural   Ti108Co54Ni53
_chemical_formula_sum   'Ti108 Co54 Ni53'
_cell_volume   3131.65242886
_cell_formula_units_Z   1
loop_
 _symmetry_equiv_pos_site_id
 _symmetry_equiv_pos_as_xyz
  1  'x, y, z'
loop_
 _atom_site_type_symbol
 _atom_site_label
 _atom_site_symmetry_multiplicity
 _atom_site_fract_x
 _atom_site_fract_y
 _atom_site_fract_z
 _atom_site_occupancy
  Ti  Ti0  1  -0.00608488  0.06407659  0.26721757  1
  Ti  Ti1  1  0.06061595  0.03855155  0.54587978  1
  Ti  Ti2  1  0.04782542  0.16164398  0.95988214  1
  Ti  Ti3  1  0.08890555  0.39202028  0.29107718  1
  Ti  Ti4  1  0.08494380  0.46511516  0.57880589  1
  Ti  Ti5  1  0.08340042  0.45641132  0.91049672  1
  Ti  Ti6  1  0.08940351  0.70434117  0.22433412  1
  Ti  Ti7  1  0.08241297  0.82686796  0.57291125  1
  Ti  Ti8  1  0.07656111  0.76661183  0.90342591  1
  Ti  Ti9  1  0.40522748  0.03830272  0.25588734  1
  Ti  Ti10  1  0.40644539  0.07142392  0.52941354  1
  Ti  Ti11  1  0.48643280  0.14222758  0.94833668  1
  Ti  Ti12  1  0.35450478  0.41135416  0.23787128  1
  Ti  Ti13  1  0.44766501  0.39170648  0.56740412  1
  Ti  Ti14  1  0.44389929  0.40840832  0.96533290  1
  Ti  Ti15  1  0.41794792  0.72203050  0.32238712  1
  Ti  Ti16  1  0.39621243  0.74501194  0.60727001  1
  Ti  Ti17  1  0.49408651  0.74824946  0.95933577  1
  Ti  Ti18  1  0.77893171  0.00067118  0.23008147  1
  Ti  Ti19  1  0.73017902  0.10076925  0.60490747  1
  Ti  Ti20  1  0.81239015  0.07872665  0.87010783  1
  Ti  Ti21  1  0.79957797  0.39521653  0.22943751  1
  Ti  Ti22  1  0.70341435  0.44477768  0.68439663  1
  Ti  Ti23  1  0.75586769  0.49000632  0.91745215  1
  Ti  Ti24  1  0.78386388  0.72941625  0.20334800  1
  Ti  Ti25  1  0.75125296  0.71882081  0.55110385  1
  Ti  Ti26  1  0.70346308  0.77100268  0.89256298  1
  Ti  Ti27  1  0.08847102  0.32412398  0.09584367  1
  Ti  Ti28  1  0.01539976  0.31151596  0.45933009  1
  Ti  Ti29  1  0.03355890  0.33940112  0.74863253  1
  Ti  Ti30  1  0.09370069  0.53920741  0.10870738  1
  Ti  Ti31  1  0.12977951  0.64241701  0.45044879  1
  Ti  Ti32  1  0.09256568  0.57782358  0.76880861  1
  Ti  Ti33  1  0.08319865  1.00483179  0.06698325  1
  Ti  Ti34  1  0.07401395  0.89297096  0.25406097  1
  Ti  Ti35  1  0.13685313  0.91271348  0.75126569  1
  Ti  Ti36  1  0.36073248  0.24426813  0.09028372  1
  Ti  Ti37  1  0.41974985  0.23775527  0.28221449  1
  Ti  Ti38  1  0.33266532  0.27707391  0.73487157  1
  Ti  Ti39  1  0.43331311  0.54237919  0.11829328  1
  Ti  Ti40  1  0.41031675  0.55256774  0.47837152  1
  Ti  Ti41  1  0.43382417  0.57603675  0.69473912  1
  Ti  Ti42  1  0.45605164  0.91203296  0.07590819  1
  Ti  Ti43  1  0.45259935  0.90415996  0.39658464  1
  Ti  Ti44  1  0.44366103  0.84321397  0.75982203  1
  Ti  Ti45  1  0.74831800  0.24990628  0.11385261  1
  Ti  Ti46  1  0.69434138  0.23353333  0.44653354  1
  Ti  Ti47  1  0.83218189  0.28293805  0.73318345  1
  Ti  Ti48  1  0.76432657  0.55143956  0.11473917  1
  Ti  Ti49  1  0.66510919  0.53951394  0.42141950  1
  Ti  Ti50  1  0.77522613  0.61652094  0.79467618  1
  Ti  Ti51  1  0.77979579  0.94150678  0.03543724  1
  Ti  Ti52  1  0.75619272  0.95425327  0.44434427  1
  Ti  Ti53  1  0.82531235  0.92988556  0.71285811  1
  Ti  Ti54  1  0.28354744  0.03686873  0.08865866  1
  Ti  Ti55  1  0.17694522  0.08130859  0.37512179  1
  Ti  Ti56  1  0.30259285  -0.00419491  0.79822289  1
  Ti  Ti57  1  0.26242682  0.41613567  0.04548456  1
  Ti  Ti58  1  0.23608701  0.48987529  0.40012434  1
  Ti  Ti59  1  0.26059226  0.42113553  0.84861473  1
  Ti  Ti60  1  0.31465834  0.75551443  0.06396092  1
  Ti  Ti61  1  0.21513137  0.79535593  0.37872034  1
  Ti  Ti62  1  0.27212688  0.75748737  0.83765772  1
  Ti  Ti63  1  0.60684531  0.03459368  0.07450087  1
  Ti  Ti64  1  0.52963068  0.11597249  0.38787693  1
  Ti  Ti65  1  0.54714900  0.15474179  0.74645026  1
  Ti  Ti66  1  0.61934569  0.39136608  0.05534478  1
  Ti  Ti67  1  0.52216591  0.40225044  0.36697808  1
  Ti  Ti68  1  0.49095805  0.39683090  0.75222503  1
  Ti  Ti69  1  0.61923581  0.72730227  0.10066069  1
  Ti  Ti70  1  0.61131091  0.80879683  0.44565132  1
  Ti  Ti71  1  0.57437298  0.70483689  0.76378002  1
  Ti  Ti72  1  0.88403374  0.10711923  0.09382261  1
  Ti  Ti73  1  0.86046293  0.10968747  0.40517192  1
  Ti  Ti74  1  0.99267397  0.02452830  0.81955971  1
  Ti  Ti75  1  0.92915391  0.45537032  0.01937409  1
  Ti  Ti76  1  0.83373638  0.42647349  0.46164127  1
  Ti  Ti77  1  0.90900849  0.49892404  0.70153708  1
  Ti  Ti78  1  0.96469657  0.81228871  0.08297131  1
  Ti  Ti79  1  0.84740049  0.74309434  0.39053477  1
  Ti  Ti80  1  0.94014329  0.72378844  0.67281581  1
  Ti  Ti81  1  0.24226310  0.27400525  0.34396041  1
  Ti  Ti82  1  0.30628048  0.25606192  0.52072717  1
  Ti  Ti83  1  0.24971741  0.14371004  0.93056421  1
  Ti  Ti84  1  0.26697212  0.61981399  0.25180746  1
  Ti  Ti85  1  0.24814930  0.57897256  0.61313350  1
  Ti  Ti86  1  0.22553091  0.59680690  0.93874163  1
  Ti  Ti87  1  0.25152724  0.93721423  0.24999073  1
  Ti  Ti88  1  0.25202373  0.92353488  0.55471334  1
  Ti  Ti89  1  0.22119399  0.90326845  0.95874785  1
  Ti  Ti90  1  0.61134631  0.26495023  0.25257805  1
  Ti  Ti91  1  0.60638920  0.27534669  0.61061803  1
  Ti  Ti92  1  0.65224335  0.23747700  0.92719817  1
  Ti  Ti93  1  0.57044055  0.60080103  0.25590675  1
  Ti  Ti94  1  0.57058865  0.59093674  0.56991456  1
  Ti  Ti95  1  0.55409805  0.57074297  0.91975831  1
  Ti  Ti96  1  0.59268503  0.95672324  0.26964692  1
  Ti  Ti97  1  0.55278571  0.94438045  0.62038956  1
  Ti  Ti98  1  0.55590753  0.92825020  0.88524866  1
  Ti  Ti99  1  0.93826124  0.25193381  0.25577086  1
  Ti  Ti100  1  0.90743803  0.19726037  0.57377293  1
  Ti  Ti101  1  0.86090265  0.25233768  0.94311239  1
  Ti  Ti102  1  0.91594714  0.55730251  0.27436384  1
  Ti  Ti103  1  0.94275042  0.59477502  0.52367210  1
  Ti  Ti104  1  0.86851034  0.65803390  0.98100824  1
  Ti  Ti105  1  0.89772576  0.89749460  0.31512386  1
  Ti  Ti106  1  0.90278959  0.86448940  0.53286900  1
  Ti  Ti107  1  0.88759404  0.85835295  0.89455076  1
  Co  Co108  1  0.14212872  0.02449948  0.88950440  1
  Co  Co109  1  0.54439261  0.11545499  0.22148276  1
  Co  Co110  1  0.26101834  0.58935829  0.77586007  1
  Co  Co111  1  0.68218455  0.87587564  0.15918153  1
  Co  Co112  1  -0.04413515  0.20103808  0.81373203  1
  Co  Co113  1  0.75467946  0.34512213  -0.13548967  1
  Co  Co114  1  0.73593591  0.11888775  0.01688284  1
  Co  Co115  1  0.23800109  0.77909296  0.20690221  1
  Co  Co116  1  -0.00459694  0.83850726  0.76942964  1
  Co  Co117  1  0.69589929  0.11850004  0.18332555  1
  Co  Co118  1  0.01653306  0.31460797  -0.07071710  1
  Co  Co119  1  0.87566303  0.02545185  0.55156527  1
  Co  Co120  1  -0.05875542  0.75484382  0.24488238  1
  Co  Co121  1  0.74430504  0.55436476  0.27500127  1
  Co  Co122  1  0.29995104  0.65684754  0.44386791  1
  Co  Co123  1  0.28281014  0.14485539  0.22598211  1
  Co  Co124  1  0.48227571  0.71635635  0.47431938  1
  Co  Co125  1  0.77781412  0.77844204  0.04270314  1
  Co  Co126  1  0.72443671  0.16595583  0.76341218  1
  Co  Co127  1  0.81625370  0.59477217  0.41837608  1
  Co  Co128  1  0.92418350  -0.04570894  0.15148380  1
  Co  Co129  1  0.57720759  0.76928147  0.61054799  1
  Co  Co130  1  0.34671436  0.81162886  0.46741632  1
  Co  Co131  1  0.03652903  0.48806615  0.42348921  1
  Co  Co132  1  0.36454745  0.38180515  0.41184208  1
  Co  Co133  1  0.16990992  0.35859220  0.46518357  1
  Co  Co134  1  -0.01306930  -0.01834513  0.41773521  1
  Co  Co135  1  0.11136344  0.55982847  0.29503289  1
  Co  Co136  1  0.38152537  0.15147818  0.82135137  1
  Co  Co137  1  0.78381236  0.39034733  0.04520065  1
  Co  Co138  1  0.92079684  0.29261501  0.09303201  1
  Co  Co139  1  0.34122354  0.13608938  0.39454380  1
  Co  Co140  1  0.02948794  0.16860487  0.12837179  1
  Co  Co141  1  0.38782846  0.61422253  -0.01704817  1
  Co  Co142  1  0.14641446  0.06291664  0.20320002  1
  Co  Co143  1  0.30548008  -0.02945586  0.40826224  1
  Co  Co144  1  0.43725625  0.09268536  0.10041145  1
  Co  Co145  1  0.90962977  0.39403518  0.84082167  1
  Co  Co146  1  0.18765202  0.17716938  0.08296404  1
  Co  Co147  1  -0.03225973  0.43123639  0.17606490  1
  Co  Co148  1  0.33965067  0.44893668  0.70232161  1
  Co  Co149  1  0.23303357  0.30008832  0.18348261  1
  Co  Co150  1  0.17937260  0.29906766  0.95897163  1
  Co  Co151  1  -0.01106657  0.65004991  0.37411279  1
  Co  Co152  1  0.28192084  0.42860359  0.55452352  1
  Co  Co153  1  -0.07074834  0.39200526  0.33557621  1
  Co  Co154  1  0.49181445  0.27767489  0.85653573  1
  Co  Co155  1  0.13953994  -0.06957211  0.42423313  1
  Co  Co156  1  0.62481740  0.86623477  0.01234692  1
  Co  Co157  1  0.39437374  0.51538655  0.85069687  1
  Co  Co158  1  0.69575730  0.63541159  -0.02433679  1
  Co  Co159  1  0.27050745  0.57570076  0.09626219  1
  Co  Co160  1  0.27557209  0.84240763  0.69918433  1
  Co  Co161  1  0.68549797  0.63374415  0.66825491  1
  Ni  Ni162  1  0.62865638  0.44522754  0.21678682  1
  Ni  Ni163  1  0.40391772  0.85774883  0.22296678  1
  Ni  Ni164  1  0.10396859  0.21057975  0.27210125  1
  Ni  Ni165  1  0.44274302  0.21903810  0.62250139  1
  Ni  Ni166  1  0.38109173  0.86095826  0.91990053  1
  Ni  Ni167  1  0.20624363  0.46106932  0.20338919  1
  Ni  Ni168  1  0.47399945  0.25305578  0.46095363  1
  Ni  Ni169  1  0.72490990  0.84835622  0.31547604  1
  Ni  Ni170  1  0.68411593  0.69185065  0.34784757  1
  Ni  Ni171  1  0.41200649  0.54545666  0.31403191  1
  Ni  Ni172  1  0.03958848  0.61536176  -0.03335786  1
  Ni  Ni173  1  0.60148761  0.41348197  0.88077244  1
  Ni  Ni174  1  0.62309869  0.40572616  0.51352075  1
  Ni  Ni175  1  0.15306864  0.69818213  0.05811609  1
  Ni  Ni176  1  0.56171386  0.22151667  0.08894117  1
  Ni  Ni177  1  -0.06732242  0.36785655  0.59987556  1
  Ni  Ni178  1  0.71373358  0.88597550  0.59342765  1
  Ni  Ni179  1  0.38291518  0.01850892  -0.05018310  1
  Ni  Ni180  1  0.69461147  0.37624609  0.35930331  1
  Ni  Ni181  1  0.77112888  0.31315147  0.57295053  1
  Ni  Ni182  1  -0.05678839  -0.01000778  -0.01913728  1
  Ni  Ni183  1  0.78553824  0.54762428  0.57666632  1
  Ni  Ni184  1  0.77651375  0.22336467  0.29338657  1
  Ni  Ni185  1  0.63852752  0.07280407  -0.11220078  1
  Ni  Ni186  1  0.59207813  0.53671266  0.76023730  1
  Ni  Ni187  1  0.18182040  0.41665977  0.70360891  1
  Ni  Ni188  1  0.22394747  0.74146909  0.57249660  1
  Ni  Ni189  1  0.66044150  0.01598303  0.73372418  1
  Ni  Ni190  1  0.13622948  0.85078840  0.09581125  1
  Ni  Ni191  1  0.63640252  0.85625997  0.74425922  1
  Ni  Ni192  1  0.72970017  -0.06869762  0.86244378  1
  Ni  Ni193  1  0.91508671  0.70920053  0.83077798  1
  Ni  Ni194  1  0.02209255  0.15238606  0.41830200  1
  Ni  Ni195  1  0.59632528  0.55491683  0.08653886  1
  Ni  Ni196  1  0.45697348  0.71065694  0.14304929  1
  Ni  Ni197  1  0.38444454  -0.04037054  0.65138954  1
  Ni  Ni198  1  0.94388583  0.62837581  0.12206137  1
  Ni  Ni199  1  0.77894624  0.76910737  0.72076304  1
  Ni  Ni200  1  0.07991849  0.64157127  0.61337540  1
  Ni  Ni201  1  0.34007681  0.28683108  -0.08309395  1
  Ni  Ni202  1  -0.01388315  -0.04531761  0.66145739  1
  Ni  Ni203  1  0.48862521  0.35792815  0.15814224  1
  Ni  Ni204  1  0.63767258  0.30333708  0.76606823  1
  Ni  Ni205  1  0.41333013  0.67782605  0.82623080  1
  Ni  Ni206  1  0.87813870  0.09737353  0.70534098  1
  Ni  Ni207  1  0.56718974  0.12380549  0.55652958  1
  Ni  Ni208  1  0.02347909  0.80819526  0.40335821  1
  Ni  Ni209  1  0.59595103  -0.01359987  0.46396735  1
  Ni  Ni210  1  0.14080638  0.73868910  0.72862010  1
  Ni  Ni211  1  0.69111063  0.09010062  0.35178215  1
  Ni  Ni212  1  0.47010905  0.01833503  0.78593948  1
  Ni  Ni213  1  0.56713548  0.78547991  0.26128688  1
  Ni  Ni214  1  -0.06633995  0.55034733  0.86031959  1
