# generated using pymatgen
data_Ti108Co54Ni53
_symmetry_space_group_name_H-M   'P 1'
_cell_length_a   14.64994798
_cell_length_b   14.65399798
_cell_length_c   14.60729346
_cell_angle_alpha   89.93315959
_cell_angle_beta   89.83949252
_cell_angle_gamma   90.13595975
_symmetry_Int_Tables_number   1
_chemical_formula_structural   Ti108Co54Ni53
_chemical_formula_sum   'Ti108 Co54 Ni53'
_cell_volume   3135.87496838
_cell_formula_units_Z   1
loop_
 _symmetry_equiv_pos_site_id
 _symmetry_equiv_pos_as_xyz
  1  'x, y, z'
loop_
 _atom_site_type_symbol
 _atom_site_label
 _atom_site_symmetry_multiplicity
 _atom_site_fract_x
 _atom_site_fract_y
 _atom_site_fract_z
 _atom_site_occupancy
  Ti  Ti0  1  0.05286792  0.03463837  0.24240546  1
  Ti  Ti1  1  0.12698092  0.08276278  0.59777946  1
  Ti  Ti2  1  0.09275738  0.13109829  0.83081171  1
  Ti  Ti3  1  0.07900527  0.35371923  0.29379188  1
  Ti  Ti4  1  0.02158128  0.46379604  0.62565733  1
  Ti  Ti5  1  0.03048121  0.42980196  0.96710326  1
  Ti  Ti6  1  0.11770029  0.69572604  0.27664042  1
  Ti  Ti7  1  0.12688481  0.79466695  0.59940575  1
  Ti  Ti8  1  0.05224144  0.84676451  0.95252211  1
  Ti  Ti9  1  0.44563669  0.02134887  0.23102260  1
  Ti  Ti10  1  0.42890893  0.06995293  0.65903014  1
  Ti  Ti11  1  0.40661877  -0.00251216  0.89776716  1
  Ti  Ti12  1  0.44719517  0.38856454  0.26316654  1
  Ti  Ti13  1  0.43434655  0.37705156  0.65480307  1
  Ti  Ti14  1  0.38042023  0.38604820  0.92507772  1
  Ti  Ti15  1  0.38788739  0.72615909  0.29666556  1
  Ti  Ti16  1  0.49833963  0.76438674  0.60149964  1
  Ti  Ti17  1  0.39924793  0.74092809  0.98411419  1
  Ti  Ti18  1  0.72036933  0.10194123  0.21734016  1
  Ti  Ti19  1  0.72732519  0.12180739  0.53486913  1
  Ti  Ti20  1  0.74336783  0.05029820  0.89161654  1
  Ti  Ti21  1  0.69569397  0.37366889  0.28987770  1
  Ti  Ti22  1  0.70526947  0.43803986  0.53847410  1
  Ti  Ti23  1  0.81994659  0.40416221  0.87835888  1
  Ti  Ti24  1  0.78530597  0.72364102  0.25231343  1
  Ti  Ti25  1  0.77700371  0.82913519  0.59323422  1
  Ti  Ti26  1  0.86149863  0.75735229  0.87629101  1
  Ti  Ti27  1  0.06805115  0.29518609  0.10896919  1
  Ti  Ti28  1  0.09177873  0.21969176  0.43301729  1
  Ti  Ti29  1  0.08218552  0.33524514  0.77273077  1
  Ti  Ti30  1  0.03948847  0.58389575  0.09743766  1
  Ti  Ti31  1  0.11183274  0.55345803  0.46104403  1
  Ti  Ti32  1  0.08000246  0.55907832  0.80243481  1
  Ti  Ti33  1  0.13884096  0.91953147  0.10034065  1
  Ti  Ti34  1  0.05515452  0.88802758  0.38358320  1
  Ti  Ti35  1  0.08916172  0.93083673  0.75124328  1
  Ti  Ti36  1  0.38133831  0.17729632  -0.00018768  1
  Ti  Ti37  1  0.42475220  0.30415336  0.44690670  1
  Ti  Ti38  1  0.49687791  0.23233610  0.79808565  1
  Ti  Ti39  1  0.41344802  0.49714513  0.08870241  1
  Ti  Ti40  1  0.36454494  0.62815246  0.48156077  1
  Ti  Ti41  1  0.39034863  0.58049834  0.66075967  1
  Ti  Ti42  1  0.32234520  0.99227584  0.07830985  1
  Ti  Ti43  1  0.40629095  0.93701026  0.40449626  1
  Ti  Ti44  1  0.40831127  0.87805405  0.73272507  1
  Ti  Ti45  1  0.72037320  0.19077333  0.04177222  1
  Ti  Ti46  1  0.76904604  0.21088564  0.37655897  1
  Ti  Ti47  1  0.77865363  0.21206180  0.74145528  1
  Ti  Ti48  1  0.83531451  0.56992929  0.15563716  1
  Ti  Ti49  1  0.80190169  0.55824135  0.39967740  1
  Ti  Ti50  1  0.71919239  0.55865468  0.72987733  1
  Ti  Ti51  1  0.73489793  0.89188145  0.12567166  1
  Ti  Ti52  1  0.74814231  0.84385520  0.39072632  1
  Ti  Ti53  1  0.70037164  1.00761747  0.68661221  1
  Ti  Ti54  1  0.18789130  0.13719019  0.10280841  1
  Ti  Ti55  1  0.23690646  0.05047348  0.42935750  1
  Ti  Ti56  1  0.25515818  0.04273708  0.77078377  1
  Ti  Ti57  1  0.22120282  0.44608912  0.03009612  1
  Ti  Ti58  1  0.27630613  0.41926721  0.36654160  1
  Ti  Ti59  1  0.27077329  0.38387062  0.73250990  1
  Ti  Ti60  1  0.25522449  0.74627357  0.13623320  1
  Ti  Ti61  1  0.23408085  0.78676317  0.42755178  1
  Ti  Ti62  1  0.22825044  0.67907506  0.70947133  1
  Ti  Ti63  1  0.53373194  0.12930699  0.11129323  1
  Ti  Ti64  1  0.48993733  0.09114967  0.43424125  1
  Ti  Ti65  1  0.55290709  0.04552343  0.79789063  1
  Ti  Ti66  1  0.59265208  0.43490968  0.13754523  1
  Ti  Ti67  1  0.57033102  0.48170206  0.38095349  1
  Ti  Ti68  1  0.63917636  0.35049686  0.71622076  1
  Ti  Ti69  1  0.54653970  0.78379738  0.11411062  1
  Ti  Ti70  1  0.55493603  0.79991446  0.40067314  1
  Ti  Ti71  1  0.59739232  0.76475708  0.80287935  1
  Ti  Ti72  1  0.93705066  0.14217266  0.11026384  1
  Ti  Ti73  1  0.91619811  0.06688906  0.41573090  1
  Ti  Ti74  1  0.87138446  -0.01288797  0.72900836  1
  Ti  Ti75  1  0.86093636  0.32364246  0.05836076  1
  Ti  Ti76  1  0.96422624  0.41883277  0.43281108  1
  Ti  Ti77  1  0.83073296  0.41567363  0.69282666  1
  Ti  Ti78  1  0.91676798  0.78193303  0.07808021  1
  Ti  Ti79  1  0.94299892  0.73752012  0.37060007  1
  Ti  Ti80  1  1.01390137  0.72984848  0.75364526  1
  Ti  Ti81  1  0.25752608  0.26240241  0.23379438  1
  Ti  Ti82  1  0.24800611  0.27017582  0.56117421  1
  Ti  Ti83  1  0.25279049  0.23861220  0.86750347  1
  Ti  Ti84  1  0.27223678  0.56922702  0.20642329  1
  Ti  Ti85  1  0.26460171  0.46470855  0.55043654  1
  Ti  Ti86  1  0.28609480  0.58489206  0.87358504  1
  Ti  Ti87  1  0.29584646  0.89856712  0.26907213  1
  Ti  Ti88  1  0.29308782  0.92724214  0.58590110  1
  Ti  Ti89  1  0.24917881  0.88752054  0.91700009  1
  Ti  Ti90  1  0.56817619  0.22130019  0.28607725  1
  Ti  Ti91  1  0.54646877  0.22602258  0.56692805  1
  Ti  Ti92  1  0.54684542  0.28713443  0.98892087  1
  Ti  Ti93  1  0.55676810  0.63271678  0.24691491  1
  Ti  Ti94  1  0.55892841  0.57429214  0.54390017  1
  Ti  Ti95  1  0.52665977  0.56936600  0.84921677  1
  Ti  Ti96  1  0.61444542  0.97059750  0.30643640  1
  Ti  Ti97  1  0.62807980  0.94029088  0.50689568  1
  Ti  Ti98  1  0.60541914  0.91653583  0.96432695  1
  Ti  Ti99  1  0.88369596  0.30178257  0.24076768  1
  Ti  Ti100  1  0.90365076  0.28524609  0.57057818  1
  Ti  Ti101  1  0.97334784  0.24977082  0.92166346  1
  Ti  Ti102  1  0.98321154  0.54621065  0.29015736  1
  Ti  Ti103  1  0.87652803  0.63824343  0.61086095  1
  Ti  Ti104  1  0.92070950  0.57805557  0.92235418  1
  Ti  Ti105  1  0.86668760  0.94479612  0.25080029  1
  Ti  Ti106  1  0.97737170  0.94317725  0.57088237  1
  Ti  Ti107  1  0.93883162  1.03178384  0.93009458  1
  Co  Co108  1  0.11811803  -0.01029739  0.91485116  1
  Co  Co109  1  0.84773814  0.45336779  0.27946084  1
  Co  Co110  1  0.89189945  0.89106529  0.43561896  1
  Co  Co111  1  0.81091157  -0.01921140  0.54688762  1
  Co  Co112  1  0.63866600  0.11504446  0.39766815  1
  Co  Co113  1  0.33078555  0.08878176  0.31919818  1
  Co  Co114  1  0.63129148  0.27885638  0.14580906  1
  Co  Co115  1  0.45572635  0.91143378  0.02335334  1
  Co  Co116  1  0.56568386  0.90288865  0.66678702  1
  Co  Co117  1  0.29786348  0.41266931  0.18568031  1
  Co  Co118  1  0.63652063  0.91254378  0.80671075  1
  Co  Co119  1  -0.04005000  0.43058126  0.15543869  1
  Co  Co120  1  0.29760614  0.60749091  0.03413471  1
  Co  Co121  1  -0.09664391  0.13726532  0.81374577  1
  Co  Co122  1  0.39420268  0.49044062  0.79013668  1
  Co  Co123  1  0.57187400  -0.05683106  0.14733534  1
  Co  Co124  1  0.46860979  -0.15923845  0.87370485  1
  Co  Co125  1  0.02497787  0.20149849  0.24439465  1
  Co  Co126  1  0.72869871  0.60145723  0.55175624  1
  Co  Co127  1  0.15295658  0.85098662  0.25274733  1
  Co  Co128  1  0.13201051  0.28747091  -0.04065417  1
  Co  Co129  1  0.85592064  0.12262876  0.63460555  1
  Co  Co130  1  0.36282855  0.15275376  0.48701820  1
  Co  Co131  1  0.44849318  0.29246437  0.13415452  1
  Co  Co132  1  0.81443494  0.71668649  0.46341315  1
  Co  Co133  1  0.13879577  0.57286852  -0.04461544  1
  Co  Co134  1  0.86992873  0.48056342  0.03019958  1
  Co  Co135  1  0.78463218  -0.10636161  0.83043543  1
  Co  Co136  1  0.22085046  0.02528117  0.22197237  1
  Co  Co137  1  -0.03981117  0.45075696  0.79431521  1
  Co  Co138  1  0.75819212  0.41895161  0.14315989  1
  Co  Co139  1  0.38106610  0.13718654  0.83430459  1
  Co  Co140  1  0.25160583  0.07676751  -0.05900310  1
  Co  Co141  1  0.35390484  0.14521699  0.15979241  1
  Co  Co142  1  0.32754915  0.76460493  0.61806243  1
  Co  Co143  1  0.53946254  0.10913975  -0.05162610  1
  Co  Co144  1  0.92143218  0.29494741  0.76479767  1
  Co  Co145  1  0.66443560  0.45421907  0.84280649  1
  Co  Co146  1  0.86521511  0.47903522  0.54651166  1
  Co  Co147  1  0.08781908  0.75385760  0.11309783  1
  Co  Co148  1  0.22175777  0.63890964  0.55158672  1
  Co  Co149  1  0.56881793  0.06044773  0.58990536  1
  Co  Co150  1  0.26174256  0.24620150  0.39912372  1
  Co  Co151  1  0.18492746  0.21437762  0.71077864  1
  Co  Co152  1  0.48757721  0.85943147  0.26730269  1
  Co  Co153  1  0.87697246  0.12183726  0.26601470  1
  Co  Co154  1  0.50693160  0.65036450  0.41029460  1
  Co  Co155  1  0.07204775  0.04975049  0.43048690  1
  Co  Co156  1  0.20552987  0.74458495  -0.01098176  1
  Co  Co157  1  -0.04304718  0.60337143  0.47157096  1
  Co  Co158  1  0.16071248  0.14958004  0.30292564  1
  Co  Co159  1  0.41484888  0.65951759  0.14292535  1
  Co  Co160  1  0.45673007  -0.06888633  0.55579776  1
  Co  Co161  1  0.09128272  0.71457166  0.45562796  1
  Ni  Ni162  1  0.43804308  0.69879141  0.76584088  1
  Ni  Ni163  1  0.14701583  0.51174982  0.30363201  1
  Ni  Ni164  1  0.59523794  0.65282615  0.68299672  1
  Ni  Ni165  1  0.27976119  0.10846108  0.61317466  1
  Ni  Ni166  1  0.40897182  0.55124101  0.31351046  1
  Ni  Ni167  1  0.14420167  -0.06770875  0.51722263  1
  Ni  Ni168  1  0.18505923  0.51947896  0.68211437  1
  Ni  Ni169  1  0.67285004  0.66605764  0.37732895  1
  Ni  Ni170  1  0.80678276  0.36428200  0.42720856  1
  Ni  Ni171  1  0.00509294  0.07710212  0.70114687  1
  Ni  Ni172  1  0.55278252  0.49276893  0.69788692  1
  Ni  Ni173  1  -0.01455751  0.14332860  0.54441651  1
  Ni  Ni174  1  0.41537927  0.47012119  0.46749218  1
  Ni  Ni175  1  0.64350448  0.80586315  0.24868393  1
  Ni  Ni176  1  0.07701156  0.29071503  0.59830796  1
  Ni  Ni177  1  0.66703210  0.03638172  0.05371063  1
  Ni  Ni178  1  0.76608820  0.01349364  0.37840863  1
  Ni  Ni179  1  0.73091461  0.27910648  0.58244583  1
  Ni  Ni180  1  0.84749750  0.90127176  -0.01758200  1
  Ni  Ni181  1  0.35503207  0.23207476  0.69567780  1
  Ni  Ni182  1  0.65041229  0.74265250  0.52839788  1
  Ni  Ni183  1  0.23407020  0.85532050  0.73516050  1
  Ni  Ni184  1  0.69659293  0.54283269  0.25676180  1
  Ni  Ni185  1  0.12356554  0.44814241  0.15982262  1
  Ni  Ni186  1  0.19041145  0.42995159  0.86843082  1
  Ni  Ni187  1  0.02803569  0.69037803  -0.03999382  1
  Ni  Ni188  1  0.69789702  0.36043324  -0.00721288  1
  Ni  Ni189  1  0.62623846  0.16925005  0.69712597  1
  Ni  Ni190  1  0.39748796  0.79166049  0.47201245  1
  Ni  Ni191  1  0.14709328  0.72784928  0.84554082  1
  Ni  Ni192  1  0.65124693  0.19786994  0.86433555  1
  Ni  Ni193  1  -0.06576621  0.24725830  0.39214736  1
  Ni  Ni194  1  0.62619602  0.29950823  0.43124000  1
  Ni  Ni195  1  0.88901262  0.81556123  0.70614346  1
  Ni  Ni196  1  0.06094887  0.63347424  0.61601095  1
  Ni  Ni197  1  0.54747025  0.40016273  0.54146969  1
  Ni  Ni198  1  0.38943333  0.83725441  0.14177289  1
  Ni  Ni199  1  0.54340812  0.45644418  -0.02377879  1
  Ni  Ni200  1  -0.02773797  -0.03938592  0.08613876  1
  Ni  Ni201  1  0.27758011  0.29157546  0.06277414  1
  Ni  Ni202  1  0.40864599  0.22184676  0.30126400  1
  Ni  Ni203  1  0.95527884  0.69329555  0.20891795  1
  Ni  Ni204  1  0.31065947  0.75482863  0.84320314  1
  Ni  Ni205  1  0.87984001  0.59631720  0.76818731  1
  Ni  Ni206  1  -0.00014581  0.85672870  0.21355167  1
  Ni  Ni207  1  0.13446958  0.38388980  0.46714851  1
  Ni  Ni208  1  0.82253082  0.03390532  0.08781730  1
  Ni  Ni209  1  -0.04812898  0.89142388  0.83802646  1
  Ni  Ni210  1  0.06711879  0.12284558  0.00110299  1
  Ni  Ni211  1  0.80801644  0.23604991  -0.08992320  1
  Ni  Ni212  1  0.24698759  0.62265228  0.37021090  1
  Ni  Ni213  1  -0.03793172  0.77130842  0.54795067  1
  Ni  Ni214  1  0.51534079  0.39043553  0.82614845  1
