# generated using pymatgen
data_Ti108Co54Ni53
_symmetry_space_group_name_H-M   'P 1'
_cell_length_a   14.62196712
_cell_length_b   14.68535637
_cell_length_c   14.62094459
_cell_angle_alpha   90.06474273
_cell_angle_beta   90.04186706
_cell_angle_gamma   90.01524581
_symmetry_Int_Tables_number   1
_chemical_formula_structural   Ti108Co54Ni53
_chemical_formula_sum   'Ti108 Co54 Ni53'
_cell_volume   3139.53490368
_cell_formula_units_Z   1
loop_
 _symmetry_equiv_pos_site_id
 _symmetry_equiv_pos_as_xyz
  1  'x, y, z'
loop_
 _atom_site_type_symbol
 _atom_site_label
 _atom_site_symmetry_multiplicity
 _atom_site_fract_x
 _atom_site_fract_y
 _atom_site_fract_z
 _atom_site_occupancy
  Ti  Ti0  1  0.04659173  0.09299787  0.25544384  1
  Ti  Ti1  1  0.05925909  0.18382054  0.63232571  1
  Ti  Ti2  1  0.11603393  0.07595481  0.96685156  1
  Ti  Ti3  1  0.04332278  0.44731543  0.24165367  1
  Ti  Ti4  1  0.13925961  0.45013817  0.57010418  1
  Ti  Ti5  1  0.06628685  0.41885094  0.92795073  1
  Ti  Ti6  1  0.08094148  0.77156967  0.23149593  1
  Ti  Ti7  1  0.06626908  0.66744224  0.53537149  1
  Ti  Ti8  1  0.07478492  0.79505207  0.87035374  1
  Ti  Ti9  1  0.37969797  0.15179671  0.25579819  1
  Ti  Ti10  1  0.45281639  0.02225896  0.57278541  1
  Ti  Ti11  1  0.43958307  0.16956980  0.95769446  1
  Ti  Ti12  1  0.44583451  0.36327992  0.34338021  1
  Ti  Ti13  1  0.43653263  0.37670470  0.64298820  1
  Ti  Ti14  1  0.47237755  0.37665349  0.94563767  1
  Ti  Ti15  1  0.36797872  0.74884419  0.30315174  1
  Ti  Ti16  1  0.43812833  0.67668738  0.54588092  1
  Ti  Ti17  1  0.36613250  0.70644838  0.91160910  1
  Ti  Ti18  1  0.75961016  0.04406506  0.23412727  1
  Ti  Ti19  1  0.77647896  0.09812877  0.53347139  1
  Ti  Ti20  1  0.73235187  0.08244026  1.00369387  1
  Ti  Ti21  1  0.73469454  0.47756368  0.20551403  1
  Ti  Ti22  1  0.71010576  0.42313252  0.67082314  1
  Ti  Ti23  1  0.75511123  0.40773366  0.93983026  1
  Ti  Ti24  1  0.73642745  0.75901447  0.22778587  1
  Ti  Ti25  1  0.71078670  0.69913056  0.58741351  1
  Ti  Ti26  1  0.77590203  0.71558928  0.82986986  1
  Ti  Ti27  1  0.16449916  0.24233602  0.07103726  1
  Ti  Ti28  1  0.06988905  0.21031827  0.40408804  1
  Ti  Ti29  1  0.00604163  0.29363278  0.78405821  1
  Ti  Ti30  1  0.09914836  0.59796970  0.05889430  1
  Ti  Ti31  1  0.08627001  0.54142007  0.39571163  1
  Ti  Ti32  1  0.07626763  0.57283753  0.70837872  1
  Ti  Ti33  1  0.10649216  0.93721057  0.13757640  1
  Ti  Ti34  1  0.06973383  0.85729460  0.41859861  1
  Ti  Ti35  1  0.16095904  0.88768085  0.70999475  1
  Ti  Ti36  1  0.47741205  0.30094343  0.12000425  1
  Ti  Ti37  1  0.44461747  0.16924167  0.42206554  1
  Ti  Ti38  1  0.33793262  0.19262484  0.66484421  1
  Ti  Ti39  1  0.43726560  0.61136693  0.05468015  1
  Ti  Ti40  1  0.37243021  0.56690141  0.38189311  1
  Ti  Ti41  1  0.38587533  0.57653767  0.76180600  1
  Ti  Ti42  1  0.49141831  0.93154337  0.05257603  1
  Ti  Ti43  1  0.41232458  0.85848525  0.47054744  1
  Ti  Ti44  1  0.35499222  0.91517610  0.72151836  1
  Ti  Ti45  1  0.75401571  0.29863140  0.10498266  1
  Ti  Ti46  1  0.76880236  0.28022983  0.43488565  1
  Ti  Ti47  1  0.78966759  0.29426003  0.77413053  1
  Ti  Ti48  1  0.75803419  0.60471929  0.00250305  1
  Ti  Ti49  1  0.76362924  0.57121532  0.43698826  1
  Ti  Ti50  1  0.81594196  0.52987027  0.79615594  1
  Ti  Ti51  1  0.79885176  0.90971291  0.11230716  1
  Ti  Ti52  1  0.77800225  0.89201499  0.50381287  1
  Ti  Ti53  1  0.74550746  0.97193537  0.68325439  1
  Ti  Ti54  1  0.21248643  0.08923586  0.15430597  1
  Ti  Ti55  1  0.22020232  0.09309572  0.36488174  1
  Ti  Ti56  1  0.18712573  0.08732364  0.78401542  1
  Ti  Ti57  1  0.23174443  0.41761829  0.02370323  1
  Ti  Ti58  1  0.29681890  0.41116195  0.45649767  1
  Ti  Ti59  1  0.31277283  0.36928064  0.80508437  1
  Ti  Ti60  1  0.24500014  0.72403385  0.12697468  1
  Ti  Ti61  1  0.23474842  0.74422610  0.43379451  1
  Ti  Ti62  1  0.21032984  0.70417389  0.77142016  1
  Ti  Ti63  1  0.53689735  0.11212109  0.13285014  1
  Ti  Ti64  1  0.61234902  0.13793035  0.47792796  1
  Ti  Ti65  1  0.63487165  0.13965721  0.69973900  1
  Ti  Ti66  1  0.59459732  0.51147046  0.04915122  1
  Ti  Ti67  1  0.62641956  0.44218756  0.36584664  1
  Ti  Ti68  1  0.54754462  0.45826829  0.78210548  1
  Ti  Ti69  1  0.50875245  0.75703373  0.15951744  1
  Ti  Ti70  1  0.56371743  0.73596501  0.34338115  1
  Ti  Ti71  1  0.62926151  0.82330065  0.72831443  1
  Ti  Ti72  1  0.93713738  0.03972426  0.01632612  1
  Ti  Ti73  1  0.88958269  0.06049283  0.38484910  1
  Ti  Ti74  1  0.87314752  0.04295057  0.82304188  1
  Ti  Ti75  1  0.96438574  0.33511358  0.08258538  1
  Ti  Ti76  1  0.95450257  0.37534321  0.40138449  1
  Ti  Ti77  1  0.93377951  0.42905506  0.67538065  1
  Ti  Ti78  1  0.93346255  0.71276032  0.13280381  1
  Ti  Ti79  1  0.87311201  0.76037169  0.38687856  1
  Ti  Ti80  1  0.94537159  0.85806576  0.72755978  1
  Ti  Ti81  1  0.30572024  0.33298883  0.21854509  1
  Ti  Ti82  1  0.20578788  0.25608272  0.52565133  1
  Ti  Ti83  1  0.17982368  0.26268544  0.88359137  1
  Ti  Ti84  1  0.24111522  0.52910058  0.18299640  1
  Ti  Ti85  1  0.24998882  0.65110924  0.60463023  1
  Ti  Ti86  1  0.20431460  0.53927799  0.87027295  1
  Ti  Ti87  1  0.29877212  0.94656606  0.25286312  1
  Ti  Ti88  1  0.23698272  0.94789734  0.49922188  1
  Ti  Ti89  1  0.24207063  0.87935719  1.00200438  1
  Ti  Ti90  1  0.58771689  0.24569501  0.29426572  1
  Ti  Ti91  1  0.56577844  0.32815053  0.51253014  1
  Ti  Ti92  1  0.61670333  0.28465906  0.86545431  1
  Ti  Ti93  1  0.52443996  0.54826158  0.23969375  1
  Ti  Ti94  1  0.60678023  0.54266069  0.55541850  1
  Ti  Ti95  1  0.56630737  0.67880869  0.85239660  1
  Ti  Ti96  1  0.61303324  0.92633800  0.25803055  1
  Ti  Ti97  1  0.59375624  0.85048888  0.52149874  1
  Ti  Ti98  1  0.66242157  0.86454106  0.94500913  1
  Ti  Ti99  1  0.87394500  0.21782282  0.25712940  1
  Ti  Ti100  1  0.88064466  0.24908930  0.61913766  1
  Ti  Ti101  1  0.86630200  0.21755103  0.93428523  1
  Ti  Ti102  1  0.90242436  0.57404544  0.29148963  1
  Ti  Ti103  1  0.89853208  0.65146932  0.65306238  1
  Ti  Ti104  1  0.92773164  0.54881348  0.96836466  1
  Ti  Ti105  1  0.93797848  0.90700356  0.27327766  1
  Ti  Ti106  1  0.92996148  1.02366323  0.60247712  1
  Ti  Ti107  1  0.88937556  0.86928635  0.93010762  1
  Co  Co108  1  0.62780254  0.63805010  0.15423718  1
  Co  Co109  1  0.02344199  0.96620436  0.82081660  1
  Co  Co110  1  0.38198159  0.28520488  0.51611008  1
  Co  Co111  1  0.02468552  0.32763522  0.54790592  1
  Co  Co112  1  0.69737295  0.00449223  0.40667386  1
  Co  Co113  1  -0.04698563  0.53692943  0.13556166  1
  Co  Co114  1  0.79769274  0.54077893  0.60070618  1
  Co  Co115  1  0.68680703  0.17044887  0.17522042  1
  Co  Co116  1  0.12376963  0.36517674  0.40931767  1
  Co  Co117  1  0.47569083  0.83499041  0.63062724  1
  Co  Co118  1  0.13657807  -0.04826528  0.29642173  1
  Co  Co119  1  0.63835028  0.83234616  0.10476980  1
  Co  Co120  1  0.08803808  0.77610141  0.05718867  1
  Co  Co121  1  0.92767030  -0.07519456  0.46196341  1
  Co  Co122  1  0.22789831  0.57969735  0.46014355  1
  Co  Co123  1  0.73351565  0.31486703  0.26963841  1
  Co  Co124  1  0.48515495  0.78065572  -0.00637651  1
  Co  Co125  1  0.05159388  0.02212614  0.41394646  1
  Co  Co126  1  0.33843514  0.51917269  0.57303608  1
  Co  Co127  1  0.88665999  0.38555654  0.22315738  1
  Co  Co128  1  -0.04082898  0.87624668  0.10797912  1
  Co  Co129  1  -0.01704171  0.50398041  0.81178264  1
  Co  Co130  1  0.80542127  0.43518093  0.36154061  1
  Co  Co131  1  0.64398936  -0.00711957  0.09592599  1
  Co  Co132  1  0.27634137  0.58666761  0.02738523  1
  Co  Co133  1  0.53589396  -0.01408313  0.43204301  1
  Co  Co134  1  0.83208519  0.45487195  0.07444887  1
  Co  Co135  1  0.26384416  0.13470845  -0.02810858  1
  Co  Co136  1  0.68731080  0.61776224  0.30309337  1
  Co  Co137  1  -0.01138584  0.50787519  0.55030375  1
  Co  Co138  1  0.18139674  -0.05303942  0.86612700  1
  Co  Co139  1  0.07482986  0.60965403  0.22220850  1
  Co  Co140  1  0.21932851  0.64518249  0.29861571  1
  Co  Co141  1  0.80438973  0.13087714  0.70430967  1
  Co  Co142  1  0.46743537  0.45947158  0.47966480  1
  Co  Co143  1  0.29483855  0.25291777  0.37585329  1
  Co  Co144  1  0.21963573  0.46706253  0.32450786  1
  Co  Co145  1  0.48383595  0.53319612  0.64386095  1
  Co  Co146  1  0.78100140  0.87587832  0.81363736  1
  Co  Co147  1  0.18728346  0.21781877  0.25572761  1
  Co  Co148  1  0.72572113  0.15670107  0.34540951  1
  Co  Co149  1  0.77949950  0.88942646  0.32317562  1
  Co  Co150  1  0.28036586  0.82751670  0.84327079  1
  Co  Co151  1  0.33025348  0.29943540  -0.02040714  1
  Co  Co152  1  0.91821390  0.03620229  0.17973557  1
  Co  Co153  1  0.70963061  0.41720433  0.50684119  1
  Co  Co154  1  0.63068954  0.00156761  0.57008464  1
  Co  Co155  1  0.49318027  0.55350178  -0.08915311  1
  Co  Co156  1  0.02674551  0.15200934  0.10363508  1
  Co  Co157  1  0.57578887  0.08599516  0.30395328  1
  Co  Co158  1  0.86148165  0.39250430  0.53168142  1
  Co  Co159  1  0.21934937  0.81341797  0.28083019  1
  Co  Co160  1  0.12719968  0.40880336  0.76820286  1
  Co  Co161  1  0.05872845  0.74114962  0.68892811  1
  Ni  Ni162  1  0.49679768  0.19645454  0.60700538  1
  Ni  Ni163  1  0.78380857  0.76613072  0.03130886  1
  Ni  Ni164  1  0.06598238  0.62393065  0.89471497  1
  Ni  Ni165  1  0.18392533  0.25576739  0.71690206  1
  Ni  Ni166  1  -0.06541171  0.78478246  0.55140767  1
  Ni  Ni167  1  0.61002697  0.19753937  0.01178285  1
  Ni  Ni168  1  0.46071350  0.27977062  0.79466550  1
  Ni  Ni169  1  0.32438019  0.19546018  0.83331423  1
  Ni  Ni170  1  0.62083683  0.35494112  0.02874531  1
  Ni  Ni171  1  -0.05918926  0.71920324  -0.03054093  1
  Ni  Ni172  1  0.15577063  0.37014238  0.16935951  1
  Ni  Ni173  1  0.05398873  -0.08182081  -0.02355913  1
  Ni  Ni174  1  0.35195540  0.48355861  0.92553124  1
  Ni  Ni175  1  0.72327392  0.15856853  0.85359594  1
  Ni  Ni176  1  0.58968468  0.30578631  0.69729118  1
  Ni  Ni177  1  -0.07916525  0.20548959  0.46807877  1
  Ni  Ni178  1  0.37630309  0.61741004  0.21028721  1
  Ni  Ni179  1  0.79933565  0.81065444  0.66262400  1
  Ni  Ni180  1  0.27211449  0.36699211  0.63599869  1
  Ni  Ni181  1  0.03000142  0.27521637  0.23753785  1
  Ni  Ni182  1  0.08025049  0.01912720  0.66487108  1
  Ni  Ni183  1  0.30932271  0.81054033  0.59537045  1
  Ni  Ni184  1  0.02113152  0.13272107  0.82312985  1
  Ni  Ni185  1  0.91455469  0.62670587  0.47422761  1
  Ni  Ni186  1  0.71176165  0.25963370  0.59823540  1
  Ni  Ni187  1  0.37627358  0.00991080  0.39485762  1
  Ni  Ni188  1  0.36430804  0.84515650  0.13093969  1
  Ni  Ni189  1  0.14754832  0.09251141  0.52495033  1
  Ni  Ni190  1  0.94254769  0.68105199  0.80806099  1
  Ni  Ni191  1  0.85409380  0.16416609  0.10003161  1
  Ni  Ni192  1  0.70853874  0.74848704  0.42020041  1
  Ni  Ni193  1  0.38856252  0.44328197  0.09257465  1
  Ni  Ni194  1  0.79970724  0.61947259  0.16173220  1
  Ni  Ni195  1  0.67099951  0.59561778  0.72145578  1
  Ni  Ni196  1  0.02914884  0.23924889  -0.04492511  1
  Ni  Ni197  1  0.38041319  0.73869564  0.73089866  1
  Ni  Ni198  1  0.46607635  0.88071478  0.31288226  1
  Ni  Ni199  1  0.34904692  0.18642402  0.10149181  1
  Ni  Ni200  1  0.26090952  0.03589771  0.64170673  1
  Ni  Ni201  1  0.62510897  0.70181592  0.00629488  1
  Ni  Ni202  1  0.68842126  0.00218211  0.84193522  1
  Ni  Ni203  1  0.02504730  0.69321983  0.36287570  1
  Ni  Ni204  1  0.24010633  0.51515709  0.70838634  1
  Ni  Ni205  1  0.14472793  0.81074273  0.56459478  1
  Ni  Ni206  1  0.34158200  0.01255023  0.08210295  1
  Ni  Ni207  1  0.90662692  0.37887090  0.88987526  1
  Ni  Ni208  1  0.54053783  0.68688092  0.67743663  1
  Ni  Ni209  1  0.19921350  0.71186376  -0.04971968  1
  Ni  Ni210  1  0.58773275  0.39196826  0.20086164  1
  Ni  Ni211  1  0.66063709  0.53263718  0.87816384  1
  Ni  Ni212  1  0.31372855  0.12025773  0.50902287  1
  Ni  Ni213  1  0.54664343  0.59144601  0.40954135  1
  Ni  Ni214  1  0.44909948  0.00387524  0.21436506  1
