# generated using pymatgen
data_Ti108Co54Ni53
_symmetry_space_group_name_H-M   'P 1'
_cell_length_a   14.57477320
_cell_length_b   14.62853906
_cell_length_c   14.65638823
_cell_angle_alpha   89.73550296
_cell_angle_beta   89.62013784
_cell_angle_gamma   90.15689915
_symmetry_Int_Tables_number   1
_chemical_formula_structural   Ti108Co54Ni53
_chemical_formula_sum   'Ti108 Co54 Ni53'
_cell_volume   3124.73997925
_cell_formula_units_Z   1
loop_
 _symmetry_equiv_pos_site_id
 _symmetry_equiv_pos_as_xyz
  1  'x, y, z'
loop_
 _atom_site_type_symbol
 _atom_site_label
 _atom_site_symmetry_multiplicity
 _atom_site_fract_x
 _atom_site_fract_y
 _atom_site_fract_z
 _atom_site_occupancy
  Ti  Ti0  1  0.07715329  0.14803614  0.27531364  1
  Ti  Ti1  1  0.05857748  0.08559447  0.51164243  1
  Ti  Ti2  1  0.11720959  0.14838030  0.90683019  1
  Ti  Ti3  1  0.07449371  0.38426865  0.27792154  1
  Ti  Ti4  1  0.04307959  0.44331150  0.51735269  1
  Ti  Ti5  1  0.06512548  0.44375287  0.96715253  1
  Ti  Ti6  1  0.05781444  0.71656470  0.19466322  1
  Ti  Ti7  1  0.06048480  0.77615179  0.52359905  1
  Ti  Ti8  1  -0.01794695  0.74247135  0.87052280  1
  Ti  Ti9  1  0.39693229  0.15133068  0.26010711  1
  Ti  Ti10  1  0.47147553  0.04721056  0.57106229  1
  Ti  Ti11  1  0.48325064  0.01261137  0.99060236  1
  Ti  Ti12  1  0.45290401  0.49207744  0.23504879  1
  Ti  Ti13  1  0.54090510  0.46598781  0.59807722  1
  Ti  Ti14  1  0.39001933  0.43088261  0.97707038  1
  Ti  Ti15  1  0.37997839  0.80207056  0.26781264  1
  Ti  Ti16  1  0.47774831  0.74424499  0.66832758  1
  Ti  Ti17  1  0.47404116  0.71208081  0.97847854  1
  Ti  Ti18  1  0.71366955  0.03120549  0.20759002  1
  Ti  Ti19  1  0.76383073  0.14939245  0.60297184  1
  Ti  Ti20  1  0.78178477  0.10264243  0.90517227  1
  Ti  Ti21  1  0.81536644  0.36798156  0.23857929  1
  Ti  Ti22  1  0.71138111  0.35384166  0.65481563  1
  Ti  Ti23  1  0.73318818  0.39183928  0.89120422  1
  Ti  Ti24  1  0.76560393  0.73556202  0.29523061  1
  Ti  Ti25  1  0.75583343  0.76832373  0.53825005  1
  Ti  Ti26  1  0.77067684  0.78946523  0.91023362  1
  Ti  Ti27  1  0.03033018  0.28848134  0.08777097  1
  Ti  Ti28  1  0.03332784  0.26769044  0.42505380  1
  Ti  Ti29  1  0.03369793  0.29226303  0.74084240  1
  Ti  Ti30  1  0.08791215  0.61250794  0.02819535  1
  Ti  Ti31  1  0.07389545  0.61395701  0.40721236  1
  Ti  Ti32  1  0.13840805  0.56573046  0.69624957  1
  Ti  Ti33  1  0.09327963  0.89524215  0.10639294  1
  Ti  Ti34  1  0.06671029  0.84333714  0.33189583  1
  Ti  Ti35  1  0.10406351  0.85875423  0.73534049  1
  Ti  Ti36  1  0.39310609  0.18970675  0.05807173  1
  Ti  Ti37  1  0.52580379  0.21626585  0.40319318  1
  Ti  Ti38  1  0.43426585  0.20861267  0.74317436  1
  Ti  Ti39  1  0.35937761  0.64736577  0.12730116  1
  Ti  Ti40  1  0.39472293  0.50531413  0.43104847  1
  Ti  Ti41  1  0.37741855  0.54035599  0.67714931  1
  Ti  Ti42  1  0.46953473  0.85653774  0.10388525  1
  Ti  Ti43  1  0.39950831  0.92277659  0.43572909  1
  Ti  Ti44  1  0.52859601  0.92305986  0.70298767  1
  Ti  Ti45  1  0.70830822  0.28801385  0.06590414  1
  Ti  Ti46  1  0.73734172  0.28498330  0.48264844  1
  Ti  Ti47  1  0.82621243  0.25761540  0.77159362  1
  Ti  Ti48  1  0.75567282  0.58259395  0.14463982  1
  Ti  Ti49  1  0.77402355  0.58008821  0.46741863  1
  Ti  Ti50  1  0.70858438  0.57941408  0.81758883  1
  Ti  Ti51  1  0.77070950  0.93365693  0.05624307  1
  Ti  Ti52  1  0.74097663  0.96442170  0.51584905  1
  Ti  Ti53  1  0.80300479  0.99691151  0.71621037  1
  Ti  Ti54  1  0.23380841  0.02741768  0.04804149  1
  Ti  Ti55  1  0.28215119  0.07414026  0.41120652  1
  Ti  Ti56  1  0.30982899  0.02411095  0.86670096  1
  Ti  Ti57  1  0.19330210  0.44356507  0.11438250  1
  Ti  Ti58  1  0.20627963  0.43982761  0.38863032  1
  Ti  Ti59  1  0.27788252  0.38705619  0.75520896  1
  Ti  Ti60  1  0.23211424  0.76344072  0.06547512  1
  Ti  Ti61  1  0.24590767  0.81985107  0.39395208  1
  Ti  Ti62  1  0.29041655  0.71631482  0.75932865  1
  Ti  Ti63  1  0.58708511  0.12332989  0.10227338  1
  Ti  Ti64  1  0.70691772  0.12962944  0.37207740  1
  Ti  Ti65  1  0.58035415  0.05098505  0.82236327  1
  Ti  Ti66  1  0.60851127  0.45469078  0.07568601  1
  Ti  Ti67  1  0.57779416  0.40683286  0.38753698  1
  Ti  Ti68  1  0.48230118  0.40836457  0.78818461  1
  Ti  Ti69  1  0.59977526  0.70496563  0.12226797  1
  Ti  Ti70  1  0.50560038  0.72670390  0.41011336  1
  Ti  Ti71  1  0.61197821  0.74482885  0.82013967  1
  Ti  Ti72  1  0.94132403  0.12165120  0.01557528  1
  Ti  Ti73  1  0.88002618  0.06119080  0.40594948  1
  Ti  Ti74  1  0.97516435  0.02669211  0.81192744  1
  Ti  Ti75  1  0.86016555  0.43139169  0.07163273  1
  Ti  Ti76  1  0.88059816  0.39653911  0.40800094  1
  Ti  Ti77  1  0.84212999  0.46863167  0.73410222  1
  Ti  Ti78  1  0.88989582  0.68001146  0.03558697  1
  Ti  Ti79  1  0.88340294  0.85398084  0.41931337  1
  Ti  Ti80  1  0.85082713  0.68899381  0.72621866  1
  Ti  Ti81  1  0.29568589  0.31555195  0.22768854  1
  Ti  Ti82  1  0.30890117  0.28855932  0.43540500  1
  Ti  Ti83  1  0.29596706  0.23748394  0.89271266  1
  Ti  Ti84  1  0.25282638  0.63518110  0.31910703  1
  Ti  Ti85  1  0.22866585  0.54306517  0.54009449  1
  Ti  Ti86  1  0.21885746  0.54806691  0.86803619  1
  Ti  Ti87  1  0.20763650  0.96821390  0.25608944  1
  Ti  Ti88  1  0.23990448  0.85755217  0.58199828  1
  Ti  Ti89  1  0.17720454  0.85555509  0.91303159  1
  Ti  Ti90  1  0.55600425  0.29368417  0.21497595  1
  Ti  Ti91  1  0.55386791  0.26468907  0.58625548  1
  Ti  Ti92  1  0.60401336  0.20335306  0.92161581  1
  Ti  Ti93  1  0.61917524  0.58819767  0.28569297  1
  Ti  Ti94  1  0.60621345  0.65157358  0.56698244  1
  Ti  Ti95  1  0.55160472  0.54930593  0.90918324  1
  Ti  Ti96  1  0.53880675  0.95008013  0.26791602  1
  Ti  Ti97  1  0.56583272  0.87634269  0.51507557  1
  Ti  Ti98  1  0.47900589  0.87166506  0.87529286  1
  Ti  Ti99  1  0.88719170  0.12131674  0.21405650  1
  Ti  Ti100  1  0.90605445  0.31575610  0.59989051  1
  Ti  Ti101  1  0.87701551  0.28465354  0.95535219  1
  Ti  Ti102  1  0.93277052  0.55756226  0.25111370  1
  Ti  Ti103  1  0.95808580  0.59596549  0.59573803  1
  Ti  Ti104  1  0.99729033  0.56397308  0.82098820  1
  Ti  Ti105  1  0.89192517  0.90695895  0.23949730  1
  Ti  Ti106  1  0.91170524  0.85527901  0.61957619  1
  Ti  Ti107  1  0.94309673  0.90447396  0.95399587  1
  Co  Co108  1  0.93016460  -0.00351474  0.10233709  1
  Co  Co109  1  0.64711769  0.83111994  0.64374942  1
  Co  Co110  1  0.66811560  0.67128438  -0.02536150  1
  Co  Co111  1  0.15828896  0.41043851  0.64908404  1
  Co  Co112  1  0.69269585  0.68984442  0.69399442  1
  Co  Co113  1  0.45283046  0.28975434  0.89934099  1
  Co  Co114  1  0.56289386  0.55538540  0.43911113  1
  Co  Co115  1  -0.06896870  0.86325230  0.77788458  1
  Co  Co116  1  -0.06747231  0.53783501  -0.02040189  1
  Co  Co117  1  0.86243729  0.25443688  0.11768857  1
  Co  Co118  1  0.61058704  0.83126537  -0.01169650  1
  Co  Co119  1  0.15535201  0.25925461  0.17677931  1
  Co  Co120  1  -0.03864322  0.71637522  0.34524582  1
  Co  Co121  1  0.55296965  0.58107762  0.72430768  1
  Co  Co122  1  0.85087292  0.46066440  0.56319818  1
  Co  Co123  1  -0.00590465  0.44815370  0.68151205  1
  Co  Co124  1  0.16375634  0.72211071  0.64975270  1
  Co  Co125  1  0.65441518  0.00063782  -0.03336756  1
  Co  Co126  1  0.30401694  0.88771130  0.14548874  1
  Co  Co127  1  0.90619978  0.70648141  0.49540557  1
  Co  Co128  1  0.25675744  0.56108335  0.01787797  1
  Co  Co129  1  0.42165379  0.03939740  0.75054059  1
  Co  Co130  1  0.56349438  0.12960467  0.67798540  1
  Co  Co131  1  -0.07225381  0.54945095  0.42176376  1
  Co  Co132  1  0.76594839  0.11883004  0.06714839  1
  Co  Co133  1  0.64024222  0.44223864  0.76630036  1
  Co  Co134  1  0.58325967  0.38078358  -0.07335429  1
  Co  Co135  1  0.20760479  0.19387256  0.03270917  1
  Co  Co136  1  0.46064647  0.06719401  0.39375179  1
  Co  Co137  1  0.78354032  0.53043723  0.30854659  1
  Co  Co138  1  0.08440229  0.12018826  0.10307539  1
  Co  Co139  1  0.44641903  0.61639575  0.54373506  1
  Co  Co140  1  0.80789438  -0.05454828  0.86945518  1
  Co  Co141  1  0.66502075  0.68646011  0.41020079  1
  Co  Co142  1  0.77501975  0.83137577  0.73334801  1
  Co  Co143  1  0.84611852  0.63225250  0.88220432  1
  Co  Co144  1  0.65601790  0.90288798  0.82044597  1
  Co  Co145  1  0.43364987  0.13046501  0.89283424  1
  Co  Co146  1  -0.05389362  0.17968761  0.84867635  1
  Co  Co147  1  0.44830820  0.34894872  0.49226035  1
  Co  Co148  1  0.20527437  0.78657326  0.23275365  1
  Co  Co149  1  0.60606924  0.00194960  0.39884014  1
  Co  Co150  1  0.41840678  0.35251539  0.65112119  1
  Co  Co151  1  0.30213936  0.40429241  0.56039516  1
  Co  Co152  1  0.10615747  0.42566674  0.80542083  1
  Co  Co153  1  0.76761358  0.96065290  0.33924443  1
  Co  Co154  1  0.65609054  0.00453992  0.64657333  1
  Co  Co155  1  0.31160538  0.67480101  0.60737951  1
  Co  Co156  1  0.53739869  0.28443645  0.04958241  1
  Co  Co157  1  0.25047454  0.12365039  0.18408335  1
  Co  Co158  1  0.35246859  0.67871973  0.42619045  1
  Co  Co159  1  0.29294894  0.32054446  0.05859711  1
  Co  Co160  1  0.57302247  0.12344348  0.26834219  1
  Co  Co161  1  0.89091614  0.02433694  0.56775220  1
  Ni  Ni162  1  0.01770672  0.47201502  0.13093139  1
  Ni  Ni163  1  0.70539682  0.14518915  0.75793395  1
  Ni  Ni164  1  0.56747468  0.77979459  0.26456786  1
  Ni  Ni165  1  0.66792935  0.84567376  0.38766244  1
  Ni  Ni166  1  0.39779044  0.79455701  0.53361733  1
  Ni  Ni167  1  0.45036373  0.68656822  0.81838417  1
  Ni  Ni168  1  0.01552355  0.71583335  0.70542501  1
  Ni  Ni169  1  0.16661661  -0.04593547  0.44852708  1
  Ni  Ni170  1  0.16134097  0.32266134  0.51539634  1
  Ni  Ni171  1  0.68704554  0.44301194  0.50829315  1
  Ni  Ni172  1  0.69095940  0.29930667  0.32847050  1
  Ni  Ni173  1  0.45777750  0.65437802  0.26173093  1
  Ni  Ni174  1  0.07102764  0.00452352  -0.01979590  1
  Ni  Ni175  1  0.71983612  0.20051693  0.20667414  1
  Ni  Ni176  1  0.49323886  0.56809073  0.07692314  1
  Ni  Ni177  1  0.05659897  0.76914503  0.01308362  1
  Ni  Ni178  1  0.37215285  -0.10798929  0.66953248  1
  Ni  Ni179  1  0.13771111  0.69389399  0.83242542  1
  Ni  Ni180  1  0.31127337  0.70538244  -0.07067848  1
  Ni  Ni181  1  0.60432498  0.27842430  0.77225361  1
  Ni  Ni182  1  0.21570315  0.20429420  0.32998504  1
  Ni  Ni183  1  0.62109506  0.11623812  0.51934113  1
  Ni  Ni184  1  0.01999616  0.00141251  0.35947247  1
  Ni  Ni185  1  0.84900936  0.22930156  0.35972599  1
  Ni  Ni186  1  0.19876845  0.62247649  0.15827693  1
  Ni  Ni187  1  0.38996178  0.03216068  0.12939000  1
  Ni  Ni188  1  0.75673333  0.76570345  0.09647605  1
  Ni  Ni189  1  0.28343259  0.49019184  0.24602288  1
  Ni  Ni190  1  0.34222215  -0.10932603  -0.01478790  1
  Ni  Ni191  1  0.42946157  0.37250918  0.13062427  1
  Ni  Ni192  1  0.38333333  0.54527148  0.84541413  1
  Ni  Ni193  1  0.02526117  -0.01188740  0.65549544  1
  Ni  Ni194  1  0.00996394  0.92858304  0.49990130  1
  Ni  Ni195  1  0.04441247  0.00311945  0.20749742  1
  Ni  Ni196  1  0.10872856  0.54302109  0.26261603  1
  Ni  Ni197  1  0.20004991  0.69709808  0.49168622  1
  Ni  Ni198  1  -0.03902513  0.27639894  0.25377949  1
  Ni  Ni199  1  0.36884100  -0.01984782  0.28156507  1
  Ni  Ni200  1  0.69535772  0.86740462  0.20958274  1
  Ni  Ni201  1  0.93129669  0.40595102  0.85670026  1
  Ni  Ni202  1  0.42727782  0.34856727  0.32464722  1
  Ni  Ni203  1  0.22103100  0.38670655  0.92724701  1
  Ni  Ni204  1  -0.08537203  0.18254777  0.51111361  1
  Ni  Ni205  1  0.32503143  0.85893955  0.82328446  1
  Ni  Ni206  1  0.88685955  0.71066762  0.19885220  1
  Ni  Ni207  1  -0.07526375  0.83156020  0.09882377  1
  Ni  Ni208  1  0.92888424  0.14458907  0.68093478  1
  Ni  Ni209  1  0.04966458  0.29560593  -0.09156112  1
  Ni  Ni210  1  0.66025016  0.43308492  0.22951983  1
  Ni  Ni211  1  0.75148428  0.53274531  -0.01592653  1
  Ni  Ni212  1  0.71526489  0.53660826  0.64175967  1
  Ni  Ni213  1  0.39185182  0.17224814  0.51168304  1
  Ni  Ni214  1  0.14328874  -0.00448874  0.82853722  1
