# generated using pymatgen
data_Ti108Co54Ni53
_symmetry_space_group_name_H-M   'P 1'
_cell_length_a   14.61016139
_cell_length_b   14.69186213
_cell_length_c   14.65813842
_cell_angle_alpha   89.94700358
_cell_angle_beta   90.11191479
_cell_angle_gamma   89.78227393
_symmetry_Int_Tables_number   1
_chemical_formula_structural   Ti108Co54Ni53
_chemical_formula_sum   'Ti108 Co54 Ni53'
_cell_volume   3146.34631196
_cell_formula_units_Z   1
loop_
 _symmetry_equiv_pos_site_id
 _symmetry_equiv_pos_as_xyz
  1  'x, y, z'
loop_
 _atom_site_type_symbol
 _atom_site_label
 _atom_site_symmetry_multiplicity
 _atom_site_fract_x
 _atom_site_fract_y
 _atom_site_fract_z
 _atom_site_occupancy
  Ti  Ti0  1  0.05888171  0.05783022  0.27183399  1
  Ti  Ti1  1  0.14419222  0.07566608  0.60870191  1
  Ti  Ti2  1  0.10702100  0.13264986  0.95436413  1
  Ti  Ti3  1  0.04377641  0.41887796  0.27938646  1
  Ti  Ti4  1  0.12176802  0.40876961  0.57764755  1
  Ti  Ti5  1  0.21119798  0.34191730  0.93856300  1
  Ti  Ti6  1  0.07327689  0.73936314  0.21337527  1
  Ti  Ti7  1  0.10078455  0.71064333  0.52125844  1
  Ti  Ti8  1  0.02206555  0.78200970  0.96887719  1
  Ti  Ti9  1  0.35353845  0.02565827  0.22693868  1
  Ti  Ti10  1  0.37166010  0.08995764  0.51897500  1
  Ti  Ti11  1  0.38449558  0.11235420  0.92646316  1
  Ti  Ti12  1  0.43970913  0.42621657  0.30887755  1
  Ti  Ti13  1  0.41557595  0.42905568  0.52906428  1
  Ti  Ti14  1  0.43411524  0.50277335  0.91806708  1
  Ti  Ti15  1  0.41386117  0.71847216  0.23686467  1
  Ti  Ti16  1  0.45546748  0.75270672  0.57990546  1
  Ti  Ti17  1  0.45269433  0.68708043  0.90825205  1
  Ti  Ti18  1  0.74034522  0.09955355  0.27882202  1
  Ti  Ti19  1  0.77630008  0.13066828  0.58495224  1
  Ti  Ti20  1  0.80916877  0.04832359  0.94316704  1
  Ti  Ti21  1  0.66793345  0.36826300  0.24173046  1
  Ti  Ti22  1  0.78356980  0.43139088  0.64170216  1
  Ti  Ti23  1  0.74502933  0.36132187  0.94986282  1
  Ti  Ti24  1  0.74028372  0.78631888  0.20250577  1
  Ti  Ti25  1  0.75313765  0.76376854  0.50622233  1
  Ti  Ti26  1  0.72143735  0.82081596  0.88044749  1
  Ti  Ti27  1  0.05398592  0.24090296  0.16011303  1
  Ti  Ti28  1  0.10477436  0.30943394  0.41216536  1
  Ti  Ti29  1  0.05526675  0.27108017  0.82543510  1
  Ti  Ti30  1  0.07638744  0.60505222  0.06684437  1
  Ti  Ti31  1  0.14199505  0.51971542  0.42384299  1
  Ti  Ti32  1  0.03530040  0.59511714  0.79102700  1
  Ti  Ti33  1  0.09142349  0.91340976  0.11482842  1
  Ti  Ti34  1  0.10066996  0.93232837  0.44828290  1
  Ti  Ti35  1  0.06131902  0.97339162  0.77649891  1
  Ti  Ti36  1  0.46041343  0.24824778  0.05306293  1
  Ti  Ti37  1  0.37583011  0.26869955  0.41638877  1
  Ti  Ti38  1  0.39513624  0.30002903  0.84950008  1
  Ti  Ti39  1  0.40484965  0.62374356  0.07880771  1
  Ti  Ti40  1  0.41421123  0.63705265  0.41932244  1
  Ti  Ti41  1  0.33304994  0.57309908  0.76125400  1
  Ti  Ti42  1  0.45678015  0.97280350  0.06687038  1
  Ti  Ti43  1  0.46685180  0.83720676  0.40308430  1
  Ti  Ti44  1  0.31325493  0.88034168  0.70168804  1
  Ti  Ti45  1  0.75816998  0.21266053  0.07150614  1
  Ti  Ti46  1  0.83414911  0.22343674  0.41116030  1
  Ti  Ti47  1  0.76745086  0.24832312  0.75939050  1
  Ti  Ti48  1  0.77326858  0.57689409  0.02820992  1
  Ti  Ti49  1  0.73460234  0.58569316  0.52845730  1
  Ti  Ti50  1  0.69243292  0.59315647  0.72539069  1
  Ti  Ti51  1  0.79701291  0.88907407  0.05390808  1
  Ti  Ti52  1  0.77601335  0.87719285  0.36499781  1
  Ti  Ti53  1  0.74648892  0.82171058  0.69400017  1
  Ti  Ti54  1  0.24261200  0.01533952  0.05122061  1
  Ti  Ti55  1  0.22428857  0.07607122  0.37414088  1
  Ti  Ti56  1  0.23738573  0.02808072  0.82243541  1
  Ti  Ti57  1  0.24630597  0.49720974  0.11019346  1
  Ti  Ti58  1  0.24436778  0.40033941  0.28540287  1
  Ti  Ti59  1  0.15676147  0.44697821  0.76583353  1
  Ti  Ti60  1  0.32053375  0.81944875  0.06205714  1
  Ti  Ti61  1  0.28170673  0.81232564  0.50977009  1
  Ti  Ti62  1  0.19409372  0.70755618  0.72023126  1
  Ti  Ti63  1  0.60054927  0.09527680  0.07388516  1
  Ti  Ti64  1  0.66689696  0.00265227  0.45595929  1
  Ti  Ti65  1  0.65230184  0.07006361  0.79110855  1
  Ti  Ti66  1  0.48830208  0.44724086  0.11687882  1
  Ti  Ti67  1  0.59824748  0.50309300  0.40957098  1
  Ti  Ti68  1  0.56212926  0.40914571  0.77502430  1
  Ti  Ti69  1  0.64823198  0.74067154  0.04199898  1
  Ti  Ti70  1  0.64423251  0.68891279  0.33735926  1
  Ti  Ti71  1  0.56208942  0.74540950  0.75521551  1
  Ti  Ti72  1  0.91417862  0.10346920  0.11755156  1
  Ti  Ti73  1  0.98064407  0.10185578  0.46509361  1
  Ti  Ti74  1  0.87150846  0.06789451  0.74138321  1
  Ti  Ti75  1  0.92610713  0.43752547  -0.00120063  1
  Ti  Ti76  1  0.80762224  0.43046119  0.44025362  1
  Ti  Ti77  1  0.96911060  0.41305270  0.70859488  1
  Ti  Ti78  1  0.90180910  0.69739665  0.10725805  1
  Ti  Ti79  1  0.95511498  0.79372066  0.40540139  1
  Ti  Ti80  1  0.90668195  0.73293702  0.79137812  1
  Ti  Ti81  1  0.35154500  0.22245827  0.23602447  1
  Ti  Ti82  1  0.25148489  0.24930760  0.62041125  1
  Ti  Ti83  1  0.24245705  0.22116246  1.07655763  1
  Ti  Ti84  1  0.22977913  0.63985757  0.28865080  1
  Ti  Ti85  1  0.29405555  0.57493048  0.56991155  1
  Ti  Ti86  1  0.23513585  0.55103958  0.92895311  1
  Ti  Ti87  1  0.22882465  0.88826114  0.26028679  1
  Ti  Ti88  1  0.13087480  0.87250193  0.64240047  1
  Ti  Ti89  1  0.20778100  0.83018270  0.87938856  1
  Ti  Ti90  1  0.55584711  0.20216792  0.34525971  1
  Ti  Ti91  1  0.57862053  0.24913103  0.53719420  1
  Ti  Ti92  1  0.58733073  0.23581139  0.88956996  1
  Ti  Ti93  1  0.64660878  0.55398714  0.18647562  1
  Ti  Ti94  1  0.52490134  0.56545648  0.61500669  1
  Ti  Ti95  1  0.63641340  0.52453785  0.90269176  1
  Ti  Ti96  1  0.54421634  0.99375570  0.28306465  1
  Ti  Ti97  1  0.58355272  0.90065302  0.59645195  1
  Ti  Ti98  1  0.52645050  0.87391587  0.91830220  1
  Ti  Ti99  1  0.86152250  0.27857766  0.22984098  1
  Ti  Ti100  1  0.94498924  0.31645214  0.54019682  1
  Ti  Ti101  1  0.90449620  0.21867611  0.93244317  1
  Ti  Ti102  1  0.91775849  0.57845739  0.30553356  1
  Ti  Ti103  1  0.96852834  0.55381712  0.58301016  1
  Ti  Ti104  1  0.85174262  0.51737475  0.83352595  1
  Ti  Ti105  1  0.88354794  0.94791176  0.23353816  1
  Ti  Ti106  1  0.84367058  0.94029232  0.55404501  1
  Ti  Ti107  1  0.91599404  0.90353870  0.88187298  1
  Co  Co108  1  0.14563171  0.14598234  0.75621821  1
  Co  Co109  1  0.36934599  0.11650814  0.09280527  1
  Co  Co110  1  0.85078519  0.75686076  -0.03625700  1
  Co  Co111  1  -0.07670286  0.35327953  0.36184149  1
  Co  Co112  1  -0.00606032  0.46087725  0.45172071  1
  Co  Co113  1  0.86266037  0.59946176  0.69372694  1
  Co  Co114  1  0.08472809  0.07824745  0.10228301  1
  Co  Co115  1  0.17466286  0.35326805  0.13177596  1
  Co  Co116  1  0.71133284  -0.00771607  0.64893283  1
  Co  Co117  1  0.80446119  0.69559388  0.35646175  1
  Co  Co118  1  0.90380164  0.77332312  0.25558117  1
  Co  Co119  1  0.90643881  0.28987781  0.07685353  1
  Co  Co120  1  0.31486618  0.78680889  0.35085470  1
  Co  Co121  1  0.16422707  0.77080965  0.04673697  1
  Co  Co122  1  0.08345204  0.28382736  0.66981608  1
  Co  Co123  1  0.03066232  0.70878340  0.66446129  1
  Co  Co124  1  0.06226885  0.80176245  0.79339897  1
  Co  Co125  1  0.56828123  0.69404499  0.17836958  1
  Co  Co126  1  0.77426111  -0.04845788  0.79937348  1
  Co  Co127  1  0.90770836  0.53989869  0.13324024  1
  Co  Co128  1  0.90446806  0.10928745  0.29611225  1
  Co  Co129  1  0.72502284  0.41137206  0.78890101  1
  Co  Co130  1  0.54305380  0.07756201  -0.07832051  1
  Co  Co131  1  0.01081009  0.22250862  0.31705659  1
  Co  Co132  1  0.27279485  0.42941069  0.64949565  1
  Co  Co133  1  0.68649146  0.16179747  0.44456820  1
  Co  Co134  1  0.61660393  0.68204839  -0.10693765  1
  Co  Co135  1  0.52368082  0.35639767  0.42673114  1
  Co  Co136  1  0.12665395  -0.05236826  0.95125271  1
  Co  Co137  1  0.56196167  0.60005121  0.03330994  1
  Co  Co138  1  0.02354398  0.44273973  0.86716418  1
  Co  Co139  1  0.50866664  0.57909788  0.77959079  1
  Co  Co140  1  0.73602486  0.18260478  0.90600626  1
  Co  Co141  1  0.40592975  0.92259174  0.56308729  1
  Co  Co142  1  0.30872702  0.42698977  0.82845165  1
  Co  Co143  1  0.74253606  0.53745886  0.34038256  1
  Co  Co144  1  0.35188817  0.36217045  0.16383882  1
  Co  Co145  1  0.49288882  0.12533801  0.19970860  1
  Co  Co146  1  0.09769456  0.56263281  0.22505178  1
  Co  Co147  1  0.78543352  0.62999935  0.20708973  1
  Co  Co148  1  0.22026799  0.29768877  0.76765980  1
  Co  Co149  1  0.24471378  0.66021793  0.13021766  1
  Co  Co150  1  -0.05651152  0.85365998  0.11391410  1
  Co  Co151  1  0.64440970  0.45893600  0.05352566  1
  Co  Co152  1  -0.05612390  0.61241662  -0.04608289  1
  Co  Co153  1  0.61474278  0.91494004  0.77847767  1
  Co  Co154  1  0.24425188  0.18998059  0.88551104  1
  Co  Co155  1  0.29265175  0.69455522  -0.04857469  1
  Co  Co156  1  0.82033645  0.05347652  0.42844540  1
  Co  Co157  1  0.24063350  0.66781027  0.44635819  1
  Co  Co158  1  -0.05406018  -0.04024954  0.38973941  1
  Co  Co159  1  0.62053207  0.83719596  0.44235437  1
  Co  Co160  1  0.69888674  -0.05179638  0.24186950  1
  Co  Co161  1  0.47186251  0.87004158  0.71400699  1
  Ni  Ni162  1  0.48637870  0.79513666  0.07877042  1
  Ni  Ni163  1  0.68206821  0.32349001  0.40504514  1
  Ni  Ni164  1  0.42198135  0.87848081  0.21997451  1
  Ni  Ni165  1  0.41498726  0.10989746  0.35685466  1
  Ni  Ni166  1  0.88050461  0.74868501  0.61234920  1
  Ni  Ni167  1  0.34789908  -0.04469182  0.39003828  1
  Ni  Ni168  1  -0.08252788  0.88787283  0.70809768  1
  Ni  Ni169  1  0.78683212  0.40586840  0.11506240  1
  Ni  Ni170  1  0.14373814  0.79123665  0.36818511  1
  Ni  Ni171  1  0.35889462  0.38333096  0.00130457  1
  Ni  Ni172  1  0.13021558  0.67909470  0.89600369  1
  Ni  Ni173  1  0.37868919  0.81938529  0.84948524  1
  Ni  Ni174  1  0.38760620  0.71684398  0.72113415  1
  Ni  Ni175  1  -0.02029509  0.08284378  0.86588429  1
  Ni  Ni176  1  0.21006193  0.10143812  0.20116533  1
  Ni  Ni177  1  0.23322665  0.21016713  0.45984954  1
  Ni  Ni178  1  0.25843044  0.38263893  0.48251681  1
  Ni  Ni179  1  0.50817002  0.30097034  0.20977223  1
  Ni  Ni180  1  0.64160447  0.30614718  0.67844594  1
  Ni  Ni181  1  0.53054634  0.37644427  0.95422209  1
  Ni  Ni182  1  0.64293733  0.20431209  0.20097100  1
  Ni  Ni183  1  0.24806078  -0.02765579  0.52495294  1
  Ni  Ni184  1  0.13663132  0.57131628  0.64046631  1
  Ni  Ni185  1  0.61914836  0.30251258  0.07313648  1
  Ni  Ni186  1  0.31215241  0.51383155  0.39805483  1
  Ni  Ni187  1  0.66095298  -0.03032271  -0.04583070  1
  Ni  Ni188  1  0.33408043  -0.05764827  -0.06035968  1
  Ni  Ni189  1  0.63406360  0.71154336  0.61229128  1
  Ni  Ni190  1  0.61213528  0.90749341  0.10786966  1
  Ni  Ni191  1  0.18286544  0.24419310  0.27546922  1
  Ni  Ni192  1  0.58098724  0.83169724  0.26812427  1
  Ni  Ni193  1  0.08724416  0.20985014  0.53425918  1
  Ni  Ni194  1  0.11508310  0.45896208  -0.00197371  1
  Ni  Ni195  1  0.90723529  0.64734414  0.47115098  1
  Ni  Ni196  1  0.05735707  0.65083207  0.36641093  1
  Ni  Ni197  1  0.50245026  -0.00055950  0.45250311  1
  Ni  Ni198  1  -0.02519631  -0.00853064  0.00980321  1
  Ni  Ni199  1  0.42444179  0.44833096  0.70110997  1
  Ni  Ni200  1  0.44193469  -0.01562088  0.82245020  1
  Ni  Ni201  1  0.30267422  0.04071387  0.66589630  1
  Ni  Ni202  1  0.77248911  0.65574049  0.86062556  1
  Ni  Ni203  1  -0.00721684  0.85471717  0.55951887  1
  Ni  Ni204  1  0.50792479  0.57912293  0.28326536  1
  Ni  Ni205  1  0.75186473  0.03539184  0.11366868  1
  Ni  Ni206  1  0.05535323  0.30644321  0.00180962  1
  Ni  Ni207  1  0.88231919  0.35005114  0.83224571  1
  Ni  Ni208  1  0.56664753  0.66939510  0.47520690  1
  Ni  Ni209  1  0.91158455  0.24232502  0.68446846  1
  Ni  Ni210  1  0.35574291  0.54814479  0.22938875  1
  Ni  Ni211  1  0.63284457  0.41919827  0.54976092  1
  Ni  Ni212  1  0.75582187  0.29275932  0.55366717  1
  Ni  Ni213  1  -0.01178147  0.01039287  0.61676829  1
  Ni  Ni214  1  0.02755441  0.42960122  0.12638970  1
