# generated using pymatgen
data_Ti108Co54Ni53
_symmetry_space_group_name_H-M   'P 1'
_cell_length_a   14.58929547
_cell_length_b   14.61587269
_cell_length_c   14.63078890
_cell_angle_alpha   90.13466011
_cell_angle_beta   89.72058408
_cell_angle_gamma   90.09060040
_symmetry_Int_Tables_number   1
_chemical_formula_structural   Ti108Co54Ni53
_chemical_formula_sum   'Ti108 Co54 Ni53'
_cell_volume   3119.75088658
_cell_formula_units_Z   1
loop_
 _symmetry_equiv_pos_site_id
 _symmetry_equiv_pos_as_xyz
  1  'x, y, z'
loop_
 _atom_site_type_symbol
 _atom_site_label
 _atom_site_symmetry_multiplicity
 _atom_site_fract_x
 _atom_site_fract_y
 _atom_site_fract_z
 _atom_site_occupancy
  Ti  Ti0  1  0.01530144  0.04318016  0.19650995  1
  Ti  Ti1  1  0.07718596  -0.02799773  0.65759714  1
  Ti  Ti2  1  0.05769902  0.04909472  0.84450291  1
  Ti  Ti3  1  0.14390480  0.42945963  0.24732672  1
  Ti  Ti4  1  0.04205084  0.40054679  0.58803659  1
  Ti  Ti5  1  0.11827661  0.39333625  0.90000575  1
  Ti  Ti6  1  0.01676027  0.76864358  0.24950904  1
  Ti  Ti7  1  0.20170313  0.83059866  0.54973201  1
  Ti  Ti8  1  0.15447155  0.78959392  0.89067060  1
  Ti  Ti9  1  0.43071355  0.10735660  0.23687739  1
  Ti  Ti10  1  0.45990020  0.16071204  0.58517387  1
  Ti  Ti11  1  0.41147200  0.11236985  1.02114965  1
  Ti  Ti12  1  0.45083733  0.40541414  0.34128753  1
  Ti  Ti13  1  0.37947533  0.35613000  0.54712287  1
  Ti  Ti14  1  0.46902360  0.41119186  0.93950102  1
  Ti  Ti15  1  0.35189142  0.82794074  0.25116983  1
  Ti  Ti16  1  0.43155297  0.71759648  0.56408586  1
  Ti  Ti17  1  0.42965520  0.69858643  0.82005625  1
  Ti  Ti18  1  0.69827177  0.12985024  0.28506319  1
  Ti  Ti19  1  0.75841992  0.07116865  0.61957084  1
  Ti  Ti20  1  0.74310232  0.00143324  0.92775243  1
  Ti  Ti21  1  0.77437692  0.44262104  0.26422933  1
  Ti  Ti22  1  0.81939609  0.39862092  0.51449165  1
  Ti  Ti23  1  0.75312996  0.37389965  0.85812383  1
  Ti  Ti24  1  0.83655084  0.80853944  0.22625276  1
  Ti  Ti25  1  0.69978524  0.75715502  0.57394804  1
  Ti  Ti26  1  0.71621065  0.75594109  0.94361234  1
  Ti  Ti27  1  0.08144062  0.31982092  0.07750899  1
  Ti  Ti28  1  0.11068613  0.20121945  0.48163110  1
  Ti  Ti29  1  0.03799504  0.25550123  0.79525263  1
  Ti  Ti30  1  0.08751269  0.62442297  0.14270134  1
  Ti  Ti31  1  0.07576184  0.68082208  0.43993130  1
  Ti  Ti32  1  0.10409144  0.55210980  0.70741356  1
  Ti  Ti33  1  0.09499034  0.87587156  0.07762643  1
  Ti  Ti34  1  0.08679075  0.97408225  0.45869709  1
  Ti  Ti35  1  0.23032240  0.91414174  0.75119839  1
  Ti  Ti36  1  0.52464912  0.24451089  0.06539324  1
  Ti  Ti37  1  0.39491550  0.21515912  0.39498085  1
  Ti  Ti38  1  0.37098337  0.23335589  0.75399627  1
  Ti  Ti39  1  0.43282984  0.61658421  0.08368503  1
  Ti  Ti40  1  0.40174688  0.60628580  0.37588236  1
  Ti  Ti41  1  0.41989704  0.55407512  0.67035388  1
  Ti  Ti42  1  0.38534683  0.93844598  0.08936062  1
  Ti  Ti43  1  0.48185792  0.92560447  0.36950306  1
  Ti  Ti44  1  0.46153772  0.90870889  0.76902513  1
  Ti  Ti45  1  0.71621500  0.32369640  0.05875277  1
  Ti  Ti46  1  0.70284239  0.20836755  0.48008777  1
  Ti  Ti47  1  0.71157405  0.20204109  0.74727888  1
  Ti  Ti48  1  0.73197297  0.55191057  0.10186585  1
  Ti  Ti49  1  0.73168607  0.56905037  0.43874919  1
  Ti  Ti50  1  0.71030264  0.56300072  0.73554095  1
  Ti  Ti51  1  0.75687693  0.99323182  0.14068704  1
  Ti  Ti52  1  0.73443612  0.92198224  0.50280639  1
  Ti  Ti53  1  0.78053742  0.88012898  0.72748740  1
  Ti  Ti54  1  0.15233704  0.14468315  0.10570123  1
  Ti  Ti55  1  0.25264190  0.07010356  0.40817629  1
  Ti  Ti56  1  0.23752198  0.09743761  0.74333947  1
  Ti  Ti57  1  0.22081887  0.46727165  0.06367914  1
  Ti  Ti58  1  0.22384134  0.43833839  0.43761356  1
  Ti  Ti59  1  0.29736267  0.40675644  0.85606807  1
  Ti  Ti60  1  0.24613816  0.72568169  0.09282461  1
  Ti  Ti61  1  0.26612032  0.74864466  0.39173604  1
  Ti  Ti62  1  0.24192467  0.70922189  0.72524980  1
  Ti  Ti63  1  0.57651838  0.03613631  0.11897346  1
  Ti  Ti64  1  0.58936981  0.05935089  0.46570119  1
  Ti  Ti65  1  0.61794353  0.04599154  0.78952302  1
  Ti  Ti66  1  0.52098264  0.44204703  0.11098651  1
  Ti  Ti67  1  0.62916048  0.40191386  0.43342854  1
  Ti  Ti68  1  0.48574492  0.38112303  0.74897965  1
  Ti  Ti69  1  0.50660592  0.79184587  0.10044275  1
  Ti  Ti70  1  0.61329208  0.71241538  0.39877441  1
  Ti  Ti71  1  0.58345256  0.76388154  0.72873510  1
  Ti  Ti72  1  0.90295503  0.02985159  0.02964149  1
  Ti  Ti73  1  0.96630499  0.09270837  0.38183329  1
  Ti  Ti74  1  0.91737375  0.11047964  0.70868686  1
  Ti  Ti75  1  0.89219012  0.38609133  0.11635557  1
  Ti  Ti76  1  1.01808812  0.44786074  0.40485331  1
  Ti  Ti77  1  0.88742136  0.35554848  0.70681176  1
  Ti  Ti78  1  0.92437820  0.75927280  0.05531170  1
  Ti  Ti79  1  0.91974042  0.82392921  0.42134788  1
  Ti  Ti80  1  0.96562551  0.74058897  0.71915316  1
  Ti  Ti81  1  0.23176966  0.22245446  0.27470211  1
  Ti  Ti82  1  0.19723228  0.27446916  0.63797952  1
  Ti  Ti83  1  0.26021051  0.25584683  0.98037962  1
  Ti  Ti84  1  0.27131056  0.57771214  0.23362291  1
  Ti  Ti85  1  0.24370231  0.62142903  0.55954863  1
  Ti  Ti86  1  0.23129913  0.59836194  0.89139443  1
  Ti  Ti87  1  0.16552371  0.93497570  0.28471181  1
  Ti  Ti88  1  0.32992706  0.99194986  0.60237612  1
  Ti  Ti89  1  0.33279273  0.98222896  0.89505909  1
  Ti  Ti90  1  0.60091826  0.28953860  0.22587209  1
  Ti  Ti91  1  0.61314222  0.28756799  0.62065528  1
  Ti  Ti92  1  0.58881171  0.26034740  0.88331791  1
  Ti  Ti93  1  0.59551489  0.63881069  0.21609272  1
  Ti  Ti94  1  0.52911407  0.55729320  0.50113820  1
  Ti  Ti95  1  0.56959819  0.57539533  0.92223837  1
  Ti  Ti96  1  0.64944830  0.85348602  0.22930653  1
  Ti  Ti97  1  0.50698898  0.90551398  0.57161751  1
  Ti  Ti98  1  0.53393057  0.95186993  0.94789024  1
  Ti  Ti99  1  0.97612705  0.24928972  0.24539487  1
  Ti  Ti100  1  0.90534147  0.23333369  0.49053098  1
  Ti  Ti101  1  0.91172420  0.28515884  0.95529345  1
  Ti  Ti102  1  0.94851127  0.52433234  0.24387987  1
  Ti  Ti103  1  0.92201974  0.60238867  0.54126191  1
  Ti  Ti104  1  0.92749669  0.57489078  1.01939047  1
  Ti  Ti105  1  0.83508970  0.98089530  0.31484674  1
  Ti  Ti106  1  0.90604221  0.96808178  0.54801124  1
  Ti  Ti107  1  0.94317635  0.88547337  0.91027573  1
  Co  Co108  1  0.24653461  0.06101543  0.21202423  1
  Co  Co109  1  0.18442605  0.10010300  0.92715346  1
  Co  Co110  1  0.41173865  0.53514726  0.83795103  1
  Co  Co111  1  0.09305851  0.14133672  0.69243834  1
  Co  Co112  1  0.46161541  0.53307186  0.23695690  1
  Co  Co113  1  0.78424505  0.06938371  0.44887355  1
  Co  Co114  1  0.32250052  0.14196547  0.87680014  1
  Co  Co115  1  0.53217425  0.19764923  0.73900929  1
  Co  Co116  1  0.08830097  0.59301334  0.30114285  1
  Co  Co117  1  0.36434863  0.51776046  0.51367848  1
  Co  Co118  1  0.06288856  0.02668071  0.01393612  1
  Co  Co119  1  0.57901079  0.54831382  0.35409670  1
  Co  Co120  1  0.83998164  0.18472508  0.34125777  1
  Co  Co121  1  0.54824490  0.59193121  0.76288738  1
  Co  Co122  1  0.10705656  0.82817587  0.39333690  1
  Co  Co123  1  -0.06007351  -0.09892269  0.70258079  1
  Co  Co124  1  0.42448180  0.26069877  0.90978702  1
  Co  Co125  1  0.61319039  0.44431293  0.81349513  1
  Co  Co126  1  0.49244964  -0.06580144  0.20957425  1
  Co  Co127  1  0.34458689  -0.01753570  0.30294812  1
  Co  Co128  1  0.86625326  0.50469526  0.39087009  1
  Co  Co129  1  0.09652092  0.53896755  0.52020385  1
  Co  Co130  1  0.80042275  0.24803157  0.61825976  1
  Co  Co131  1  0.86468094  0.11108697  0.19619800  1
  Co  Co132  1  0.60170471  0.09338963  0.62879515  1
  Co  Co133  1  0.88688583  0.34605901  0.34302628  1
  Co  Co134  1  0.23913316  0.89523020  0.14952711  1
  Co  Co135  1  0.32470482  0.18101150  0.13109865  1
  Co  Co136  1  0.39621153  0.68282551  0.22607941  1
  Co  Co137  1  0.06060336  0.89166959  0.80871359  1
  Co  Co138  1  0.63187022  0.42700428  -0.02342460  1
  Co  Co139  1  0.60819190  0.10985116  -0.02576407  1
  Co  Co140  1  0.38120439  0.33127747  0.05997266  1
  Co  Co141  1  0.24965557  0.02567157  0.04932284  1
  Co  Co142  1  0.29696380  0.37341580  0.30166830  1
  Co  Co143  1  -0.06982893  0.12835498  0.90815661  1
  Co  Co144  1  -0.06128183  0.90787749  0.14268930  1
  Co  Co145  1  0.20146342  0.24970297  0.81568704  1
  Co  Co146  1  0.51774726  0.77810617  0.27561403  1
  Co  Co147  1  0.11259100  0.11389675  0.31338987  1
  Co  Co148  1  0.07729371  0.67589410  0.60552215  1
  Co  Co149  1  0.26308143  0.86121619  -0.00763540  1
  Co  Co150  1  0.35054168  0.44675959  0.16577605  1
  Co  Co151  1  0.42284015  0.28450527  0.22048304  1
  Co  Co152  1  -0.00884407  -0.07866149  0.30803058  1
  Co  Co153  1  0.23788554  0.31967450  0.14638557  1
  Co  Co154  1  0.86154982  0.79971312  0.59139118  1
  Co  Co155  1  0.59879438  0.85921013  0.44585464  1
  Co  Co156  1  0.21866284  0.58850954  0.39398308  1
  Co  Co157  1  0.07983113  0.21570039  -0.05053331  1
  Co  Co158  1  0.86875136  -0.00306313  0.81922942  1
  Co  Co159  1  0.00426052  0.25513636  0.62182653  1
  Co  Co160  1  0.44225497  0.76573563  0.41575711  1
  Co  Co161  1  0.74567081  0.83240803  0.36320338  1
  Ni  Ni162  1  0.80569623  0.45752308  -0.01362348  1
  Ni  Ni163  1  -0.03725628  0.43829573  -0.06343997  1
  Ni  Ni164  1  0.00578322  0.09893977  0.55753047  1
  Ni  Ni165  1  0.32065491  0.81611942  0.84463783  1
  Ni  Ni166  1  0.36337077  0.82176657  0.67030682  1
  Ni  Ni167  1  0.34499463  0.88641333  0.47313297  1
  Ni  Ni168  1  0.35031598  0.52115252  -0.01132817  1
  Ni  Ni169  1  0.87847448  0.64953720  0.17003150  1
  Ni  Ni170  1  -0.07236905  0.65584364  0.35459597  1
  Ni  Ni171  1  0.03728617  0.47023966  0.10585989  1
  Ni  Ni172  1  -0.01888816  0.17911693  0.08233170  1
  Ni  Ni173  1  0.74236065  0.19636074  0.91818757  1
  Ni  Ni174  1  0.51906110  0.29145631  0.48083317  1
  Ni  Ni175  1  0.75639965  0.64175762  0.28134651  1
  Ni  Ni176  1  0.55271937  0.20146174  0.35050670  1
  Ni  Ni177  1  0.48191560  0.10303567  0.87098491  1
  Ni  Ni178  1  0.86009846  0.22981434  0.80632406  1
  Ni  Ni179  1  0.60547595  0.66487752  0.04936589  1
  Ni  Ni180  1  0.30209812  0.17396729  0.54879662  1
  Ni  Ni181  1  0.82337150  0.18173613  0.05568406  1
  Ni  Ni182  1  0.53131452  0.42734709  0.59500662  1
  Ni  Ni183  1  0.72262406  0.30214768  0.34710790  1
  Ni  Ni184  1  0.84851002  0.50375456  0.65074836  1
  Ni  Ni185  1  0.09173055  0.30274520  0.35462562  1
  Ni  Ni186  1  0.79640506  0.27073433  0.20141847  1
  Ni  Ni187  1  0.63620376  -0.07093630  0.66401486  1
  Ni  Ni188  1  0.02439611  0.83305115  0.55199695  1
  Ni  Ni189  1  0.66187221  -0.02221109  0.33608407  1
  Ni  Ni190  1  0.67858776  0.16677934  0.12019912  1
  Ni  Ni191  1  0.18046161  0.06777431  0.56837989  1
  Ni  Ni192  1  0.24861034  0.27984224  0.43848905  1
  Ni  Ni193  1  0.21213068  0.45285566  0.60344606  1
  Ni  Ni194  1  0.09367106  0.54424418  -0.02687702  1
  Ni  Ni195  1  0.31777666  0.38272530  0.69709279  1
  Ni  Ni196  1  0.01576640  0.43122012  0.77506304  1
  Ni  Ni197  1  0.73713268  0.73552908  0.11564042  1
  Ni  Ni198  1  0.61604652  0.45193800  0.24096773  1
  Ni  Ni199  1  0.07047701  0.70628457  0.00129409  1
  Ni  Ni200  1  0.11374658  0.80371507  0.69042065  1
  Ni  Ni201  1  0.34216299  0.70369366  -0.03435878  1
  Ni  Ni202  1  0.60370571  0.63382830  0.61874157  1
  Ni  Ni203  1  0.54577658  0.77335171  -0.07320122  1
  Ni  Ni204  1  0.07291211  0.64822900  0.83980281  1
  Ni  Ni205  1  0.27241074  0.53725684  0.73863330  1
  Ni  Ni206  1  0.68867084  0.49455359  0.57685778  1
  Ni  Ni207  1  0.71965633  0.38934140  0.69275559  1
  Ni  Ni208  1  0.41935187  0.06480435  0.72776572  1
  Ni  Ni209  1  0.64738205  -0.12285407  0.04801784  1
  Ni  Ni210  1  0.80331668  0.71237625  0.44973369  1
  Ni  Ni211  1  0.41119361  0.04748761  0.46143022  1
  Ni  Ni212  1  0.17988286  0.75368648  0.24379594  1
  Ni  Ni213  1  0.63932731  0.88038066  0.83484008  1
  Ni  Ni214  1  0.80932094  0.87496634  0.03390907  1
