# generated using pymatgen
data_Ti108Co54Ni53
_symmetry_space_group_name_H-M   'P 1'
_cell_length_a   14.60473076
_cell_length_b   14.54850816
_cell_length_c   14.67855286
_cell_angle_alpha   89.95869825
_cell_angle_beta   89.84670433
_cell_angle_gamma   89.85785267
_symmetry_Int_Tables_number   1
_chemical_formula_structural   Ti108Co54Ni53
_chemical_formula_sum   'Ti108 Co54 Ni53'
_cell_volume   3118.83397342
_cell_formula_units_Z   1
loop_
 _symmetry_equiv_pos_site_id
 _symmetry_equiv_pos_as_xyz
  1  'x, y, z'
loop_
 _atom_site_type_symbol
 _atom_site_label
 _atom_site_symmetry_multiplicity
 _atom_site_fract_x
 _atom_site_fract_y
 _atom_site_fract_z
 _atom_site_occupancy
  Ti  Ti0  1  0.04414736  0.10114417  0.21359777  1
  Ti  Ti1  1  0.09169750  0.09984868  0.59566127  1
  Ti  Ti2  1  0.12570528  0.11217483  0.93460187  1
  Ti  Ti3  1  0.03451904  0.43285681  0.30307403  1
  Ti  Ti4  1  0.00549218  0.41771194  0.53033200  1
  Ti  Ti5  1  0.02877926  0.45187545  0.91333432  1
  Ti  Ti6  1  0.05300525  0.73698356  0.15065946  1
  Ti  Ti7  1  0.14103834  0.76450181  0.49777333  1
  Ti  Ti8  1  0.16366586  0.74535432  0.85296018  1
  Ti  Ti9  1  0.42034408  0.11602668  0.24027075  1
  Ti  Ti10  1  0.52194115  0.07010546  0.58797856  1
  Ti  Ti11  1  0.37848332  0.06769572  0.89516643  1
  Ti  Ti12  1  0.34225037  0.39322951  0.21187283  1
  Ti  Ti13  1  0.34510945  0.46393050  0.52459141  1
  Ti  Ti14  1  0.39822339  0.39665989  0.84738887  1
  Ti  Ti15  1  0.36919139  0.77696455  0.29800972  1
  Ti  Ti16  1  0.45520059  0.77103227  0.60650422  1
  Ti  Ti17  1  0.47097588  0.73402937  0.95148942  1
  Ti  Ti18  1  0.71398450  0.13998447  0.27419522  1
  Ti  Ti19  1  0.72055411  0.10583162  0.59423717  1
  Ti  Ti20  1  0.76153624  0.12114161  0.93749060  1
  Ti  Ti21  1  0.71037977  0.48932369  0.26120479  1
  Ti  Ti22  1  0.81621643  0.46186111  0.49940555  1
  Ti  Ti23  1  0.70628887  0.41527611  0.86834846  1
  Ti  Ti24  1  0.70033268  0.80756556  0.30260220  1
  Ti  Ti25  1  0.76738329  0.72796730  0.61376811  1
  Ti  Ti26  1  0.71153615  0.74321403  0.94633781  1
  Ti  Ti27  1  0.16377210  0.26311369  0.10140959  1
  Ti  Ti28  1  0.13976877  0.26337488  0.46620266  1
  Ti  Ti29  1  -0.00124959  0.24882485  0.80894986  1
  Ti  Ti30  1  0.08930414  0.53676484  0.09725506  1
  Ti  Ti31  1  0.10279937  0.57056131  0.44961255  1
  Ti  Ti32  1  0.06453326  0.58250678  0.76740131  1
  Ti  Ti33  1  0.10260238  0.95245226  0.06653788  1
  Ti  Ti34  1  0.06293508  0.84767500  0.33632753  1
  Ti  Ti35  1  0.04921798  0.87445438  0.78535722  1
  Ti  Ti36  1  0.46960362  0.26910649  0.09647257  1
  Ti  Ti37  1  0.46396588  0.26448177  0.45307186  1
  Ti  Ti38  1  0.44218979  0.21372426  0.75013160  1
  Ti  Ti39  1  0.45515528  0.56715214  0.08130449  1
  Ti  Ti40  1  0.47556131  0.58720725  0.41870970  1
  Ti  Ti41  1  0.38897066  0.61773453  0.72323854  1
  Ti  Ti42  1  0.38752911  0.92906811  0.12131492  1
  Ti  Ti43  1  0.40266444  0.94185481  0.40796487  1
  Ti  Ti44  1  0.47998872  0.85725010  0.78690304  1
  Ti  Ti45  1  0.74758848  0.28246769  0.08870163  1
  Ti  Ti46  1  0.74535754  0.30781032  0.36539646  1
  Ti  Ti47  1  0.72946554  0.27382758  0.69447957  1
  Ti  Ti48  1  0.76061087  0.59354354  0.09475619  1
  Ti  Ti49  1  0.78500893  0.63527097  0.40996355  1
  Ti  Ti50  1  0.66804907  0.60239467  0.76894718  1
  Ti  Ti51  1  0.72734434  0.93933927  0.15856372  1
  Ti  Ti52  1  0.82802756  0.93692106  0.44257017  1
  Ti  Ti53  1  0.80654814  0.96704620  0.71273665  1
  Ti  Ti54  1  0.24446821  0.08082084  0.15100455  1
  Ti  Ti55  1  0.20584790  0.06820410  0.36160502  1
  Ti  Ti56  1  0.19854394  0.02996138  0.76573240  1
  Ti  Ti57  1  0.31743171  0.35995339  0.02297757  1
  Ti  Ti58  1  0.23245521  0.46127143  0.35215383  1
  Ti  Ti59  1  0.24808506  0.46601989  0.76054396  1
  Ti  Ti60  1  0.23817992  0.79461433  0.01041958  1
  Ti  Ti61  1  0.19192317  0.69726741  0.31693171  1
  Ti  Ti62  1  0.28755754  0.81889978  0.71575961  1
  Ti  Ti63  1  0.59006820  0.12216262  0.11889154  1
  Ti  Ti64  1  0.61035442  0.01987592  0.42084269  1
  Ti  Ti65  1  0.62861755  0.13005217  0.76107231  1
  Ti  Ti66  1  0.63562939  0.45688543  0.07439888  1
  Ti  Ti67  1  0.64038434  0.50608194  0.43459949  1
  Ti  Ti68  1  0.55486137  0.36305495  0.70555056  1
  Ti  Ti69  1  0.53243163  0.78103476  0.14876547  1
  Ti  Ti70  1  0.60669744  0.71976889  0.47333874  1
  Ti  Ti71  1  0.66380290  0.80477932  0.76761394  1
  Ti  Ti72  1  0.89284296  0.01782674  0.04609586  1
  Ti  Ti73  1  0.91037528  0.10734093  0.37426966  1
  Ti  Ti74  1  0.99360799  0.06814884  0.77409966  1
  Ti  Ti75  1  0.98298969  0.35973765  0.09824504  1
  Ti  Ti76  1  0.93108068  0.30502438  0.39880078  1
  Ti  Ti77  1  0.96881645  0.41865686  0.71683293  1
  Ti  Ti78  1  0.85808950  0.75502870  0.14658241  1
  Ti  Ti79  1  0.94078363  0.73455823  0.48050312  1
  Ti  Ti80  1  0.92830407  0.73074008  0.70398546  1
  Ti  Ti81  1  0.21630663  0.25765374  0.28325157  1
  Ti  Ti82  1  0.23573948  0.29621916  0.66342476  1
  Ti  Ti83  1  0.20968362  0.29081100  0.88323081  1
  Ti  Ti84  1  0.30178687  0.59357707  0.19563075  1
  Ti  Ti85  1  0.20526715  0.58410486  0.60541828  1
  Ti  Ti86  1  0.21172545  0.56200450  0.92986418  1
  Ti  Ti87  1  0.22683942  0.83500663  0.18245432  1
  Ti  Ti88  1  0.15812704  0.91113865  0.62141430  1
  Ti  Ti89  1  0.31780383  0.89410570  0.87547864  1
  Ti  Ti90  1  0.60985930  0.30816450  0.21653167  1
  Ti  Ti91  1  0.66435022  0.34384425  0.53627681  1
  Ti  Ti92  1  0.54641139  0.17357202  0.93296206  1
  Ti  Ti93  1  0.51074504  0.47920441  0.25274744  1
  Ti  Ti94  1  0.54396964  0.54991264  0.60936214  1
  Ti  Ti95  1  0.55784946  0.54302880  0.91644406  1
  Ti  Ti96  1  0.54640717  0.95896804  0.25517743  1
  Ti  Ti97  1  0.65916804  0.90091289  0.58481481  1
  Ti  Ti98  1  0.57625018  0.98011137  0.89901502  1
  Ti  Ti99  1  0.88948140  0.24334224  0.22135138  1
  Ti  Ti100  1  0.91228064  0.22167300  0.64326565  1
  Ti  Ti101  1  0.87153922  0.30190739  0.93916676  1
  Ti  Ti102  1  0.91399526  0.59432730  0.25825586  1
  Ti  Ti103  1  0.83705659  0.54368309  0.70696104  1
  Ti  Ti104  1  0.91530776  0.61732590  0.97332014  1
  Ti  Ti105  1  0.92277003  0.92387287  0.24391359  1
  Ti  Ti106  1  1.00302697  0.94546277  0.49654432  1
  Ti  Ti107  1  0.89277516  0.84270160  0.90300644  1
  Co  Co108  1  0.37276702  0.74738776  0.12806499  1
  Co  Co109  1  0.34415336  0.57790209  0.34517369  1
  Co  Co110  1  0.11828600  0.45267447  0.64197959  1
  Co  Co111  1  0.39999509  0.24210866  -0.08421438  1
  Co  Co112  1  0.28014695  0.72581573  0.59922800  1
  Co  Co113  1  0.39134436  0.62026714  0.55228112  1
  Co  Co114  1  0.62815254  -0.03240529  0.72811403  1
  Co  Co115  1  0.79676052  0.85372231  0.03152177  1
  Co  Co116  1  0.61052878  0.60168951  0.17478225  1
  Co  Co117  1  0.42067754  0.74554893  0.44681000  1
  Co  Co118  1  0.05029450  0.28821430  0.23234965  1
  Co  Co119  1  0.32423398  0.22569704  0.15374108  1
  Co  Co120  1  0.84284420  0.33755057  0.78638605  1
  Co  Co121  1  0.16893543  0.41513731  0.19189148  1
  Co  Co122  1  0.87616521  0.60475680  0.56357826  1
  Co  Co123  1  0.07315828  0.28138347  0.62481380  1
  Co  Co124  1  0.39369776  0.56139209  0.88725648  1
  Co  Co125  1  0.02482939  0.68676511  0.33921982  1
  Co  Co126  1  0.23573402  0.63085557  0.76602988  1
  Co  Co127  1  0.33177005  -0.02651133  0.26636954  1
  Co  Co128  1  -0.05368065  0.55484863  0.42685811  1
  Co  Co129  1  0.00798207  -0.02336672  -0.07388225  1
  Co  Co130  1  0.13118646  0.18057772  0.74654959  1
  Co  Co131  1  0.06056640  0.18255242  0.35203898  1
  Co  Co132  1  0.54747465  0.32841800  0.86447172  1
  Co  Co133  1  0.74714724  0.10474015  0.10927888  1
  Co  Co134  1  0.42248121  0.09791065  0.05939306  1
  Co  Co135  1  -0.05051879  0.13880472  0.92632314  1
  Co  Co136  1  0.61242377  0.30130060  0.01548787  1
  Co  Co137  1  0.01872860  0.81010271  0.60205987  1
  Co  Co138  1  0.27025688  0.50340933  0.07186526  1
  Co  Co139  1  0.26316344  0.64665598  0.45602986  1
  Co  Co140  1  0.75710292  0.66349748  0.24982140  1
  Co  Co141  1  0.48861261  0.04842229  0.76985910  1
  Co  Co142  1  0.48497929  0.92855804  0.64029494  1
  Co  Co143  1  0.85330895  0.86851089  0.58851284  1
  Co  Co144  1  0.52236753  0.68238146  0.79475251  1
  Co  Co145  1  0.44766567  0.28898485  0.27723543  1
  Co  Co146  1  0.51030264  0.41704343  0.52143225  1
  Co  Co147  1  0.05916658  0.81736936  -0.03289184  1
  Co  Co148  1  0.04397016  0.01244160  0.35737391  1
  Co  Co149  1  0.84179473  0.36926094  0.61953805  1
  Co  Co150  1  0.80592344  0.24250964  0.51174966  1
  Co  Co151  1  0.87511559  0.18541357  0.06486385  1
  Co  Co152  1  0.41896200  0.42224682  0.37519740  1
  Co  Co153  1  0.70604115  0.58153203  0.57618508  1
  Co  Co154  1  0.61407578  0.63981524  0.32918599  1
  Co  Co155  1  0.73106004  0.56712382  0.93537037  1
  Co  Co156  1  0.16615687  -0.04170034  0.47012254  1
  Co  Co157  1  0.08382917  0.65452746  -0.02065164  1
  Co  Co158  1  0.19540056  0.67222656  0.11028869  1
  Co  Co159  1  0.02778055  0.60204353  0.60505379  1
  Co  Co160  1  0.34312664  0.72557926  0.85263758  1
  Co  Co161  1  0.60394711  0.65171762  0.02801333  1
  Ni  Ni162  1  -0.01407116  0.19112946  0.50368947  1
  Ni  Ni163  1  0.15099694  0.40389803  0.01596809  1
  Ni  Ni164  1  -0.02122513  -0.04203843  0.65862916  1
  Ni  Ni165  1  0.82750487  0.40500033  0.17901676  1
  Ni  Ni166  1  0.60404378  0.70897636  0.64528157  1
  Ni  Ni167  1  0.76267610  0.09929280  0.43716838  1
  Ni  Ni168  1  -0.04425913  0.86587700  0.07631750  1
  Ni  Ni169  1  0.11522533  0.36303925  0.77379757  1
  Ni  Ni170  1  0.27059039  -0.00552022  0.01188210  1
  Ni  Ni171  1  0.69950512  0.44918988  0.68050998  1
  Ni  Ni172  1  0.23138143  0.87031742  0.34903346  1
  Ni  Ni173  1  0.57144358  0.22543713  0.61436631  1
  Ni  Ni174  1  0.45028514  0.89961171  -0.02823253  1
  Ni  Ni175  1  0.05051506  0.28261437  -0.04070757  1
  Ni  Ni176  1  0.16142894  -0.06870607  0.90138025  1
  Ni  Ni177  1  0.54772954  -0.03210288  0.08594436  1
  Ni  Ni178  1  0.52806205  -0.12379896  0.48566681  1
  Ni  Ni179  1  0.47937461  0.41201468  0.00258040  1
  Ni  Ni180  1  0.76255577  0.79437950  0.46261801  1
  Ni  Ni181  1  0.03075101  0.16662424  0.07136768  1
  Ni  Ni182  1  0.58031028  0.35489272  0.37421649  1
  Ni  Ni183  1  0.46555625  0.64985144  0.24200642  1
  Ni  Ni184  1  0.14729555  -0.03160987  0.23633452  1
  Ni  Ni185  1  0.29365842  0.84766479  0.49875851  1
  Ni  Ni186  1  -0.07538576  0.52147018  0.11050301  1
  Ni  Ni187  1  0.86407085  0.07159407  0.21172826  1
  Ni  Ni188  1  -0.12756037  0.48948087  0.86503267  1
  Ni  Ni189  1  -0.00943767  0.71025646  0.85587354  1
  Ni  Ni190  1  0.69914249  -0.01337176  0.00764786  1
  Ni  Ni191  1  0.81707898  0.14400921  0.76865969  1
  Ni  Ni192  1  0.53289664  0.80032954  0.33070344  1
  Ni  Ni193  1  0.28764535  0.17469451  0.80041157  1
  Ni  Ni194  1  0.85728860  0.44869871  0.33542803  1
  Ni  Ni195  1  0.73178221  0.91679383  0.86452690  1
  Ni  Ni196  1  0.39515671  0.40347611  0.67421937  1
  Ni  Ni197  1  0.50684105  0.50816978  0.76820514  1
  Ni  Ni198  1  0.62989644  0.19273045  0.46223304  1
  Ni  Ni199  1  0.55624959  0.16478257  0.31666571  1
  Ni  Ni200  1  0.80970790  0.44056793  0.01636556  1
  Ni  Ni201  1  0.86366875  0.00965646  0.86644918  1
  Ni  Ni202  1  0.18903355  0.41244014  0.50873479  1
  Ni  Ni203  1  0.30089897  0.31447924  0.41608959  1
  Ni  Ni204  1  0.12535458  0.72655503  0.68488582  1
  Ni  Ni205  1  0.32852916  0.64864731  0.00805343  1
  Ni  Ni206  1  0.27716521  0.17139474  -0.00137941  1
  Ni  Ni207  1  0.82018337  0.67338680  0.83076510  1
  Ni  Ni208  1  0.69238561  0.75975126  0.12300527  1
  Ni  Ni209  1  0.35065673  -0.01982893  0.72355296  1
  Ni  Ni210  1  0.87994378  0.77583167  0.32271665  1
  Ni  Ni211  1  0.88730402  0.06448420  0.56666467  1
  Ni  Ni212  1  0.70277850  0.25150262  0.86459660  1
  Ni  Ni213  1  0.74306823  -0.01750254  0.31415331  1
  Ni  Ni214  1  0.11056462  0.57277896  0.25208045  1
