# generated using pymatgen
data_Ti108Co54Ni53
_symmetry_space_group_name_H-M   'P 1'
_cell_length_a   14.62763665
_cell_length_b   14.64790784
_cell_length_c   14.64810562
_cell_angle_alpha   90.08539432
_cell_angle_beta   89.97826002
_cell_angle_gamma   89.86793378
_symmetry_Int_Tables_number   1
_chemical_formula_structural   Ti108Co54Ni53
_chemical_formula_sum   'Ti108 Co54 Ni53'
_cell_volume   3138.55365814
_cell_formula_units_Z   1
loop_
 _symmetry_equiv_pos_site_id
 _symmetry_equiv_pos_as_xyz
  1  'x, y, z'
loop_
 _atom_site_type_symbol
 _atom_site_label
 _atom_site_symmetry_multiplicity
 _atom_site_fract_x
 _atom_site_fract_y
 _atom_site_fract_z
 _atom_site_occupancy
  Ti  Ti0  1  0.06057779  -0.00868889  0.21515812  1
  Ti  Ti1  1  0.13261573  0.11473587  0.50624035  1
  Ti  Ti2  1  0.08277786  0.07154120  0.92233762  1
  Ti  Ti3  1  0.14178277  0.39152014  0.22510325  1
  Ti  Ti4  1  0.12073891  0.48938103  0.53721162  1
  Ti  Ti5  1  0.06105229  0.37430903  0.94124614  1
  Ti  Ti6  1  0.06864230  0.69785674  0.24374873  1
  Ti  Ti7  1  0.04694891  0.70195465  0.56202632  1
  Ti  Ti8  1  0.11184764  0.69990042  0.97756242  1
  Ti  Ti9  1  0.45944039  0.06845454  0.34763728  1
  Ti  Ti10  1  0.40002427  0.08763170  0.53974102  1
  Ti  Ti11  1  0.40895771  0.14447700  0.91741394  1
  Ti  Ti12  1  0.45551498  0.42609287  0.24139039  1
  Ti  Ti13  1  0.41402147  0.41642219  0.56162187  1
  Ti  Ti14  1  0.40880745  0.38627043  0.88404862  1
  Ti  Ti15  1  0.46992364  0.77162608  0.32014887  1
  Ti  Ti16  1  0.44949766  0.71662238  0.62044634  1
  Ti  Ti17  1  0.38779628  0.81199969  0.89121732  1
  Ti  Ti18  1  0.80647477  0.08292607  0.22921502  1
  Ti  Ti19  1  0.74886696  0.13726128  0.59740824  1
  Ti  Ti20  1  0.60303980  0.05159675  0.98844741  1
  Ti  Ti21  1  0.78767999  0.37496913  0.21626159  1
  Ti  Ti22  1  0.82215361  0.40853070  0.60356087  1
  Ti  Ti23  1  0.73689543  0.42840442  0.94816035  1
  Ti  Ti24  1  0.74306165  0.70639769  0.16271740  1
  Ti  Ti25  1  0.66897383  0.67704381  0.54800630  1
  Ti  Ti26  1  0.71516280  0.72715782  0.92939496  1
  Ti  Ti27  1  0.01116780  0.29772885  0.12342352  1
  Ti  Ti28  1  0.13154250  0.26185740  0.36848691  1
  Ti  Ti29  1  0.08854603  0.25808721  0.79153966  1
  Ti  Ti30  1  0.17917325  0.57306471  0.12318085  1
  Ti  Ti31  1  0.00458029  0.59037027  0.41167258  1
  Ti  Ti32  1  0.15143445  0.60411234  0.77484671  1
  Ti  Ti33  1  0.11532849  0.85864276  0.08874207  1
  Ti  Ti34  1  0.11173762  0.93004998  0.39021982  1
  Ti  Ti35  1  0.08409978  0.87102334  0.87689564  1
  Ti  Ti36  1  0.38601777  0.27560854  0.11339445  1
  Ti  Ti37  1  0.42158351  0.25898525  0.34357192  1
  Ti  Ti38  1  0.48588980  0.29508614  0.68873986  1
  Ti  Ti39  1  0.39000609  0.56823873  0.10892165  1
  Ti  Ti40  1  0.38678858  0.62938428  0.44594556  1
  Ti  Ti41  1  0.44160206  0.58457670  0.83334570  1
  Ti  Ti42  1  0.40637024  0.86727415  0.08723144  1
  Ti  Ti43  1  0.35697947  0.92316360  0.39477919  1
  Ti  Ti44  1  0.38981591  0.99115967  0.80523116  1
  Ti  Ti45  1  0.68988366  0.22272375  0.11125734  1
  Ti  Ti46  1  0.77179997  0.36919286  0.41007431  1
  Ti  Ti47  1  0.67767522  0.27365353  0.71849629  1
  Ti  Ti48  1  0.82504965  0.60563411  0.01556168  1
  Ti  Ti49  1  0.71495678  0.57430452  0.34563196  1
  Ti  Ti50  1  0.70494099  0.54619468  0.69098371  1
  Ti  Ti51  1  0.73059354  0.90810524  0.09780632  1
  Ti  Ti52  1  0.73202391  0.96386764  0.37517932  1
  Ti  Ti53  1  0.72734129  0.95867725  0.67894052  1
  Ti  Ti54  1  0.27474400  0.13220343  0.06743512  1
  Ti  Ti55  1  0.24848746  0.08405146  0.35067594  1
  Ti  Ti56  1  0.25058441  0.12092450  0.75292919  1
  Ti  Ti57  1  0.26823977  0.43569845  -0.00552628  1
  Ti  Ti58  1  0.28092603  0.35843314  0.42860979  1
  Ti  Ti59  1  0.17495479  0.40270271  0.69057019  1
  Ti  Ti60  1  0.27435764  0.73652551  0.11753015  1
  Ti  Ti61  1  0.23028993  0.77328283  0.40190768  1
  Ti  Ti62  1  0.31291321  0.70911858  0.74696317  1
  Ti  Ti63  1  0.52355899  0.12590663  0.17339550  1
  Ti  Ti64  1  0.60392705  0.02515472  0.51299694  1
  Ti  Ti65  1  0.58294514  0.10107543  0.77329766  1
  Ti  Ti66  1  0.61484095  0.44707949  0.10123604  1
  Ti  Ti67  1  0.57220785  0.42362492  0.41838622  1
  Ti  Ti68  1  0.59107430  0.40905221  0.81802658  1
  Ti  Ti69  1  0.56656402  0.75165791  0.04014487  1
  Ti  Ti70  1  0.67005151  0.76711001  0.36416870  1
  Ti  Ti71  1  0.65774637  0.73608426  0.74118660  1
  Ti  Ti72  1  0.91028909  0.09615029  0.04254964  1
  Ti  Ti73  1  0.86654845  0.11765517  0.42076894  1
  Ti  Ti74  1  0.89881278  0.14409351  0.81981703  1
  Ti  Ti75  1  0.91273154  0.45221684  0.08805747  1
  Ti  Ti76  1  0.96943612  0.38557407  0.45024435  1
  Ti  Ti77  1  0.91850263  0.35500439  0.78776250  1
  Ti  Ti78  1  0.91852041  0.81256564  0.08558973  1
  Ti  Ti79  1  0.87424163  0.73372032  0.33840872  1
  Ti  Ti80  1  0.85525344  0.73214048  0.79171951  1
  Ti  Ti81  1  0.16059519  0.17392103  0.20768802  1
  Ti  Ti82  1  0.29886536  0.26146197  0.61997755  1
  Ti  Ti83  1  0.22060039  0.23433448  0.92592926  1
  Ti  Ti84  1  0.27308330  0.51260505  0.31122415  1
  Ti  Ti85  1  0.23470540  0.65466141  0.57916167  1
  Ti  Ti86  1  0.28373829  0.63629127  0.94014504  1
  Ti  Ti87  1  0.26648556  0.97075097  0.19430276  1
  Ti  Ti88  1  0.27757594  0.85189866  0.59549997  1
  Ti  Ti89  1  0.27507928  0.97268761  0.96936827  1
  Ti  Ti90  1  0.61560833  0.26429996  0.30441596  1
  Ti  Ti91  1  0.63045836  0.28466281  0.52862272  1
  Ti  Ti92  1  0.65547761  0.22794735  0.91785295  1
  Ti  Ti93  1  0.57608806  0.61061239  0.21280487  1
  Ti  Ti94  1  0.53710009  0.54929664  0.56525833  1
  Ti  Ti95  1  0.63155276  0.57842408  0.87406442  1
  Ti  Ti96  1  0.58717438  0.94342203  0.25928992  1
  Ti  Ti97  1  0.58252116  0.85415391  0.60210135  1
  Ti  Ti98  1  0.56820972  0.90440321  0.80350284  1
  Ti  Ti99  1  0.93890571  0.25643890  0.30048392  1
  Ti  Ti100  1  0.98716114  0.25127317  0.61672284  1
  Ti  Ti101  1  0.85691581  0.28170749  0.98836254  1
  Ti  Ti102  1  0.88896524  0.53588620  0.27165083  1
  Ti  Ti103  1  0.87221697  0.64504171  0.61362508  1
  Ti  Ti104  1  0.97977317  0.59349522  0.87560098  1
  Ti  Ti105  1  0.91732941  0.93846812  0.34880240  1
  Ti  Ti106  1  0.88579012  0.85435312  0.52503554  1
  Ti  Ti107  1  0.88473335  0.95362341  0.88887175  1
  Co  Co108  1  0.43983924  0.41868011  0.07030682  1
  Co  Co109  1  0.71288257  0.16205738  0.43612773  1
  Co  Co110  1  0.24003459  -0.02505187  0.49520332  1
  Co  Co111  1  0.33167348  -0.00353389  0.65260160  1
  Co  Co112  1  0.80244876  -0.00206392  0.51637239  1
  Co  Co113  1  0.77169877  0.78970089  0.63922334  1
  Co  Co114  1  0.63551021  0.09839358  0.30714507  1
  Co  Co115  1  0.43775716  -0.08185765  0.54571359  1
  Co  Co116  1  0.33404594  0.82155209  0.24702760  1
  Co  Co117  1  0.80483999  0.71418630  0.47867197  1
  Co  Co118  1  0.77114269  0.22617150  0.29657324  1
  Co  Co119  1  0.28138687  0.28988283  0.26077788  1
  Co  Co120  1  0.05042854  0.57187963  0.66407749  1
  Co  Co121  1  0.55574696  -0.06656793  0.09743033  1
  Co  Co122  1  0.42579882  0.68673201  -0.00575825  1
  Co  Co123  1  -0.00874100  0.83965076  0.24254092  1
  Co  Co124  1  0.54534157  0.30481133  0.15770192  1
  Co  Co125  1  0.00965907  0.70961424  0.75104998  1
  Co  Co126  1  0.83618944  0.26272026  0.51483119  1
  Co  Co127  1  0.75246751  0.53375435  0.16716881  1
  Co  Co128  1  0.74669276  0.12116233  0.76953556  1
  Co  Co129  1  0.90095416  0.67575361  0.18463891  1
  Co  Co130  1  0.42716347  -0.03885609  0.22816290  1
  Co  Co131  1  0.26711664  0.87223648  0.77068367  1
  Co  Co132  1  0.05842431  0.45294960  0.80140372  1
  Co  Co133  1  0.18298386  0.75238956  0.83809741  1
  Co  Co134  1  0.51051409  0.24724733  0.84293998  1
  Co  Co135  1  0.10938858  0.43724000  0.07375915  1
  Co  Co136  1  0.01141256  0.40275184  0.65141800  1
  Co  Co137  1  0.55789945  0.15598882  0.61062716  1
  Co  Co138  1  0.43764794  0.26312734  0.51483421  1
  Co  Co139  1  0.49469402  0.47293376  0.71168421  1
  Co  Co140  1  0.54692789  0.62489583  0.71467988  1
  Co  Co141  1  0.78045410  0.12359397  -0.05769144  1
  Co  Co142  1  -0.01220401  0.41033184  0.27723143  1
  Co  Co143  1  0.11017024  0.54585745  0.28590485  1
  Co  Co144  1  0.53300687  0.72913303  0.47709515  1
  Co  Co145  1  0.00093149  -0.04405591  0.01630081  1
  Co  Co146  1  0.74860781  0.85757178  0.80191800  1
  Co  Co147  1  0.50975186  -0.00178814  0.66805460  1
  Co  Co148  1  0.51695642  0.19618261  0.02236713  1
  Co  Co149  1  0.71025164  0.85893862  0.50267158  1
  Co  Co150  1  0.21804640  0.37548857  0.84549167  1
  Co  Co151  1  0.76179729  0.42101981  0.77305514  1
  Co  Co152  1  0.80514961  0.84352388  -0.03534797  1
  Co  Co153  1  0.78646136  0.27223463  0.84288249  1
  Co  Co154  1  0.13487958  0.31126993  0.52623468  1
  Co  Co155  1  0.01694130  0.54366865  0.16030269  1
  Co  Co156  1  0.12354193  0.42851573  0.39240373  1
  Co  Co157  1  0.67147924  0.05432438  0.14731742  1
  Co  Co158  1  -0.05034330  0.51454265  0.55592993  1
  Co  Co159  1  0.37596841  0.78312513  0.48228602  1
  Co  Co160  1  0.83898343  0.24116415  0.68845265  1
  Co  Co161  1  0.62553893  0.40941854  0.63260784  1
  Ni  Ni162  1  0.79848727  0.57561619  0.84453644  1
  Ni  Ni163  1  0.14333782  0.02951460  0.07813648  1
  Ni  Ni164  1  0.34638701  0.40290308  0.71954846  1
  Ni  Ni165  1  0.54776985  0.16845555  0.43984894  1
  Ni  Ni166  1  0.55318249  0.88955371  0.42447589  1
  Ni  Ni167  1  0.90413758  -0.03584978  0.16388507  1
  Ni  Ni168  1  -0.00405038  0.21229389  0.45937475  1
  Ni  Ni169  1  -0.02036779  0.65103118  0.04836376  1
  Ni  Ni170  1  -0.04465252  0.76922140  0.92157034  1
  Ni  Ni171  1  0.55698365  0.35232943  -0.02311991  1
  Ni  Ni172  1  0.69903257  0.49851084  0.51349643  1
  Ni  Ni173  1  0.24874256  0.67014759  0.26950666  1
  Ni  Ni174  1  0.42241638  0.85138697  0.71197982  1
  Ni  Ni175  1  -0.01239039  0.01207969  0.48255181  1
  Ni  Ni176  1  0.55104159  0.59511217  0.38137821  1
  Ni  Ni177  1  0.42018074  0.13969978  0.71538900  1
  Ni  Ni178  1  0.24033007  0.81539766  -0.02518113  1
  Ni  Ni179  1  0.28883423  0.52189555  0.81463375  1
  Ni  Ni180  1  0.41591782  0.60445731  0.27894360  1
  Ni  Ni181  1  -0.01371583  0.13673661  0.18916403  1
  Ni  Ni182  1  0.51085278  0.52622807  -0.02341577  1
  Ni  Ni183  1  0.84311835  0.54246457  0.44173302  1
  Ni  Ni184  1  0.41640005  0.04301096  0.07851135  1
  Ni  Ni185  1  0.85396715  0.23282611  0.14956238  1
  Ni  Ni186  1  0.21296251  0.30026547  0.09098328  1
  Ni  Ni187  1  0.35231804  0.13226954  0.22230778  1
  Ni  Ni188  1  0.28234458  0.19882429  0.46298346  1
  Ni  Ni189  1  0.65518501  0.60133188  0.04597251  1
  Ni  Ni190  1  0.14724857  0.20251641  0.65049724  1
  Ni  Ni191  1  0.36251712  0.56370370  0.65334861  1
  Ni  Ni192  1  0.79523360  0.85418767  0.24292839  1
  Ni  Ni193  1  0.47159222  0.95107752  -0.05128515  1
  Ni  Ni194  1  0.33765440  0.25901294  0.79940313  1
  Ni  Ni195  1  0.14490070  0.52982677  -0.06989563  1
  Ni  Ni196  1  0.41800462  0.47292916  0.39926239  1
  Ni  Ni197  1  0.53539498  0.73394429  0.86098799  1
  Ni  Ni198  1  0.71182894  -0.00258668  0.86863331  1
  Ni  Ni199  1  0.19513048  -0.00475571  0.82962365  1
  Ni  Ni200  1  0.60130052  0.79051199  0.20017536  1
  Ni  Ni201  1  0.90942462  0.52490985  0.73258802  1
  Ni  Ni202  1  0.63344840  -0.12281616  -0.04797874  1
  Ni  Ni203  1  0.02428925  0.77858660  0.40651475  1
  Ni  Ni204  1  0.17263072  0.61934680  0.41964777  1
  Ni  Ni205  1  0.29780616  0.42921925  0.16081811  1
  Ni  Ni206  1  0.28512616  0.51111173  0.50095900  1
  Ni  Ni207  1  0.15193462  0.76558906  0.68077622  1
  Ni  Ni208  1  0.10237937  0.18481897  0.04746040  1
  Ni  Ni209  1  0.63846064  0.44016145  0.26662446  1
  Ni  Ni210  1  0.05469466  0.10205469  0.34595853  1
  Ni  Ni211  1  -0.00126939  0.22021281  0.93007287  1
  Ni  Ni212  1  0.44704669  0.71921683  0.16061085  1
  Ni  Ni213  1  0.16922012  0.83648810  0.24798901  1
  Ni  Ni214  1  0.89724195  0.45633265  -0.08301813  1
