# generated using pymatgen
data_Ti108Co54Ni53
_symmetry_space_group_name_H-M   'P 1'
_cell_length_a   14.55247210
_cell_length_b   14.49232539
_cell_length_c   14.52330868
_cell_angle_alpha   90.23940384
_cell_angle_beta   90.00210987
_cell_angle_gamma   90.31535209
_symmetry_Int_Tables_number   1
_chemical_formula_structural   Ti108Co54Ni53
_chemical_formula_sum   'Ti108 Co54 Ni53'
_cell_volume   3062.88047707
_cell_formula_units_Z   1
loop_
 _symmetry_equiv_pos_site_id
 _symmetry_equiv_pos_as_xyz
  1  'x, y, z'
loop_
 _atom_site_type_symbol
 _atom_site_label
 _atom_site_symmetry_multiplicity
 _atom_site_fract_x
 _atom_site_fract_y
 _atom_site_fract_z
 _atom_site_occupancy
  Ti  Ti0  1  0.08158737  0.03303299  0.24229161  1
  Ti  Ti1  1  0.02526924  0.15489089  0.58192111  1
  Ti  Ti2  1  0.05495124  0.14725801  0.91191366  1
  Ti  Ti3  1  0.05896764  0.44650771  0.23918212  1
  Ti  Ti4  1  0.06051414  0.35124770  0.54825381  1
  Ti  Ti5  1  0.07111299  0.35952701  0.93059166  1
  Ti  Ti6  1  0.08027165  0.77269296  0.19875240  1
  Ti  Ti7  1  0.07352780  0.69969851  0.57040990  1
  Ti  Ti8  1  0.04330098  0.75411478  0.98906300  1
  Ti  Ti9  1  0.36446831  0.12100478  0.20960905  1
  Ti  Ti10  1  0.47382834  0.10437733  0.51532796  1
  Ti  Ti11  1  0.46202556  0.11854928  0.89017956  1
  Ti  Ti12  1  0.46016271  0.43940799  0.14270038  1
  Ti  Ti13  1  0.44932901  0.35773666  0.52280864  1
  Ti  Ti14  1  0.45311144  0.34179203  0.92539057  1
  Ti  Ti15  1  0.44373922  0.75920166  0.20729171  1
  Ti  Ti16  1  0.36992885  0.74846426  0.61908233  1
  Ti  Ti17  1  0.46277431  0.70208554  0.92559852  1
  Ti  Ti18  1  0.78687917  0.07218413  0.27797932  1
  Ti  Ti19  1  0.79842378  0.11619351  0.61145539  1
  Ti  Ti20  1  0.74693557  0.07745220  0.94845143  1
  Ti  Ti21  1  0.75669152  0.38435122  0.27419315  1
  Ti  Ti22  1  0.75134558  0.41482188  0.64979195  1
  Ti  Ti23  1  0.73483029  0.43374653  0.85562705  1
  Ti  Ti24  1  0.77870148  0.76435302  0.27536394  1
  Ti  Ti25  1  0.81913165  0.72889469  0.61271467  1
  Ti  Ti26  1  0.64787782  0.74340869  0.88287007  1
  Ti  Ti27  1  0.08244622  0.21546008  0.18789960  1
  Ti  Ti28  1  0.08218834  0.20997619  0.39809949  1
  Ti  Ti29  1  0.12135390  0.27927560  0.73471226  1
  Ti  Ti30  1  0.10435316  0.59966078  0.07343491  1
  Ti  Ti31  1  0.09935631  0.57464255  0.39166484  1
  Ti  Ti32  1  0.12155545  0.62028813  0.75705863  1
  Ti  Ti33  1  0.05988299  0.94667089  0.03801500  1
  Ti  Ti34  1  0.06514046  0.89018809  0.48869277  1
  Ti  Ti35  1  0.07522058  0.87197063  0.69690769  1
  Ti  Ti36  1  0.39121333  0.25034685  0.06533718  1
  Ti  Ti37  1  0.35382885  0.18897644  0.38898575  1
  Ti  Ti38  1  0.42503184  0.31127533  0.73730844  1
  Ti  Ti39  1  0.42714939  0.62191109  0.09242816  1
  Ti  Ti40  1  0.45129616  0.57354367  0.46328110  1
  Ti  Ti41  1  0.46411690  0.53287247  0.81614490  1
  Ti  Ti42  1  0.43183901  0.94823786  0.17975411  1
  Ti  Ti43  1  0.34120795  0.97598432  0.41893435  1
  Ti  Ti44  1  0.42650890  0.94136922  0.61148263  1
  Ti  Ti45  1  0.71682668  0.23239542  0.12564549  1
  Ti  Ti46  1  0.78081686  0.22124975  0.40838906  1
  Ti  Ti47  1  0.79263200  0.21192587  0.79472207  1
  Ti  Ti48  1  0.78307259  0.50508793  0.04382806  1
  Ti  Ti49  1  0.75102785  0.58500478  0.48740772  1
  Ti  Ti50  1  0.71867888  0.58497705  0.69454432  1
  Ti  Ti51  1  0.65567789  0.92512024  0.05393049  1
  Ti  Ti52  1  0.69720952  0.82464774  0.44543351  1
  Ti  Ti53  1  0.74041250  0.88060178  0.74113932  1
  Ti  Ti54  1  0.22736996  0.06296953  0.08360000  1
  Ti  Ti55  1  0.16873190  0.05320745  0.44292353  1
  Ti  Ti56  1  0.36667793  0.11418934  0.69773566  1
  Ti  Ti57  1  0.17169753  0.36434038  0.10284007  1
  Ti  Ti58  1  0.33642557  0.40173789  0.37754227  1
  Ti  Ti59  1  0.27588826  0.42806426  0.69035583  1
  Ti  Ti60  1  0.25908691  0.71288194  0.14745533  1
  Ti  Ti61  1  0.21364538  0.73847484  0.42719577  1
  Ti  Ti62  1  0.29808638  0.71642342  0.80749772  1
  Ti  Ti63  1  0.52040700  0.09046800  0.09673274  1
  Ti  Ti64  1  0.60726875  0.11819702  0.37670721  1
  Ti  Ti65  1  0.58650654  0.11664417  0.70317665  1
  Ti  Ti66  1  0.61824422  0.36942649  0.05299918  1
  Ti  Ti67  1  0.60917853  0.46602747  0.39209139  1
  Ti  Ti68  1  0.58254823  0.42848569  0.71489125  1
  Ti  Ti69  1  0.58468406  0.75221068  0.06335877  1
  Ti  Ti70  1  0.51552332  0.76060444  0.40716360  1
  Ti  Ti71  1  0.54413322  0.84600972  0.72349668  1
  Ti  Ti72  1  0.85746280  -0.01172564  0.08559929  1
  Ti  Ti73  1  0.90112060  0.07199983  0.45608350  1
  Ti  Ti74  1  0.93968559  0.02814959  0.74933724  1
  Ti  Ti75  1  0.97771165  0.44814334  0.07276541  1
  Ti  Ti76  1  0.91939401  0.43462095  0.41906431  1
  Ti  Ti77  1  1.01038591  0.45740016  0.77851466  1
  Ti  Ti78  1  0.88319035  0.76889501  0.07748789  1
  Ti  Ti79  1  0.89945389  0.78798785  0.42789172  1
  Ti  Ti80  1  0.82277435  0.73083615  0.80125477  1
  Ti  Ti81  1  0.20688357  0.30550178  0.29856112  1
  Ti  Ti82  1  0.23748253  0.31109537  0.51897015  1
  Ti  Ti83  1  0.24493036  0.31227751  0.90104968  1
  Ti  Ti84  1  0.34372709  0.56718496  0.26135610  1
  Ti  Ti85  1  0.22041243  0.59053590  0.58235071  1
  Ti  Ti86  1  0.29881578  0.56644057  0.95316242  1
  Ti  Ti87  1  0.28147335  0.84021076  0.28563840  1
  Ti  Ti88  1  0.23435864  0.87938206  0.56963194  1
  Ti  Ti89  1  0.29819341  0.88911681  0.93488080  1
  Ti  Ti90  1  0.54872042  0.22217763  0.22374950  1
  Ti  Ti91  1  0.62992545  0.31780536  0.52485441  1
  Ti  Ti92  1  0.60322396  0.28650868  0.83559735  1
  Ti  Ti93  1  0.53437927  0.60053254  0.26636552  1
  Ti  Ti94  1  0.53140093  0.62471957  0.63906679  1
  Ti  Ti95  1  0.60499854  0.56885500  1.02069818  1
  Ti  Ti96  1  0.60725910  0.83783877  0.24774130  1
  Ti  Ti97  1  0.62892998  0.97843597  0.58305976  1
  Ti  Ti98  1  0.49719062  0.90473084  0.91416864  1
  Ti  Ti99  1  0.89363408  0.23085264  0.18105627  1
  Ti  Ti100  1  0.85334225  0.28727504  0.58707447  1
  Ti  Ti101  1  0.86530998  0.31908374  0.96710539  1
  Ti  Ti102  1  0.89671526  0.60248393  0.33676837  1
  Ti  Ti103  1  0.91482047  0.49893946  0.61432608  1
  Ti  Ti104  1  0.95116882  0.63699312  0.87745495  1
  Ti  Ti105  1  0.92670216  0.89645278  0.23638741  1
  Ti  Ti106  1  0.82253377  0.92674496  0.57019611  1
  Ti  Ti107  1  0.93159621  0.86672676  0.89719191  1
  Co  Co108  1  0.58142553  0.37285198  0.23750893  1
  Co  Co109  1  0.12112537  0.46150673  0.66012206  1
  Co  Co110  1  0.27524904  0.25871727  0.70716414  1
  Co  Co111  1  0.17335835  0.45939172  0.82137877  1
  Co  Co112  1  0.03458007  0.76229624  0.80509103  1
  Co  Co113  1  0.35357966  0.21225201  0.56640593  1
  Co  Co114  1  -0.08071673  0.60666237  0.03460061  1
  Co  Co115  1  0.63757472  0.13224731  0.85214187  1
  Co  Co116  1  0.50778900  0.00131132  0.76928400  1
  Co  Co117  1  0.31172244  0.39581386  0.19152370  1
  Co  Co118  1  0.16571683  0.20742380  0.01528601  1
  Co  Co119  1  0.06009078  0.53793595  0.92424850  1
  Co  Co120  1  0.61580205  0.59087792  0.82182938  1
  Co  Co121  1  0.52256400  0.81318562  0.55582982  1
  Co  Co122  1  0.18769685  0.17619245  0.59198873  1
  Co  Co123  1  0.74356658  0.05891262  0.74324028  1
  Co  Co124  1  0.32979324  0.40748832  0.02702402  1
  Co  Co125  1  0.65359996  0.72257797  0.72019540  1
  Co  Co126  1  -0.04221709  0.80620691  0.58564200  1
  Co  Co127  1  0.90920400  0.86040056  0.72722990  1
  Co  Co128  1  0.75051201  0.54049624  0.32246335  1
  Co  Co129  1  -0.03143602  -0.01306086  0.59090520  1
  Co  Co130  1  0.29549071  0.04924650  0.56312076  1
  Co  Co131  1  0.38660695  0.85596648  0.78633443  1
  Co  Co132  1  0.15539748  -0.08783527  0.16487820  1
  Co  Co133  1  0.75283206  -0.07036710  0.20948495  1
  Co  Co134  1  0.60754576  0.49560086  0.55723526  1
  Co  Co135  1  0.49533542  0.28739785  0.38340067  1
  Co  Co136  1  0.20431308  0.74649917  0.67036923  1
  Co  Co137  1  0.60912185  0.66178083  0.50925345  1
  Co  Co138  1  0.58039515  0.04035637  -0.03264495  1
  Co  Co139  1  0.18276001  0.46997595  -0.01081792  1
  Co  Co140  1  -0.02071713  0.33545191  0.67363613  1
  Co  Co141  1  0.39193812  0.01099551  0.02065198  1
  Co  Co142  1  0.21074582  0.47660998  0.29425810  1
  Co  Co143  1  0.58509862  0.44731489  0.90511223  1
  Co  Co144  1  0.74573328  0.67655517  0.02271586  1
  Co  Co145  1  0.76530470  0.83584166  -0.05058368  1
  Co  Co146  1  -0.06814414  0.73157788  0.23966516  1
  Co  Co147  1  0.26662685  -0.00509081  0.25644989  1
  Co  Co148  1  0.40159312  0.28591775  0.24653007  1
  Co  Co149  1  0.82599942  0.92594968  0.37736033  1
  Co  Co150  1  0.65059989  0.28915010  0.35915565  1
  Co  Co151  1  0.36110293  0.81628720  0.47033866  1
  Co  Co152  1  0.45088309  0.47501255  0.63900079  1
  Co  Co153  1  0.46497159  0.45144551  0.31744306  1
  Co  Co154  1  0.73502846  0.80064030  0.12006576  1
  Co  Co155  1  -0.04141094  0.65310905  0.69132199  1
  Co  Co156  1  0.67269028  -0.04580231  0.35237024  1
  Co  Co157  1  0.44250760  0.88110480  0.32803592  1
  Co  Co158  1  0.17616963  0.80555736  0.03925218  1
  Co  Co159  1  0.45369563  0.50621131  -0.02039413  1
  Co  Co160  1  0.73569971  0.04631631  0.46475745  1
  Co  Co161  1  0.67502385  0.81849987  0.59990420  1
  Ni  Ni162  1  0.85890097  0.53991046  0.76659563  1
  Ni  Ni163  1  0.25398449  0.22684370  0.15329138  1
  Ni  Ni164  1  0.51004612  0.23641233  0.62117257  1
  Ni  Ni165  1  0.31345053  0.73295646  -0.00745953  1
  Ni  Ni166  1  -0.06576968  0.25729677  0.45016951  1
  Ni  Ni167  1  0.86034269  0.37062633  0.77323859  1
  Ni  Ni168  1  0.64578875  0.15766445  0.54429635  1
  Ni  Ni169  1  0.56744622  0.21426291  -0.00186197  1
  Ni  Ni170  1  0.32847020  0.47473108  0.53249975  1
  Ni  Ni171  1  0.13076075  0.01676800  0.60823829  1
  Ni  Ni172  1  0.58856848  0.00935823  0.22886509  1
  Ni  Ni173  1  0.16665849  0.67371766  0.91739649  1
  Ni  Ni174  1  0.47028829  0.70522461  0.76809790  1
  Ni  Ni175  1  0.65439410  0.94558540  0.86311473  1
  Ni  Ni176  1  0.20607184  0.13774085  0.29336705  1
  Ni  Ni177  1  0.30069397  0.88409798  0.10959470  1
  Ni  Ni178  1  0.82123654  -0.02912453  0.85205248  1
  Ni  Ni179  1  0.94095849  0.18567423  0.71411107  1
  Ni  Ni180  1  -0.00869506  -0.02215112  0.36679832  1
  Ni  Ni181  1  0.45983507  0.05555812  0.32854725  1
  Ni  Ni182  1  0.66414250  0.49972038  0.17703013  1
  Ni  Ni183  1  0.10150245  0.39873451  0.39857136  1
  Ni  Ni184  1  0.33511231  0.19808558  0.84552620  1
  Ni  Ni185  1  0.72155361  0.25128515  -0.04860693  1
  Ni  Ni186  1  0.00631837  0.25591432  0.04364612  1
  Ni  Ni187  1  0.43692311  0.83191026  0.04876874  1
  Ni  Ni188  1  0.77163356  0.59124127  0.89434648  1
  Ni  Ni189  1  0.00365436  0.09512212  0.09130779  1
  Ni  Ni190  1  0.12453371  0.88586870  0.33079275  1
  Ni  Ni191  1  -0.02807794  0.27423943  0.83921814  1
  Ni  Ni192  1  0.36850774  0.70196687  0.35055821  1
  Ni  Ni193  1  0.82798554  0.37451046  0.12887519  1
  Ni  Ni194  1  0.04929892  0.51931107  0.52971001  1
  Ni  Ni195  1  0.67124754  0.26692108  0.68189572  1
  Ni  Ni196  1  0.70363911  0.07107679  0.12524440  1
  Ni  Ni197  1  0.33620362  0.44154337  0.85035313  1
  Ni  Ni198  1  0.35108637  0.59646226  0.69119835  1
  Ni  Ni199  1  0.14547784  0.62146652  0.24220950  1
  Ni  Ni200  1  0.94861298  0.14750746  0.31208484  1
  Ni  Ni201  1  0.76216979  0.41154394  0.46479979  1
  Ni  Ni202  1  0.90355869  0.47527465  -0.08211536  1
  Ni  Ni203  1  0.24902886  0.53139294  0.12868605  1
  Ni  Ni204  1  -0.02671117  0.31958727  0.30395545  1
  Ni  Ni205  1  0.53415358  -0.04947280  0.44578547  1
  Ni  Ni206  1  0.65857086  0.66762585  0.18580673  1
  Ni  Ni207  1  0.27586079  0.58068051  0.41857641  1
  Ni  Ni208  1  -0.06221464  0.03524734  -0.05753246  1
  Ni  Ni209  1  -0.02311432  0.58230696  0.19071345  1
  Ni  Ni210  1  0.04499252  0.73198819  0.37401686  1
  Ni  Ni211  1  0.66183007  0.67553399  0.35621853  1
  Ni  Ni212  1  0.81419795  0.61226791  0.17255335  1
  Ni  Ni213  1  0.92636148  0.63382205  0.50669456  1
  Ni  Ni214  1  0.86519897  0.16096482  0.02666347  1
