# generated using pymatgen
data_Ti108Co54Ni53
_symmetry_space_group_name_H-M   'P 1'
_cell_length_a   14.66507216
_cell_length_b   14.62819414
_cell_length_c   14.66122522
_cell_angle_alpha   89.98887061
_cell_angle_beta   90.14326519
_cell_angle_gamma   90.13077139
_symmetry_Int_Tables_number   1
_chemical_formula_structural   Ti108Co54Ni53
_chemical_formula_sum   'Ti108 Co54 Ni53'
_cell_volume   3145.15960211
_cell_formula_units_Z   1
loop_
 _symmetry_equiv_pos_site_id
 _symmetry_equiv_pos_as_xyz
  1  'x, y, z'
loop_
 _atom_site_type_symbol
 _atom_site_label
 _atom_site_symmetry_multiplicity
 _atom_site_fract_x
 _atom_site_fract_y
 _atom_site_fract_z
 _atom_site_occupancy
  Ti  Ti0  1  0.09405267  0.01306096  0.23809892  1
  Ti  Ti1  1  0.12607713  0.11107725  0.55052647  1
  Ti  Ti2  1  0.13267808  0.05915163  0.93098520  1
  Ti  Ti3  1  0.05074239  0.40054756  0.30143027  1
  Ti  Ti4  1  0.11962973  0.42358427  0.61295863  1
  Ti  Ti5  1  0.03853618  0.43679028  0.92239574  1
  Ti  Ti6  1  0.09389959  0.69712590  0.29479084  1
  Ti  Ti7  1  -0.01078504  0.70284759  0.58423650  1
  Ti  Ti8  1  0.11632693  0.73645064  0.96635242  1
  Ti  Ti9  1  0.39521784  0.07280943  0.21143450  1
  Ti  Ti10  1  0.36669282  0.07922126  0.59469530  1
  Ti  Ti11  1  0.47463014  0.07912443  0.88456537  1
  Ti  Ti12  1  0.44151337  0.37490412  0.23341008  1
  Ti  Ti13  1  0.42714022  0.38374334  0.63936744  1
  Ti  Ti14  1  0.45526229  0.42698121  0.98025739  1
  Ti  Ti15  1  0.43999088  0.77358836  0.21116424  1
  Ti  Ti16  1  0.45446678  0.81548515  0.52082584  1
  Ti  Ti17  1  0.46248909  0.77783104  0.98552347  1
  Ti  Ti18  1  0.74680918  0.14965190  0.25002332  1
  Ti  Ti19  1  0.77902534  0.09386686  0.55367430  1
  Ti  Ti20  1  0.75048988  0.04346657  0.85445810  1
  Ti  Ti21  1  0.72392499  0.46856282  0.31569255  1
  Ti  Ti22  1  0.69646237  0.43605944  0.51197900  1
  Ti  Ti23  1  0.62406722  0.42148515  0.88046762  1
  Ti  Ti24  1  0.79432320  0.82213292  0.20611075  1
  Ti  Ti25  1  0.78648002  0.71944304  0.61528039  1
  Ti  Ti26  1  0.76619300  0.75941188  0.88342662  1
  Ti  Ti27  1  0.11420793  0.26808868  0.07663932  1
  Ti  Ti28  1  0.08533407  0.18916293  0.37162529  1
  Ti  Ti29  1  0.08746365  0.31023124  0.78469200  1
  Ti  Ti30  1  0.01109002  0.57434964  0.04037211  1
  Ti  Ti31  1  -0.00212192  0.59424194  0.41197754  1
  Ti  Ti32  1  0.12627657  0.63610405  0.71505631  1
  Ti  Ti33  1  0.05475573  0.91282292  0.07815762  1
  Ti  Ti34  1  0.03862857  1.00410312  0.41692928  1
  Ti  Ti35  1  0.03516232  0.94936308  0.77929928  1
  Ti  Ti36  1  0.38170045  0.20897116  -0.01256866  1
  Ti  Ti37  1  0.40034202  0.30288874  0.44376065  1
  Ti  Ti38  1  0.45947169  0.23434641  0.74685366  1
  Ti  Ti39  1  0.39916154  0.60032636  0.03372623  1
  Ti  Ti40  1  0.42046435  0.50325871  0.46047617  1
  Ti  Ti41  1  0.44151586  0.57231581  0.70347531  1
  Ti  Ti42  1  0.44304224  0.97888486  0.03996156  1
  Ti  Ti43  1  0.39429584  0.92288649  0.36067487  1
  Ti  Ti44  1  0.35288336  0.88199728  0.70794430  1
  Ti  Ti45  1  0.81271733  0.27459335  0.09658470  1
  Ti  Ti46  1  0.78527139  0.27944321  0.49654307  1
  Ti  Ti47  1  0.73963310  0.24406546  0.78612503  1
  Ti  Ti48  1  0.80648382  0.61264762  0.03076355  1
  Ti  Ti49  1  0.68394814  0.61188383  0.45979105  1
  Ti  Ti50  1  0.78731432  0.55731453  0.75625894  1
  Ti  Ti51  1  0.80227667  0.94708859  0.01490428  1
  Ti  Ti52  1  0.73720800  0.99628873  0.39310860  1
  Ti  Ti53  1  0.73414077  0.87028483  0.72434247  1
  Ti  Ti54  1  0.24217428  0.00535653  0.08770234  1
  Ti  Ti55  1  0.23286802  0.02886749  0.41637705  1
  Ti  Ti56  1  0.21042760  0.11986223  0.74582653  1
  Ti  Ti57  1  0.28820954  0.36367817  0.06251816  1
  Ti  Ti58  1  0.21684896  0.39665876  0.41393329  1
  Ti  Ti59  1  0.27044807  0.45945764  0.75335794  1
  Ti  Ti60  1  0.28810763  0.74036028  0.07856940  1
  Ti  Ti61  1  0.24186059  0.77464910  0.57225516  1
  Ti  Ti62  1  0.21516432  0.78673595  0.78965943  1
  Ti  Ti63  1  0.62701000  0.02886900  0.11826092  1
  Ti  Ti64  1  0.54799831  0.07623002  0.35812810  1
  Ti  Ti65  1  0.57679953  -0.01022599  0.76459089  1
  Ti  Ti66  1  0.64929341  0.39848287  0.07070596  1
  Ti  Ti67  1  0.60146933  0.30114871  0.37455976  1
  Ti  Ti68  1  0.61070329  0.41800640  0.69305279  1
  Ti  Ti69  1  0.66755747  0.75881681  0.05478865  1
  Ti  Ti70  1  0.65056890  0.79798015  0.45017853  1
  Ti  Ti71  1  0.52979263  0.79668248  0.73443068  1
  Ti  Ti72  1  0.93099472  0.08217722  0.10684343  1
  Ti  Ti73  1  0.88590566  0.13713793  0.41275962  1
  Ti  Ti74  1  0.90406605  0.09853659  0.74040812  1
  Ti  Ti75  1  0.98006861  0.39692867  0.11676779  1
  Ti  Ti76  1  0.88426376  0.42982247  0.39062958  1
  Ti  Ti77  1  0.92160367  0.41286478  0.72540491  1
  Ti  Ti78  1  0.96205206  0.73109553  0.13283501  1
  Ti  Ti79  1  0.98377400  0.81450248  0.42003844  1
  Ti  Ti80  1  0.91720448  0.69891859  0.77931022  1
  Ti  Ti81  1  0.23237643  0.16298033  0.24292082  1
  Ti  Ti82  1  0.27213503  0.25399811  0.57545809  1
  Ti  Ti83  1  0.20681476  0.23639831  0.90951717  1
  Ti  Ti84  1  0.21757540  0.55797764  0.16628640  1
  Ti  Ti85  1  0.26955712  0.58511606  0.58817667  1
  Ti  Ti86  1  0.19918155  0.56826689  0.94238899  1
  Ti  Ti87  1  0.19930506  0.84082012  0.20324363  1
  Ti  Ti88  1  0.19383909  0.96053629  0.63959630  1
  Ti  Ti89  1  0.29782424  0.88163468  0.93980940  1
  Ti  Ti90  1  0.56083844  0.20692256  0.20571735  1
  Ti  Ti91  1  0.63292217  0.23322512  0.61358454  1
  Ti  Ti92  1  0.56760014  0.24288034  0.93133004  1
  Ti  Ti93  1  0.57367262  0.60849949  0.28036170  1
  Ti  Ti94  1  0.56559732  0.67953763  0.59919654  1
  Ti  Ti95  1  0.59509734  0.59657644  0.97432433  1
  Ti  Ti96  1  0.64129271  0.90032525  0.27763782  1
  Ti  Ti97  1  0.62803088  0.96293705  0.57064631  1
  Ti  Ti98  1  0.61562625  0.91281753  0.94457628  1
  Ti  Ti99  1  0.91843542  0.26309400  0.25919134  1
  Ti  Ti100  1  0.97892815  0.24202794  0.59867935  1
  Ti  Ti101  1  0.88322352  0.17091944  0.93328091  1
  Ti  Ti102  1  0.89673491  0.55655190  0.22080476  1
  Ti  Ti103  1  0.86469803  0.54489621  0.56276149  1
  Ti  Ti104  1  0.86427464  0.38179856  0.92982504  1
  Ti  Ti105  1  0.90505229  0.94187908  0.28862755  1
  Ti  Ti106  1  0.99385324  0.93048207  0.58817717  1
  Ti  Ti107  1  0.95033547  0.84932850  0.92959431  1
  Co  Co108  1  0.82369440  0.22773304  0.65078178  1
  Co  Co109  1  0.83073127  0.58416407  0.38300466  1
  Co  Co110  1  0.34195883  0.51095565  0.88845861  1
  Co  Co111  1  0.53151421  0.51735616  0.11807183  1
  Co  Co112  1  0.25859525  -0.01359771  0.26228622  1
  Co  Co113  1  0.51773321  0.79701552  0.35302784  1
  Co  Co114  1  0.47860235  0.94543420  0.64117481  1
  Co  Co115  1  0.38327754  0.03885710  0.75329838  1
  Co  Co116  1  0.78254349  0.29320047  0.34091807  1
  Co  Co117  1  0.05671681  0.54331299  0.19992026  1
  Co  Co118  1  0.52261849  0.64724575  0.43858696  1
  Co  Co119  1  -0.02824832  0.56564602  0.69779998  1
  Co  Co120  1  0.33851344  0.17685628  0.82653288  1
  Co  Co121  1  0.39171127  0.76561352  0.81838260  1
  Co  Co122  1  0.02067438  0.84385998  0.23306989  1
  Co  Co123  1  0.60001614  0.15705198  0.79186277  1
  Co  Co124  1  0.38742229  0.71946305  0.65043994  1
  Co  Co125  1  0.05223975  0.77848036  0.81164683  1
  Co  Co126  1  0.91111078  0.83088453  0.68939187  1
  Co  Co127  1  0.71123414  0.51191968  0.15922856  1
  Co  Co128  1  0.29830913  0.69495938  -0.07613719  1
  Co  Co129  1  0.11508948  0.72906260  0.47427300  1
  Co  Co130  1  -0.06552266  0.68915689  -0.04823822  1
  Co  Co131  1  0.73270944  0.71107975  0.33922727  1
  Co  Co132  1  0.14115138  -0.10593510  0.50563137  1
  Co  Co133  1  0.80585889  0.84583078  0.38042194  1
  Co  Co134  1  0.84257394  0.40059357  0.21634856  1
  Co  Co135  1  0.76454852  0.38674861  0.65046360  1
  Co  Co136  1  0.13246882  0.23625986  0.65662266  1
  Co  Co137  1  0.50597057  0.13154296  0.06472517  1
  Co  Co138  1  0.73496528  0.53821955  -0.09153031  1
  Co  Co139  1  0.65343883  0.21428703  0.07853599  1
  Co  Co140  1  0.63126702  0.07784633  -0.04601106  1
  Co  Co141  1  0.30107665  0.05969511  -0.06564833  1
  Co  Co142  1  0.58474315  0.43657266  0.24400838  1
  Co  Co143  1  0.52634533  0.68195069  0.11094692  1
  Co  Co144  1  0.69518117  0.15680905  0.41410686  1
  Co  Co145  1  0.88405172  -0.02918634  0.46833662  1
  Co  Co146  1  0.85659545  -0.07732827  0.82191204  1
  Co  Co147  1  0.35481520  0.33814383  -0.12165377  1
  Co  Co148  1  0.09859308  0.57583986  0.55103721  1
  Co  Co149  1  -0.05067607  0.08648259  0.56961633  1
  Co  Co150  1  0.04137878  0.44597805  0.46835712  1
  Co  Co151  1  0.85377566  0.71307964  0.46998954  1
  Co  Co152  1  0.24498355  0.16868649  0.06271175  1
  Co  Co153  1  0.35434490  0.89454104  0.14327643  1
  Co  Co154  1  0.56878184  0.47713715  0.40260271  1
  Co  Co155  1  0.69452651  0.31932628  0.20905338  1
  Co  Co156  1  0.89881817  0.53882368  0.88057998  1
  Co  Co157  1  0.76512681  0.40394041  0.81048365  1
  Co  Co158  1  0.24221745  0.20607684  0.42031090  1
  Co  Co159  1  0.83890375  0.46257780  0.06241914  1
  Co  Co160  1  0.13583490  0.87353539  0.34732508  1
  Co  Co161  1  0.04899162  0.61148922  0.86426528  1
  Ni  Ni162  1  0.90165192  0.38513354  0.55712689  1
  Ni  Ni163  1  -0.07643295  0.26075285  0.79349857  1
  Ni  Ni164  1  0.04556417  0.14534182  0.81817746  1
  Ni  Ni165  1  -0.04615584  0.02317926  -0.08382695  1
  Ni  Ni166  1  0.29461624  0.42665221  0.56186482  1
  Ni  Ni167  1  0.70645673  0.07878459  0.69551359  1
  Ni  Ni168  1  0.15368548  0.53291311  0.33180173  1
  Ni  Ni169  1  0.12410177  0.89393533  -0.08275865  1
  Ni  Ni170  1  0.55419042  0.86250461  0.10887252  1
  Ni  Ni171  1  0.37907556  0.10828449  0.42201437  1
  Ni  Ni172  1  0.68014789  0.70380934  0.74398818  1
  Ni  Ni173  1  0.46201361  0.62418744  0.86997890  1
  Ni  Ni174  1  0.37112341  0.22993382  0.15879413  1
  Ni  Ni175  1  0.78366390  -0.00229871  0.18473335  1
  Ni  Ni176  1  0.48107961  0.00035901  0.49145227  1
  Ni  Ni177  1  0.68840911  0.56770697  0.63037364  1
  Ni  Ni178  1  0.43679018  0.21169903  0.31392075  1
  Ni  Ni179  1  0.52234170  0.18037277  0.49113832  1
  Ni  Ni180  1  0.13717949  0.44869876  0.06182574  1
  Ni  Ni181  1  0.76931139  0.66063173  0.18989335  1
  Ni  Ni182  1  0.12745290  0.69576479  0.12783049  1
  Ni  Ni183  1  0.01530102  0.26797607  -0.06014741  1
  Ni  Ni184  1  0.52909019  0.10372820  0.64483756  1
  Ni  Ni185  1  -0.15882324  -0.02335969  0.65541063  1
  Ni  Ni186  1  0.26863806  0.29622355  0.73845817  1
  Ni  Ni187  1  0.06197243  0.19466763  0.21011605  1
  Ni  Ni188  1  0.77243466  0.10945563  0.05177026  1
  Ni  Ni189  1  0.29713049  0.30648547  0.29630474  1
  Ni  Ni190  1  0.59703995  0.56756010  0.78532069  1
  Ni  Ni191  1  0.29585125  0.63365796  0.76519274  1
  Ni  Ni192  1  0.09491429  0.09349744  0.08562112  1
  Ni  Ni193  1  0.32641308  0.92789657  0.52392657  1
  Ni  Ni194  1  0.47207343  0.43925693  0.80472453  1
  Ni  Ni195  1  -0.09505970  0.72196933  0.29977733  1
  Ni  Ni196  1  0.83453415  0.78728897  0.04284748  1
  Ni  Ni197  1  -0.03683844  0.29209688  0.43097394  1
  Ni  Ni198  1  0.10137385  0.48007744  0.77566474  1
  Ni  Ni199  1  0.36794345  0.48525207  0.14337277  1
  Ni  Ni200  1  0.18409719  0.39324993  0.20900215  1
  Ni  Ni201  1  0.54611872  0.51597746  0.56400667  1
  Ni  Ni202  1  0.62716482  0.75119607  0.22020564  1
  Ni  Ni203  1  0.54465765  0.35153785  0.52468885  1
  Ni  Ni204  1  0.11631308  0.29033263  0.49881481  1
  Ni  Ni205  1  0.22949528  -0.03504859  0.80786292  1
  Ni  Ni206  1  -0.05837935  0.09745804  0.26823984  1
  Ni  Ni207  1  0.09566482  0.81158805  0.65557903  1
  Ni  Ni208  1  0.77658602  0.87158742  0.54640792  1
  Ni  Ni209  1  0.20446675  0.40320223  0.90510564  1
  Ni  Ni210  1  0.49881210  0.30171258  0.08092186  1
  Ni  Ni211  1  0.59309815  0.74874185  0.88088328  1
  Ni  Ni212  1  0.72820322  0.28636070  -0.05172932  1
  Ni  Ni213  1  0.46046649  -0.09130971  0.86676208  1
  Ni  Ni214  1  0.49468703  -0.05299355  0.23206246  1
