# generated using pymatgen
data_Ti108Co54Ni53
_symmetry_space_group_name_H-M   'P 1'
_cell_length_a   14.54873745
_cell_length_b   14.61789623
_cell_length_c   14.63455062
_cell_angle_alpha   90.14840762
_cell_angle_beta   89.74380486
_cell_angle_gamma   90.21211120
_symmetry_Int_Tables_number   1
_chemical_formula_structural   Ti108Co54Ni53
_chemical_formula_sum   'Ti108 Co54 Ni53'
_cell_volume   3112.29543813
_cell_formula_units_Z   1
loop_
 _symmetry_equiv_pos_site_id
 _symmetry_equiv_pos_as_xyz
  1  'x, y, z'
loop_
 _atom_site_type_symbol
 _atom_site_label
 _atom_site_symmetry_multiplicity
 _atom_site_fract_x
 _atom_site_fract_y
 _atom_site_fract_z
 _atom_site_occupancy
  Ti  Ti0  1  0.07387783  0.01188278  0.28141449  1
  Ti  Ti1  1  0.18530763  0.05158851  0.58936834  1
  Ti  Ti2  1  0.07997485  0.07680970  0.88016845  1
  Ti  Ti3  1  0.11611583  0.42241733  0.28210019  1
  Ti  Ti4  1  0.09454631  0.35291131  0.53482729  1
  Ti  Ti5  1  0.12949763  0.42789519  0.87362079  1
  Ti  Ti6  1  0.08253970  0.82305138  0.20248451  1
  Ti  Ti7  1  0.12591486  0.74055885  0.56790557  1
  Ti  Ti8  1  0.07079255  0.70833011  1.03240979  1
  Ti  Ti9  1  0.37365250  0.03537546  0.28146217  1
  Ti  Ti10  1  0.48719113  0.02877223  0.57317530  1
  Ti  Ti11  1  0.36921000  0.14073066  0.90767750  1
  Ti  Ti12  1  0.39435999  0.45498884  0.17963296  1
  Ti  Ti13  1  0.44060800  0.33681013  0.57389355  1
  Ti  Ti14  1  0.30496303  0.43778884  0.97931221  1
  Ti  Ti15  1  0.44498087  0.72129930  0.31401124  1
  Ti  Ti16  1  0.41057411  0.83003949  0.61119394  1
  Ti  Ti17  1  0.37149467  0.79093429  0.94991818  1
  Ti  Ti18  1  0.70581161  0.09068873  0.18790736  1
  Ti  Ti19  1  0.70040021  0.12135922  0.64235946  1
  Ti  Ti20  1  0.68853613  0.10370578  0.88031052  1
  Ti  Ti21  1  0.73838072  0.48044853  0.23387340  1
  Ti  Ti22  1  0.69464925  0.48457424  0.57767180  1
  Ti  Ti23  1  0.75905778  0.35823827  0.92197735  1
  Ti  Ti24  1  0.74690921  0.81055569  0.21772366  1
  Ti  Ti25  1  0.74508731  0.80948904  0.65901966  1
  Ti  Ti26  1  0.82798447  0.69498253  0.93514941  1
  Ti  Ti27  1  0.12359342  0.33825315  0.07871035  1
  Ti  Ti28  1  0.10477701  0.17792009  0.42025310  1
  Ti  Ti29  1  0.12008172  0.26686314  0.75072690  1
  Ti  Ti30  1  0.02703822  0.52932225  0.12631789  1
  Ti  Ti31  1  0.04410437  0.57068548  0.42306330  1
  Ti  Ti32  1  0.07440418  0.57839623  0.74831762  1
  Ti  Ti33  1  0.08265672  0.93025334  0.02499843  1
  Ti  Ti34  1  0.05469484  0.90828851  0.53765719  1
  Ti  Ti35  1  0.05525236  0.91931187  0.72346572  1
  Ti  Ti36  1  0.42229523  0.28265518  0.06962506  1
  Ti  Ti37  1  0.43291813  0.24857164  0.39880583  1
  Ti  Ti38  1  0.44846536  0.25782232  0.75568827  1
  Ti  Ti39  1  0.40374094  0.60713081  0.01391024  1
  Ti  Ti40  1  0.46512797  0.49706846  0.45204154  1
  Ti  Ti41  1  0.39908941  0.63643942  0.74229374  1
  Ti  Ti42  1  0.37861092  0.95922535  0.10688873  1
  Ti  Ti43  1  0.43798274  0.89516097  0.40998395  1
  Ti  Ti44  1  0.37660372  0.95035443  0.78031014  1
  Ti  Ti45  1  0.69244648  0.25270911  0.07684232  1
  Ti  Ti46  1  0.71946514  0.22136840  0.48017673  1
  Ti  Ti47  1  0.80338138  0.21087873  0.78101138  1
  Ti  Ti48  1  0.76635265  0.63798867  0.11675718  1
  Ti  Ti49  1  0.76693711  0.61967498  0.42748815  1
  Ti  Ti50  1  0.74860210  0.54082554  0.79756268  1
  Ti  Ti51  1  0.70170396  0.84764080  0.03478927  1
  Ti  Ti52  1  0.78303894  0.88553423  0.41272514  1
  Ti  Ti53  1  0.74166471  0.94329213  0.80182043  1
  Ti  Ti54  1  0.26061370  0.12323325  0.09926243  1
  Ti  Ti55  1  0.29566176  0.09543217  0.43705660  1
  Ti  Ti56  1  0.25989103  0.12696331  0.74550438  1
  Ti  Ti57  1  0.20825228  0.53021255  0.10104430  1
  Ti  Ti58  1  0.26345621  0.46148127  0.46840295  1
  Ti  Ti59  1  0.33284199  0.44371378  0.75820016  1
  Ti  Ti60  1  0.23126125  0.82414920  0.08913720  1
  Ti  Ti61  1  0.17185633  0.71970924  0.36549096  1
  Ti  Ti62  1  0.24445903  0.77818840  0.76340570  1
  Ti  Ti63  1  0.59687722  0.02954978  0.03244085  1
  Ti  Ti64  1  0.65286690  0.07224875  0.38975876  1
  Ti  Ti65  1  0.56807390  0.02925980  0.74134054  1
  Ti  Ti66  1  0.58533654  0.40222975  0.15046392  1
  Ti  Ti67  1  0.65005110  0.46645385  0.39476320  1
  Ti  Ti68  1  0.57565797  0.39246504  0.82306540  1
  Ti  Ti69  1  0.54290583  0.72564611  0.06750454  1
  Ti  Ti70  1  0.62756967  0.76287431  0.38446178  1
  Ti  Ti71  1  0.58172320  0.73438890  0.74562490  1
  Ti  Ti72  1  0.90371472  0.04818423  0.02728366  1
  Ti  Ti73  1  0.88360961  0.10533473  0.43017801  1
  Ti  Ti74  1  0.92198030  0.06297518  0.73138656  1
  Ti  Ti75  1  0.84684475  0.43195793  0.08874755  1
  Ti  Ti76  1  0.92637938  0.45988351  0.52628992  1
  Ti  Ti77  1  0.99887315  0.40910345  0.69958374  1
  Ti  Ti78  1  0.90277575  0.83316787  0.06604829  1
  Ti  Ti79  1  0.94979505  0.75652741  0.45717261  1
  Ti  Ti80  1  0.88241485  0.71706313  0.75258582  1
  Ti  Ti81  1  0.27879805  0.25261450  0.26005221  1
  Ti  Ti82  1  0.25653391  0.26266427  0.53757240  1
  Ti  Ti83  1  0.27492444  0.29422188  0.86048796  1
  Ti  Ti84  1  0.28927071  0.66136176  0.21653950  1
  Ti  Ti85  1  0.23615590  0.58758513  0.64954188  1
  Ti  Ti86  1  0.25869354  0.60260228  0.88426791  1
  Ti  Ti87  1  0.28922245  0.85037882  0.26719912  1
  Ti  Ti88  1  0.25232482  0.89392282  0.48802869  1
  Ti  Ti89  1  0.25304575  0.97993906  0.94537299  1
  Ti  Ti90  1  0.61431188  0.26939369  0.29856825  1
  Ti  Ti91  1  0.62501393  0.31761099  0.63020605  1
  Ti  Ti92  1  0.55151681  0.21695590  0.93885645  1
  Ti  Ti93  1  0.55485396  0.57296459  0.27469872  1
  Ti  Ti94  1  0.53167421  0.59547243  0.60924673  1
  Ti  Ti95  1  0.60344656  0.53321655  0.95424872  1
  Ti  Ti96  1  0.60975589  0.93043119  0.26985818  1
  Ti  Ti97  1  0.61184761  0.90076305  0.50876988  1
  Ti  Ti98  1  0.56415905  0.87082642  0.89090274  1
  Ti  Ti99  1  0.89155082  0.33874676  0.28941273  1
  Ti  Ti100  1  0.83796413  0.29931961  0.61782269  1
  Ti  Ti101  1  0.95325674  0.23512314  0.89815222  1
  Ti  Ti102  1  0.91004514  0.55988868  0.27098598  1
  Ti  Ti103  1  0.84878303  0.62192063  0.59853086  1
  Ti  Ti104  1  0.92539762  0.48777538  0.90475781  1
  Ti  Ti105  1  0.91533268  0.86880996  0.27337819  1
  Ti  Ti106  1  0.86980277  0.94700902  0.58708688  1
  Ti  Ti107  1  1.00721560  0.81042331  0.88284939  1
  Co  Co108  1  0.75270231  0.03243961  0.50663681  1
  Co  Co109  1  0.25134453  0.38661028  0.16985316  1
  Co  Co110  1  0.11870529  0.20039808  0.60219586  1
  Co  Co111  1  0.00794871  0.06442153  0.56769754  1
  Co  Co112  1  0.25233821  0.67430185  0.03750058  1
  Co  Co113  1  0.29944673  0.28891824  0.68848608  1
  Co  Co114  1  -0.01289064  0.37475297  -0.00452122  1
  Co  Co115  1  -0.08673586  0.55103971  0.74977114  1
  Co  Co116  1  0.52235257  0.02534436  0.17414762  1
  Co  Co117  1  0.79779468  -0.04682539  0.14536364  1
  Co  Co118  1  -0.06445370  0.79490454  0.61215529  1
  Co  Co119  1  0.60073431  0.36063233  -0.01070389  1
  Co  Co120  1  0.41829299  0.09972036  0.72902416  1
  Co  Co121  1  0.19085006  0.61544986  0.48818663  1
  Co  Co122  1  0.44332842  0.09999731  0.03626403  1
  Co  Co123  1  0.82470356  0.45464711  0.66368393  1
  Co  Co124  1  0.43084934  0.33646883  0.90779727  1
  Co  Co125  1  0.78706714  0.00096272  0.30340557  1
  Co  Co126  1  0.58353803  0.76397981  0.21720399  1
  Co  Co127  1  -0.03098355  -0.03670231  -0.10797291  1
  Co  Co128  1  0.21115822  0.10829725  0.27595725  1
  Co  Co129  1  0.68312781  -0.03899785  0.63725189  1
  Co  Co130  1  0.55761818  0.18598879  0.48546975  1
  Co  Co131  1  0.85335902  0.13546584  0.59814597  1
  Co  Co132  1  0.39854578  0.14800182  0.17954270  1
  Co  Co133  1  0.34766259  0.61040934  0.46098619  1
  Co  Co134  1  0.97286393  0.64543559  0.87610818  1
  Co  Co135  1  0.19796964  0.31677660  0.39139486  1
  Co  Co136  1  0.10839458  0.27447473  0.92590683  1
  Co  Co137  1  0.00638156  0.63751434  0.60300668  1
  Co  Co138  1  0.38203077  0.55054877  0.31478077  1
  Co  Co139  1  0.60249111  0.57080964  0.11805753  1
  Co  Co140  1  0.85220140  0.06929609  0.87280896  1
  Co  Co141  1  0.53968860  0.17736574  0.64158130  1
  Co  Co142  1  0.54767209  0.87882823  0.68456703  1
  Co  Co143  1  0.45663255  0.28835664  0.23173704  1
  Co  Co144  1  0.78339093  0.76063664  0.51040425  1
  Co  Co145  1  0.55570750  0.18839141  0.12897412  1
  Co  Co146  1  0.57995454  0.34373912  0.46928156  1
  Co  Co147  1  0.21189979  0.87588675  0.64408261  1
  Co  Co148  1  0.29529067  0.72217696  0.58386259  1
  Co  Co149  1  0.38558309  0.77106457  0.12172755  1
  Co  Co150  1  0.69792235  0.63594627  0.67425779  1
  Co  Co151  1  0.72308311  0.36510103  0.75468186  1
  Co  Co152  1  0.53128448  0.88409964  0.08065737  1
  Co  Co153  1  0.89418487  0.88183159  0.75469935  1
  Co  Co154  1  0.22854624  -0.03422271  0.34265289  1
  Co  Co155  1  0.33434484  -0.00580114  0.62009754  1
  Co  Co156  1  -0.03332398  0.22632350  0.70165312  1
  Co  Co157  1  0.75562267  -0.00594038  -0.01085308  1
  Co  Co158  1  0.11673266  0.02152982  0.43898070  1
  Co  Co159  1  0.26616640  0.28441471  0.02626794  1
  Co  Co160  1  0.76978869  0.53268877  -0.02370770  1
  Co  Co161  1  0.74906492  0.31778329  0.20501395  1
  Ni  Ni162  1  0.37591296  0.51470541  0.59954635  1
  Ni  Ni163  1  0.84439281  0.71864470  0.31970348  1
  Ni  Ni164  1  0.88195776  0.35718206  0.79737683  1
  Ni  Ni165  1  0.20853756  0.15105683  -0.05676531  1
  Ni  Ni166  1  0.17623095  0.41996330  0.69572984  1
  Ni  Ni167  1  0.87148553  0.31233929  0.45519675  1
  Ni  Ni168  1  0.47153270  0.45306043  0.02505556  1
  Ni  Ni169  1  0.44418748  0.62153152  0.16999871  1
  Ni  Ni170  1  -0.02369610  0.96241994  0.15070798  1
  Ni  Ni171  1  -0.02287459  0.22392155  0.52806957  1
  Ni  Ni172  1  0.44062798  0.52045852  0.86660125  1
  Ni  Ni173  1  0.20335357  -0.02970343  0.78223077  1
  Ni  Ni174  1  0.83485382  0.47081887  0.39357748  1
  Ni  Ni175  1  0.74177834  0.33894430  0.36858581  1
  Ni  Ni176  1  0.34005539  0.39035697  0.33472040  1
  Ni  Ni177  1  0.12753099  0.68832813  0.86177364  1
  Ni  Ni178  1  -0.08390063  0.60131302  0.03520480  1
  Ni  Ni179  1  0.62632124  0.22434821  0.77887662  1
  Ni  Ni180  1  0.20975579  0.55227800  0.32695417  1
  Ni  Ni181  1  0.59446497  0.61365496  0.45413607  1
  Ni  Ni182  1  0.51360468  0.06016831  0.88406394  1
  Ni  Ni183  1  0.02604742  0.32663231  0.39108058  1
  Ni  Ni184  1  0.38451642  0.16656179  0.57740204  1
  Ni  Ni185  1  0.50812868  0.68339531  0.89219279  1
  Ni  Ni186  1  0.47882754  0.05465553  0.41341803  1
  Ni  Ni187  1  0.01019104  0.70399713  0.30992049  1
  Ni  Ni188  1  0.80039671  0.17717381  -0.02026610  1
  Ni  Ni189  1  0.49316125  0.44751443  0.69150938  1
  Ni  Ni190  1  0.08328659  0.55196949  -0.03436741  1
  Ni  Ni191  1  0.32428382  0.76386863  0.42225885  1
  Ni  Ni192  1  0.93251937  0.70337003  0.16710368  1
  Ni  Ni193  1  0.09894348  0.51088284  0.57671530  1
  Ni  Ni194  1  -0.04643742  -0.04352093  0.41052272  1
  Ni  Ni195  1  0.62123596  0.74053737  0.56300246  1
  Ni  Ni196  1  0.19772246  -0.02363243  0.16307819  1
  Ni  Ni197  1  0.66782909  0.68161071  -0.03201406  1
  Ni  Ni198  1  0.52844650  0.13719085  0.28686830  1
  Ni  Ni199  1  0.69859398  0.64765160  0.27244117  1
  Ni  Ni200  1  0.12332116  0.65833011  0.19263397  1
  Ni  Ni201  1  0.78490231  0.18046304  0.31263556  1
  Ni  Ni202  1  0.08737433  0.09333723  0.71794510  1
  Ni  Ni203  1  0.42369573  -0.05067865  -0.04830502  1
  Ni  Ni204  1  0.05760548  0.75063187  0.72309325  1
  Ni  Ni205  1  0.45659334  0.87562686  0.23412320  1
  Ni  Ni206  1  -0.01403093  0.37748551  0.16547248  1
  Ni  Ni207  1  0.08996976  0.86354064  0.37339312  1
  Ni  Ni208  1  0.42702775  0.79515166  0.78956220  1
  Ni  Ni209  1  0.50736566  0.41109289  0.31573637  1
  Ni  Ni210  1  0.57818845  0.56517543  0.77520898  1
  Ni  Ni211  1  0.71669903  0.77327426  0.83378802  1
  Ni  Ni212  1  0.47586996  0.73239081  0.48428553  1
  Ni  Ni213  1  0.83790194  0.86371038  -0.08779221  1
  Ni  Ni214  1  0.19564586  0.81826823  -0.07327118  1
