# generated using pymatgen
data_Ti108Co54Ni53
_symmetry_space_group_name_H-M   'P 1'
_cell_length_a   14.64910938
_cell_length_b   14.62396986
_cell_length_c   14.57398062
_cell_angle_alpha   89.93202958
_cell_angle_beta   90.20972400
_cell_angle_gamma   89.81672787
_symmetry_Int_Tables_number   1
_chemical_formula_structural   Ti108Co54Ni53
_chemical_formula_sum   'Ti108 Co54 Ni53'
_cell_volume   3122.11754582
_cell_formula_units_Z   1
loop_
 _symmetry_equiv_pos_site_id
 _symmetry_equiv_pos_as_xyz
  1  'x, y, z'
loop_
 _atom_site_type_symbol
 _atom_site_label
 _atom_site_symmetry_multiplicity
 _atom_site_fract_x
 _atom_site_fract_y
 _atom_site_fract_z
 _atom_site_occupancy
  Ti  Ti0  1  0.11913891  0.05260457  0.25130179  1
  Ti  Ti1  1  0.09652009  0.10162439  0.59354398  1
  Ti  Ti2  1  0.09853333  0.07101200  1.01963773  1
  Ti  Ti3  1  0.02732159  0.37847467  0.20904667  1
  Ti  Ti4  1  0.11090064  0.45227305  0.54968769  1
  Ti  Ti5  1  0.10563292  0.43272265  0.89576293  1
  Ti  Ti6  1  0.07473605  0.72490042  0.20823647  1
  Ti  Ti7  1  0.09600748  0.76421171  0.51773324  1
  Ti  Ti8  1  0.09751834  0.67090248  0.90599017  1
  Ti  Ti9  1  0.38283453  0.06546214  0.29056824  1
  Ti  Ti10  1  0.42460560  0.10685437  0.62898904  1
  Ti  Ti11  1  0.41533061  0.09988461  0.84659884  1
  Ti  Ti12  1  0.42622007  0.49955404  0.25782865  1
  Ti  Ti13  1  0.44178689  0.45983724  0.62934723  1
  Ti  Ti14  1  0.44755900  0.43239318  0.93692244  1
  Ti  Ti15  1  0.40788141  0.70489738  0.20651145  1
  Ti  Ti16  1  0.36066590  0.78279020  0.54245040  1
  Ti  Ti17  1  0.33649651  0.74908674  0.89108842  1
  Ti  Ti18  1  0.82332029  0.15846341  0.24642624  1
  Ti  Ti19  1  0.76846123  0.06669782  0.66947913  1
  Ti  Ti20  1  0.69416987  0.05496926  0.89801929  1
  Ti  Ti21  1  0.76476891  0.34886450  0.20169594  1
  Ti  Ti22  1  0.78936997  0.34159630  0.62096604  1
  Ti  Ti23  1  0.75976361  0.46244778  0.92164812  1
  Ti  Ti24  1  0.77111992  0.74702247  0.23429336  1
  Ti  Ti25  1  0.78743001  0.74431999  0.66485874  1
  Ti  Ti26  1  0.77386393  0.73753817  1.03030225  1
  Ti  Ti27  1  0.10704279  0.21857968  0.12764710  1
  Ti  Ti28  1  0.02705558  0.28085832  0.45145708  1
  Ti  Ti29  1  0.03014692  0.26678186  0.73796921  1
  Ti  Ti30  1  0.16291666  0.58776129  0.08570419  1
  Ti  Ti31  1  0.12854797  0.58530508  0.32774072  1
  Ti  Ti32  1  0.06512522  0.60677798  0.65574901  1
  Ti  Ti33  1  0.10114180  0.90686034  0.13270347  1
  Ti  Ti34  1  0.10321025  0.96018569  0.43383225  1
  Ti  Ti35  1  0.09681620  0.95958896  0.75353953  1
  Ti  Ti36  1  0.41656642  0.22998070  0.18746623  1
  Ti  Ti37  1  0.34721282  0.27072877  0.39779468  1
  Ti  Ti38  1  0.33632331  0.26458475  0.74010288  1
  Ti  Ti39  1  0.44969911  0.57700900  0.06690829  1
  Ti  Ti40  1  0.41203248  0.59276723  0.44190633  1
  Ti  Ti41  1  0.44444917  0.67509242  0.72456513  1
  Ti  Ti42  1  0.39577363  0.93311954  -0.02215729  1
  Ti  Ti43  1  0.39445071  0.95466310  0.45424004  1
  Ti  Ti44  1  0.47241551  0.91705191  0.74431113  1
  Ti  Ti45  1  0.76061745  0.26967557  -0.01773916  1
  Ti  Ti46  1  0.75241419  0.27247762  0.41560766  1
  Ti  Ti47  1  0.68557564  0.23276866  0.71931158  1
  Ti  Ti48  1  0.77050299  0.55119624  0.12757067  1
  Ti  Ti49  1  0.76192395  0.46361225  0.36834003  1
  Ti  Ti50  1  0.75284590  0.50536041  0.71686716  1
  Ti  Ti51  1  0.79946981  0.91839909  0.00488609  1
  Ti  Ti52  1  0.74758055  1.00069382  0.46512557  1
  Ti  Ti53  1  0.78929479  0.83167858  0.84225789  1
  Ti  Ti54  1  0.27228276  0.09620793  0.12021326  1
  Ti  Ti55  1  0.18149388  0.14596732  0.41713265  1
  Ti  Ti56  1  0.26514593  0.06167100  0.71123735  1
  Ti  Ti57  1  0.31283560  0.42682515  0.07618031  1
  Ti  Ti58  1  0.27349170  0.46169861  0.40125535  1
  Ti  Ti59  1  0.26161929  0.45831370  0.72970110  1
  Ti  Ti60  1  0.19230719  0.78258050  0.03527119  1
  Ti  Ti61  1  0.24534514  0.72405700  0.38777388  1
  Ti  Ti62  1  0.17692328  0.75554334  0.73833632  1
  Ti  Ti63  1  0.54567471  0.09000597  0.01346951  1
  Ti  Ti64  1  0.54680945  0.08301927  0.43192638  1
  Ti  Ti65  1  0.58484373  0.07718866  0.72030562  1
  Ti  Ti66  1  0.53671206  0.40196616  0.14525282  1
  Ti  Ti67  1  0.59471006  0.40851457  0.48276137  1
  Ti  Ti68  1  0.59370615  0.38852354  0.80570572  1
  Ti  Ti69  1  0.60182241  0.71896406  0.09559107  1
  Ti  Ti70  1  0.64421729  0.63343931  0.46067929  1
  Ti  Ti71  1  0.61283275  0.75220897  0.75446143  1
  Ti  Ti72  1  0.83931993  0.09540142  0.04171333  1
  Ti  Ti73  1  0.91997412  0.01410262  0.36519942  1
  Ti  Ti74  1  0.94898731  0.06285067  0.71278336  1
  Ti  Ti75  1  0.97806494  0.50860323  0.05290022  1
  Ti  Ti76  1  0.95990631  0.45369332  0.37415556  1
  Ti  Ti77  1  0.92194295  0.43173255  0.75193596  1
  Ti  Ti78  1  0.93776775  0.80962904  0.09627064  1
  Ti  Ti79  1  0.86072106  0.71838798  0.43628579  1
  Ti  Ti80  1  0.95379220  0.72649041  0.77400037  1
  Ti  Ti81  1  0.16385947  0.29423340  0.30912053  1
  Ti  Ti82  1  0.25885362  0.20297735  0.58170438  1
  Ti  Ti83  1  0.26090819  0.25366109  0.97919119  1
  Ti  Ti84  1  0.20848556  0.45433541  0.22237243  1
  Ti  Ti85  1  0.27872688  0.63843157  0.61084816  1
  Ti  Ti86  1  0.28117831  0.56368100  0.92706935  1
  Ti  Ti87  1  0.27575075  0.88843563  0.24788490  1
  Ti  Ti88  1  0.20331892  0.89831849  0.61173937  1
  Ti  Ti89  1  0.28117338  0.92057253  0.82120797  1
  Ti  Ti90  1  0.62580851  0.23135557  0.23725720  1
  Ti  Ti91  1  0.49221032  0.25888685  0.55299336  1
  Ti  Ti92  1  0.58091610  0.28717237  1.00425355  1
  Ti  Ti93  1  0.59515773  0.63440840  0.26056470  1
  Ti  Ti94  1  0.60049534  0.56322646  0.64190639  1
  Ti  Ti95  1  0.51790563  0.63486777  0.90845437  1
  Ti  Ti96  1  0.55779868  1.06303099  0.20669112  1
  Ti  Ti97  1  0.65971775  0.90089674  0.61334521  1
  Ti  Ti98  1  0.59268678  0.88718218  1.00149671  1
  Ti  Ti99  1  0.91861118  0.25675853  0.12199239  1
  Ti  Ti100  1  0.90155132  0.19775296  0.57230896  1
  Ti  Ti101  1  0.94079154  0.26793225  0.91676880  1
  Ti  Ti102  1  0.91703799  0.61141358  0.29638829  1
  Ti  Ti103  1  0.89485879  0.51609986  0.55816609  1
  Ti  Ti104  1  0.88528499  0.62091507  0.92563688  1
  Ti  Ti105  1  0.83349345  0.93839906  0.20291217  1
  Ti  Ti106  1  0.88228790  0.87894684  0.55765465  1
  Ti  Ti107  1  0.98443217  0.94455251  0.92047301  1
  Co  Co108  1  0.48050466  0.19218326  0.33125030  1
  Co  Co109  1  0.08495689  0.43470640  0.71694854  1
  Co  Co110  1  0.03879894  0.54400298  0.19900337  1
  Co  Co111  1  -0.00263197  0.55502645  0.82758034  1
  Co  Co112  1  0.04086687  0.80685273  0.66376331  1
  Co  Co113  1  0.24614442  -0.05073931  0.08249034  1
  Co  Co114  1  0.13025168  0.15437918  0.74393668  1
  Co  Co115  1  0.69735676  0.85820029  0.13513425  1
  Co  Co116  1  0.73684614  0.80715100  0.49519231  1
  Co  Co117  1  0.04130552  0.71281243  0.37637184  1
  Co  Co118  1  0.66119201  0.48366918  0.24100645  1
  Co  Co119  1  -0.01911348  0.85627126  0.41170254  1
  Co  Co120  1  0.23716373  0.72694110  0.19832355  1
  Co  Co121  1  -0.10997555  0.31613535  0.30711710  1
  Co  Co122  1  -0.07371501  0.78128461  0.27139149  1
  Co  Co123  1  0.68967986  0.40998752  0.07180144  1
  Co  Co124  1  0.28104899  0.05076447  -0.04805668  1
  Co  Co125  1  0.35057491  0.36203633  0.26557039  1
  Co  Co126  1  0.30495311  0.60481630  0.30641283  1
  Co  Co127  1  0.92969952  0.43176914  -0.08446550  1
  Co  Co128  1  0.85920802  0.39520110  0.05731298  1
  Co  Co129  1  0.28733136  0.64160224  0.77565000  1
  Co  Co130  1  0.30880154  0.57014467  0.15304312  1
  Co  Co131  1  0.25045167  0.16544888  0.26330755  1
  Co  Co132  1  0.79860176  0.16806289  -0.13890358  1
  Co  Co133  1  0.48429068  0.80789768  0.86082167  1
  Co  Co134  1  0.63636812  0.72756954  0.59579294  1
  Co  Co135  1  0.42508096  0.38921531  0.77607380  1
  Co  Co136  1  0.33671045  0.79788920  0.71411646  1
  Co  Co137  1  0.25856903  0.17064381  0.84690623  1
  Co  Co138  1  0.34702719  0.33583120  0.56818535  1
  Co  Co139  1  0.68254758  0.00810877  0.07211118  1
  Co  Co140  1  0.59169183  0.47070574  -0.03822812  1
  Co  Co141  1  0.02954984  0.68115716  0.04569146  1
  Co  Co142  1  0.14537714  0.06029510  0.86654756  1
  Co  Co143  1  -0.04657277  -0.02467042  0.07642819  1
  Co  Co144  1  0.13499227  0.84342542  0.31487730  1
  Co  Co145  1  0.74653063  0.61706636  0.33055853  1
  Co  Co146  1  0.77058115  0.62766102  0.56200438  1
  Co  Co147  1  -0.00391748  -0.07635198  0.25147084  1
  Co  Co148  1  0.92638172  0.78446182  -0.06813973  1
  Co  Co149  1  0.24921683  0.01199188  0.35610151  1
  Co  Co150  1  0.88465411  0.59405513  0.71086926  1
  Co  Co151  1  0.07241910  0.82410169  0.84343872  1
  Co  Co152  1  0.89339443  0.04478902  0.53723339  1
  Co  Co153  1  0.17509298  0.60325672  0.49542523  1
  Co  Co154  1  0.11289533  0.43190306  0.38263506  1
  Co  Co155  1  0.02371868  0.11085089  0.45091504  1
  Co  Co156  1  0.71663188  0.04605162  0.21951635  1
  Co  Co157  1  0.40469646  0.54165558  0.81680439  1
  Co  Co158  1  0.10500989  0.22266074  -0.07468958  1
  Co  Co159  1  0.61879327  0.38231554  0.64458048  1
  Co  Co160  1  0.88920181  0.46375729  0.21222679  1
  Co  Co161  1  0.82243681  0.87255052  0.36986788  1
  Ni  Ni162  1  0.50321676  0.82605476  0.61028642  1
  Ni  Ni163  1  0.87595489  0.35475221  0.47631941  1
  Ni  Ni164  1  0.01683846  0.19565015  0.29761716  1
  Ni  Ni165  1  0.88032452  0.17249405  0.40655665  1
  Ni  Ni166  1  -0.03202871  0.09385936  0.17683776  1
  Ni  Ni167  1  0.76001323  0.65940792  0.81977730  1
  Ni  Ni168  1  0.65509158  0.14354658  0.55273698  1
  Ni  Ni169  1  -0.02312022  0.35911017  0.60444686  1
  Ni  Ni170  1  0.60361381  0.55283173  0.10354580  1
  Ni  Ni171  1  0.86951338  0.22284170  0.73280097  1
  Ni  Ni172  1  0.46569900  0.76264205  0.01751081  1
  Ni  Ni173  1  0.41711096  -0.00018769  0.13108484  1
  Ni  Ni174  1  0.15212742  0.56746563  0.79009386  1
  Ni  Ni175  1  0.56256716  0.36430325  0.31215676  1
  Ni  Ni176  1  0.24663173  0.87490841  0.44663994  1
  Ni  Ni177  1  0.04059600  0.34620207  0.03099599  1
  Ni  Ni178  1  0.48677423  0.66412006  0.56533971  1
  Ni  Ni179  1  0.54117979  -0.01674069  0.87318360  1
  Ni  Ni180  1  0.25795012  0.03524076  0.52929248  1
  Ni  Ni181  1  0.28976070  0.39697937  -0.11097768  1
  Ni  Ni182  1  0.01508758  0.58767172  0.47361180  1
  Ni  Ni183  1  0.44963806  0.25815184  0.88876411  1
  Ni  Ni184  1  0.60654249  0.19894054  0.86173827  1
  Ni  Ni185  1  0.69152798  0.60622490  -0.02809131  1
  Ni  Ni186  1  -0.06347458  0.69449946  0.58430987  1
  Ni  Ni187  1  0.55046618  0.51896471  0.36832047  1
  Ni  Ni188  1  0.64429543  0.75453524  0.91635963  1
  Ni  Ni189  1  0.36591488  -0.06106541  0.62311462  1
  Ni  Ni190  1  0.92553797  0.89404071  0.74616666  1
  Ni  Ni191  1  0.38037096  0.12628052  0.46343647  1
  Ni  Ni192  1  0.52665241  -0.01039318  0.57403931  1
  Ni  Ni193  1  0.51276168  0.25064252  0.72320826  1
  Ni  Ni194  1  -0.01392970  0.11374522  0.86630678  1
  Ni  Ni195  1  0.39662781  0.14469918  0.02148764  1
  Ni  Ni196  1  0.72837536  0.47459572  0.54101446  1
  Ni  Ni197  1  0.19559843  0.32117973  0.48164194  1
  Ni  Ni198  1  0.90361968  0.64939923  0.13890025  1
  Ni  Ni199  1  0.43340039  0.41700858  0.43723533  1
  Ni  Ni200  1  0.41928607  0.30334397  0.04291421  1
  Ni  Ni201  1  0.69011227  -0.05887397  0.76956995  1
  Ni  Ni202  1  0.69406113  0.11960848  0.36175140  1
  Ni  Ni203  1  0.35263200  0.83321571  0.11034897  1
  Ni  Ni204  1  0.28633233  0.48340650  0.55946647  1
  Ni  Ni205  1  0.32134061  0.68454791  0.04620448  1
  Ni  Ni206  1  0.62815773  0.55981851  0.81529527  1
  Ni  Ni207  1  0.59832931  0.24530138  0.42275525  1
  Ni  Ni208  1  0.02709088  -0.05005111  0.58589634  1
  Ni  Ni209  1  0.84537211  0.00770348  0.84091474  1
  Ni  Ni210  1  0.16422382  0.92052729  -0.05711312  1
  Ni  Ni211  1  0.68595181  0.16842279  0.09460569  1
  Ni  Ni212  1  0.24981725  0.29302096  0.15385888  1
  Ni  Ni213  1  0.78439556  0.33866950  0.81490675  1
  Ni  Ni214  1  0.18073639  0.31285125  0.79891032  1
