# generated using pymatgen
data_Ti108Co54Ni53
_symmetry_space_group_name_H-M   'P 1'
_cell_length_a   14.62568658
_cell_length_b   14.69687956
_cell_length_c   14.56895484
_cell_angle_alpha   89.65143657
_cell_angle_beta   90.13732821
_cell_angle_gamma   89.80621986
_symmetry_Int_Tables_number   1
_chemical_formula_structural   Ti108Co54Ni53
_chemical_formula_sum   'Ti108 Co54 Ni53'
_cell_volume   3131.54029984
_cell_formula_units_Z   1
loop_
 _symmetry_equiv_pos_site_id
 _symmetry_equiv_pos_as_xyz
  1  'x, y, z'
loop_
 _atom_site_type_symbol
 _atom_site_label
 _atom_site_symmetry_multiplicity
 _atom_site_fract_x
 _atom_site_fract_y
 _atom_site_fract_z
 _atom_site_occupancy
  Ti  Ti0  1  0.13123586  0.11690663  0.33825339  1
  Ti  Ti1  1  0.03503882  0.06567269  0.52881225  1
  Ti  Ti2  1  0.11640486  0.04671090  0.88526839  1
  Ti  Ti3  1  0.02297310  0.42363904  0.16256010  1
  Ti  Ti4  1  0.07843585  0.48720966  0.51343591  1
  Ti  Ti5  1  0.04613318  0.36739672  0.94737676  1
  Ti  Ti6  1  0.15968353  0.71534924  0.16779090  1
  Ti  Ti7  1  0.11344167  0.74488177  0.59902434  1
  Ti  Ti8  1  0.10948990  0.81566419  0.89988513  1
  Ti  Ti9  1  0.46054423  0.06916392  0.25014592  1
  Ti  Ti10  1  0.49522870  0.07344820  0.61139556  1
  Ti  Ti11  1  0.43566133  0.04108999  0.95091256  1
  Ti  Ti12  1  0.39671698  0.42322122  0.19745292  1
  Ti  Ti13  1  0.37529345  0.41621574  0.56963035  1
  Ti  Ti14  1  0.34800312  0.35676596  0.88804880  1
  Ti  Ti15  1  0.43029932  0.76169156  0.32618448  1
  Ti  Ti16  1  0.45318687  0.73771913  0.51767563  1
  Ti  Ti17  1  0.51562865  0.73508590  0.98669840  1
  Ti  Ti18  1  0.73971060  0.14317477  0.23557761  1
  Ti  Ti19  1  0.68441937  0.07249931  0.55318848  1
  Ti  Ti20  1  0.74698190  0.12848983  0.88796596  1
  Ti  Ti21  1  0.82212888  0.33813161  0.26115698  1
  Ti  Ti22  1  0.78326437  0.45290640  0.61746107  1
  Ti  Ti23  1  0.76922299  0.46852081  0.91640378  1
  Ti  Ti24  1  0.75354828  0.76173501  0.23306593  1
  Ti  Ti25  1  0.79272802  0.77963746  0.56730037  1
  Ti  Ti26  1  0.81828363  0.66331492  0.94654184  1
  Ti  Ti27  1  0.14699847  0.29221516  0.09025277  1
  Ti  Ti28  1  0.07764726  0.28845536  0.49821625  1
  Ti  Ti29  1  0.08533616  0.25078305  0.79428266  1
  Ti  Ti30  1  -0.00573050  0.63218880  0.12543670  1
  Ti  Ti31  1  0.13870533  0.63866088  0.40898661  1
  Ti  Ti32  1  0.04018842  0.66337697  0.78610508  1
  Ti  Ti33  1  0.14293628  0.91088029  0.09412675  1
  Ti  Ti34  1  0.16497869  0.94539799  0.44354420  1
  Ti  Ti35  1  0.08765224  0.93474402  0.69060849  1
  Ti  Ti36  1  0.46534304  0.22449516  0.10016858  1
  Ti  Ti37  1  0.40980650  0.26610450  0.39139350  1
  Ti  Ti38  1  0.42717094  0.23305941  0.72680748  1
  Ti  Ti39  1  0.43300373  0.55338936  0.03425293  1
  Ti  Ti40  1  0.41786751  0.54258803  0.38256218  1
  Ti  Ti41  1  0.38368252  0.58284989  0.71774094  1
  Ti  Ti42  1  0.37845550  0.91216032  0.06536296  1
  Ti  Ti43  1  0.38784496  0.94256173  0.39119937  1
  Ti  Ti44  1  0.43303959  0.93934046  0.75627082  1
  Ti  Ti45  1  0.68974806  0.25929328  0.07880203  1
  Ti  Ti46  1  0.77236479  0.22686350  0.50880547  1
  Ti  Ti47  1  0.75141540  0.21355644  0.70693412  1
  Ti  Ti48  1  0.74627705  0.57405725  0.11450734  1
  Ti  Ti49  1  0.75892558  0.60385024  0.46124710  1
  Ti  Ti50  1  0.69274394  0.57430511  0.76974030  1
  Ti  Ti51  1  0.73938955  0.86742689  0.00217959  1
  Ti  Ti52  1  0.72718177  0.89692754  0.41342338  1
  Ti  Ti53  1  0.70892731  0.91753059  0.79007890  1
  Ti  Ti54  1  0.17066980  0.10655472  0.10650833  1
  Ti  Ti55  1  0.29285940  0.08647076  0.47788939  1
  Ti  Ti56  1  0.22129910  0.13391284  0.73561588  1
  Ti  Ti57  1  0.24274465  0.45592794  0.02198964  1
  Ti  Ti58  1  0.14481493  0.39907034  0.34226243  1
  Ti  Ti59  1  0.22899903  0.45989310  0.73141717  1
  Ti  Ti60  1  0.38700887  0.73585753  0.12346262  1
  Ti  Ti61  1  0.22655912  0.79937750  0.34608373  1
  Ti  Ti62  1  0.31848737  0.74703773  0.80146847  1
  Ti  Ti63  1  0.57517970  -0.00243729  0.09444214  1
  Ti  Ti64  1  0.57047971  0.00687424  0.42335858  1
  Ti  Ti65  1  0.55426840  0.10211847  0.81953115  1
  Ti  Ti66  1  0.59902630  0.43667498  0.05855210  1
  Ti  Ti67  1  0.66328495  0.41908634  0.42707905  1
  Ti  Ti68  1  0.56331926  0.38894522  0.69666433  1
  Ti  Ti69  1  0.57498999  0.68580727  0.17611247  1
  Ti  Ti70  1  0.60802448  0.69665028  0.37452696  1
  Ti  Ti71  1  0.53597109  0.73366734  0.78900212  1
  Ti  Ti72  1  0.97574903  0.10246386  0.06125712  1
  Ti  Ti73  1  0.86195587  0.04502075  0.44687750  1
  Ti  Ti74  1  0.98452283  0.11061460  0.72133497  1
  Ti  Ti75  1  0.85161840  0.36900922  0.05713534  1
  Ti  Ti76  1  0.87497382  0.36662810  0.45702588  1
  Ti  Ti77  1  1.04182766  0.44064558  0.74340221  1
  Ti  Ti78  1  0.94664459  0.80524269  0.00135414  1
  Ti  Ti79  1  0.95334947  0.69437783  0.46161275  1
  Ti  Ti80  1  0.82151620  0.72894049  0.75615551  1
  Ti  Ti81  1  0.27098855  0.24581283  0.23798278  1
  Ti  Ti82  1  0.26653326  0.24061387  0.57968802  1
  Ti  Ti83  1  0.26030843  0.18338361  0.92474598  1
  Ti  Ti84  1  0.24197655  0.54064347  0.27386906  1
  Ti  Ti85  1  0.23705445  0.57748339  0.58117925  1
  Ti  Ti86  1  0.18502540  0.63808108  0.97679663  1
  Ti  Ti87  1  0.24911141  0.99133505  0.24687335  1
  Ti  Ti88  1  0.28583163  0.89230675  0.61965278  1
  Ti  Ti89  1  0.26810233  0.91365303  0.89837331  1
  Ti  Ti90  1  0.58484547  0.31050459  0.24559918  1
  Ti  Ti91  1  0.57532165  0.23131539  0.48357567  1
  Ti  Ti92  1  0.54119305  0.31444520  0.93414874  1
  Ti  Ti93  1  0.57951106  0.50786377  0.25642051  1
  Ti  Ti94  1  0.56821356  0.62061055  0.62096995  1
  Ti  Ti95  1  0.61106605  0.58492876  0.94073725  1
  Ti  Ti96  1  0.57728881  0.86984671  0.27457603  1
  Ti  Ti97  1  0.60108442  0.88304380  0.60650577  1
  Ti  Ti98  1  0.56074426  0.89427569  0.91273383  1
  Ti  Ti99  1  0.99841436  0.26530097  0.31993499  1
  Ti  Ti100  1  0.93274717  0.27892854  0.65058677  1
  Ti  Ti101  1  0.88805251  0.28666968  0.86280007  1
  Ti  Ti102  1  0.88923160  0.61882732  0.29121262  1
  Ti  Ti103  1  0.91926899  0.59496635  0.62620763  1
  Ti  Ti104  1  0.95052231  0.51424773  0.89421194  1
  Ti  Ti105  1  0.93621791  0.84873891  0.30871507  1
  Ti  Ti106  1  0.94992405  0.87945524  0.51329558  1
  Ti  Ti107  1  0.93183648  0.96084845  0.84253167  1
  Co  Co108  1  0.09856006  0.18407769  0.62583557  1
  Co  Co109  1  0.65234075  0.01332720  -0.05385930  1
  Co  Co110  1  0.52202965  0.38106083  0.51841708  1
  Co  Co111  1  0.33978324  0.68665620  -0.02937123  1
  Co  Co112  1  0.08778777  0.57761970  0.65251941  1
  Co  Co113  1  0.23437542  0.39939590  0.18537949  1
  Co  Co114  1  0.89331934  0.54137331  0.04262186  1
  Co  Co115  1  0.37680021  0.08581925  0.79733799  1
  Co  Co116  1  0.82420963  0.05552146  0.75936065  1
  Co  Co117  1  0.55158789  0.84522761  0.44116905  1
  Co  Co118  1  0.40219837  0.41773888  0.74444519  1
  Co  Co119  1  0.12034013  0.34270304  0.64584670  1
  Co  Co120  1  0.59409871  0.14441988  0.15953042  1
  Co  Co121  1  0.41011190  0.83705569  0.90506863  1
  Co  Co122  1  0.29943027  0.53848317  0.87427896  1
  Co  Co123  1  -0.01707760  0.27224828  0.06741663  1
  Co  Co124  1  -0.06022172  -0.02565311  0.64227792  1
  Co  Co125  1  -0.12477443  0.48796149  0.19656569  1
  Co  Co126  1  0.01716927  0.66353808  -0.04916988  1
  Co  Co127  1  0.13082207  0.52359797  0.86139524  1
  Co  Co128  1  0.80951312  0.75900824  0.39441207  1
  Co  Co129  1  0.85523777  0.11038639  0.60738618  1
  Co  Co130  1  0.84854624  0.71617317  0.11410811  1
  Co  Co131  1  0.62314875  0.43231198  0.86510785  1
  Co  Co132  1  0.40795515  0.57960314  0.54824540  1
  Co  Co133  1  0.64025371  0.01607310  0.26610648  1
  Co  Co134  1  0.95674888  0.42492865  0.59378266  1
  Co  Co135  1  0.17375186  0.80610830  0.74693924  1
  Co  Co136  1  0.71561582  0.09341576  0.39282901  1
  Co  Co137  1  0.44397418  0.62663390  0.87346349  1
  Co  Co138  1  0.54209341  0.83703089  0.10784088  1
  Co  Co139  1  0.74064319  0.62361987  0.62379126  1
  Co  Co140  1  0.14963108  0.54228132  0.14319769  1
  Co  Co141  1  0.06875273  0.01907390  0.21473712  1
  Co  Co142  1  0.66831895  0.75535327  0.69877021  1
  Co  Co143  1  0.18396520  0.36282156  0.86639456  1
  Co  Co144  1  0.64402497  0.73207353  0.52640207  1
  Co  Co145  1  0.84629063  0.87816536  0.71472079  1
  Co  Co146  1  -0.04490216  0.75451203  0.63116179  1
  Co  Co147  1  0.21779441  0.38154485  0.51038838  1
  Co  Co148  1  0.02125421  -0.02336775  0.37816423  1
  Co  Co149  1  0.29899767  0.59018783  0.11615420  1
  Co  Co150  1  0.84019841  0.83080970  -0.12133435  1
  Co  Co151  1  0.50202741  0.39849867  0.35857742  1
  Co  Co152  1  0.31676898  0.11663019  0.32052170  1
  Co  Co153  1  0.46533890  0.46605796  -0.09900143  1
  Co  Co154  1  0.23832731  0.79460460  0.02531352  1
  Co  Co155  1  0.10826277  0.87376410  0.26503528  1
  Co  Co156  1  0.44127579  -0.06880868  0.55286678  1
  Co  Co157  1  0.80284789  0.48099519  0.34640267  1
  Co  Co158  1  0.67824777  0.33795386  0.58444367  1
  Co  Co159  1  0.43206814  0.38819691  0.04357033  1
  Co  Co160  1  0.25837121  0.51197950  0.44030938  1
  Co  Co161  1  0.20983306  0.63374398  0.75626988  1
  Ni  Ni162  1  0.43800305  0.79391312  0.67181594  1
  Ni  Ni163  1  0.29905288  0.72047167  0.62025082  1
  Ni  Ni164  1  0.24193176  -0.02704786  0.75361654  1
  Ni  Ni165  1  0.27368217  0.83783846  0.18794512  1
  Ni  Ni166  1  0.18391712  0.03919690  0.59738068  1
  Ni  Ni167  1  0.04156375  0.71645323  0.29024927  1
  Ni  Ni168  1  0.70627095  0.26258602  0.35925135  1
  Ni  Ni169  1  0.07388069  0.80654078  0.42349659  1
  Ni  Ni170  1  0.68097249  0.72179814  0.05143165  1
  Ni  Ni171  1  0.85599467  0.57116730  0.77773633  1
  Ni  Ni172  1  0.22782421  0.24774309  0.40659783  1
  Ni  Ni173  1  0.43785674  0.59413190  0.21741509  1
  Ni  Ni174  1  0.27100344  0.29969184  0.73781922  1
  Ni  Ni175  1  0.06533148  0.51434104  0.01641993  1
  Ni  Ni176  1  0.66245784  0.05404578  0.71116661  1
  Ni  Ni177  1  0.88138774  0.41358021  0.75587566  1
  Ni  Ni178  1  0.72781775  0.37203766  0.75731406  1
  Ni  Ni179  1  -0.03356123  0.43088107  0.33268577  1
  Ni  Ni180  1  0.59015389  0.20433365  0.65144473  1
  Ni  Ni181  1  -0.00719874  0.82136424  0.77113690  1
  Ni  Ni182  1  0.27016753  0.03257719  0.00608764  1
  Ni  Ni183  1  0.05641441  0.18569480  0.19417392  1
  Ni  Ni184  1  0.69851450  0.89615691  0.16218083  1
  Ni  Ni185  1  0.30930259  0.66705378  0.43394048  1
  Ni  Ni186  1  0.43129853  0.19948254  0.90469150  1
  Ni  Ni187  1  0.78415292  -0.05007843  0.58145712  1
  Ni  Ni188  1  -0.05795868  0.19946121  0.49689658  1
  Ni  Ni189  1  -0.08570782  0.53059013  0.46234092  1
  Ni  Ni190  1  0.05670351  0.55544743  0.28166561  1
  Ni  Ni191  1  0.34122803  0.05466973  0.64091484  1
  Ni  Ni192  1  0.61564458  0.25735119  0.80435297  1
  Ni  Ni193  1  0.84000170  0.20061636  0.01359390  1
  Ni  Ni194  1  0.85619116  0.19252716  0.35524319  1
  Ni  Ni195  1  0.02943049  -0.04474003  -0.01242342  1
  Ni  Ni196  1  0.68114992  0.75330772  0.87858240  1
  Ni  Ni197  1  -0.00092654  0.80472400  0.15773430  1
  Ni  Ni198  1  0.31587963  0.39115683  0.34720711  1
  Ni  Ni199  1  0.57469160  0.16344425  0.32543711  1
  Ni  Ni200  1  0.33895120  0.11697427  0.13454018  1
  Ni  Ni201  1  -0.05953483  0.12874394  0.88868963  1
  Ni  Ni202  1  0.73082209  0.30462636  -0.07769703  1
  Ni  Ni203  1  0.71363333  0.60300222  0.28542749  1
  Ni  Ni204  1  0.88841889  0.20691130  0.18074611  1
  Ni  Ni205  1  0.31701256  0.82437622  0.47896501  1
  Ni  Ni206  1  0.53297840  0.53755621  0.77123470  1
  Ni  Ni207  1  0.44975564  0.11124471  0.43487245  1
  Ni  Ni208  1  0.71055394  0.42311300  0.18243352  1
  Ni  Ni209  1  0.42363372  -0.09569242  0.22248747  1
  Ni  Ni210  1  0.08685131  0.19607505  -0.04148573  1
  Ni  Ni211  1  0.57815675  0.15237340  -0.01247328  1
  Ni  Ni212  1  0.31080305  0.27756351  0.05800715  1
  Ni  Ni213  1  0.30550983  0.68281684  0.26213252  1
  Ni  Ni214  1  0.56038447  0.55539865  0.46788467  1
