# generated using pymatgen
data_Ti108Co54Ni53
_symmetry_space_group_name_H-M   'P 1'
_cell_length_a   14.67426336
_cell_length_b   14.63938341
_cell_length_c   14.69580608
_cell_angle_alpha   90.19424024
_cell_angle_beta   89.97148506
_cell_angle_gamma   90.29896013
_symmetry_Int_Tables_number   1
_chemical_formula_structural   Ti108Co54Ni53
_chemical_formula_sum   'Ti108 Co54 Ni53'
_cell_volume   3156.92343481
_cell_formula_units_Z   1
loop_
 _symmetry_equiv_pos_site_id
 _symmetry_equiv_pos_as_xyz
  1  'x, y, z'
loop_
 _atom_site_type_symbol
 _atom_site_label
 _atom_site_symmetry_multiplicity
 _atom_site_fract_x
 _atom_site_fract_y
 _atom_site_fract_z
 _atom_site_occupancy
  Ti  Ti0  1  0.04545014  0.14065857  0.24163267  1
  Ti  Ti1  1  0.11348314  0.13256910  0.52662971  1
  Ti  Ti2  1  0.13437502  0.03038084  0.85559476  1
  Ti  Ti3  1  0.04862504  0.42139818  0.22328038  1
  Ti  Ti4  1  0.14316146  0.40734141  0.54510716  1
  Ti  Ti5  1  0.09314761  0.44291899  0.99171037  1
  Ti  Ti6  1  0.03412658  0.75751328  0.26594745  1
  Ti  Ti7  1  0.10407086  0.69453893  0.62423137  1
  Ti  Ti8  1  0.03521675  0.79698972  0.95849371  1
  Ti  Ti9  1  0.43946663  0.11026346  0.20746286  1
  Ti  Ti10  1  0.45042736  0.08543182  0.55935440  1
  Ti  Ti11  1  0.49357415  0.08352251  0.94897279  1
  Ti  Ti12  1  0.42210144  0.41372768  0.26608011  1
  Ti  Ti13  1  0.49545619  0.44509430  0.54472312  1
  Ti  Ti14  1  0.40673679  0.46740628  0.93175762  1
  Ti  Ti15  1  0.47221144  0.80094180  0.24619473  1
  Ti  Ti16  1  0.45724907  0.75432163  0.57783996  1
  Ti  Ti17  1  0.44233515  0.78880207  0.95070316  1
  Ti  Ti18  1  0.78427379  0.09935596  0.21720357  1
  Ti  Ti19  1  0.78162523  0.03881274  0.52893966  1
  Ti  Ti20  1  0.72471699  0.03579516  1.00810456  1
  Ti  Ti21  1  0.67334530  0.45811802  0.26277593  1
  Ti  Ti22  1  0.70904785  0.46185027  0.62368016  1
  Ti  Ti23  1  0.73108592  0.43516128  1.05340791  1
  Ti  Ti24  1  0.69564379  0.74124161  0.24813982  1
  Ti  Ti25  1  0.78603937  0.73706147  0.61628438  1
  Ti  Ti26  1  0.76214046  0.69900455  0.88387516  1
  Ti  Ti27  1  0.11195738  0.28420429  0.11076987  1
  Ti  Ti28  1  0.02742536  0.28327629  0.40343857  1
  Ti  Ti29  1  0.13670049  0.23792249  0.69506872  1
  Ti  Ti30  1  0.09235342  0.62113952  0.10729654  1
  Ti  Ti31  1  0.05783165  0.57019731  0.41168811  1
  Ti  Ti32  1  0.09710845  0.66194864  0.81893112  1
  Ti  Ti33  1  0.08846764  0.92998933  0.10156170  1
  Ti  Ti34  1  0.06381934  0.92230567  0.51066657  1
  Ti  Ti35  1  0.13113912  0.84196446  0.75596100  1
  Ti  Ti36  1  0.33652393  0.18033425  0.04581982  1
  Ti  Ti37  1  0.45313528  0.21640732  0.36900016  1
  Ti  Ti38  1  0.39640228  0.21804585  0.69864700  1
  Ti  Ti39  1  0.54360939  0.59407987  0.06171516  1
  Ti  Ti40  1  0.39458153  0.58795021  0.41786071  1
  Ti  Ti41  1  0.40950804  0.52353389  0.73302955  1
  Ti  Ti42  1  0.41700188  0.95519470  0.06786886  1
  Ti  Ti43  1  0.36651511  0.91539569  0.40869138  1
  Ti  Ti44  1  0.41836986  0.87039939  0.74033898  1
  Ti  Ti45  1  0.80768671  0.25154107  0.08527810  1
  Ti  Ti46  1  0.73805460  0.21059433  0.40083041  1
  Ti  Ti47  1  0.71885940  0.14125675  0.74065151  1
  Ti  Ti48  1  0.73569221  0.61154404  0.12149294  1
  Ti  Ti49  1  0.79603047  0.56818638  0.47399261  1
  Ti  Ti50  1  0.71332542  0.52202247  0.80325794  1
  Ti  Ti51  1  0.78560009  0.86005671  0.10985504  1
  Ti  Ti52  1  0.71991194  0.88263724  0.39390100  1
  Ti  Ti53  1  0.72319863  0.94312470  0.69286448  1
  Ti  Ti54  1  0.15629567  0.09313998  0.07165380  1
  Ti  Ti55  1  0.30082472  0.11327651  0.45909595  1
  Ti  Ti56  1  0.31386054  0.07943449  0.80741888  1
  Ti  Ti57  1  0.27589208  0.38754122  0.08957396  1
  Ti  Ti58  1  0.25171406  0.44036981  0.38477321  1
  Ti  Ti59  1  0.23593876  0.40972622  0.73824791  1
  Ti  Ti60  1  0.26961426  0.69806018  0.06236026  1
  Ti  Ti61  1  0.22330544  0.77329344  0.41715157  1
  Ti  Ti62  1  0.28618104  0.70895993  0.68416071  1
  Ti  Ti63  1  0.59090022  0.02002272  0.12134835  1
  Ti  Ti64  1  0.60648557  0.09004626  0.45514385  1
  Ti  Ti65  1  0.50730816  0.05657868  0.75244246  1
  Ti  Ti66  1  0.46179502  0.34416796  0.07406752  1
  Ti  Ti67  1  0.59055179  0.33486328  0.40320419  1
  Ti  Ti68  1  0.54466424  0.36759726  0.72237289  1
  Ti  Ti69  1  0.63635640  0.75813266  0.02895699  1
  Ti  Ti70  1  0.57490628  0.73642142  0.40219982  1
  Ti  Ti71  1  0.61547440  0.68765439  0.71056198  1
  Ti  Ti72  1  0.92453003  0.02910153  0.11871337  1
  Ti  Ti73  1  0.91431317  0.12146093  0.38534654  1
  Ti  Ti74  1  0.91490741  0.06659475  0.82375655  1
  Ti  Ti75  1  0.91800807  0.52119807  0.09947802  1
  Ti  Ti76  1  0.92066351  0.42459989  0.51426837  1
  Ti  Ti77  1  1.01695775  0.41725510  0.70284293  1
  Ti  Ti78  1  0.88126813  0.70936367  0.02344398  1
  Ti  Ti79  1  0.90859159  0.80386720  0.45385684  1
  Ti  Ti80  1  0.93030183  0.75975778  0.76886447  1
  Ti  Ti81  1  0.24888599  0.17626042  0.23058573  1
  Ti  Ti82  1  0.28468320  0.29000799  0.54323549  1
  Ti  Ti83  1  0.23559294  0.25057736  0.86481670  1
  Ti  Ti84  1  0.30105837  0.56237628  0.20806055  1
  Ti  Ti85  1  0.22421541  0.60255341  0.52299761  1
  Ti  Ti86  1  0.26898392  0.59519268  0.85872065  1
  Ti  Ti87  1  0.24593834  0.87623373  0.24461997  1
  Ti  Ti88  1  0.20806648  0.97989739  0.63587728  1
  Ti  Ti89  1  0.24874827  0.88310976  0.97882451  1
  Ti  Ti90  1  0.57373173  0.28815909  0.20795634  1
  Ti  Ti91  1  0.59209525  0.24360467  0.58573731  1
  Ti  Ti92  1  0.54132609  0.28960994  0.90898855  1
  Ti  Ti93  1  0.51327606  0.60236838  0.25375610  1
  Ti  Ti94  1  0.59560667  0.60695305  0.52901473  1
  Ti  Ti95  1  0.52846107  0.62218720  0.86810455  1
  Ti  Ti96  1  0.59976554  0.98874175  0.29403749  1
  Ti  Ti97  1  0.55737781  0.92049654  0.54600668  1
  Ti  Ti98  1  0.60641496  0.94036833  0.85134225  1
  Ti  Ti99  1  0.90576726  0.28148023  0.24540008  1
  Ti  Ti100  1  0.88800035  0.23152398  0.56848341  1
  Ti  Ti101  1  0.96316532  0.26191035  0.93769953  1
  Ti  Ti102  1  0.83590148  0.56544362  0.28784183  1
  Ti  Ti103  1  0.93437571  0.64554695  0.56627996  1
  Ti  Ti104  1  0.91357926  0.52598591  0.83810690  1
  Ti  Ti105  1  0.93063424  0.94142853  0.28636664  1
  Ti  Ti106  1  0.91546774  0.93341575  0.64868389  1
  Ti  Ti107  1  0.89334882  0.92807951  0.96250932  1
  Co  Co108  1  0.73497858  0.17930247  0.57882986  1
  Co  Co109  1  0.89785172  -0.03875272  0.44814183  1
  Co  Co110  1  0.29593049  0.03398434  0.30535475  1
  Co  Co111  1  0.50805177  0.18384924  0.07627793  1
  Co  Co112  1  0.36535779  0.01513617  0.66806900  1
  Co  Co113  1  0.04078616  0.28643012  0.57344229  1
  Co  Co114  1  0.76073480  0.04123986  0.36404998  1
  Co  Co115  1  0.86378218  0.50931620  0.64831402  1
  Co  Co116  1  0.83029740  0.41627056  0.19743898  1
  Co  Co117  1  0.63413703  0.30385760  0.04919142  1
  Co  Co118  1  0.72856813  0.79570767  0.76420588  1
  Co  Co119  1  0.42638381  -0.04882012  0.23839074  1
  Co  Co120  1  0.41556601  -0.05946561  0.89234677  1
  Co  Co121  1  0.34013335  0.82981288  0.12685139  1
  Co  Co122  1  0.74874536  -0.06307544  0.23436661  1
  Co  Co123  1  0.28188306  0.01308117  0.14157811  1
  Co  Co124  1  0.77213409  0.87662056  0.54257046  1
  Co  Co125  1  0.57097112  -0.09413467  -0.00001572  1
  Co  Co126  1  0.57482631  0.44363872  -0.00423832  1
  Co  Co127  1  0.82830810  0.55752761  -0.03265290  1
  Co  Co128  1  0.31356901  0.27371217  0.34798489  1
  Co  Co129  1  0.19183481  0.81784901  0.57151260  1
  Co  Co130  1  0.52626278  0.50328758  0.37910725  1
  Co  Co131  1  0.13746434  0.01207103  0.23575083  1
  Co  Co132  1  0.13910069  0.78275101  0.10949368  1
  Co  Co133  1  -0.05521036  0.44201102  0.34658540  1
  Co  Co134  1  0.35163385  0.31379630  -0.04483517  1
  Co  Co135  1  0.58697996  0.77736237  -0.13874775  1
  Co  Co136  1  -0.00629305  0.58805162  0.71570579  1
  Co  Co137  1  0.41385443  0.19633000  0.86020965  1
  Co  Co138  1  0.06976727  0.73726354  0.45929808  1
  Co  Co139  1  0.84733277  0.89408808  0.80611016  1
  Co  Co140  1  0.38610285  0.35901214  0.80886029  1
  Co  Co141  1  0.40736314  0.39027053  0.42309506  1
  Co  Co142  1  0.75900757  0.72079333  0.43103836  1
  Co  Co143  1  0.76247458  0.02266550  0.85392485  1
  Co  Co144  1  0.55598647  0.46392719  0.84505842  1
  Co  Co145  1  0.57040721  0.53577524  0.69422600  1
  Co  Co146  1  0.56717919  0.20752341  0.75827399  1
  Co  Co147  1  -0.07365231  0.66307808  0.37879148  1
  Co  Co148  1  0.52807026  0.89348271  0.39223106  1
  Co  Co149  1  0.73352981  0.28142538  0.25121101  1
  Co  Co150  1  0.38540554  0.26644817  0.19799556  1
  Co  Co151  1  0.87323976  0.29075953  0.41054754  1
  Co  Co152  1  0.23448579  0.42096604  0.90122700  1
  Co  Co153  1  -0.03034012  0.07293637  0.54063509  1
  Co  Co154  1  0.17580122  0.73960133  0.93838014  1
  Co  Co155  1  0.82024664  0.63752686  0.73677211  1
  Co  Co156  1  0.04069883  0.02699945  0.38335180  1
  Co  Co157  1  0.43840047  0.70239635  0.75758690  1
  Co  Co158  1  0.40873898  0.51120137  0.10326356  1
  Co  Co159  1  0.41561712  0.76055434  0.42276493  1
  Co  Co160  1  0.20898068  -0.03075125  0.44830799  1
  Co  Co161  1  -0.00276634  0.80317734  0.61108885  1
  Ni  Ni162  1  0.26644967  -0.07711295  0.80287381  1
  Ni  Ni163  1  0.29306021  0.04189970  -0.03313347  1
  Ni  Ni164  1  0.16416384  0.12554573  0.36699285  1
  Ni  Ni165  1  0.86373269  0.12041716  -0.01946855  1
  Ni  Ni166  1  0.66125550  0.46862649  0.46034489  1
  Ni  Ni167  1  0.39218540  0.62578395  -0.02324778  1
  Ni  Ni168  1  0.44574341  0.26355263  0.52504135  1
  Ni  Ni169  1  -0.04720980  0.83567506  0.12512916  1
  Ni  Ni170  1  -0.04976173  0.35384295  0.08840298  1
  Ni  Ni171  1  0.66924094  0.57511418  -0.04293120  1
  Ni  Ni172  1  0.63721687  0.12663128  0.88714093  1
  Ni  Ni173  1  0.10000353  0.88113229  0.34542848  1
  Ni  Ni174  1  -0.02372914  0.18561675  0.09042007  1
  Ni  Ni175  1  0.86845311  0.09647185  0.66894912  1
  Ni  Ni176  1  0.63663840  0.77445738  0.55580515  1
  Ni  Ni177  1  0.84682191  0.79527705  0.28786166  1
  Ni  Ni178  1  0.17279229  0.55211130  0.69126475  1
  Ni  Ni179  1  0.38459353  0.37417492  0.65040813  1
  Ni  Ni180  1  0.78477344  0.41050627  0.36791053  1
  Ni  Ni181  1  0.61388484  0.06837325  0.62407764  1
  Ni  Ni182  1  0.00570403  0.60287438  -0.04037462  1
  Ni  Ni183  1  0.01682084  0.06116719  -0.02808471  1
  Ni  Ni184  1  0.34441661  0.88340505  0.56940888  1
  Ni  Ni185  1  0.18406188  0.69311054  0.24032944  1
  Ni  Ni186  1  0.60584552  0.86031900  0.16338054  1
  Ni  Ni187  1  0.05077996  0.16913422  0.81627817  1
  Ni  Ni188  1  0.04791988  0.03704253  0.69586870  1
  Ni  Ni189  1  0.57871674  0.85104179  0.70155778  1
  Ni  Ni190  1  0.73347884  0.86608430  -0.06536475  1
  Ni  Ni191  1  0.45688103  0.05080891  0.37954228  1
  Ni  Ni192  1  0.55954079  0.45817573  0.15525278  1
  Ni  Ni193  1  0.08758814  0.33372853  0.84635341  1
  Ni  Ni194  1  0.09526318  0.49829287  0.83464740  1
  Ni  Ni195  1  0.25924229  0.14103199  0.63409742  1
  Ni  Ni196  1  0.34097168  0.70467461  0.28751611  1
  Ni  Ni197  1  0.00403998  0.58317692  0.25122932  1
  Ni  Ni198  1  0.66748107  0.60056716  0.35028235  1
  Ni  Ni199  1  0.30668207  0.76740160  0.84510230  1
  Ni  Ni200  1  0.70976980  0.30577897  0.68825374  1
  Ni  Ni201  1  0.24592374  0.53555992  0.02658982  1
  Ni  Ni202  1  0.00682517  0.92064009  0.83260943  1
  Ni  Ni203  1  0.42062157  0.68392050  0.13335718  1
  Ni  Ni204  1  0.11577022  0.20361277  -0.03861497  1
  Ni  Ni205  1  0.17908514  0.28391752  0.42018204  1
  Ni  Ni206  1  0.41227114  0.60039937  0.59120618  1
  Ni  Ni207  1  0.66518925  0.16926760  0.13308940  1
  Ni  Ni208  1  0.05005121  0.53062783  0.57645298  1
  Ni  Ni209  1  0.89689895  0.68383763  0.18203771  1
  Ni  Ni210  1  0.74699505  0.33604691  0.52022777  1
  Ni  Ni211  1  0.21884924  0.36387292  0.24031900  1
  Ni  Ni212  1  0.15827235  0.53130095  0.27620341  1
  Ni  Ni213  1  0.61482538  0.15835816  0.29796606  1
  Ni  Ni214  1  0.31285243  0.46804867  0.54320840  1
