# generated using pymatgen
data_Ti108Co54Ni53
_symmetry_space_group_name_H-M   'P 1'
_cell_length_a   14.67008053
_cell_length_b   14.55715889
_cell_length_c   14.58762553
_cell_angle_alpha   89.62858187
_cell_angle_beta   90.46768290
_cell_angle_gamma   90.37143501
_symmetry_Int_Tables_number   1
_chemical_formula_structural   Ti108Co54Ni53
_chemical_formula_sum   'Ti108 Co54 Ni53'
_cell_volume   3115.02226101
_cell_formula_units_Z   1
loop_
 _symmetry_equiv_pos_site_id
 _symmetry_equiv_pos_as_xyz
  1  'x, y, z'
loop_
 _atom_site_type_symbol
 _atom_site_label
 _atom_site_symmetry_multiplicity
 _atom_site_fract_x
 _atom_site_fract_y
 _atom_site_fract_z
 _atom_site_occupancy
  Ti  Ti0  1  0.05512422  -0.01228896  0.25232886  1
  Ti  Ti1  1  0.04123083  0.08154361  0.62802111  1
  Ti  Ti2  1  0.03298438  0.01501383  0.90998819  1
  Ti  Ti3  1  0.09311872  0.45931367  0.32244542  1
  Ti  Ti4  1  0.17464614  0.43597847  0.57910631  1
  Ti  Ti5  1  0.08569853  0.45163840  0.97292673  1
  Ti  Ti6  1  0.13228990  0.75235490  0.15573304  1
  Ti  Ti7  1  0.08125784  0.71249073  0.66380618  1
  Ti  Ti8  1  0.05471195  0.75744527  0.93292663  1
  Ti  Ti9  1  0.40642247  0.13099762  0.33318957  1
  Ti  Ti10  1  0.34489892  0.08319439  0.53605852  1
  Ti  Ti11  1  0.43962157  0.02438814  0.92858022  1
  Ti  Ti12  1  0.41579963  0.45109694  0.25987763  1
  Ti  Ti13  1  0.43586854  0.48373421  0.56479592  1
  Ti  Ti14  1  0.53919392  0.42884234  0.96044820  1
  Ti  Ti15  1  0.42780376  0.78006146  0.24036974  1
  Ti  Ti16  1  0.37492450  0.83215746  0.60697847  1
  Ti  Ti17  1  0.38550593  0.84031606  0.91177994  1
  Ti  Ti18  1  0.74837917  0.16350274  0.20731571  1
  Ti  Ti19  1  0.80562826  0.00440812  0.55447351  1
  Ti  Ti20  1  0.72561502  0.06317861  0.90272579  1
  Ti  Ti21  1  0.84020909  0.36330157  0.16994881  1
  Ti  Ti22  1  0.74170044  0.36737081  0.60523265  1
  Ti  Ti23  1  0.78315125  0.41397049  0.94393565  1
  Ti  Ti24  1  0.72890940  0.79263201  0.26819590  1
  Ti  Ti25  1  0.70750172  0.74755975  0.60202423  1
  Ti  Ti26  1  0.70864062  0.73776072  0.83339631  1
  Ti  Ti27  1  0.07749954  0.26782190  0.14261741  1
  Ti  Ti28  1  0.09137067  0.26671962  0.36510124  1
  Ti  Ti29  1  0.11300384  0.26343289  0.68867503  1
  Ti  Ti30  1  0.11406778  0.56060841  0.15214781  1
  Ti  Ti31  1  -0.00010242  0.59428488  0.42995055  1
  Ti  Ti32  1  0.15044774  0.54362022  0.73385485  1
  Ti  Ti33  1  0.03103991  0.89527175  0.06517407  1
  Ti  Ti34  1  0.11052120  0.86256420  0.49671537  1
  Ti  Ti35  1  0.12656167  0.87669090  0.78165354  1
  Ti  Ti36  1  0.38073426  0.31280397  0.07423339  1
  Ti  Ti37  1  0.44785039  0.25349485  0.48533922  1
  Ti  Ti38  1  0.45401515  0.20386967  0.69007013  1
  Ti  Ti39  1  0.44094889  0.59518503  0.10563388  1
  Ti  Ti40  1  0.37565851  0.60006953  0.39390165  1
  Ti  Ti41  1  0.44956507  0.62296260  0.69895082  1
  Ti  Ti42  1  0.46160425  0.90699567  0.08572898  1
  Ti  Ti43  1  0.38345401  0.94537461  0.37251614  1
  Ti  Ti44  1  0.50786938  0.94317923  0.72689541  1
  Ti  Ti45  1  0.82527352  0.22273472  0.01569928  1
  Ti  Ti46  1  0.73045434  0.22099564  0.43796293  1
  Ti  Ti47  1  0.76458769  0.20842555  0.77681588  1
  Ti  Ti48  1  0.74573307  0.60782797  0.13552282  1
  Ti  Ti49  1  0.72556922  0.56189659  0.43570438  1
  Ti  Ti50  1  0.74368398  0.55733543  0.78608526  1
  Ti  Ti51  1  0.74623598  1.01181874  0.09242916  1
  Ti  Ti52  1  0.82591381  0.91682995  0.39062805  1
  Ti  Ti53  1  0.80694331  0.87634612  0.72970790  1
  Ti  Ti54  1  0.30740278  0.08535674  0.10046617  1
  Ti  Ti55  1  0.19513981  0.09566322  0.37725238  1
  Ti  Ti56  1  0.26340602  0.15033406  0.71658469  1
  Ti  Ti57  1  0.26249825  0.48248566  0.08967812  1
  Ti  Ti58  1  0.26590944  0.39771984  0.39071400  1
  Ti  Ti59  1  0.31816251  0.46518588  0.71811846  1
  Ti  Ti60  1  0.28017685  0.79795679  0.06833127  1
  Ti  Ti61  1  0.27184503  0.76983934  0.45069402  1
  Ti  Ti62  1  0.23166810  0.73866623  0.84698319  1
  Ti  Ti63  1  0.52057596  0.11617457  0.11719570  1
  Ti  Ti64  1  0.61396013  0.07438851  0.32233608  1
  Ti  Ti65  1  0.67584535  0.04953537  0.70145840  1
  Ti  Ti66  1  0.67411935  0.37860013  0.09760008  1
  Ti  Ti67  1  0.58955949  0.38571426  0.39372867  1
  Ti  Ti68  1  0.48380816  0.38164184  0.76501008  1
  Ti  Ti69  1  0.58805799  0.73420908  0.14379568  1
  Ti  Ti70  1  0.57462116  0.73354084  0.42216456  1
  Ti  Ti71  1  0.52504355  0.77954856  0.79452195  1
  Ti  Ti72  1  0.96854613  0.08516243  0.11003739  1
  Ti  Ti73  1  0.96468167  0.08445370  0.42250514  1
  Ti  Ti74  1  0.87251800  0.07351800  0.72483577  1
  Ti  Ti75  1  0.89905334  0.50505631  0.05932088  1
  Ti  Ti76  1  0.83886795  0.40222988  0.38821794  1
  Ti  Ti77  1  0.88266227  0.45251010  0.73085373  1
  Ti  Ti78  1  0.88903088  0.71435232  0.03806637  1
  Ti  Ti79  1  0.90664626  0.74399475  0.36173911  1
  Ti  Ti80  1  0.87553409  0.68351053  0.67658332  1
  Ti  Ti81  1  0.25255220  0.24180871  0.24694225  1
  Ti  Ti82  1  0.31402495  0.30793107  0.59571462  1
  Ti  Ti83  1  0.27289168  0.36011182  0.90949986  1
  Ti  Ti84  1  0.18880279  0.63488278  0.32359612  1
  Ti  Ti85  1  0.26714519  0.61654131  0.57168730  1
  Ti  Ti86  1  0.26560181  0.55527413  0.89443410  1
  Ti  Ti87  1  0.20369295  0.90022914  0.30534659  1
  Ti  Ti88  1  0.21562299  0.96685574  0.64267888  1
  Ti  Ti89  1  0.26217284  0.99186348  0.85099786  1
  Ti  Ti90  1  0.54837993  0.28391039  0.22075826  1
  Ti  Ti91  1  0.61746881  0.20833542  0.58926079  1
  Ti  Ti92  1  0.63686883  0.27433409  0.89752918  1
  Ti  Ti93  1  0.59825702  0.51670403  0.23015874  1
  Ti  Ti94  1  0.58468965  0.60618901  0.55996842  1
  Ti  Ti95  1  0.56065040  0.61234605  0.89642231  1
  Ti  Ti96  1  0.57191963  0.89234553  0.31647683  1
  Ti  Ti97  1  0.53241020  0.92185599  0.51419573  1
  Ti  Ti98  1  0.60924634  0.86613684  0.96075212  1
  Ti  Ti99  1  0.88263200  0.21828914  0.32480537  1
  Ti  Ti100  1  0.92082991  0.26759946  0.65552002  1
  Ti  Ti101  1  0.93593253  0.30836755  0.85871926  1
  Ti  Ti102  1  0.91495115  0.53419799  0.24621132  1
  Ti  Ti103  1  0.89654217  0.48984901  0.55585248  1
  Ti  Ti104  1  0.92814461  0.56318663  0.88424524  1
  Ti  Ti105  1  0.87262667  0.89692713  0.17682713  1
  Ti  Ti106  1  0.97301529  0.87204189  0.64375656  1
  Ti  Ti107  1  0.80891829  0.86331322  0.94910083  1
  Co  Co108  1  0.18485622  0.38582669  0.21312886  1
  Co  Co109  1  0.51582459  0.34999128  0.59611635  1
  Co  Co110  1  0.78078465  0.08026792  0.38359531  1
  Co  Co111  1  0.60837990  0.55499627  0.05986610  1
  Co  Co112  1  0.27593716  0.64859659  0.15348085  1
  Co  Co113  1  0.85331268  0.65221235  0.51672890  1
  Co  Co114  1  -0.01088367  -0.10220331  0.36739564  1
  Co  Co115  1  0.57917550  0.01956511  0.85102642  1
  Co  Co116  1  0.54114398  0.27966770  0.04741735  1
  Co  Co117  1  0.33036351  0.90948247  0.18579711  1
  Co  Co118  1  0.02835508  0.15116262  0.27092557  1
  Co  Co119  1  0.62309774  0.31182668  0.71785257  1
  Co  Co120  1  0.16647420  0.29955493  0.50591662  1
  Co  Co121  1  0.19749096  0.15443015  0.56691670  1
  Co  Co122  1  0.66129237  -0.08891741  0.61948692  1
  Co  Co123  1  0.47592334  0.62924230  0.26761087  1
  Co  Co124  1  -0.11249769  -0.00734378  0.00980631  1
  Co  Co125  1  -0.00447269  0.16616189  0.78051365  1
  Co  Co126  1  0.18282033  0.38450060  0.76992748  1
  Co  Co127  1  0.63337006  0.66136792  0.29496299  1
  Co  Co128  1  0.26971143  0.51709593  0.25224220  1
  Co  Co129  1  0.95901554  -0.05064405  0.51130081  1
  Co  Co130  1  0.39917701  0.19740337  0.18466744  1
  Co  Co131  1  0.53621920  0.15716638  -0.06036607  1
  Co  Co132  1  0.74952061  0.56071556  0.61863383  1
  Co  Co133  1  0.87426960  -0.02881141  0.85060014  1
  Co  Co134  1  0.44001750  0.29517804  0.90485761  1
  Co  Co135  1  0.42488615  0.41954138  0.42882270  1
  Co  Co136  1  0.63420660  0.45272790  0.52638168  1
  Co  Co137  1  0.17656376  -0.05893247  0.13226082  1
  Co  Co138  1  0.16622320  0.88074850  -0.04595223  1
  Co  Co139  1  0.58262014  0.16056374  0.77733286  1
  Co  Co140  1  0.00426369  -0.01584121  0.75574942  1
  Co  Co141  1  0.86878688  0.71857716  0.19331988  1
  Co  Co142  1  0.68078638  0.87730724  0.45939406  1
  Co  Co143  1  0.21764657  0.79152042  0.64003648  1
  Co  Co144  1  0.30233461  -0.04539760  0.01262070  1
  Co  Co145  1  0.74292616  0.73246719  0.42408752  1
  Co  Co146  1  0.26522127  0.93967937  0.48382435  1
  Co  Co147  1  0.28832375  0.04712984  0.25353226  1
  Co  Co148  1  0.03508845  0.43726382  0.82095497  1
  Co  Co149  1  0.28419944  0.22448938  0.42792551  1
  Co  Co150  1  0.05898300  0.55738376  0.57656935  1
  Co  Co151  1  -0.02166021  0.76189263  0.51201386  1
  Co  Co152  1  0.28837078  0.64533313  0.72835725  1
  Co  Co153  1  0.18234093  0.64283103  0.01198463  1
  Co  Co154  1  0.17338555  0.53798353  0.45144671  1
  Co  Co155  1  -0.05249710  0.34344152  0.02047702  1
  Co  Co156  1  0.32842287  0.86164547  0.75911476  1
  Co  Co157  1  0.83178964  0.82928307  0.54462380  1
  Co  Co158  1  0.33934157  0.66100957  -0.00267025  1
  Co  Co159  1  0.27758853  0.76360491  0.27649461  1
  Co  Co160  1  0.92207445  0.22943601  0.16109978  1
  Co  Co161  1  0.66771779  0.89651366  0.80519742  1
  Ni  Ni162  1  0.86371982  0.71235798  0.86217222  1
  Ni  Ni163  1  0.74248321  0.81019964  0.09949935  1
  Ni  Ni164  1  0.02202244  0.42382372  0.14858110  1
  Ni  Ni165  1  0.65620925  0.05001894  0.50541457  1
  Ni  Ni166  1  0.38591784  0.46942824  -0.01111340  1
  Ni  Ni167  1  0.02403813  0.65327295  0.25902708  1
  Ni  Ni168  1  0.53871962  0.77577998  0.62424278  1
  Ni  Ni169  1  0.01896368  0.39589902  0.47892310  1
  Ni  Ni170  1  0.66584636  0.70504720  -0.00236674  1
  Ni  Ni171  1  0.89113803  0.12859546  -0.09820291  1
  Ni  Ni172  1  0.73189499  -0.02323075  0.25757507  1
  Ni  Ni173  1  0.42608021  0.67899750  0.53483997  1
  Ni  Ni174  1  0.11457316  0.02480741  0.49562341  1
  Ni  Ni175  1  -0.03188186  0.35711313  0.28784915  1
  Ni  Ni176  1  0.79083298  0.62519514  0.30221674  1
  Ni  Ni177  1  0.52023948  0.06895795  0.61574287  1
  Ni  Ni178  1  0.67235370  0.17296003  0.05281146  1
  Ni  Ni179  1  0.50132099  0.08188546  0.45597934  1
  Ni  Ni180  1  0.42762217  0.51858649  0.83929843  1
  Ni  Ni181  1  0.63453821  0.44429669  0.83453905  1
  Ni  Ni182  1  0.87781547  0.28128721  0.49656556  1
  Ni  Ni183  1  0.02992621  0.21406301  0.52145514  1
  Ni  Ni184  1  0.74754375  0.46713375  0.26271824  1
  Ni  Ni185  1  0.40428704  0.29677797  0.32337190  1
  Ni  Ni186  1  0.39816816  0.68239115  0.84957545  1
  Ni  Ni187  1  -0.04041410  0.83131550  0.80979340  1
  Ni  Ni188  1  0.70993968  0.30537135  0.28612273  1
  Ni  Ni189  1  0.13360516  0.07862009  0.78070943  1
  Ni  Ni190  1  0.77286641  0.58975055  -0.04224617  1
  Ni  Ni191  1  0.02752305  0.41095572  0.65563517  1
  Ni  Ni192  1  0.09855643  0.77177138  0.35385971  1
  Ni  Ni193  1  0.12917810  0.69040406  0.50150576  1
  Ni  Ni194  1  0.59672158  0.48303855  0.68053387  1
  Ni  Ni195  1  0.59706156  0.01912160  0.01666699  1
  Ni  Ni196  1  0.38968327  0.14972662  0.83746522  1
  Ni  Ni197  1  0.88967352  0.04587994  0.26318130  1
  Ni  Ni198  1  0.57016110  0.22066172  0.37896960  1
  Ni  Ni199  1  0.61436296  0.91339600  0.15442507  1
  Ni  Ni200  1  0.00239361  0.81545986  0.22494611  1
  Ni  Ni201  1  0.42708821  0.79430574  0.41129488  1
  Ni  Ni202  1  0.02409290  0.61415013  0.02527325  1
  Ni  Ni203  1  0.46638779  0.00166201  0.22934416  1
  Ni  Ni204  1  0.50318371  0.42637344  0.11995121  1
  Ni  Ni205  1  0.76535735  0.36520012  0.78732902  1
  Ni  Ni206  1  0.49674131  0.73589417  -0.00615671  1
  Ni  Ni207  1  0.15286933  0.10936165  0.17523820  1
  Ni  Ni208  1  0.32694603  0.29706376  0.77118459  1
  Ni  Ni209  1  0.36994096  0.02366231  0.70307517  1
  Ni  Ni210  1  0.09452934  0.60326016  0.87356520  1
  Ni  Ni211  1  -0.00872214  0.57631131  0.72676146  1
  Ni  Ni212  1  0.54035270  0.54770654  0.40088504  1
  Ni  Ni213  1  0.78561511  0.17360147  0.60217263  1
  Ni  Ni214  1  0.61797872  0.64906608  0.72019056  1
