# generated using pymatgen
data_Ti108Co54Ni53
_symmetry_space_group_name_H-M   'P 1'
_cell_length_a   14.69850745
_cell_length_b   14.60975044
_cell_length_c   14.58018694
_cell_angle_alpha   90.01047995
_cell_angle_beta   90.24248662
_cell_angle_gamma   89.95015262
_symmetry_Int_Tables_number   1
_chemical_formula_structural   Ti108Co54Ni53
_chemical_formula_sum   'Ti108 Co54 Ni53'
_cell_volume   3130.94231190
_cell_formula_units_Z   1
loop_
 _symmetry_equiv_pos_site_id
 _symmetry_equiv_pos_as_xyz
  1  'x, y, z'
loop_
 _atom_site_type_symbol
 _atom_site_label
 _atom_site_symmetry_multiplicity
 _atom_site_fract_x
 _atom_site_fract_y
 _atom_site_fract_z
 _atom_site_occupancy
  Ti  Ti0  1  0.05410172  -0.01826402  0.23487081  1
  Ti  Ti1  1  0.09376993  0.09165075  0.57185601  1
  Ti  Ti2  1  0.02316177  0.05842459  0.90343029  1
  Ti  Ti3  1  0.04074093  0.33372179  0.24325246  1
  Ti  Ti4  1  0.03133943  0.41918922  0.61756780  1
  Ti  Ti5  1  0.13088855  0.41044103  0.82741009  1
  Ti  Ti6  1  0.09264386  0.70820011  0.18355720  1
  Ti  Ti7  1  0.09576068  0.80764392  0.63248477  1
  Ti  Ti8  1  0.10593227  0.76454675  0.84338918  1
  Ti  Ti9  1  0.43232916  0.03992942  0.31816748  1
  Ti  Ti10  1  0.41066181  0.11019408  0.61609004  1
  Ti  Ti11  1  0.47487523  0.11259459  0.92709909  1
  Ti  Ti12  1  0.40681986  0.39155338  0.21608097  1
  Ti  Ti13  1  0.43138113  0.44974412  0.53874420  1
  Ti  Ti14  1  0.33908454  0.42460846  0.85732635  1
  Ti  Ti15  1  0.36304200  0.70501131  0.22838422  1
  Ti  Ti16  1  0.42435172  0.76735975  0.59399004  1
  Ti  Ti17  1  0.42446392  0.79229442  0.89909492  1
  Ti  Ti18  1  0.74691957  0.02016799  0.31716513  1
  Ti  Ti19  1  0.78994007  0.08993061  0.64429861  1
  Ti  Ti20  1  0.68637649  0.08507421  0.96583483  1
  Ti  Ti21  1  0.72656152  0.35910149  0.29616282  1
  Ti  Ti22  1  0.72097411  0.42218694  0.56580540  1
  Ti  Ti23  1  0.75444945  0.37512511  0.85171324  1
  Ti  Ti24  1  0.75461278  0.71650018  0.33909220  1
  Ti  Ti25  1  0.78143367  0.75493558  0.54155452  1
  Ti  Ti26  1  0.80510033  0.72038373  0.90966177  1
  Ti  Ti27  1  0.14900615  0.13703318  0.12764510  1
  Ti  Ti28  1  0.11790290  0.23981312  0.41432158  1
  Ti  Ti29  1  0.13984964  0.26422505  0.66311770  1
  Ti  Ti30  1  0.09781441  0.58398410  0.01436363  1
  Ti  Ti31  1  0.02295511  0.57734552  0.48199496  1
  Ti  Ti32  1  0.07361572  0.60364208  0.68024388  1
  Ti  Ti33  1  0.07370699  0.92906948  0.04779099  1
  Ti  Ti34  1  0.13588848  0.94244315  0.44605039  1
  Ti  Ti35  1  -0.03347301  0.92219714  0.77961097  1
  Ti  Ti36  1  0.41488914  0.22606032  0.09648760  1
  Ti  Ti37  1  0.48058722  0.23182369  0.45954652  1
  Ti  Ti38  1  0.39165719  0.24121128  0.78030470  1
  Ti  Ti39  1  0.38014276  0.54969065  0.06067814  1
  Ti  Ti40  1  0.44439040  0.56199646  0.35474183  1
  Ti  Ti41  1  0.37398051  0.56945921  0.68416116  1
  Ti  Ti42  1  0.39037040  0.87055723  0.10551679  1
  Ti  Ti43  1  0.43167127  0.88464582  0.43654941  1
  Ti  Ti44  1  0.35299493  0.96129929  0.78010546  1
  Ti  Ti45  1  0.73811199  0.28237119  0.04275727  1
  Ti  Ti46  1  0.70181215  0.23307280  0.45879684  1
  Ti  Ti47  1  0.70252933  0.27798448  0.68855858  1
  Ti  Ti48  1  0.75778846  0.60997665  0.09163674  1
  Ti  Ti49  1  0.76361985  0.53318332  0.41360588  1
  Ti  Ti50  1  0.72556091  0.67615240  0.73536562  1
  Ti  Ti51  1  0.69693240  0.90195989  0.02651859  1
  Ti  Ti52  1  0.78796827  0.95645508  0.51186277  1
  Ti  Ti53  1  0.77613908  0.90626646  0.81987631  1
  Ti  Ti54  1  0.31914313  0.06839537  0.04381423  1
  Ti  Ti55  1  0.20091456  0.08393572  0.33255489  1
  Ti  Ti56  1  0.17571857  0.09546922  0.77521626  1
  Ti  Ti57  1  0.20851693  0.44353129  0.12394295  1
  Ti  Ti58  1  0.21985026  0.38914694  0.31816478  1
  Ti  Ti59  1  0.27450008  0.39184716  0.66663811  1
  Ti  Ti60  1  0.23198571  0.75399346  0.01897127  1
  Ti  Ti61  1  0.21783013  0.76727050  0.38567884  1
  Ti  Ti62  1  0.23487276  0.69012248  0.69440000  1
  Ti  Ti63  1  0.60167904  0.11522742  0.13697552  1
  Ti  Ti64  1  0.60140630  0.13009720  0.33259292  1
  Ti  Ti65  1  0.66507699  0.07544561  0.77638835  1
  Ti  Ti66  1  0.59608760  0.50387130  0.07406440  1
  Ti  Ti67  1  0.58389905  0.44460662  0.43203946  1
  Ti  Ti68  1  0.58429826  0.46785616  0.82097160  1
  Ti  Ti69  1  0.54428342  0.72215323  0.14224811  1
  Ti  Ti70  1  0.55772704  0.75616783  0.34299036  1
  Ti  Ti71  1  0.55740820  0.75089317  0.74494966  1
  Ti  Ti72  1  0.88664985  0.09752635  0.19698158  1
  Ti  Ti73  1  0.98395877  0.08952079  0.40346219  1
  Ti  Ti74  1  0.97382589  0.11988846  0.72099091  1
  Ti  Ti75  1  0.89637217  0.46466945  0.13012607  1
  Ti  Ti76  1  0.90865823  0.43902069  0.32296153  1
  Ti  Ti77  1  0.93301948  0.39184583  0.81235665  1
  Ti  Ti78  1  0.93462147  0.67511260  0.06500330  1
  Ti  Ti79  1  0.94840522  0.77335947  0.34481603  1
  Ti  Ti80  1  0.92779574  0.72466831  0.75077016  1
  Ti  Ti81  1  0.33853161  0.23846664  0.31864666  1
  Ti  Ti82  1  0.28887846  0.27610433  0.50816931  1
  Ti  Ti83  1  0.25928045  0.24581602  0.95901295  1
  Ti  Ti84  1  0.19780615  0.58485621  0.29370683  1
  Ti  Ti85  1  0.30731497  0.62459719  0.50206534  1
  Ti  Ti86  1  0.30871597  0.62590636  0.88565551  1
  Ti  Ti87  1  0.28887102  0.91234611  0.28322778  1
  Ti  Ti88  1  0.25093391  0.98802866  0.61029844  1
  Ti  Ti89  1  0.23977206  0.93903024  0.94432959  1
  Ti  Ti90  1  0.59420535  0.30454935  0.17319307  1
  Ti  Ti91  1  0.59997410  0.12466189  0.59842725  1
  Ti  Ti92  1  0.59320815  0.24796839  0.85513541  1
  Ti  Ti93  1  0.63383259  0.58121589  0.26421199  1
  Ti  Ti94  1  0.56954405  0.57147223  0.64336560  1
  Ti  Ti95  1  0.57961932  0.64837358  0.93473177  1
  Ti  Ti96  1  0.59278910  0.92410954  0.19863603  1
  Ti  Ti97  1  0.57668629  0.92217444  0.58285769  1
  Ti  Ti98  1  0.56249604  0.94007426  0.86177167  1
  Ti  Ti99  1  0.88794981  0.23758423  0.33222013  1
  Ti  Ti100  1  0.87518391  0.25911719  0.56289442  1
  Ti  Ti101  1  0.91347408  0.21667292  0.89881294  1
  Ti  Ti102  1  0.95555417  0.60510135  0.27300719  1
  Ti  Ti103  1  0.87676945  0.56698209  0.63952744  1
  Ti  Ti104  1  0.88644651  0.53040440  0.94323245  1
  Ti  Ti105  1  0.83585380  0.89878887  0.20191800  1
  Ti  Ti106  1  0.96738868  0.91910414  0.55117638  1
  Ti  Ti107  1  0.87135528  0.97808666  0.98833718  1
  Co  Co108  1  0.03678677  0.15673617  0.26045765  1
  Co  Co109  1  0.07765690  0.22000546  0.84074542  1
  Co  Co110  1  0.48327351  0.89162979  0.72363223  1
  Co  Co111  1  0.87261122  0.63502704  0.45425024  1
  Co  Co112  1  0.85371413  0.06127994  0.83243638  1
  Co  Co113  1  0.48874635  0.38455762  0.07375033  1
  Co  Co114  1  0.26372019  0.80370518  0.85239655  1
  Co  Co115  1  0.47247213  0.18927448  0.24575916  1
  Co  Co116  1  0.84693471  0.57868238  0.79893832  1
  Co  Co117  1  0.71092213  0.56174613  0.89024146  1
  Co  Co118  1  0.08877958  -0.03295940  0.67066918  1
  Co  Co119  1  0.32546546  0.52706204  0.22881965  1
  Co  Co120  1  0.32058552  0.10332781  0.86140144  1
  Co  Co121  1  0.44274029  0.43143307  0.73323623  1
  Co  Co122  1  0.23945929  0.62226851  0.11353190  1
  Co  Co123  1  0.57004748  0.29887261  0.34299310  1
  Co  Co124  1  0.27441990  0.17294772  0.66931899  1
  Co  Co125  1  -0.01987423  0.66210838  -0.10403241  1
  Co  Co126  1  0.66523019  0.05264273  0.47157130  1
  Co  Co127  1  0.22898463  0.52643506  0.76024400  1
  Co  Co128  1  0.06181754  0.79975217  0.46109918  1
  Co  Co129  1  -0.06648167  0.82829128  0.90723540  1
  Co  Co130  1  0.72133415  0.43701624  0.16092030  1
  Co  Co131  1  0.46957437  0.48533258  -0.06156672  1
  Co  Co132  1  0.84018817  0.22363746  0.74744370  1
  Co  Co133  1  0.50028830  0.04777632  0.48036937  1
  Co  Co134  1  0.13474132  0.60716139  0.85565696  1
  Co  Co135  1  0.92679564  0.08076915  0.55940585  1
  Co  Co136  1  0.74956752  0.19957803  0.87394900  1
  Co  Co137  1  0.23443600  0.27582996  0.80312935  1
  Co  Co138  1  0.22348846  0.49895626  -0.04710129  1
  Co  Co139  1  0.45497342  0.85931688  0.26271967  1
  Co  Co140  1  0.23494761  0.85418859  0.70560863  1
  Co  Co141  1  0.56026963  0.44150586  0.25734712  1
  Co  Co142  1  0.17981324  0.23683166  0.25590875  1
  Co  Co143  1  0.59035687  0.30186820  0.54828688  1
  Co  Co144  1  0.27013194  0.28305951  0.14057466  1
  Co  Co145  1  0.02443154  0.23463119  0.55015943  1
  Co  Co146  1  0.29716127  -0.02696556  0.44611174  1
  Co  Co147  1  0.42674876  0.38045532  0.38328952  1
  Co  Co148  1  0.08244088  0.66916403  0.36400178  1
  Co  Co149  1  0.22424104  0.12156246  0.50015976  1
  Co  Co150  1  0.74359831  0.02793859  0.13572020  1
  Co  Co151  1  0.41198038  0.70681012  0.03984091  1
  Co  Co152  1  0.57958399  0.40973568  0.65865610  1
  Co  Co153  1  0.60882434  0.37895912  -0.03703477  1
  Co  Co154  1  0.40231710  -0.05865053  0.58817277  1
  Co  Co155  1  -0.01228737  0.28361507  0.71403353  1
  Co  Co156  1  0.36206269  0.12237652  0.43622732  1
  Co  Co157  1  0.57220279  0.23035351  0.01940295  1
  Co  Co158  1  0.09935634  0.84156314  0.29835287  1
  Co  Co159  1  0.48122350  0.57641265  0.19211139  1
  Co  Co160  1  0.50282411  0.08829123  0.76665147  1
  Co  Co161  1  0.00089663  0.53169694  0.79364187  1
  Ni  Ni162  1  0.68130284  0.73881535  0.03555092  1
  Ni  Ni163  1  -0.00635822  0.07882080  0.07290629  1
  Ni  Ni164  1  0.05970794  0.76688904  0.00906332  1
  Ni  Ni165  1  0.71449038  -0.08391826  0.66682370  1
  Ni  Ni166  1  0.19952269  0.52555366  0.59242440  1
  Ni  Ni167  1  0.30752906  0.11407791  0.20535828  1
  Ni  Ni168  1  0.69100093  0.78355640  0.19734084  1
  Ni  Ni169  1  -0.04178286  -0.06692659  0.36713475  1
  Ni  Ni170  1  0.86141116  0.84757923  0.65772460  1
  Ni  Ni171  1  0.72189360  0.59991485  0.57526574  1
  Ni  Ni172  1  0.13663992  -0.07077204  0.81969325  1
  Ni  Ni173  1  0.83993015  0.81365644  0.05274779  1
  Ni  Ni174  1  0.62664269  0.63142307  0.43820014  1
  Ni  Ni175  1  0.79977666  0.55601289  0.24730200  1
  Ni  Ni176  1  -0.01779057  0.83011070  0.15562040  1
  Ni  Ni177  1  0.07533980  0.47842552  0.34998678  1
  Ni  Ni178  1  0.05817979  0.50586262  0.18067140  1
  Ni  Ni179  1  0.41264787  -0.04713644  -0.04510820  1
  Ni  Ni180  1  0.15301944  0.68040856  0.53041293  1
  Ni  Ni181  1  0.21473759  -0.02677829  0.14433640  1
  Ni  Ni182  1  0.15550082  0.38334874  0.50659597  1
  Ni  Ni183  1  0.55008503  -0.00954114  0.03528768  1
  Ni  Ni184  1  0.38154026  0.74187131  0.75059011  1
  Ni  Ni185  1  0.65238071  0.79621991  0.87819880  1
  Ni  Ni186  1  -0.04503088  0.72014741  0.57654739  1
  Ni  Ni187  1  0.30237232  0.47899673  0.42163774  1
  Ni  Ni188  1  0.65808963  0.83700298  0.45627106  1
  Ni  Ni189  1  -0.10197488  0.46366825  0.51859838  1
  Ni  Ni190  1  0.81652335  0.11661814  0.44316244  1
  Ni  Ni191  1  0.27121216  0.82130852  0.53869096  1
  Ni  Ni192  1  0.53867483  0.82694950  0.01227997  1
  Ni  Ni193  1  0.57909361  -0.04985108  0.36408203  1
  Ni  Ni194  1  0.22885992  0.79428190  0.18602887  1
  Ni  Ni195  1  0.80478173  0.86704343  0.37495187  1
  Ni  Ni196  1  0.85819561  0.31180867  0.18345402  1
  Ni  Ni197  1  0.84786284  0.38387362  0.67184465  1
  Ni  Ni198  1  0.75449251  0.45022193  0.00465889  1
  Ni  Ni199  1  0.74023288  0.18785282  0.22222792  1
  Ni  Ni200  1  0.44848288  0.30555073  0.93148027  1
  Ni  Ni201  1  0.44729940  0.04133643  0.15282764  1
  Ni  Ni202  1  0.39050661  0.72899591  0.39892991  1
  Ni  Ni203  1  0.60946667  0.73240338  0.58149812  1
  Ni  Ni204  1  0.17315199  0.10140608  -0.04491637  1
  Ni  Ni205  1  0.72271330  0.49535589  0.72048472  1
  Ni  Ni206  1  0.33354297  0.38459278  0.02664979  1
  Ni  Ni207  1  -0.00421014  0.35214019  0.43740363  1
  Ni  Ni208  1  0.53831000  0.24125729  0.69879554  1
  Ni  Ni209  1  0.41883368  0.30481511  0.61603064  1
  Ni  Ni210  1  0.83277900  0.14150552  0.03900831  1
  Ni  Ni211  1  0.84850757  0.72586276  0.19742882  1
  Ni  Ni212  1  0.47968479  0.62634053  0.51280051  1
  Ni  Ni213  1  0.81884494  0.35414090  0.43536061  1
  Ni  Ni214  1  0.47375882  0.60455788  0.81187365  1
