# generated using pymatgen
data_Ti108Co54Ni53
_symmetry_space_group_name_H-M   'P 1'
_cell_length_a   14.63938507
_cell_length_b   14.68920517
_cell_length_c   14.69222597
_cell_angle_alpha   89.92245580
_cell_angle_beta   90.09621723
_cell_angle_gamma   90.14962239
_symmetry_Int_Tables_number   1
_chemical_formula_structural   Ti108Co54Ni53
_chemical_formula_sum   'Ti108 Co54 Ni53'
_cell_volume   3159.41184740
_cell_formula_units_Z   1
loop_
 _symmetry_equiv_pos_site_id
 _symmetry_equiv_pos_as_xyz
  1  'x, y, z'
loop_
 _atom_site_type_symbol
 _atom_site_label
 _atom_site_symmetry_multiplicity
 _atom_site_fract_x
 _atom_site_fract_y
 _atom_site_fract_z
 _atom_site_occupancy
  Ti  Ti0  1  0.08837839  0.01958428  0.21494669  1
  Ti  Ti1  1  0.12418131  0.08851109  0.67338232  1
  Ti  Ti2  1  0.11706561  0.12756276  0.89350646  1
  Ti  Ti3  1  0.00967960  0.41048575  0.23600851  1
  Ti  Ti4  1  0.12542182  0.38823642  0.55218530  1
  Ti  Ti5  1  0.12431750  0.45663010  0.91176983  1
  Ti  Ti6  1  0.09886700  0.83584475  0.28570951  1
  Ti  Ti7  1  0.07192785  0.76808087  0.52306463  1
  Ti  Ti8  1  0.12512261  0.78725689  0.91312649  1
  Ti  Ti9  1  0.36309533  0.08527185  0.30765060  1
  Ti  Ti10  1  0.46618057  0.08421114  0.56058434  1
  Ti  Ti11  1  0.38611472  0.12842103  0.91916479  1
  Ti  Ti12  1  0.37151012  0.40295814  0.23419417  1
  Ti  Ti13  1  0.43362033  0.40303162  0.62721704  1
  Ti  Ti14  1  0.47573654  0.41420896  0.94464168  1
  Ti  Ti15  1  0.39302550  0.72549633  0.28514422  1
  Ti  Ti16  1  0.38479014  0.75093994  0.59690408  1
  Ti  Ti17  1  0.35321507  0.73855567  0.96206371  1
  Ti  Ti18  1  0.78727605  0.07753795  0.29048290  1
  Ti  Ti19  1  0.65726137  0.09599792  0.62528261  1
  Ti  Ti20  1  0.80163920  0.13671924  0.87059421  1
  Ti  Ti21  1  0.68135967  0.48043936  0.26177941  1
  Ti  Ti22  1  0.79339020  0.44035896  0.54915075  1
  Ti  Ti23  1  0.74338364  0.32895429  0.86919082  1
  Ti  Ti24  1  0.75407839  0.64209950  0.32864055  1
  Ti  Ti25  1  0.68679730  0.71240462  0.61582936  1
  Ti  Ti26  1  0.82017188  0.74170962  0.90837770  1
  Ti  Ti27  1  0.02700742  0.26613434  0.03190579  1
  Ti  Ti28  1  0.04324416  0.20981523  0.48818122  1
  Ti  Ti29  1  0.04747560  0.30387864  0.73084581  1
  Ti  Ti30  1  0.11165203  0.59330538  0.07509244  1
  Ti  Ti31  1  0.12504016  0.59493110  0.42294167  1
  Ti  Ti32  1  0.12342374  0.61184948  0.78201213  1
  Ti  Ti33  1  0.06598210  0.85246142  0.09208844  1
  Ti  Ti34  1  0.08161947  0.96545370  0.43328316  1
  Ti  Ti35  1  0.05064376  0.91848884  0.75889978  1
  Ti  Ti36  1  0.40161244  0.28667810  0.06154477  1
  Ti  Ti37  1  0.33740174  0.28043766  0.38805619  1
  Ti  Ti38  1  0.38578791  0.21875437  0.71432419  1
  Ti  Ti39  1  0.44817433  0.63959242  0.09014367  1
  Ti  Ti40  1  0.44453757  0.57956659  0.43296023  1
  Ti  Ti41  1  0.40993552  0.64499535  0.76889438  1
  Ti  Ti42  1  0.38402441  0.94434269  0.04612222  1
  Ti  Ti43  1  0.46023820  0.94239786  0.40871754  1
  Ti  Ti44  1  0.39580596  0.93629541  0.70022757  1
  Ti  Ti45  1  0.72352594  0.26946718  0.07891222  1
  Ti  Ti46  1  0.73571060  0.25881243  0.33337919  1
  Ti  Ti47  1  0.72782645  0.27412507  0.67443239  1
  Ti  Ti48  1  0.79628786  0.57975312  0.11664958  1
  Ti  Ti49  1  0.90412889  0.56705119  0.42119290  1
  Ti  Ti50  1  0.77733694  0.57437370  0.80170583  1
  Ti  Ti51  1  0.80379159  0.92639271  0.14390138  1
  Ti  Ti52  1  0.70388660  0.91873051  0.35667542  1
  Ti  Ti53  1  0.74721176  0.85509131  0.74177140  1
  Ti  Ti54  1  0.32883034  0.10958703  0.11442630  1
  Ti  Ti55  1  0.16262874  0.13012021  0.36448056  1
  Ti  Ti56  1  0.27042565  0.06183497  0.79117101  1
  Ti  Ti57  1  0.22061515  0.43280182  0.09844660  1
  Ti  Ti58  1  0.26230171  0.46282139  0.39141570  1
  Ti  Ti59  1  0.26652250  0.37783335  0.76950109  1
  Ti  Ti60  1  0.24134369  0.75684212  0.12945251  1
  Ti  Ti61  1  0.26699280  0.81342284  0.42958491  1
  Ti  Ti62  1  0.21681922  0.79420837  0.69243017  1
  Ti  Ti63  1  0.51543230  0.11732041  0.17510294  1
  Ti  Ti64  1  0.59113732  0.08502438  0.34266341  1
  Ti  Ti65  1  0.51278818  0.07612796  0.76500034  1
  Ti  Ti66  1  0.53672694  0.45084387  0.12720424  1
  Ti  Ti67  1  0.61366718  0.40170627  0.42659889  1
  Ti  Ti68  1  0.56436929  0.35791843  0.76593891  1
  Ti  Ti69  1  0.63611764  0.75122700  0.01193636  1
  Ti  Ti70  1  0.59618103  0.72953688  0.41735009  1
  Ti  Ti71  1  0.58920467  0.58857662  0.73855522  1
  Ti  Ti72  1  0.95397919  0.09687609  0.05154761  1
  Ti  Ti73  1  0.87934817  0.03976072  0.45833822  1
  Ti  Ti74  1  0.96098822  0.10067651  0.75730854  1
  Ti  Ti75  1  0.87935141  0.39909124  0.08533106  1
  Ti  Ti76  1  0.92641796  0.35891758  0.41517329  1
  Ti  Ti77  1  0.86722102  0.41238817  0.72539975  1
  Ti  Ti78  1  0.95485410  0.70542134  0.05440784  1
  Ti  Ti79  1  0.86614288  0.77519148  0.43070733  1
  Ti  Ti80  1  0.92103161  0.77296381  0.66036123  1
  Ti  Ti81  1  0.22826642  0.22744144  0.22728311  1
  Ti  Ti82  1  0.24464778  0.22419971  0.56976382  1
  Ti  Ti83  1  0.22306907  0.24788487  1.01237196  1
  Ti  Ti84  1  0.26995779  0.57752057  0.22757902  1
  Ti  Ti85  1  0.28023419  0.53265892  0.56193774  1
  Ti  Ti86  1  0.32856283  0.53569772  0.91551034  1
  Ti  Ti87  1  0.30036989  0.90149683  0.25202998  1
  Ti  Ti88  1  0.23050913  0.94166384  0.57761164  1
  Ti  Ti89  1  0.29145782  0.89186125  0.86793024  1
  Ti  Ti90  1  0.56851425  0.29792796  0.24957953  1
  Ti  Ti91  1  0.60087578  0.21957930  0.49195218  1
  Ti  Ti92  1  0.55905712  0.23180622  0.91683601  1
  Ti  Ti93  1  0.60188703  0.67984147  0.21521270  1
  Ti  Ti94  1  0.59224072  0.53255746  0.55914330  1
  Ti  Ti95  1  0.55654428  0.58308387  0.93329775  1
  Ti  Ti96  1  0.53386239  0.85879405  0.26280774  1
  Ti  Ti97  1  0.56943405  0.90610792  0.62171502  1
  Ti  Ti98  1  0.56371097  0.87890645  0.83329515  1
  Ti  Ti99  1  0.89566314  0.22285024  0.20734638  1
  Ti  Ti100  1  0.87803965  0.19321170  0.58674588  1
  Ti  Ti101  1  0.93842725  0.35920673  0.89680004  1
  Ti  Ti102  1  0.92363540  0.67649038  0.24600053  1
  Ti  Ti103  1  0.93827244  0.57881041  0.64108824  1
  Ti  Ti104  1  0.91467363  0.54056593  0.95153374  1
  Ti  Ti105  1  0.92106147  0.91959754  0.32148461  1
  Ti  Ti106  1  0.89139055  0.96817950  0.64640026  1
  Ti  Ti107  1  0.96159976  0.95912314  0.92523140  1
  Co  Co108  1  0.75431415  0.56531673  0.64048414  1
  Co  Co109  1  0.22517008  -0.01423651  0.14173835  1
  Co  Co110  1  0.08128237  0.69178417  0.19864102  1
  Co  Co111  1  0.43208882  0.56626168  0.62577155  1
  Co  Co112  1  0.44135647  -0.02360808  0.20976569  1
  Co  Co113  1  0.52760144  0.68864899  0.56244546  1
  Co  Co114  1  0.51080056  0.44089363  0.30966796  1
  Co  Co115  1  0.38812782  0.90650522  0.54066978  1
  Co  Co116  1  0.77835199  0.45224220  -0.03379527  1
  Co  Co117  1  0.29024609  0.38012201  -0.05835311  1
  Co  Co118  1  0.58770853  0.57986045  0.35477811  1
  Co  Co119  1  0.89631310  0.85291315  0.02341932  1
  Co  Co120  1  0.47992157  0.83355668  -0.02718628  1
  Co  Co121  1  0.69902901  0.43528935  0.70969908  1
  Co  Co122  1  0.17682127  0.08212982  0.51774483  1
  Co  Co123  1  0.17997471  0.29792813  0.41885837  1
  Co  Co124  1  0.08507596  0.43211426  0.38306218  1
  Co  Co125  1  0.12649272  0.30276211  0.87418445  1
  Co  Co126  1  0.38105701  0.47353077  0.07554560  1
  Co  Co127  1  0.55658750  0.26563441  0.08717522  1
  Co  Co128  1  0.87890750  0.25176012  0.75484225  1
  Co  Co129  1  0.07447047  -0.09646557  0.60991910  1
  Co  Co130  1  0.86092639  0.51666400  0.26255612  1
  Co  Co131  1  0.11864420  0.53287614  0.25571883  1
  Co  Co132  1  0.19101527  0.22277470  0.73012095  1
  Co  Co133  1  0.42785676  0.42228695  0.45748501  1
  Co  Co134  1  0.73130709  0.61270884  -0.04566891  1
  Co  Co135  1  0.43992942  0.77640316  0.43459917  1
  Co  Co136  1  0.78347956  0.43696831  0.38427255  1
  Co  Co137  1  0.24937334  0.05519175  -0.02242806  1
  Co  Co138  1  0.71392478  0.56629005  0.46399256  1
  Co  Co139  1  0.86175166  0.23924815  0.00652905  1
  Co  Co140  1  0.43074678  -0.02859128  0.87359039  1
  Co  Co141  1  0.64276743  0.47240376  0.85730501  1
  Co  Co142  1  0.70603034  0.42554688  0.11495620  1
  Co  Co143  1  0.79751011  0.10579025  0.70735411  1
  Co  Co144  1  0.05060829  0.26605601  0.32705736  1
  Co  Co145  1  0.40390373  0.80763834  0.79233112  1
  Co  Co146  1  -0.05158451  0.89373057  0.50880996  1
  Co  Co147  1  0.28774729  0.60784272  0.06754261  1
  Co  Co148  1  0.14455146  0.13893014  0.08913018  1
  Co  Co149  1  0.04366209  0.43139734  0.04787972  1
  Co  Co150  1  0.87690725  0.20349955  0.39860458  1
  Co  Co151  1  0.51936652  0.72047474  0.87180176  1
  Co  Co152  1  -0.03306803  0.54782236  0.13877711  1
  Co  Co153  1  0.29779747  0.36857915  0.53404346  1
  Co  Co154  1  0.67460617  0.72017221  0.82157812  1
  Co  Co155  1  0.45345730  0.48466016  0.79343816  1
  Co  Co156  1  0.41220584  0.30696286  0.84542745  1
  Co  Co157  1  0.83000465  0.66245694  0.53798163  1
  Co  Co158  1  0.27321214  0.22521641  0.86137021  1
  Co  Co159  1  0.20057315  0.38707275  0.26738570  1
  Co  Co160  1  0.62627155  0.37592922  -0.01517898  1
  Co  Co161  1  0.04310287  0.17333062  0.20075529  1
  Ni  Ni162  1  0.66260647  0.85007999  0.50114325  1
  Ni  Ni163  1  0.66383149  0.83304299  0.16700333  1
  Ni  Ni164  1  0.60492885  0.00702041  0.48492157  1
  Ni  Ni165  1  0.84412635  -0.02139457  0.81055551  1
  Ni  Ni166  1  0.64217057  -0.00642113  0.20994821  1
  Ni  Ni167  1  0.14899314  0.47153498  0.69496010  1
  Ni  Ni168  1  0.31408184  0.07998122  0.63217461  1
  Ni  Ni169  1  0.92956880  0.65323908  0.79191405  1
  Ni  Ni170  1  0.43173529  0.25463894  0.52889014  1
  Ni  Ni171  1  0.02996064  0.64927280  -0.08208750  1
  Ni  Ni172  1  0.79334610  0.74453761  0.11540399  1
  Ni  Ni173  1  0.19298867  0.62767958  -0.06148307  1
  Ni  Ni174  1  0.65293520  0.17626728  0.78873363  1
  Ni  Ni175  1  0.22697774  0.70136547  0.54630486  1
  Ni  Ni176  1  0.10388627  0.61613032  0.60805363  1
  Ni  Ni177  1  0.26315996  0.62156132  0.68994383  1
  Ni  Ni178  1  0.11440123  0.31062396  0.15263037  1
  Ni  Ni179  1  0.76182768  0.28763591  0.49534519  1
  Ni  Ni180  1  0.54448842  0.76283501  0.71096840  1
  Ni  Ni181  1  0.67216468  0.00142451  0.76069393  1
  Ni  Ni182  1  0.73195726  0.11751894  0.45429472  1
  Ni  Ni183  1  0.50629125  0.11081077  0.01851017  1
  Ni  Ni184  1  0.60256648  0.36161037  0.59020372  1
  Ni  Ni185  1  -0.03398136  0.80068690  0.85783862  1
  Ni  Ni186  1  0.01005637  0.05655650  0.56333876  1
  Ni  Ni187  1  0.26266072  0.71630189  0.82469228  1
  Ni  Ni188  1  -0.03412368  0.19466634  0.88903686  1
  Ni  Ni189  1  0.63074936  0.58474177  0.08686634  1
  Ni  Ni190  1  0.29691076  0.63973762  0.41117832  1
  Ni  Ni191  1  0.21284935  0.72163323  0.29786400  1
  Ni  Ni192  1  0.44765838  0.57297922  0.24510346  1
  Ni  Ni193  1  -0.00420201  0.49531373  0.79756790  1
  Ni  Ni194  1  0.26323245  -0.02100047  0.40536045  1
  Ni  Ni195  1  0.67612680  0.16103900  0.19909889  1
  Ni  Ni196  1  0.22208255  0.88437294  0.01844587  1
  Ni  Ni197  1  0.01115053  0.49610929  0.51908489  1
  Ni  Ni198  1  -0.01299267  0.09786913  0.34084673  1
  Ni  Ni199  1  0.42841522  0.80507335  0.13548487  1
  Ni  Ni200  1  0.74839715  -0.01837942  0.56499560  1
  Ni  Ni201  1  -0.04492659  0.34985624  0.58785657  1
  Ni  Ni202  1  0.91954690  0.04258468  0.19870194  1
  Ni  Ni203  1  0.14286943  -0.03665740  0.88150451  1
  Ni  Ni204  1  0.48358791  0.20502352  0.37160956  1
  Ni  Ni205  1  0.06239292  0.75069972  0.72583466  1
  Ni  Ni206  1  0.78770807  0.80212821  0.27458353  1
  Ni  Ni207  1  -0.06575414  0.82859694  0.18535309  1
  Ni  Ni208  1  0.02602884  0.71151668  0.36783185  1
  Ni  Ni209  1  0.80116357  0.83264999  0.57658162  1
  Ni  Ni210  1  0.09351203  0.00175851  0.03057191  1
  Ni  Ni211  1  0.81201065  0.36426457  0.23368475  1
  Ni  Ni212  1  0.33672847  0.11868206  0.46693372  1
  Ni  Ni213  1  0.54278892  0.21948156  0.65685790  1
  Ni  Ni214  1  0.40308001  0.23664932  0.22429114  1
