# generated using pymatgen
data_Ti108Co54Ni53
_symmetry_space_group_name_H-M   'P 1'
_cell_length_a   14.57345501
_cell_length_b   14.66419816
_cell_length_c   14.63311101
_cell_angle_alpha   90.07798780
_cell_angle_beta   89.86287198
_cell_angle_gamma   89.99040715
_symmetry_Int_Tables_number   1
_chemical_formula_structural   Ti108Co54Ni53
_chemical_formula_sum   'Ti108 Co54 Ni53'
_cell_volume   3127.20145746
_cell_formula_units_Z   1
loop_
 _symmetry_equiv_pos_site_id
 _symmetry_equiv_pos_as_xyz
  1  'x, y, z'
loop_
 _atom_site_type_symbol
 _atom_site_label
 _atom_site_symmetry_multiplicity
 _atom_site_fract_x
 _atom_site_fract_y
 _atom_site_fract_z
 _atom_site_occupancy
  Ti  Ti0  1  0.09463150  0.14925651  0.23925196  1
  Ti  Ti1  1  0.08641150  0.11169793  0.49611392  1
  Ti  Ti2  1  0.06364292  0.08537681  0.91806741  1
  Ti  Ti3  1  0.02343609  0.39363869  0.23646323  1
  Ti  Ti4  1  0.09824122  0.37164104  0.61423717  1
  Ti  Ti5  1  0.03721144  0.38523181  0.93643452  1
  Ti  Ti6  1  0.04856263  0.74106501  0.26428207  1
  Ti  Ti7  1  0.02864273  0.78105704  0.61218104  1
  Ti  Ti8  1  0.11553233  0.78924074  0.94120686  1
  Ti  Ti9  1  0.43554440  0.09495254  0.19549956  1
  Ti  Ti10  1  0.35900613  0.13745836  0.64888540  1
  Ti  Ti11  1  0.44175068  0.09420316  0.89743698  1
  Ti  Ti12  1  0.40415702  0.36394129  0.16870787  1
  Ti  Ti13  1  0.40377869  0.32153866  0.59667544  1
  Ti  Ti14  1  0.37541611  0.44650676  0.89132402  1
  Ti  Ti15  1  0.47775541  0.79652453  0.19659926  1
  Ti  Ti16  1  0.38582888  0.76453600  0.54917140  1
  Ti  Ti17  1  0.44086784  0.76271981  0.91828519  1
  Ti  Ti18  1  0.74903581  0.13173587  0.24791465  1
  Ti  Ti19  1  0.68265703  0.10550909  0.58449660  1
  Ti  Ti20  1  0.75152287  0.11042921  0.90114439  1
  Ti  Ti21  1  0.83142760  0.49687610  0.26779147  1
  Ti  Ti22  1  0.78837006  0.43907199  0.61054699  1
  Ti  Ti23  1  0.65612951  0.42786352  0.95173701  1
  Ti  Ti24  1  0.68876387  0.78540761  0.21663452  1
  Ti  Ti25  1  0.70249859  0.69319264  0.59630917  1
  Ti  Ti26  1  0.78419037  0.74605701  0.93327495  1
  Ti  Ti27  1  0.09324352  0.28318183  0.08047454  1
  Ti  Ti28  1  0.11204315  0.30527877  0.40866959  1
  Ti  Ti29  1  0.08734732  0.27872527  0.78771688  1
  Ti  Ti30  1  0.08487676  0.60547229  0.03417838  1
  Ti  Ti31  1  0.10792417  0.56710086  0.54073240  1
  Ti  Ti32  1  0.07852784  0.67809914  0.79083269  1
  Ti  Ti33  1  0.08139378  0.89354297  0.13057876  1
  Ti  Ti34  1  0.15856039  0.97777151  0.35820962  1
  Ti  Ti35  1  0.06480262  0.96856128  0.65617788  1
  Ti  Ti36  1  0.35667760  0.21939934  0.06448397  1
  Ti  Ti37  1  0.48109300  0.18459205  0.49531009  1
  Ti  Ti38  1  0.45891078  0.25923472  0.77303388  1
  Ti  Ti39  1  0.40969571  0.55336780  0.12261692  1
  Ti  Ti40  1  0.51646574  0.54231133  0.46437065  1
  Ti  Ti41  1  0.44454118  0.48113283  0.71732762  1
  Ti  Ti42  1  0.49327419  0.93228330  0.04688865  1
  Ti  Ti43  1  0.43031736  0.94463448  0.41981130  1
  Ti  Ti44  1  0.40208861  0.84007555  0.74679421  1
  Ti  Ti45  1  0.69540972  0.26438229  0.08249828  1
  Ti  Ti46  1  0.77274939  0.26970383  0.44888182  1
  Ti  Ti47  1  0.69695201  0.21143754  0.74940020  1
  Ti  Ti48  1  0.76934380  0.63198724  0.11398708  1
  Ti  Ti49  1  0.73007407  0.57525074  0.42927743  1
  Ti  Ti50  1  0.74976532  0.53456001  0.80989274  1
  Ti  Ti51  1  0.78453997  0.96159006  0.15343885  1
  Ti  Ti52  1  0.74537719  0.91497282  0.37776793  1
  Ti  Ti53  1  0.67825101  0.86154566  0.71325975  1
  Ti  Ti54  1  0.31270867  0.03568307  0.06059231  1
  Ti  Ti55  1  0.29710028  0.08428283  0.46618444  1
  Ti  Ti56  1  0.19373770  0.07034101  0.74682272  1
  Ti  Ti57  1  0.25871102  0.39255135  0.03868578  1
  Ti  Ti58  1  0.32948805  0.40175467  0.38275156  1
  Ti  Ti59  1  0.25603037  0.41439104  0.70209407  1
  Ti  Ti60  1  0.27816302  0.71003609  0.04029265  1
  Ti  Ti61  1  0.15346912  0.76367706  0.44974824  1
  Ti  Ti62  1  0.19930950  0.83488810  0.74577646  1
  Ti  Ti63  1  0.64536596  0.07564165  0.07014280  1
  Ti  Ti64  1  0.60804063  0.04634533  0.40345256  1
  Ti  Ti65  1  0.54085818  0.01534421  0.71481294  1
  Ti  Ti66  1  0.57929635  0.41242740  0.15078066  1
  Ti  Ti67  1  0.64199435  0.41174859  0.34549025  1
  Ti  Ti68  1  0.63219324  0.37944655  0.74146335  1
  Ti  Ti69  1  0.61362118  0.74684031  0.04044510  1
  Ti  Ti70  1  0.64107803  0.73578275  0.41020296  1
  Ti  Ti71  1  0.54218030  0.70616288  0.72547077  1
  Ti  Ti72  1  0.94057838  0.08943544  0.14062066  1
  Ti  Ti73  1  0.91953872  0.01044225  0.44585162  1
  Ti  Ti74  1  0.90065915  0.01688370  0.80059945  1
  Ti  Ti75  1  0.87046529  0.36371389  0.07847274  1
  Ti  Ti76  1  1.00271203  0.47480718  0.40392586  1
  Ti  Ti77  1  0.94459829  0.45977731  0.75668782  1
  Ti  Ti78  1  0.95667604  0.74761536  0.07389369  1
  Ti  Ti79  1  0.95611898  0.77738961  0.42391580  1
  Ti  Ti80  1  0.89522978  0.77540105  0.77978396  1
  Ti  Ti81  1  0.21711660  0.31450316  0.22819710  1
  Ti  Ti82  1  0.23525104  0.26308327  0.54189492  1
  Ti  Ti83  1  0.21225724  0.22461099  0.92902057  1
  Ti  Ti84  1  0.17845995  0.58969850  0.22876567  1
  Ti  Ti85  1  0.29055099  0.58622734  0.60856642  1
  Ti  Ti86  1  0.19005155  0.52423071  0.90100210  1
  Ti  Ti87  1  0.30523100  0.90303859  0.20149073  1
  Ti  Ti88  1  0.34635019  0.94786349  0.60044302  1
  Ti  Ti89  1  0.32452709  0.94745455  0.88977390  1
  Ti  Ti90  1  0.49990713  0.28050185  0.31253574  1
  Ti  Ti91  1  0.61899007  0.29459639  0.56621097  1
  Ti  Ti92  1  0.54441892  0.25561294  0.96463764  1
  Ti  Ti93  1  0.55359864  0.61619037  0.26758471  1
  Ti  Ti94  1  0.62332442  0.54818854  0.64576187  1
  Ti  Ti95  1  0.52446344  0.58909601  0.94515170  1
  Ti  Ti96  1  0.60697692  0.95973637  0.22662731  1
  Ti  Ti97  1  0.59915329  0.89728156  0.51881254  1
  Ti  Ti98  1  0.65056080  0.94278371  0.89836533  1
  Ti  Ti99  1  0.82879368  0.29617138  0.27219034  1
  Ti  Ti100  1  0.93389829  0.33207322  0.54293114  1
  Ti  Ti101  1  0.88998462  0.23545828  0.86254697  1
  Ti  Ti102  1  0.98709973  0.57574177  0.20490263  1
  Ti  Ti103  1  0.90416614  0.59845208  0.51945429  1
  Ti  Ti104  1  0.87729906  0.54614155  0.96863590  1
  Ti  Ti105  1  0.91398668  0.86815404  0.24497202  1
  Ti  Ti106  1  0.86317632  0.92482286  0.63982507  1
  Ti  Ti107  1  0.95398223  0.89264801  0.93171413  1
  Co  Co108  1  0.80893139  0.78018740  0.33452018  1
  Co  Co109  1  0.27723886  0.80840753  0.90365120  1
  Co  Co110  1  0.31947634  0.70828689  0.71550190  1
  Co  Co111  1  0.80286540  0.80526399  0.08633373  1
  Co  Co112  1  0.74720127  0.48205303  0.06747401  1
  Co  Co113  1  -0.06829026  0.93271072  0.08197218  1
  Co  Co114  1  0.37247353  0.28508707  -0.08341668  1
  Co  Co115  1  0.22842297  0.67594383  0.85285368  1
  Co  Co116  1  0.24903094  0.55081400  0.07344348  1
  Co  Co117  1  0.48062220  0.43165119  0.02065837  1
  Co  Co118  1  0.35536828  0.23190677  0.25801361  1
  Co  Co119  1  0.20845252  0.43456682  0.50755498  1
  Co  Co120  1  0.81033456  0.71761052  0.47273838  1
  Co  Co121  1  0.43304088  0.62338174  0.80418851  1
  Co  Co122  1  -0.02644401  0.47914932  0.60069319  1
  Co  Co123  1  0.73963336  0.64705795  0.28682297  1
  Co  Co124  1  0.79328942  -0.10148357  0.82437591  1
  Co  Co125  1  0.22751538  0.06507028  -0.07621010  1
  Co  Co126  1  0.52125561  0.38104532  0.86458661  1
  Co  Co127  1  0.71958304  0.03010354  0.74825356  1
  Co  Co128  1  0.81866359  0.58399766  0.66941785  1
  Co  Co129  1  0.45071304  -0.04768321  0.26370299  1
  Co  Co130  1  0.16212104  0.68658591  0.63819726  1
  Co  Co131  1  0.45345619  0.10847119  0.35892881  1
  Co  Co132  1  0.29191497  0.46910951  0.21940514  1
  Co  Co133  1  0.73698288  0.38395653  0.18566138  1
  Co  Co134  1  0.65464843  0.27164803  0.25377938  1
  Co  Co135  1  0.31036189  0.04446767  0.30551746  1
  Co  Co136  1  0.29380327  0.55440086  0.77509776  1
  Co  Co137  1  0.17497556  0.00436885  0.18613348  1
  Co  Co138  1  0.50759516  0.84841437  0.62636023  1
  Co  Co139  1  0.52825231  0.24212776  0.14000035  1
  Co  Co140  1  0.72277797  0.69354979  0.76060523  1
  Co  Co141  1  0.52914592  0.42910108  0.59172835  1
  Co  Co142  1  0.49111909  0.37171781  0.44669190  1
  Co  Co143  1  -0.03453847  0.70086465  -0.07506601  1
  Co  Co144  1  0.89877599  0.62209643  0.35780286  1
  Co  Co145  1  0.36121786  0.85183414  0.05073122  1
  Co  Co146  1  0.77469346  0.11034425  0.41344191  1
  Co  Co147  1  0.35637763  0.59775382  -0.04892360  1
  Co  Co148  1  0.88727327  0.61760746  0.81314570  1
  Co  Co149  1  0.14044711  -0.06007113  0.86373951  1
  Co  Co150  1  0.21114299  0.36808193  0.86373524  1
  Co  Co151  1  0.14114590  0.45137979  0.14114180  1
  Co  Co152  1  0.53473941  0.17950333  0.65620017  1
  Co  Co153  1  0.76358853  -0.00772891  0.52254000  1
  Co  Co154  1  0.47616067  0.46981231  0.29451225  1
  Co  Co155  1  0.45815872  0.70170571  0.07197130  1
  Co  Co156  1  0.71058723  0.27991612  -0.10126705  1
  Co  Co157  1  0.67280144  0.52395850  0.22392839  1
  Co  Co158  1  0.03288041  0.85984237  0.77645336  1
  Co  Co159  1  0.25820592  0.13927549  0.18241051  1
  Co  Co160  1  0.37530883  0.01004351  0.75204375  1
  Co  Co161  1  0.69618002  0.60853734  -0.04294884  1
  Ni  Ni162  1  0.82915049  0.43374369  0.42891203  1
  Ni  Ni163  1  0.61201329  0.77149013  0.86810270  1
  Ni  Ni164  1  0.54047226  0.69394134  0.54502618  1
  Ni  Ni165  1  0.23086714  0.82305800  0.58439990  1
  Ni  Ni166  1  0.80190847  0.14163222  0.06616413  1
  Ni  Ni167  1  0.07001541  0.62749404  0.38115591  1
  Ni  Ni168  1  0.20316026  0.17138384  0.35877588  1
  Ni  Ni169  1  0.13934254  0.73513211  0.12600124  1
  Ni  Ni170  1  -0.01920403  0.62818517  0.66847141  1
  Ni  Ni171  1  0.58021927  0.53000131  0.80795269  1
  Ni  Ni172  1  0.49921204  0.03475811  0.55668806  1
  Ni  Ni173  1  0.80228521  0.36419476  0.78183707  1
  Ni  Ni174  1  0.16432874  0.45216151  0.33312019  1
  Ni  Ni175  1  0.02327085  0.54699175  0.87929707  1
  Ni  Ni176  1  -0.07548184  0.17788888  0.48295161  1
  Ni  Ni177  1  0.11875325  0.52802666  0.71206646  1
  Ni  Ni178  1  0.58890562  0.58039229  0.09594896  1
  Ni  Ni179  1  -0.05006983  0.07479297  0.60920434  1
  Ni  Ni180  1  0.65730523  0.89979495  0.06840131  1
  Ni  Ni181  1  0.87867974  0.70639538  0.21371822  1
  Ni  Ni182  1  0.31964907  0.15519508  0.81685401  1
  Ni  Ni183  1  0.49236913  0.10844988  0.04499967  1
  Ni  Ni184  1  0.10939157  0.19234907  0.63581451  1
  Ni  Ni185  1  0.58552011  0.12625683  0.25220820  1
  Ni  Ni186  1  0.84441372  0.14413575  0.71520919  1
  Ni  Ni187  1  0.20527042  0.91488712  0.02338571  1
  Ni  Ni188  1  -0.00661325  0.46814221  0.07677686  1
  Ni  Ni189  1  0.01786627  0.00130262  0.27304222  1
  Ni  Ni190  1  0.79386975  -0.04055699  -0.01532885  1
  Ni  Ni191  1  0.28068167  0.87684668  0.42381429  1
  Ni  Ni192  1  0.66320535  0.44362430  0.50284058  1
  Ni  Ni193  1  -0.06047365  0.29097440  0.70668114  1
  Ni  Ni194  1  -0.08972406  0.06980322  -0.03307815  1
  Ni  Ni195  1  0.24588482  0.25409799  0.71619439  1
  Ni  Ni196  1  0.55512880  0.85383120  0.34561700  1
  Ni  Ni197  1  0.49461640  -0.07603538  0.86350932  1
  Ni  Ni198  1  0.85818537  0.74734962  0.62871011  1
  Ni  Ni199  1  0.18881293  -0.02603146  0.53328477  1
  Ni  Ni200  1  0.78740071  0.27081898  0.62177673  1
  Ni  Ni201  1  0.15086157  0.12372544  0.06317442  1
  Ni  Ni202  1  0.85408705  0.01418539  0.29497987  1
  Ni  Ni203  1  0.34544177  0.24266249  0.41576159  1
  Ni  Ni204  1  -0.03736481  0.24930492  0.18785584  1
  Ni  Ni205  1  0.18321763  0.83028068  0.28556558  1
  Ni  Ni206  1  0.59260569  0.12133125  0.83633503  1
  Ni  Ni207  1  0.92470393  0.15348948  0.31982115  1
  Ni  Ni208  1  0.37464417  0.46790672  0.53330415  1
  Ni  Ni209  1  0.74797852  0.84120545  0.55067134  1
  Ni  Ni210  1  -0.04895165  0.22503519  0.01736848  1
  Ni  Ni211  1  0.62645342  0.20764182  0.40336712  1
  Ni  Ni212  1  0.04437322  0.90648280  0.49463646  1
  Ni  Ni213  1  -0.05278690  0.31061641  0.37812918  1
  Ni  Ni214  1  0.01637587  0.13066234  0.75609851  1
