# generated using pymatgen
data_Ti108Co54Ni53
_symmetry_space_group_name_H-M   'P 1'
_cell_length_a   14.64030161
_cell_length_b   14.66297773
_cell_length_c   14.71129033
_cell_angle_alpha   90.12898253
_cell_angle_beta   89.88575887
_cell_angle_gamma   89.93116273
_symmetry_Int_Tables_number   1
_chemical_formula_structural   Ti108Co54Ni53
_chemical_formula_sum   'Ti108 Co54 Ni53'
_cell_volume   3158.06224784
_cell_formula_units_Z   1
loop_
 _symmetry_equiv_pos_site_id
 _symmetry_equiv_pos_as_xyz
  1  'x, y, z'
loop_
 _atom_site_type_symbol
 _atom_site_label
 _atom_site_symmetry_multiplicity
 _atom_site_fract_x
 _atom_site_fract_y
 _atom_site_fract_z
 _atom_site_occupancy
  Ti  Ti0  1  0.11135333  0.09028627  0.29675140  1
  Ti  Ti1  1  0.06944743  0.13622382  0.56759608  1
  Ti  Ti2  1  0.09957686  0.11414092  0.87480724  1
  Ti  Ti3  1  0.13461316  0.39941882  0.28555603  1
  Ti  Ti4  1  0.19887838  0.45285479  0.53301142  1
  Ti  Ti5  1  0.07056721  0.33777694  0.90526754  1
  Ti  Ti6  1  0.03439305  0.77216144  0.24358176  1
  Ti  Ti7  1  0.04820651  0.76961243  0.56825997  1
  Ti  Ti8  1  0.09284355  0.81591949  0.88737158  1
  Ti  Ti9  1  0.41731868  0.13790967  0.19712862  1
  Ti  Ti10  1  0.37173924  0.14668019  0.60217134  1
  Ti  Ti11  1  0.35651415  0.09359026  0.89953234  1
  Ti  Ti12  1  0.46896284  0.42387015  0.26887284  1
  Ti  Ti13  1  0.39308190  0.44775260  0.62162200  1
  Ti  Ti14  1  0.37318001  0.42442722  0.94091087  1
  Ti  Ti15  1  0.35523982  0.73788751  0.27047561  1
  Ti  Ti16  1  0.44020338  0.64127679  0.62017346  1
  Ti  Ti17  1  0.42008822  0.70110330  0.91016440  1
  Ti  Ti18  1  0.70735547  0.14747606  0.25531156  1
  Ti  Ti19  1  0.75809409  0.06495618  0.53834848  1
  Ti  Ti20  1  0.78624035  0.05844638  0.84722425  1
  Ti  Ti21  1  0.76825592  0.48297541  0.27760329  1
  Ti  Ti22  1  0.76302924  0.39390347  0.60858724  1
  Ti  Ti23  1  0.76046037  0.36007737  0.83303857  1
  Ti  Ti24  1  0.72681821  0.69640311  0.22975493  1
  Ti  Ti25  1  0.80000537  0.67957221  0.68707254  1
  Ti  Ti26  1  0.76075841  0.73470067  0.85896475  1
  Ti  Ti27  1  0.08824096  0.15822458  0.07360372  1
  Ti  Ti28  1  0.07470816  0.29102339  0.44417967  1
  Ti  Ti29  1  0.04945898  0.23577012  0.73568748  1
  Ti  Ti30  1  0.11793771  0.62205032  0.10972436  1
  Ti  Ti31  1  0.01653775  0.49370451  0.41728405  1
  Ti  Ti32  1  0.07828622  0.53969889  0.81680775  1
  Ti  Ti33  1  0.07015779  0.91704294  0.08309765  1
  Ti  Ti34  1  0.05614427  0.89977983  0.40003143  1
  Ti  Ti35  1  0.03199740  0.93498666  0.75841447  1
  Ti  Ti36  1  0.38273556  0.23019981  0.03666551  1
  Ti  Ti37  1  0.47202858  0.24462178  0.46956729  1
  Ti  Ti38  1  0.44965592  0.19401283  0.76589963  1
  Ti  Ti39  1  0.40888176  0.57488463  0.05733167  1
  Ti  Ti40  1  0.49770173  0.59722497  0.41170117  1
  Ti  Ti41  1  0.43336153  0.54770371  0.80444479  1
  Ti  Ti42  1  0.49023200  0.95265232  0.14734615  1
  Ti  Ti43  1  0.43659467  1.05146778  0.35809638  1
  Ti  Ti44  1  0.40277274  0.89577813  0.82443777  1
  Ti  Ti45  1  0.72008490  0.29459739  0.03699241  1
  Ti  Ti46  1  0.76427161  0.29763856  0.37664466  1
  Ti  Ti47  1  0.76718344  0.20534932  0.69612704  1
  Ti  Ti48  1  0.74362562  0.63727421  0.04402432  1
  Ti  Ti49  1  0.69600647  0.62408454  0.40149115  1
  Ti  Ti50  1  0.73724403  0.52857056  0.78252610  1
  Ti  Ti51  1  0.72969366  0.97845087  0.09054676  1
  Ti  Ti52  1  0.72703704  0.97958996  0.36669664  1
  Ti  Ti53  1  0.71658291  0.84994276  0.66599299  1
  Ti  Ti54  1  0.30354776  0.02022395  0.09368316  1
  Ti  Ti55  1  0.27104848  0.16404880  0.43301254  1
  Ti  Ti56  1  0.24473314  0.13911879  0.75111461  1
  Ti  Ti57  1  0.20467990  0.44669174  0.06944340  1
  Ti  Ti58  1  0.36027576  0.43173201  0.41341195  1
  Ti  Ti59  1  0.26056907  0.46624933  0.74949841  1
  Ti  Ti60  1  0.20710122  0.81798734  0.16217811  1
  Ti  Ti61  1  0.21658088  0.68727014  0.43523809  1
  Ti  Ti62  1  0.26472351  0.78533130  0.78489427  1
  Ti  Ti63  1  0.59563518  0.14615572  0.10738242  1
  Ti  Ti64  1  0.61601140  0.13380372  0.42736425  1
  Ti  Ti65  1  0.59209154  0.00062274  0.75472225  1
  Ti  Ti66  1  0.55545755  0.41755598  0.03940342  1
  Ti  Ti67  1  0.54882560  0.43570544  0.51702237  1
  Ti  Ti68  1  0.58713714  0.39092292  0.72503057  1
  Ti  Ti69  1  0.52121053  0.73308902  0.13425841  1
  Ti  Ti70  1  0.60958491  0.80013806  0.43167273  1
  Ti  Ti71  1  0.58065827  0.81563382  0.82134863  1
  Ti  Ti72  1  0.91796149  0.07336884  0.07468986  1
  Ti  Ti73  1  0.96806920  0.07477807  0.43094373  1
  Ti  Ti74  1  0.92434662  0.09129210  0.72250409  1
  Ti  Ti75  1  0.87166171  0.43590955  0.09991435  1
  Ti  Ti76  1  0.93713959  0.36651612  0.28803060  1
  Ti  Ti77  1  0.94525599  0.42298835  0.74824141  1
  Ti  Ti78  1  0.96829281  0.75302103  0.05586486  1
  Ti  Ti79  1  0.89131344  0.69658442  0.35262300  1
  Ti  Ti80  1  0.96738797  0.74444000  0.76352843  1
  Ti  Ti81  1  0.29553577  0.31905523  0.20408289  1
  Ti  Ti82  1  0.20734323  0.26274925  0.59797908  1
  Ti  Ti83  1  0.26797485  0.28177082  0.86344162  1
  Ti  Ti84  1  0.28502809  0.52500644  0.22108460  1
  Ti  Ti85  1  0.20101133  0.63137018  0.63430631  1
  Ti  Ti86  1  0.23262286  0.62309606  0.92185093  1
  Ti  Ti87  1  0.28536364  0.93340423  0.29056801  1
  Ti  Ti88  1  0.23068401  0.99635784  0.61103646  1
  Ti  Ti89  1  0.21388354  0.95821506  0.93047448  1
  Ti  Ti90  1  0.63422647  0.33539383  0.22083149  1
  Ti  Ti91  1  0.58176784  0.14495631  0.61972377  1
  Ti  Ti92  1  0.57192694  0.16488975  0.91723367  1
  Ti  Ti93  1  0.60137134  0.55437879  0.19226827  1
  Ti  Ti94  1  0.68612012  0.57077348  0.58141769  1
  Ti  Ti95  1  0.60268990  0.62022176  0.86486060  1
  Ti  Ti96  1  0.63249642  0.87219815  0.25770801  1
  Ti  Ti97  1  0.59630462  0.95754490  0.55719932  1
  Ti  Ti98  1  0.56708631  0.90333172  0.98493654  1
  Ti  Ti99  1  0.90917948  0.14060934  0.26702200  1
  Ti  Ti100  1  0.92013436  0.29317351  0.59096670  1
  Ti  Ti101  1  0.89582099  0.25004909  0.98285611  1
  Ti  Ti102  1  0.96413756  0.56546337  0.23820356  1
  Ti  Ti103  1  0.90325534  0.63609230  0.53341187  1
  Ti  Ti104  1  0.91814129  0.55824606  0.96117267  1
  Ti  Ti105  1  0.84736534  0.84955521  0.22768165  1
  Ti  Ti106  1  0.91856312  0.95145227  0.57909819  1
  Ti  Ti107  1  0.89230831  0.89913649  0.91366904  1
  Co  Co108  1  -0.07790812  0.23696663  0.42380497  1
  Co  Co109  1  -0.00139488  0.61386249  0.66957878  1
  Co  Co110  1  -0.10700683  0.40111038  0.92014350  1
  Co  Co111  1  0.11838853  0.29931836  0.15720664  1
  Co  Co112  1  0.59996700  0.48179587  0.34344197  1
  Co  Co113  1  0.22425072  0.14244497  -0.02697530  1
  Co  Co114  1  0.07817547  -0.04661318  0.57041156  1
  Co  Co115  1  0.36850471  0.85017405  0.15144366  1
  Co  Co116  1  0.47736788  0.06688920  0.51197343  1
  Co  Co117  1  0.56456058  0.59238932  0.02204028  1
  Co  Co118  1  0.07805343  0.51057715  -0.01122699  1
  Co  Co119  1  0.75545054  0.72748146  0.52207869  1
  Co  Co120  1  0.20283553  0.43983712  0.90318083  1
  Co  Co121  1  0.73492845  0.20986160  0.87364029  1
  Co  Co122  1  0.44473477  0.80362296  0.01500000  1
  Co  Co123  1  0.89663543  0.13585440  0.56753001  1
  Co  Co124  1  0.88554992  -0.05050361  0.37346353  1
  Co  Co125  1  0.38806914  -0.05746800  -0.01775597  1
  Co  Co126  1  0.45033598  0.28055113  0.90425581  1
  Co  Co127  1  0.49814962  0.01744780  0.87293468  1
  Co  Co128  1  0.08021923  0.60258062  0.52201600  1
  Co  Co129  1  0.05781326  0.65982939  -0.07317612  1
  Co  Co130  1  0.17843337  0.80617669  0.33046175  1
  Co  Co131  1  0.34520417  0.31983428  0.53547628  1
  Co  Co132  1  0.87764014  0.68313534  0.16840872  1
  Co  Co133  1  0.47391504  0.07230135  0.03173685  1
  Co  Co134  1  0.14365744  0.36027218  0.75898645  1
  Co  Co135  1  0.80278544  0.17196540  0.13847221  1
  Co  Co136  1  0.87768548  0.38665967  0.45906802  1
  Co  Co137  1  0.12909906  0.69062036  0.76708232  1
  Co  Co138  1  0.80086611  0.12888148  0.39534888  1
  Co  Co139  1  0.76397398  0.80338281  0.36633189  1
  Co  Co140  1  0.22873028  -0.03759876  0.77264396  1
  Co  Co141  1  0.84683764  0.52360431  0.65972180  1
  Co  Co142  1  0.55610032  0.46916015  0.88034136  1
  Co  Co143  1  0.07059459  0.34277341  0.60989587  1
  Co  Co144  1  0.47667537  0.29461011  0.63656789  1
  Co  Co145  1  0.28760189  0.81153873  0.94703436  1
  Co  Co146  1  0.10717948  0.49045119  0.66122395  1
  Co  Co147  1  0.70974424  0.45351120  0.12008958  1
  Co  Co148  1  0.89704317  0.59473329  0.80427085  1
  Co  Co149  1  -0.09537721  0.72160715  0.91520046  1
  Co  Co150  1  0.05946723  0.46918689  0.15793381  1
  Co  Co151  1  0.30533534  0.63212492  0.76203869  1
  Co  Co152  1  -0.08225002  0.81436386  0.45793628  1
  Co  Co153  1  0.19570219  0.23295797  0.29820651  1
  Co  Co154  1  0.88391333  0.79814603  0.61594365  1
  Co  Co155  1  0.82158911  0.01162863  0.21821377  1
  Co  Co156  1  0.23603525  0.33130995  0.41646314  1
  Co  Co157  1  0.56041341  -0.04276822  0.40146035  1
  Co  Co158  1  0.03722599  0.23829973  0.29222341  1
  Co  Co159  1  0.28420296  0.09433490  0.27915503  1
  Co  Co160  1  0.77276551  0.23383800  0.52281911  1
  Co  Co161  1  0.31829417  0.29527945  0.70447947  1
  Ni  Ni162  1  0.85368017  0.53676669  0.40352962  1
  Ni  Ni163  1  0.61239803  0.32451173  -0.09052166  1
  Ni  Ni164  1  0.72898082  0.48622109  -0.04049348  1
  Ni  Ni165  1  -0.04942249  0.25427320  0.14626406  1
  Ni  Ni166  1  -0.06457261  0.11122528  0.90181203  1
  Ni  Ni167  1  0.61911438  0.23469879  0.75895029  1
  Ni  Ni168  1  0.06376989  0.65713274  0.37053830  1
  Ni  Ni169  1  0.48291232  0.29112822  0.16252919  1
  Ni  Ni170  1  0.22363055  0.29645530  0.02603198  1
  Ni  Ni171  1  0.71472894  0.44803960  0.45326902  1
  Ni  Ni172  1  0.58230332  0.69210980  0.54914058  1
  Ni  Ni173  1  0.79165322  0.80877631  0.01455434  1
  Ni  Ni174  1  0.42916593  0.38319776  0.78232687  1
  Ni  Ni175  1  0.34075411  0.59565677  0.35723651  1
  Ni  Ni176  1  0.19179654  0.66028995  0.25652209  1
  Ni  Ni177  1  0.85782728  -0.09142273  0.74841741  1
  Ni  Ni178  1  0.46437114  0.86718585  0.29617328  1
  Ni  Ni179  1  0.72166657  0.90173258  0.85444240  1
  Ni  Ni180  1  -0.02886449  0.46938729  0.57278833  1
  Ni  Ni181  1  0.16571677  0.00724774  0.17359316  1
  Ni  Ni182  1  0.76370657  0.12332225  0.00184654  1
  Ni  Ni183  1  0.38975810  0.41841970  0.10921296  1
  Ni  Ni184  1  0.79840349  0.32053677  0.20107659  1
  Ni  Ni185  1  0.74441239  0.02040306  0.68987146  1
  Ni  Ni186  1  0.31081415  0.70498323  0.07796848  1
  Ni  Ni187  1  0.61355079  0.74062292  -0.01942836  1
  Ni  Ni188  1  -0.00957706  -0.02928700  0.23588074  1
  Ni  Ni189  1  0.23855070  0.17197587  0.14229536  1
  Ni  Ni190  1  0.37704555  0.25391805  0.32989308  1
  Ni  Ni191  1  0.57798923  0.04192075  0.25812130  1
  Ni  Ni192  1  0.15432668  0.75791124  0.02211474  1
  Ni  Ni193  1  0.32805207  0.56979168  0.51521382  1
  Ni  Ni194  1  0.89723310  0.25341181  0.80780395  1
  Ni  Ni195  1  0.14986128  0.04238818  0.45284664  1
  Ni  Ni196  1  0.03116191  -0.01862846  -0.05798797  1
  Ni  Ni197  1  0.54314614  0.83050309  0.65566654  1
  Ni  Ni198  1  0.65175846  0.02899746  -0.05747459  1
  Ni  Ni199  1  0.44978372  0.73160098  0.75243165  1
  Ni  Ni200  1  0.01235838  0.36655456  0.04853289  1
  Ni  Ni201  1  0.62855726  0.69530673  0.71298531  1
  Ni  Ni202  1  0.66941189  0.81767824  0.11331950  1
  Ni  Ni203  1  0.53928343  0.20414193  0.29296112  1
  Ni  Ni204  1  0.77236466  0.89125976  0.50736384  1
  Ni  Ni205  1  0.56258920  0.54618415  0.69529785  1
  Ni  Ni206  1  0.10357491  0.06711813  0.70773963  1
  Ni  Ni207  1  -0.09876805  0.91437139  0.08933645  1
  Ni  Ni208  1  0.55145784  0.70845413  0.29913054  1
  Ni  Ni209  1  0.59877959  0.32480697  0.39394715  1
  Ni  Ni210  1  0.62938709  0.29456129  0.56581792  1
  Ni  Ni211  1  0.38251034  0.03447378  0.73136036  1
  Ni  Ni212  1  0.44066780  0.59687902  0.22524724  1
  Ni  Ni213  1  0.19156677  0.52630364  0.37960656  1
  Ni  Ni214  1  0.14254066  0.83943528  0.68602086  1
