# generated using pymatgen
data_Ti108Co54Ni53
_symmetry_space_group_name_H-M   'P 1'
_cell_length_a   14.59813159
_cell_length_b   14.59932315
_cell_length_c   14.54778230
_cell_angle_alpha   90.24043751
_cell_angle_beta   89.90242974
_cell_angle_gamma   89.87730357
_symmetry_Int_Tables_number   1
_chemical_formula_structural   Ti108Co54Ni53
_chemical_formula_sum   'Ti108 Co54 Ni53'
_cell_volume   3100.42573310
_cell_formula_units_Z   1
loop_
 _symmetry_equiv_pos_site_id
 _symmetry_equiv_pos_as_xyz
  1  'x, y, z'
loop_
 _atom_site_type_symbol
 _atom_site_label
 _atom_site_symmetry_multiplicity
 _atom_site_fract_x
 _atom_site_fract_y
 _atom_site_fract_z
 _atom_site_occupancy
  Ti  Ti0  1  0.05386838  0.12745156  0.28529611  1
  Ti  Ti1  1  0.05527045  0.02936396  0.60166478  1
  Ti  Ti2  1  0.10205862  0.08646699  0.99996275  1
  Ti  Ti3  1  0.03264984  0.44423561  0.29645779  1
  Ti  Ti4  1  0.10046309  0.41430041  0.61834333  1
  Ti  Ti5  1  0.13249462  0.40192651  0.93046367  1
  Ti  Ti6  1  0.05381457  0.78978858  0.34768853  1
  Ti  Ti7  1  0.03303634  0.72420436  0.55088642  1
  Ti  Ti8  1  0.01220327  0.66292696  0.85361260  1
  Ti  Ti9  1  0.42173976  0.01098061  0.28793188  1
  Ti  Ti10  1  0.48217639  0.09515346  0.57665937  1
  Ti  Ti11  1  0.52197023  0.14832635  0.88615084  1
  Ti  Ti12  1  0.35947761  0.49240626  0.30961107  1
  Ti  Ti13  1  0.40896181  0.41508700  0.57743578  1
  Ti  Ti14  1  0.44078701  0.48021673  0.89232875  1
  Ti  Ti15  1  0.40205728  0.68746716  0.29358160  1
  Ti  Ti16  1  0.36771340  0.69352160  0.49930529  1
  Ti  Ti17  1  0.50181929  0.70142654  0.94193992  1
  Ti  Ti18  1  0.77348202  0.04089435  0.26417940  1
  Ti  Ti19  1  0.77437071  0.08340794  0.62029072  1
  Ti  Ti20  1  0.77363117  0.07108780  0.84452386  1
  Ti  Ti21  1  0.79167102  0.39937189  0.25794222  1
  Ti  Ti22  1  0.76971081  0.43298174  0.59817201  1
  Ti  Ti23  1  0.76394791  0.42829282  0.81626347  1
  Ti  Ti24  1  0.75114785  0.71975058  0.24579991  1
  Ti  Ti25  1  0.65410992  0.75753248  0.56521956  1
  Ti  Ti26  1  0.76708832  0.79902815  1.03110909  1
  Ti  Ti27  1  -0.01211793  0.28631769  0.01894164  1
  Ti  Ti28  1  0.05649822  0.29841830  0.42920491  1
  Ti  Ti29  1  0.01813344  0.29719286  0.78055109  1
  Ti  Ti30  1  0.11767214  0.59538904  -0.00446543  1
  Ti  Ti31  1  0.11421346  0.60784046  0.36571982  1
  Ti  Ti32  1  0.14561790  0.53618454  0.77821490  1
  Ti  Ti33  1  0.08263366  0.91149630  0.03770478  1
  Ti  Ti34  1  0.11246092  0.96612170  0.37015961  1
  Ti  Ti35  1  0.02095387  0.88084011  0.70091276  1
  Ti  Ti36  1  0.42865648  0.29208730  0.10544156  1
  Ti  Ti37  1  0.42671648  0.19496355  0.40077121  1
  Ti  Ti38  1  0.35977222  0.21020043  0.66523488  1
  Ti  Ti39  1  0.41847611  0.56115985  0.07859966  1
  Ti  Ti40  1  0.50724052  0.55298822  0.42495438  1
  Ti  Ti41  1  0.34019733  0.60331121  0.76713760  1
  Ti  Ti42  1  0.47011827  0.88745476  0.09190963  1
  Ti  Ti43  1  0.45131445  0.85533216  0.40705958  1
  Ti  Ti44  1  0.36409736  0.89312183  0.72403502  1
  Ti  Ti45  1  0.72635103  0.17437456  0.09834441  1
  Ti  Ti46  1  0.71461997  0.24709429  0.37306375  1
  Ti  Ti47  1  0.71189338  0.22372581  0.74151388  1
  Ti  Ti48  1  0.80889157  0.61309431  0.10608481  1
  Ti  Ti49  1  0.73467127  0.59340180  0.41542949  1
  Ti  Ti50  1  0.68314868  0.64537537  0.78110515  1
  Ti  Ti51  1  0.66648560  0.94965420  0.11089612  1
  Ti  Ti52  1  0.75855193  0.94632436  0.45190471  1
  Ti  Ti53  1  0.80167850  0.90782836  0.76769928  1
  Ti  Ti54  1  0.25235247  0.20322695  0.09493270  1
  Ti  Ti55  1  0.24708302  0.11621250  0.37193715  1
  Ti  Ti56  1  0.23989913  0.06336084  0.71489328  1
  Ti  Ti57  1  0.15630069  0.36989232  0.12647982  1
  Ti  Ti58  1  0.20995245  0.43066043  0.43224705  1
  Ti  Ti59  1  0.32992939  0.37256461  0.76886706  1
  Ti  Ti60  1  0.20200415  0.76979812  0.08095277  1
  Ti  Ti61  1  0.26095100  0.80340590  0.36497709  1
  Ti  Ti62  1  0.23565675  0.73960580  0.67162239  1
  Ti  Ti63  1  0.52360335  0.10588933  0.09920776  1
  Ti  Ti64  1  0.58832884  0.06717568  0.39363859  1
  Ti  Ti65  1  0.60339877  0.02353517  0.73502262  1
  Ti  Ti66  1  0.66932921  0.44641670  0.11215234  1
  Ti  Ti67  1  0.55425105  0.35802408  0.41817772  1
  Ti  Ti68  1  0.50790035  0.32481034  0.74411996  1
  Ti  Ti69  1  0.61837236  0.64568905  0.09756936  1
  Ti  Ti70  1  0.58086327  0.69341182  0.29955420  1
  Ti  Ti71  1  0.56163923  0.81098112  0.76202399  1
  Ti  Ti72  1  0.93492921  0.11909691  0.12307718  1
  Ti  Ti73  1  0.89521249  0.13475536  0.38566736  1
  Ti  Ti74  1  0.96991195  0.03415193  0.82499728  1
  Ti  Ti75  1  0.92431964  0.45222840  0.12601851  1
  Ti  Ti76  1  0.89910968  0.46044874  0.42597978  1
  Ti  Ti77  1  0.94957631  0.47681128  0.74281015  1
  Ti  Ti78  1  0.97512440  0.72657194  0.04829266  1
  Ti  Ti79  1  0.87664240  0.77055443  0.39565804  1
  Ti  Ti80  1  0.90797058  0.71235313  0.70744573  1
  Ti  Ti81  1  0.29561540  0.29106243  0.27996796  1
  Ti  Ti82  1  0.15273042  0.20930850  0.59255547  1
  Ti  Ti83  1  0.28804564  0.28782404  0.92096265  1
  Ti  Ti84  1  0.25347377  0.60759578  0.18427181  1
  Ti  Ti85  1  0.19322378  0.58714159  0.55704073  1
  Ti  Ti86  1  0.29938012  0.63562845  0.95664919  1
  Ti  Ti87  1  0.26389411  0.97200394  0.19914279  1
  Ti  Ti88  1  0.19234434  0.89165747  0.55651111  1
  Ti  Ti89  1  0.23926070  0.83659115  0.87557594  1
  Ti  Ti90  1  0.60937143  0.30324998  0.20382987  1
  Ti  Ti91  1  0.64605038  0.23368787  0.55947645  1
  Ti  Ti92  1  0.60875663  0.35420929  0.89257497  1
  Ti  Ti93  1  0.52518651  0.51136549  0.22217578  1
  Ti  Ti94  1  0.55309490  0.58665245  0.62103581  1
  Ti  Ti95  1  0.61276743  0.53825150  0.93455547  1
  Ti  Ti96  1  0.63229661  0.88445470  0.30511868  1
  Ti  Ti97  1  0.50024830  0.90485922  0.59522814  1
  Ti  Ti98  1  0.60045625  0.95170952  0.91154239  1
  Ti  Ti99  1  0.97094117  0.28535357  0.22727841  1
  Ti  Ti100  1  0.94977380  0.20342110  0.59434147  1
  Ti  Ti101  1  0.84334556  0.26721910  0.88121057  1
  Ti  Ti102  1  0.96142542  0.63564431  0.22924268  1
  Ti  Ti103  1  0.91883462  0.56672212  0.57746405  1
  Ti  Ti104  1  0.84687458  0.59357531  0.89427687  1
  Ti  Ti105  1  0.94480234  0.94989055  0.22457556  1
  Ti  Ti106  1  0.86596229  0.87083658  0.57823144  1
  Ti  Ti107  1  0.96037725  0.85272035  0.89436943  1
  Co  Co108  1  0.10795546  0.76703894  -0.06160617  1
  Co  Co109  1  0.63818440  0.44101986  0.31478998  1
  Co  Co110  1  0.16980528  0.36205914  0.76335451  1
  Co  Co111  1  0.20504512  0.67798197  0.83500486  1
  Co  Co112  1  0.08791402  0.19889029  0.13079920  1
  Co  Co113  1  0.38160399  0.58896724  0.61418298  1
  Co  Co114  1  0.68608698  0.81516219  0.85769413  1
  Co  Co115  1  0.34143603  0.00803377  0.60174673  1
  Co  Co116  1  0.26755773  0.61846846  0.37496196  1
  Co  Co117  1  0.41974543  0.02016394  0.44891678  1
  Co  Co118  1  0.60345997  0.89139328  0.47137183  1
  Co  Co119  1  0.19689984  0.45875680  0.26633527  1
  Co  Co120  1  0.80991073  0.55638844  0.72388184  1
  Co  Co121  1  0.45365235  0.30385074  0.91906903  1
  Co  Co122  1  0.32585041  0.15099940  0.52484386  1
  Co  Co123  1  0.59934474  0.81229395  -0.00448119  1
  Co  Co124  1  0.69317198  0.56791526  0.23332870  1
  Co  Co125  1  -0.09158259  0.01942499  0.67796697  1
  Co  Co126  1  0.28200299  -0.04631387  0.40836132  1
  Co  Co127  1  0.35028805  0.40804598  0.00781187  1
  Co  Co128  1  0.67944052  0.06231906  -0.01102380  1
  Co  Co129  1  0.79539205  -0.06643643  0.94066166  1
  Co  Co130  1  0.10007656  0.00102177  0.17639062  1
  Co  Co131  1  0.18922295  0.91066683  0.72530115  1
  Co  Co132  1  0.81583494  0.00994855  0.09327523  1
  Co  Co133  1  -0.04829101  0.56928714  0.02576391  1
  Co  Co134  1  0.19947181  0.12239028  0.21948208  1
  Co  Co135  1  0.70347397  0.67029063  -0.04987735  1
  Co  Co136  1  0.23407711  0.50315439  0.05863265  1
  Co  Co137  1  0.05235076  0.49169268  0.48065038  1
  Co  Co138  1  0.26227369  0.48230424  0.88432153  1
  Co  Co139  1  0.43446655  0.04958311  0.73648647  1
  Co  Co140  1  0.85017782  0.54845288  0.28622961  1
  Co  Co141  1  -0.04984075  0.01588573  -0.01519762  1
  Co  Co142  1  0.34807503  0.52094461  0.47369096  1
  Co  Co143  1  0.05365141  0.60800088  0.66744575  1
  Co  Co144  1  0.84189005  0.14141085  -0.01650387  1
  Co  Co145  1  0.60731627  0.49362033  0.77730909  1
  Co  Co146  1  0.70991545  0.76944552  0.40955320  1
  Co  Co147  1  0.38096508  0.19447000  0.81846392  1
  Co  Co148  1  0.56889002  0.01417536  0.22582799  1
  Co  Co149  1  0.74978226  0.11277687  0.45557349  1
  Co  Co150  1  0.18179563  0.73452458  0.48943078  1
  Co  Co151  1  -0.00996179  0.17627045  0.89540589  1
  Co  Co152  1  0.34402396  0.84825675  0.54563804  1
  Co  Co153  1  0.83345290  0.71296394  0.53762234  1
  Co  Co154  1  0.84943677  0.32642708  0.70699099  1
  Co  Co155  1  0.63204942  0.48787334  0.50289320  1
  Co  Co156  1  0.61777374  0.79801290  0.15541754  1
  Co  Co157  1  0.90878619  0.88286968  0.06142662  1
  Co  Co158  1  0.48424172  0.84736392  0.24476049  1
  Co  Co159  1  0.65872787  0.36315791  0.69220606  1
  Co  Co160  1  0.09094669  0.75892888  0.75390690  1
  Co  Co161  1  0.13901897  0.28522630  0.27675954  1
  Ni  Ni162  1  0.06567035  0.14364815  0.73064641  1
  Ni  Ni163  1  0.36048131  0.77610005  0.01989294  1
  Ni  Ni164  1  0.48321332  0.26443275  0.54978590  1
  Ni  Ni165  1  -0.11139604  0.41005229  -0.04592368  1
  Ni  Ni166  1  0.45948089  0.34940526  0.27011925  1
  Ni  Ni167  1  0.53496928  0.71686986  0.46233617  1
  Ni  Ni168  1  0.38679333  0.75430950  0.82689708  1
  Ni  Ni169  1  0.33202056  0.80227334  0.18937463  1
  Ni  Ni170  1  0.50515019  0.18527803  0.25709104  1
  Ni  Ni171  1  0.58083406  0.25606759  0.03353562  1
  Ni  Ni172  1  -0.04728442  0.62357227  0.41630108  1
  Ni  Ni173  1  0.45650524  0.48713721  0.72198932  1
  Ni  Ni174  1  0.74688081  0.39442191  0.43227201  1
  Ni  Ni175  1  0.13746508  0.23908867  -0.03214175  1
  Ni  Ni176  1  0.19789051  0.05341826  0.51968806  1
  Ni  Ni177  1  0.32857685  0.41699521  0.16687936  1
  Ni  Ni178  1  0.00881635  0.49549512  0.89348583  1
  Ni  Ni179  1  0.44478452  0.74309027  0.65396888  1
  Ni  Ni180  1  0.51816413  0.41972327  0.04377023  1
  Ni  Ni181  1  0.81777161  0.21355372  0.24623252  1
  Ni  Ni182  1  0.54166052  0.17732315  0.70443876  1
  Ni  Ni183  1  0.81254702  0.26960478  0.52837089  1
  Ni  Ni184  1  0.88344379  0.78038194  0.18810279  1
  Ni  Ni185  1  0.17330256  0.84473329  0.23538316  1
  Ni  Ni186  1  0.05629349  0.12852489  0.46025296  1
  Ni  Ni187  1  0.76642514  0.49840388  -0.00248502  1
  Ni  Ni188  1  0.10755109  -0.05327304  0.86638532  1
  Ni  Ni189  1  0.65779668  0.14882370  0.25216381  1
  Ni  Ni190  1  0.11299592  0.68927133  0.20389406  1
  Ni  Ni191  1  -0.07199605  -0.05863677  0.38931122  1
  Ni  Ni192  1  0.68517726  -0.09145741  0.63696785  1
  Ni  Ni193  1  -0.11268989  0.30384981  0.37522282  1
  Ni  Ni194  1  0.24025491  0.27078325  0.45057392  1
  Ni  Ni195  1  0.46966314  0.71368702  0.13785971  1
  Ni  Ni196  1  0.02489817  0.88185325  0.50559133  1
  Ni  Ni197  1  0.08423997  0.52864591  0.15162380  1
  Ni  Ni198  1  0.50759745  0.63718036  0.78335355  1
  Ni  Ni199  1  0.84770747  0.29299892  0.10361366  1
  Ni  Ni200  1  0.26150224  0.48417531  0.66282249  1
  Ni  Ni201  1  0.72641075  0.60414031  0.59435435  1
  Ni  Ni202  1  0.83471627  0.75466733  0.86083136  1
  Ni  Ni203  1  0.03402330  0.82605594  0.17017441  1
  Ni  Ni204  1  0.90689140  0.03946194  0.51682034  1
  Ni  Ni205  1  0.73154039  0.32975648  0.00043367  1
  Ni  Ni206  1  0.38473792  0.36138553  0.41996784  1
  Ni  Ni207  1  0.68630188  0.20267853  0.91219830  1
  Ni  Ni208  1  0.75137954  0.76717190  0.69625098  1
  Ni  Ni209  1  0.79976202  0.88033761  0.29580680  1
  Ni  Ni210  1  -0.05445783  0.37512194  0.57147139  1
  Ni  Ni211  1  0.89080358  0.16913325  0.74826534  1
  Ni  Ni212  1  0.63329038  0.03841446  0.55424316  1
  Ni  Ni213  1  0.35977733  0.14365386  0.21243690  1
  Ni  Ni214  1  0.25527901  0.33523184  0.60536915  1
