# generated using pymatgen
data_Ti108Co54Ni53
_symmetry_space_group_name_H-M   'P 1'
_cell_length_a   14.70659119
_cell_length_b   14.64748915
_cell_length_c   14.67312619
_cell_angle_alpha   90.07201327
_cell_angle_beta   90.10872301
_cell_angle_gamma   89.91171557
_symmetry_Int_Tables_number   1
_chemical_formula_structural   Ti108Co54Ni53
_chemical_formula_sum   'Ti108 Co54 Ni53'
_cell_volume   3160.79419241
_cell_formula_units_Z   1
loop_
 _symmetry_equiv_pos_site_id
 _symmetry_equiv_pos_as_xyz
  1  'x, y, z'
loop_
 _atom_site_type_symbol
 _atom_site_label
 _atom_site_symmetry_multiplicity
 _atom_site_fract_x
 _atom_site_fract_y
 _atom_site_fract_z
 _atom_site_occupancy
  Ti  Ti0  1  0.11521175  0.11356860  0.17770375  1
  Ti  Ti1  1  0.06449947  0.03778758  0.59069941  1
  Ti  Ti2  1  0.06375376  0.07322338  0.88750379  1
  Ti  Ti3  1  0.10527590  0.33212374  0.07089485  1
  Ti  Ti4  1  0.02765834  0.38052281  0.57861758  1
  Ti  Ti5  1  0.04796387  0.38201352  0.86658300  1
  Ti  Ti6  1  0.03563590  0.78387347  0.26706451  1
  Ti  Ti7  1  0.07117964  0.80394017  0.64153669  1
  Ti  Ti8  1  0.03619244  0.75881087  0.88069813  1
  Ti  Ti9  1  0.43766030  0.03665107  0.24724946  1
  Ti  Ti10  1  0.47102687  0.13044409  0.62055971  1
  Ti  Ti11  1  0.39852430  0.02842448  0.87367214  1
  Ti  Ti12  1  0.41012394  0.46724976  0.25764262  1
  Ti  Ti13  1  0.44989924  0.37453426  0.62107151  1
  Ti  Ti14  1  0.44838796  0.33797096  0.91897039  1
  Ti  Ti15  1  0.45031248  0.70617486  0.22357447  1
  Ti  Ti16  1  0.40457561  0.74913317  0.68691277  1
  Ti  Ti17  1  0.31584091  0.73950328  0.92074791  1
  Ti  Ti18  1  0.74019084  0.13457351  0.26104766  1
  Ti  Ti19  1  0.77852971  0.07057912  0.60631101  1
  Ti  Ti20  1  0.76811009  0.10305555  0.94640057  1
  Ti  Ti21  1  0.81140117  0.37841912  0.24077361  1
  Ti  Ti22  1  0.76321475  0.43992052  0.52325143  1
  Ti  Ti23  1  0.75347095  0.49235447  0.87612889  1
  Ti  Ti24  1  0.79902070  0.79650082  0.29612057  1
  Ti  Ti25  1  0.72562603  0.76300881  0.55430428  1
  Ti  Ti26  1  0.80838767  0.78735053  0.99647299  1
  Ti  Ti27  1  -0.00171260  0.14122461  0.03479337  1
  Ti  Ti28  1  0.06321413  0.30884645  0.40316934  1
  Ti  Ti29  1  0.11699969  0.26663765  0.70763728  1
  Ti  Ti30  1  0.13553863  0.56427364  0.07658996  1
  Ti  Ti31  1  0.03753128  0.52827178  0.36803341  1
  Ti  Ti32  1  0.12384180  0.57332051  0.79066311  1
  Ti  Ti33  1  0.09446201  0.89791354  0.11051244  1
  Ti  Ti34  1  0.13205630  0.95602763  0.39171131  1
  Ti  Ti35  1  0.05860393  0.93633549  0.76742033  1
  Ti  Ti36  1  0.42228319  0.23359858  0.14438635  1
  Ti  Ti37  1  0.40107016  0.31944906  0.41762904  1
  Ti  Ti38  1  0.39621433  0.25232958  0.76194991  1
  Ti  Ti39  1  0.45078454  0.66825020  0.03544398  1
  Ti  Ti40  1  0.43894068  0.52957742  0.47862583  1
  Ti  Ti41  1  0.44714990  0.60227928  0.81896634  1
  Ti  Ti42  1  0.48557299  0.90754472  0.12104934  1
  Ti  Ti43  1  0.42067529  1.00241820  0.47636810  1
  Ti  Ti44  1  0.40625986  0.94896451  0.68225633  1
  Ti  Ti45  1  0.69644371  0.26740022  0.09895705  1
  Ti  Ti46  1  0.73388687  0.25985062  0.40369367  1
  Ti  Ti47  1  0.75918912  0.32439020  0.76829595  1
  Ti  Ti48  1  0.74392848  0.46158903  0.05709451  1
  Ti  Ti49  1  0.82284114  0.54445371  0.38500169  1
  Ti  Ti50  1  0.75353423  0.50511028  0.69605822  1
  Ti  Ti51  1  0.71622415  0.91650320  0.14490030  1
  Ti  Ti52  1  0.69664404  0.99339185  0.40859422  1
  Ti  Ti53  1  0.78310675  0.87560039  0.70821046  1
  Ti  Ti54  1  0.32254024  0.08798957  0.06196800  1
  Ti  Ti55  1  0.29552392  0.11145793  0.37603821  1
  Ti  Ti56  1  0.19124159  0.06414979  0.74768048  1
  Ti  Ti57  1  0.25958743  0.44073994  0.13913605  1
  Ti  Ti58  1  0.24125354  0.45044773  0.36350623  1
  Ti  Ti59  1  0.24473195  0.40181311  0.80977547  1
  Ti  Ti60  1  0.29875697  0.80054327  0.12643114  1
  Ti  Ti61  1  0.30322246  0.76367054  0.38436674  1
  Ti  Ti62  1  0.20644532  0.75607470  0.77469343  1
  Ti  Ti63  1  0.56034368  0.07682281  0.05115152  1
  Ti  Ti64  1  0.56312193  0.13311457  0.37629490  1
  Ti  Ti65  1  0.61484257  0.02483543  0.71507401  1
  Ti  Ti66  1  0.53870154  0.44339481  0.09328787  1
  Ti  Ti67  1  0.59680291  0.35828034  0.50203035  1
  Ti  Ti68  1  0.56445705  0.43751524  0.79668194  1
  Ti  Ti69  1  0.61736550  0.77331570  0.03100274  1
  Ti  Ti70  1  0.56982880  0.69424660  0.42053030  1
  Ti  Ti71  1  0.61314264  0.75341900  0.75943866  1
  Ti  Ti72  1  0.88839164  -0.00869891  0.07922354  1
  Ti  Ti73  1  0.99714144  0.09671595  0.39227916  1
  Ti  Ti74  1  0.88345920  0.05200058  0.76598926  1
  Ti  Ti75  1  0.96131301  0.47272967  0.09418155  1
  Ti  Ti76  1  0.89384434  0.36219531  0.41039703  1
  Ti  Ti77  1  0.93737926  0.49193290  0.76242224  1
  Ti  Ti78  1  0.90996303  0.68220650  0.13769651  1
  Ti  Ti79  1  0.89591765  0.74073984  0.45311457  1
  Ti  Ti80  1  0.85352543  0.68989516  0.78556704  1
  Ti  Ti81  1  0.17334922  0.30003665  0.25554458  1
  Ti  Ti82  1  0.21851976  0.28944466  0.50603090  1
  Ti  Ti83  1  0.26949736  0.27234837  0.95419086  1
  Ti  Ti84  1  0.24811456  0.62557103  0.23483164  1
  Ti  Ti85  1  0.26084665  0.50923444  0.64080963  1
  Ti  Ti86  1  0.30726037  0.53260771  0.94847736  1
  Ti  Ti87  1  0.24621199  0.97921139  0.21548700  1
  Ti  Ti88  1  0.25692801  0.99761861  0.56709639  1
  Ti  Ti89  1  0.21989261  0.92293254  0.88709508  1
  Ti  Ti90  1  0.57629558  0.31168487  0.27124373  1
  Ti  Ti91  1  0.63723450  0.21784094  0.64355489  1
  Ti  Ti92  1  0.61561645  0.23444804  0.90269961  1
  Ti  Ti93  1  0.57536724  0.55895003  0.28844178  1
  Ti  Ti94  1  0.58599314  0.56990114  0.61043089  1
  Ti  Ti95  1  0.60273888  0.58151255  0.95286795  1
  Ti  Ti96  1  0.57918136  0.84925690  0.27731376  1
  Ti  Ti97  1  0.53717448  0.85364048  0.52281980  1
  Ti  Ti98  1  0.56198827  0.90844741  0.87871862  1
  Ti  Ti99  1  0.96272449  0.25823872  0.19308296  1
  Ti  Ti100  1  0.90697418  0.21422152  0.54352952  1
  Ti  Ti101  1  0.90597571  0.22852958  0.86857719  1
  Ti  Ti102  1  0.75941041  0.59429230  0.21021531  1
  Ti  Ti103  1  0.89105167  0.60617730  0.59969457  1
  Ti  Ti104  1  0.89088876  0.60380842  0.94935600  1
  Ti  Ti105  1  0.86236290  0.98873778  0.28325421  1
  Ti  Ti106  1  0.85620654  0.92527667  0.49262811  1
  Ti  Ti107  1  0.88847477  0.92082460  0.89585620  1
  Co  Co108  1  0.39142133  0.54758007  0.12153326  1
  Co  Co109  1  0.62169746  0.39606933  -0.04551899  1
  Co  Co110  1  -0.03053114  0.29878712  -0.00072163  1
  Co  Co111  1  0.31573294  0.42553860  0.51730593  1
  Co  Co112  1  0.76329745  0.28392968  0.57148636  1
  Co  Co113  1  0.63859309  0.39198789  0.65691797  1
  Co  Co114  1  0.16715283  0.01590725  0.02854582  1
  Co  Co115  1  0.72826946  0.67292100  0.37739288  1
  Co  Co116  1  0.29212502  0.61277161  0.77931137  1
  Co  Co117  1  0.05797884  -0.07875389  -0.05497468  1
  Co  Co118  1  0.45028303  0.81495137  0.38943669  1
  Co  Co119  1  0.33406757  0.32353228  0.26209784  1
  Co  Co120  1  0.16845882  0.79255196  -0.01453118  1
  Co  Co121  1  0.16842220  0.10552994  0.48041365  1
  Co  Co122  1  0.27738938  0.65037563  0.06806701  1
  Co  Co123  1  -0.06356303  0.09900243  0.19788886  1
  Co  Co124  1  0.87404387  0.39576258  0.62913181  1
  Co  Co125  1  0.04980815  0.61839814  0.21246878  1
  Co  Co126  1  0.21306515  0.90219904  0.70024372  1
  Co  Co127  1  0.14853597  0.45206411  0.49798606  1
  Co  Co128  1  0.11482858  0.43607170  0.70303306  1
  Co  Co129  1  0.14526636  0.73079939  0.14344714  1
  Co  Co130  1  0.85299533  0.34669263  0.08449019  1
  Co  Co131  1  0.46226091  0.49354260  -0.04687182  1
  Co  Co132  1  0.56943617  0.02744357  0.54269263  1
  Co  Co133  1  0.34353576  0.09560056  0.71714864  1
  Co  Co134  1  0.05284040  -0.02197456  0.24875925  1
  Co  Co135  1  0.54408272  0.27323495  0.05423874  1
  Co  Co136  1  0.77074514  0.30339241  0.94836682  1
  Co  Co137  1  0.59787482  0.06350017  0.89631641  1
  Co  Co138  1  0.89323401  0.43066711  -0.06989270  1
  Co  Co139  1  -0.04071676  0.31933992  0.73869911  1
  Co  Co140  1  0.13928110  0.48401959  0.23443170  1
  Co  Co141  1  0.16475882  0.17161449  0.03204827  1
  Co  Co142  1  0.19627809  0.83409213  0.26715821  1
  Co  Co143  1  0.70316617  0.41374727  0.36033911  1
  Co  Co144  1  0.75567292  0.62519187  0.03605700  1
  Co  Co145  1  0.88594408  0.85474404  0.16872648  1
  Co  Co146  1  0.69642462  0.83487970  0.41815019  1
  Co  Co147  1  -0.05482582  0.49369920  0.50050155  1
  Co  Co148  1  0.89589235  0.77704998  0.61030706  1
  Co  Co149  1  0.28302024  0.33618627  0.66010949  1
  Co  Co150  1  0.50840725  0.22383121  0.49820381  1
  Co  Co151  1  0.50147887  0.12412453  0.78495423  1
  Co  Co152  1  0.17591174  0.64266897  0.92564078  1
  Co  Co153  1  0.74510789  0.75339839  0.14016678  1
  Co  Co154  1  0.70068020  -0.04911918  -0.01030243  1
  Co  Co155  1  0.24892534  0.10122347  0.90652809  1
  Co  Co156  1  0.74360359  0.60922993  0.52932089  1
  Co  Co157  1  0.55700730  0.28317213  0.76030491  1
  Co  Co158  1  0.22321803  0.16840093  0.62744585  1
  Co  Co159  1  0.91158275  0.51970545  0.23871643  1
  Co  Co160  1  0.84595520  0.18451350  0.06242961  1
  Co  Co161  1  0.28766584  0.14767101  0.22279246  1
  Ni  Ni162  1  0.53934163  -0.03563444  0.37884766  1
  Ni  Ni163  1  0.73481535  -0.00996424  0.82587554  1
  Ni  Ni164  1  0.17466930  0.43786345  -0.03741853  1
  Ni  Ni165  1  0.43267561  0.70055739  0.51997149  1
  Ni  Ni166  1  0.39170948  0.45092473  0.76294844  1
  Ni  Ni167  1  0.71287031  0.15039862  0.78414859  1
  Ni  Ni168  1  0.88220779  0.20499192  0.32983622  1
  Ni  Ni169  1  0.67510191  0.14670391  0.50133122  1
  Ni  Ni170  1  0.00911645  0.14321628  0.71379707  1
  Ni  Ni171  1  -0.07847238  0.66229128  0.31018353  1
  Ni  Ni172  1  0.41728846  0.58119016  0.64790139  1
  Ni  Ni173  1  0.38047676  0.87081092  0.25441122  1
  Ni  Ni174  1  0.10407102  0.23323897  0.89361444  1
  Ni  Ni175  1  0.24378838  0.22176350  0.79426054  1
  Ni  Ni176  1  0.62661887  0.53418899  0.44865278  1
  Ni  Ni177  1  0.63114433  0.70689060  0.24305758  1
  Ni  Ni178  1  0.01164254  0.39354111  0.26270746  1
  Ni  Ni179  1  0.72952668  0.66637728  0.68530334  1
  Ni  Ni180  1  0.43275971  0.19686846  0.30568538  1
  Ni  Ni181  1  0.68995758  -0.07456220  0.57752093  1
  Ni  Ni182  1  0.38851207  0.38269673  0.06736566  1
  Ni  Ni183  1  0.38766327  0.85713346  0.82207856  1
  Ni  Ni184  1  0.61090421  0.01325268  0.23285911  1
  Ni  Ni185  1  -0.03517514  0.82280399  0.02890156  1
  Ni  Ni186  1  0.03843601  0.53604667  0.93221628  1
  Ni  Ni187  1  0.29711754  -0.06784395  0.38473958  1
  Ni  Ni188  1  0.84606671  0.20401331  0.69849481  1
  Ni  Ni189  1  0.03253402  0.67584781  0.02455663  1
  Ni  Ni190  1  0.00581126  0.67044612  0.72186075  1
  Ni  Ni191  1  0.45228302  0.16674636  -0.04849204  1
  Ni  Ni192  1  0.96574651  0.89501237  0.36567412  1
  Ni  Ni193  1  0.71930244  0.83544151  0.86556896  1
  Ni  Ni194  1  0.72142888  0.67453769  0.88120949  1
  Ni  Ni195  1  0.31015585  -0.07106326  0.02564084  1
  Ni  Ni196  1  0.39640041  0.62484152  0.35284767  1
  Ni  Ni197  1  0.60988514  0.60197056  0.11950081  1
  Ni  Ni198  1  0.14109617  0.15748410  0.33280093  1
  Ni  Ni199  1  0.71935413  0.08202244  0.10798648  1
  Ni  Ni200  1  0.34497126  0.17043474  0.52176535  1
  Ni  Ni201  1  0.36032709  0.85201216  0.53521272  1
  Ni  Ni202  1  0.26269265  0.26788361  0.11809668  1
  Ni  Ni203  1  0.83019996  0.09351385  0.43788651  1
  Ni  Ni204  1  0.50609584  0.73923302  0.88303757  1
  Ni  Ni205  1  0.07039557  0.20811396  0.55138766  1
  Ni  Ni206  1  -0.07078158  -0.05232927  0.64100222  1
  Ni  Ni207  1  -0.06148032  0.82926034  0.75669041  1
  Ni  Ni208  1  0.61960553  0.58982527  0.78160378  1
  Ni  Ni209  1  0.66068431  0.44455647  0.20311527  1
  Ni  Ni210  1  0.55558992  0.87884463  0.68153739  1
  Ni  Ni211  1  0.44063095  0.84149767  -0.01528493  1
  Ni  Ni212  1  0.57605592  0.16633690  0.19514138  1
  Ni  Ni213  1  0.52829166  0.42795306  0.37378821  1
  Ni  Ni214  1  0.01734990  0.88608111  0.51330078  1
