# generated using pymatgen
data_Ti108Co54Ni53
_symmetry_space_group_name_H-M   'P 1'
_cell_length_a   14.66675959
_cell_length_b   14.61989175
_cell_length_c   14.67096584
_cell_angle_alpha   89.92785058
_cell_angle_beta   89.95317164
_cell_angle_gamma   89.70832839
_symmetry_Int_Tables_number   1
_chemical_formula_structural   Ti108Co54Ni53
_chemical_formula_sum   'Ti108 Co54 Ni53'
_cell_volume   3145.79865209
_cell_formula_units_Z   1
loop_
 _symmetry_equiv_pos_site_id
 _symmetry_equiv_pos_as_xyz
  1  'x, y, z'
loop_
 _atom_site_type_symbol
 _atom_site_label
 _atom_site_symmetry_multiplicity
 _atom_site_fract_x
 _atom_site_fract_y
 _atom_site_fract_z
 _atom_site_occupancy
  Ti  Ti0  1  0.07581019  0.12006306  0.30852955  1
  Ti  Ti1  1  0.08309371  0.05162806  0.63308978  1
  Ti  Ti2  1  0.11180538  0.04343847  0.88658463  1
  Ti  Ti3  1  0.10747657  0.42830905  0.37270495  1
  Ti  Ti4  1  -0.01359282  0.40679929  0.58789851  1
  Ti  Ti5  1  0.04283389  0.40952650  0.83553007  1
  Ti  Ti6  1  0.09610209  0.80228317  0.23447656  1
  Ti  Ti7  1  0.11386927  0.76261198  0.57756920  1
  Ti  Ti8  1  0.03412069  0.70158865  0.89414075  1
  Ti  Ti9  1  0.40552854  0.06331244  0.29105216  1
  Ti  Ti10  1  0.38297390  0.05059725  0.60601253  1
  Ti  Ti11  1  0.37390418  0.05054769  0.84691155  1
  Ti  Ti12  1  0.48410873  0.38252819  0.24585715  1
  Ti  Ti13  1  0.46230423  0.41664655  0.56515638  1
  Ti  Ti14  1  0.36692999  0.40112281  0.97972737  1
  Ti  Ti15  1  0.44732113  0.71877727  0.22397209  1
  Ti  Ti16  1  0.44501025  0.73221222  0.65555256  1
  Ti  Ti17  1  0.43962378  0.59889418  0.93860011  1
  Ti  Ti18  1  0.74116947  0.11106717  0.32318467  1
  Ti  Ti19  1  0.75871269  0.05535708  0.51497338  1
  Ti  Ti20  1  0.71628353  0.04513214  0.99079967  1
  Ti  Ti21  1  0.69552449  0.43752047  0.26573526  1
  Ti  Ti22  1  0.80444660  0.49315041  0.55503337  1
  Ti  Ti23  1  0.73217010  0.43526292  0.92953920  1
  Ti  Ti24  1  0.79849450  0.71523377  0.21353888  1
  Ti  Ti25  1  0.79243154  0.74907088  0.53918648  1
  Ti  Ti26  1  0.75017922  0.73082052  0.86972132  1
  Ti  Ti27  1  0.14394279  0.28406153  0.11907859  1
  Ti  Ti28  1  0.02466975  0.26688312  0.43996131  1
  Ti  Ti29  1  0.06379667  0.21240452  0.78452752  1
  Ti  Ti30  1  0.09528838  0.61362549  0.08132446  1
  Ti  Ti31  1  0.06327161  0.63010170  0.35560920  1
  Ti  Ti32  1  0.10897430  0.53268248  0.65757013  1
  Ti  Ti33  1  0.14482482  0.92339017  0.03754595  1
  Ti  Ti34  1  0.04980680  0.92888724  0.46488683  1
  Ti  Ti35  1  0.05679999  0.87174197  0.79074844  1
  Ti  Ti36  1  0.48337785  0.28575326  0.06925005  1
  Ti  Ti37  1  0.36321661  0.25075018  0.30189365  1
  Ti  Ti38  1  0.36115412  0.25714710  0.83654971  1
  Ti  Ti39  1  0.29268129  0.57819310  0.06217192  1
  Ti  Ti40  1  0.39392561  0.57023238  0.41649803  1
  Ti  Ti41  1  0.35392070  0.59831897  0.76544044  1
  Ti  Ti42  1  0.45441952  0.96754533  0.01767329  1
  Ti  Ti43  1  0.38497874  0.87926708  0.41101977  1
  Ti  Ti44  1  0.46594886  0.89412040  0.79426527  1
  Ti  Ti45  1  0.79024303  0.30408732  0.10463899  1
  Ti  Ti46  1  0.70989515  0.32039036  0.45183365  1
  Ti  Ti47  1  0.84678947  0.20667105  0.79950972  1
  Ti  Ti48  1  0.78699384  0.59642436  0.04185311  1
  Ti  Ti49  1  0.68753252  0.61602512  0.43876993  1
  Ti  Ti50  1  0.76040640  0.62928803  0.69170545  1
  Ti  Ti51  1  0.78886870  0.90335926  0.10449290  1
  Ti  Ti52  1  0.69658275  0.89825931  0.39244895  1
  Ti  Ti53  1  0.78066080  0.94074417  0.78961935  1
  Ti  Ti54  1  0.32476416  0.16895886  0.02156028  1
  Ti  Ti55  1  0.24432638  0.06113534  0.39199383  1
  Ti  Ti56  1  0.24041305  0.09143791  0.72183958  1
  Ti  Ti57  1  0.19619558  0.45789490  0.18686752  1
  Ti  Ti58  1  0.29551363  0.37187776  0.43623705  1
  Ti  Ti59  1  0.24075196  0.42665552  0.77576950  1
  Ti  Ti60  1  0.24883327  0.77833216  0.11749177  1
  Ti  Ti61  1  0.23521081  0.71810083  0.42095664  1
  Ti  Ti62  1  0.25475651  0.78354299  0.76109717  1
  Ti  Ti63  1  0.55402529  0.11756915  0.05482500  1
  Ti  Ti64  1  0.57585550  0.03295969  0.36457775  1
  Ti  Ti65  1  0.55252121  0.07507589  0.74326481  1
  Ti  Ti66  1  0.54696142  0.46715209  0.07483783  1
  Ti  Ti67  1  0.56160170  0.47303649  0.39795869  1
  Ti  Ti68  1  0.43990487  0.43180304  0.78027228  1
  Ti  Ti69  1  0.55523182  0.77168139  0.08159338  1
  Ti  Ti70  1  0.57609718  0.78384349  0.49227394  1
  Ti  Ti71  1  0.57255399  0.72030948  0.79817088  1
  Ti  Ti72  1  0.89142870  0.11380791  0.06026475  1
  Ti  Ti73  1  0.92171400  0.05699522  0.40507065  1
  Ti  Ti74  1  0.94964851  0.03474538  0.76421030  1
  Ti  Ti75  1  0.98199231  0.39587374  0.17557464  1
  Ti  Ti76  1  0.88377347  0.35518153  0.33645061  1
  Ti  Ti77  1  0.85138846  0.46150703  0.76500782  1
  Ti  Ti78  1  0.90358801  0.74681027  0.04131387  1
  Ti  Ti79  1  0.94007831  0.76955936  0.36517166  1
  Ti  Ti80  1  0.94630045  0.72586822  0.69819388  1
  Ti  Ti81  1  0.24183130  0.14700294  0.20547292  1
  Ti  Ti82  1  0.29044757  0.26068841  0.60214463  1
  Ti  Ti83  1  0.18693821  0.32967378  0.93763506  1
  Ti  Ti84  1  0.32039077  0.59852163  0.24137451  1
  Ti  Ti85  1  0.25480351  0.63967860  0.61114644  1
  Ti  Ti86  1  0.23535992  0.68646195  0.92631919  1
  Ti  Ti87  1  0.15241821  0.98226663  0.20759487  1
  Ti  Ti88  1  0.23221858  0.93567528  0.52800573  1
  Ti  Ti89  1  0.31753939  0.86803645  0.94771037  1
  Ti  Ti90  1  0.57832671  0.18093996  0.22868320  1
  Ti  Ti91  1  0.49619490  0.20857703  0.53999823  1
  Ti  Ti92  1  0.63556446  0.20740921  0.89996249  1
  Ti  Ti93  1  0.62577747  0.61495375  0.19088141  1
  Ti  Ti94  1  0.58392791  0.56503404  0.64817823  1
  Ti  Ti95  1  0.61857490  0.62092377  0.96952245  1
  Ti  Ti96  1  0.53534700  0.87232577  0.26947816  1
  Ti  Ti97  1  0.57635811  1.00275622  0.54904997  1
  Ti  Ti98  1  0.63055551  0.87812320  0.92136020  1
  Ti  Ti99  1  0.90867281  0.19225499  0.24011080  1
  Ti  Ti100  1  0.94064138  0.19692439  0.59367351  1
  Ti  Ti101  1  0.97247132  0.28859798  1.00123281  1
  Ti  Ti102  1  0.88015138  0.54798769  0.26875300  1
  Ti  Ti103  1  0.97148321  0.61970915  0.53050050  1
  Ti  Ti104  1  0.94991405  0.52763123  0.94346938  1
  Ti  Ti105  1  0.85108920  0.91104835  0.27321152  1
  Ti  Ti106  1  0.86381871  0.92946000  0.61315097  1
  Ti  Ti107  1  0.95923871  0.92215320  0.95896212  1
  Co  Co108  1  0.33380550  0.43394629  0.29257601  1
  Co  Co109  1  0.01741419  -0.10020125  0.63683401  1
  Co  Co110  1  0.11222720  0.22195619  0.60109985  1
  Co  Co111  1  0.45620351  0.33823948  0.42201200  1
  Co  Co112  1  0.92391037  0.56144135  0.66956523  1
  Co  Co113  1  0.70814177  0.17003295  0.10521980  1
  Co  Co114  1  0.59913589  0.30264704  0.33823808  1
  Co  Co115  1  0.05365223  0.28392137  0.27382359  1
  Co  Co116  1  0.67427476  0.81238044  0.19744660  1
  Co  Co117  1  0.28852129  0.80373604  0.59644123  1
  Co  Co118  1  0.62714099  0.32262292  0.16650133  1
  Co  Co119  1  0.30513786  0.42631554  0.63275839  1
  Co  Co120  1  0.39289230  0.73872691  0.83407050  1
  Co  Co121  1  0.02020654  0.57034001  0.79657376  1
  Co  Co122  1  0.79773000  0.20933771  -0.04403598  1
  Co  Co123  1  0.21077219  0.31669997  0.27807501  1
  Co  Co124  1  0.64361970  0.46740153  0.53248684  1
  Co  Co125  1  0.49870588  0.18324240  0.38056237  1
  Co  Co126  1  0.56509925  0.46346969  -0.08514488  1
  Co  Co127  1  0.38425373  0.46388864  0.13242011  1
  Co  Co128  1  0.11059185  0.70986894  0.73195466  1
  Co  Co129  1  0.64490516  0.32307517  0.00925743  1
  Co  Co130  1  0.04733936  0.16272764  0.14836455  1
  Co  Co131  1  0.03255144  0.04202959  0.04441719  1
  Co  Co132  1  0.12790798  0.57937143  0.49843189  1
  Co  Co133  1  0.69136437  0.01917949  0.66773793  1
  Co  Co134  1  0.87176467  0.34032468  0.50121959  1
  Co  Co135  1  0.22816310  0.11292386  0.54818460  1
  Co  Co136  1  0.69788577  0.88340697  0.57902262  1
  Co  Co137  1  0.14974820  0.82434809  -0.08546831  1
  Co  Co138  1  0.48649999  0.54524094  0.25620554  1
  Co  Co139  1  0.69836622  0.56719740  0.83062758  1
  Co  Co140  1  0.46878692  0.15898658  -0.08289956  1
  Co  Co141  1  0.52702709  0.62050662  0.50744689  1
  Co  Co142  1  0.47241796  0.60901712  0.10308130  1
  Co  Co143  1  0.72042650  0.09319064  0.81382932  1
  Co  Co144  1  0.18415761  0.09342012  0.06542466  1
  Co  Co145  1  0.05232757  0.53517033  0.22839287  1
  Co  Co146  1  0.26985295  0.51438738  0.50797386  1
  Co  Co147  1  0.30149232  0.51484937  0.89786280  1
  Co  Co148  1  0.63426042  0.73386755  0.63752057  1
  Co  Co149  1  -0.05098770  0.31898950  0.72833231  1
  Co  Co150  1  0.84800654  0.03779277  0.90634819  1
  Co  Co151  1  0.21513642  0.54828919  0.35540835  1
  Co  Co152  1  0.77577387  0.47387868  0.39922280  1
  Co  Co153  1  0.53215346  0.56558220  0.80041059  1
  Co  Co154  1  -0.02949333  0.89814037  0.13181320  1
  Co  Co155  1  0.35214515  0.18862151  0.45552224  1
  Co  Co156  1  0.05377756  0.42652225  0.03676168  1
  Co  Co157  1  0.78142027  0.79430663  0.70494584  1
  Co  Co158  1  0.17064366  0.65159350  0.22302293  1
  Co  Co159  1  0.09766964  0.19160855  -0.01959301  1
  Co  Co160  1  0.46612711  0.73962794  0.37710635  1
  Co  Co161  1  0.41366546  0.16023530  0.15716861  1
  Ni  Ni162  1  0.18458187  0.58655571  0.80058271  1
  Ni  Ni163  1  0.86700805  0.62448245  0.83229787  1
  Ni  Ni164  1  0.38224881  0.73174794  0.03726642  1
  Ni  Ni165  1  0.21801031  0.25887493  0.75276078  1
  Ni  Ni166  1  0.43426845  0.04150038  0.45570082  1
  Ni  Ni167  1  0.64233525  0.16332640  0.46114198  1
  Ni  Ni168  1  0.06549940  0.77693803  0.05587657  1
  Ni  Ni169  1  0.84538263  0.20402691  0.41611784  1
  Ni  Ni170  1  0.40630270  0.86512637  0.14800571  1
  Ni  Ni171  1  0.67435864  -0.02162031  0.23123630  1
  Ni  Ni172  1  0.41828712  0.17673958  0.70702607  1
  Ni  Ni173  1  0.77175699  0.75865520  0.36999217  1
  Ni  Ni174  1  0.11072075  0.35854381  0.69023756  1
  Ni  Ni175  1  0.87636852  0.35344184  0.88806653  1
  Ni  Ni176  1  0.85464393  -0.09922769  0.44774134  1
  Ni  Ni177  1  -0.04794340  0.48105608  0.42766619  1
  Ni  Ni178  1  0.75110691  0.26811713  0.26935559  1
  Ni  Ni179  1  0.28734910  0.77939465  0.27881995  1
  Ni  Ni180  1  0.23256266  -0.05314778  0.82814309  1
  Ni  Ni181  1  0.85632556  0.62083770  0.41510972  1
  Ni  Ni182  1  0.63546053  0.87380708  0.74365079  1
  Ni  Ni183  1  0.86657807  0.43682658  0.04837089  1
  Ni  Ni184  1  0.40586245  0.56306686  0.60796020  1
  Ni  Ni185  1  0.18760394  0.88789269  0.36689808  1
  Ni  Ni186  1  0.48647971  0.80536030  -0.06253097  1
  Ni  Ni187  1  0.79912113  0.87464882  -0.05336820  1
  Ni  Ni188  1  0.81550361  0.05273774  0.18805663  1
  Ni  Ni189  1  0.07305944  0.10782295  0.47894144  1
  Ni  Ni190  1  0.31750822  0.30778445  0.13844584  1
  Ni  Ni191  1  0.33674911  -0.07341112  0.69785606  1
  Ni  Ni192  1  0.15485894  0.38170099  0.53464096  1
  Ni  Ni193  1  0.14775043  0.52002762  -0.05304780  1
  Ni  Ni194  1  0.51812871  0.87734263  0.63260133  1
  Ni  Ni195  1  0.93874461  0.57054749  0.10880956  1
  Ni  Ni196  1  0.61248355  -0.07025971  0.08565881  1
  Ni  Ni197  1  0.01730146  -0.06315000  0.30314085  1
  Ni  Ni198  1  0.29982517  -0.01816649  0.09960962  1
  Ni  Ni199  1  0.30706546  -0.05999707  0.26329957  1
  Ni  Ni200  1  0.70947455  0.46538982  0.10263490  1
  Ni  Ni201  1  0.50417036  0.32004517  0.90228243  1
  Ni  Ni202  1  0.38441803  0.71524822  0.50614638  1
  Ni  Ni203  1  0.56883804  0.03066673  0.90062378  1
  Ni  Ni204  1  0.83041989  0.09518319  0.66863796  1
  Ni  Ni205  1  0.17386988  0.90604918  0.67646225  1
  Ni  Ni206  1  0.18918393  0.22798247  0.42173021  1
  Ni  Ni207  1  -0.09762237  0.80069853  0.84149666  1
  Ni  Ni208  1  -0.02919964  0.70002739  0.20166472  1
  Ni  Ni209  1  -0.04361694  0.79379099  0.53026093  1
  Ni  Ni210  1  0.50933448  0.01414854  0.17985284  1
  Ni  Ni211  1  0.61880890  0.72168863  0.31816276  1
  Ni  Ni212  1  -0.03444684  0.13940125  0.90445554  1
  Ni  Ni213  1  0.22453995  0.16303898  0.88488160  1
  Ni  Ni214  1  0.72008898  0.75454452  0.04292619  1
