# generated using pymatgen
data_Ti108Co54Ni53
_symmetry_space_group_name_H-M   'P 1'
_cell_length_a   14.65628028
_cell_length_b   14.65369170
_cell_length_c   14.63814944
_cell_angle_alpha   89.91992522
_cell_angle_beta   89.95307849
_cell_angle_gamma   90.02812565
_symmetry_Int_Tables_number   1
_chemical_formula_structural   Ti108Co54Ni53
_chemical_formula_sum   'Ti108 Co54 Ni53'
_cell_volume   3143.81054371
_cell_formula_units_Z   1
loop_
 _symmetry_equiv_pos_site_id
 _symmetry_equiv_pos_as_xyz
  1  'x, y, z'
loop_
 _atom_site_type_symbol
 _atom_site_label
 _atom_site_symmetry_multiplicity
 _atom_site_fract_x
 _atom_site_fract_y
 _atom_site_fract_z
 _atom_site_occupancy
  Ti  Ti0  1  0.03641376  0.10371180  0.25038382  1
  Ti  Ti1  1  0.06117198  -0.02478531  0.55793493  1
  Ti  Ti2  1  0.06508076  0.02421567  0.87912712  1
  Ti  Ti3  1  0.12276979  0.41107365  0.19563476  1
  Ti  Ti4  1  0.09377928  0.43847670  0.63312659  1
  Ti  Ti5  1  0.05377470  0.43147174  0.91387949  1
  Ti  Ti6  1  0.07815694  0.73185944  0.21763572  1
  Ti  Ti7  1  0.01197252  0.78699752  0.62360944  1
  Ti  Ti8  1  0.06771463  0.80988170  0.92073337  1
  Ti  Ti9  1  0.47566149  0.08786034  0.26508405  1
  Ti  Ti10  1  0.37191519  0.09891560  0.53834608  1
  Ti  Ti11  1  0.37766159  -0.00534657  0.86844042  1
  Ti  Ti12  1  0.40244685  0.45740357  0.32590435  1
  Ti  Ti13  1  0.44556690  0.37673870  0.54153342  1
  Ti  Ti14  1  0.39088013  0.44770585  0.93248575  1
  Ti  Ti15  1  0.48974872  0.74975222  0.25954326  1
  Ti  Ti16  1  0.38592367  0.72459255  0.57223641  1
  Ti  Ti17  1  0.36427486  0.79550728  0.89193909  1
  Ti  Ti18  1  0.81308566  0.09842343  0.26831344  1
  Ti  Ti19  1  0.72718207  0.12266530  0.57796556  1
  Ti  Ti20  1  0.76493787  0.13471413  0.90919837  1
  Ti  Ti21  1  0.77917810  0.37024095  0.31292965  1
  Ti  Ti22  1  0.73218271  0.45367058  0.60398673  1
  Ti  Ti23  1  0.85713230  0.47476999  0.92130968  1
  Ti  Ti24  1  0.79179693  0.76411284  0.25113973  1
  Ti  Ti25  1  0.75088181  0.82086987  0.54601448  1
  Ti  Ti26  1  0.74762209  0.64295532  0.95018997  1
  Ti  Ti27  1  0.07306611  0.22481614  0.09143146  1
  Ti  Ti28  1  0.07389997  0.29425112  0.48342149  1
  Ti  Ti29  1  0.10579315  0.19109634  0.78995349  1
  Ti  Ti30  1  0.02891687  0.53384940  0.09138725  1
  Ti  Ti31  1  0.06974043  0.65117341  0.42260256  1
  Ti  Ti32  1  0.12473525  0.59683872  0.76935283  1
  Ti  Ti33  1  0.09044068  0.98127574  0.09123644  1
  Ti  Ti34  1  0.17460939  0.92130095  0.40099481  1
  Ti  Ti35  1  0.13289870  0.90300498  0.74015251  1
  Ti  Ti36  1  0.39142190  0.29657773  0.11390034  1
  Ti  Ti37  1  0.34725360  0.27773142  0.40310197  1
  Ti  Ti38  1  0.43490596  0.31103784  0.76408231  1
  Ti  Ti39  1  0.37414374  0.56538870  0.08127569  1
  Ti  Ti40  1  0.38206393  0.60667364  0.43029378  1
  Ti  Ti41  1  0.47581240  0.65099565  0.71332307  1
  Ti  Ti42  1  0.40138982  0.86735642  0.07493171  1
  Ti  Ti43  1  0.45126417  0.90371498  0.53076361  1
  Ti  Ti44  1  0.44755123  0.86398238  0.71347568  1
  Ti  Ti45  1  0.76970843  0.24208962  0.12069142  1
  Ti  Ti46  1  0.81744339  0.21458350  0.43158055  1
  Ti  Ti47  1  0.76273087  0.26113792  0.71737105  1
  Ti  Ti48  1  0.69652157  0.49240108  0.07140652  1
  Ti  Ti49  1  0.69993165  0.54468253  0.41230753  1
  Ti  Ti50  1  0.71275071  0.52378113  0.78747597  1
  Ti  Ti51  1  0.79010543  0.83594406  0.07084065  1
  Ti  Ti52  1  0.78039447  0.91079128  0.36009869  1
  Ti  Ti53  1  0.66666877  0.98898490  0.81212500  1
  Ti  Ti54  1  0.24364903  0.11951947  0.13234553  1
  Ti  Ti55  1  0.26357096  0.09970655  0.34867739  1
  Ti  Ti56  1  0.20235760  0.09416798  0.66378638  1
  Ti  Ti57  1  0.21590385  0.44785214  0.02241888  1
  Ti  Ti58  1  0.19521817  0.43875187  0.38216199  1
  Ti  Ti59  1  0.23593580  0.38859172  0.79220933  1
  Ti  Ti60  1  0.24850437  0.70774677  0.01832422  1
  Ti  Ti61  1  0.31673521  0.77673283  0.34782941  1
  Ti  Ti62  1  0.19575416  0.74593871  0.63500485  1
  Ti  Ti63  1  0.62353560  -0.04289316  0.07958808  1
  Ti  Ti64  1  0.66070925  0.06622439  0.40508891  1
  Ti  Ti65  1  0.50444260  0.11462603  0.80955008  1
  Ti  Ti66  1  0.59887562  0.35487595  0.16806858  1
  Ti  Ti67  1  0.56857988  0.37338178  0.37568570  1
  Ti  Ti68  1  0.54277209  0.48050062  0.69049741  1
  Ti  Ti69  1  0.61230688  0.76345736  0.11237900  1
  Ti  Ti70  1  0.63865335  0.73782973  0.41204768  1
  Ti  Ti71  1  0.62746609  0.82820363  0.70597525  1
  Ti  Ti72  1  0.81404770  0.05131667  0.07300214  1
  Ti  Ti73  1  0.93474034  0.05314685  0.42655542  1
  Ti  Ti74  1  0.84121972  0.09630216  0.73082014  1
  Ti  Ti75  1  0.92787894  0.36116981  0.05751861  1
  Ti  Ti76  1  0.90251638  0.40102179  0.47636801  1
  Ti  Ti77  1  0.89121290  0.41733723  0.70177244  1
  Ti  Ti78  1  0.91006798  0.68510694  0.12334587  1
  Ti  Ti79  1  0.88266331  0.72256548  0.42948486  1
  Ti  Ti80  1  0.88087080  0.79203126  0.80770490  1
  Ti  Ti81  1  0.15507012  0.24808380  0.29349026  1
  Ti  Ti82  1  0.30600198  0.25669437  0.62227795  1
  Ti  Ti83  1  0.29076847  0.17314240  0.89437653  1
  Ti  Ti84  1  0.22476559  0.61232501  0.28965596  1
  Ti  Ti85  1  0.27168222  0.56206322  0.62810823  1
  Ti  Ti86  1  0.30464023  0.60016683  0.84936733  1
  Ti  Ti87  1  0.34096396  0.94039775  0.25182037  1
  Ti  Ti88  1  0.26648851  0.92581118  0.59860460  1
  Ti  Ti89  1  0.22198097  0.91962904  0.94423837  1
  Ti  Ti90  1  0.65768979  0.20804032  0.27788458  1
  Ti  Ti91  1  0.60660206  0.28495022  0.60182477  1
  Ti  Ti92  1  0.63116813  0.28071688  0.88558199  1
  Ti  Ti93  1  0.54937493  0.57092139  0.18484606  1
  Ti  Ti94  1  0.66392972  0.64460877  0.61668789  1
  Ti  Ti95  1  0.54019720  0.56736620  0.88865939  1
  Ti  Ti96  1  0.52893535  0.91183433  0.36061802  1
  Ti  Ti97  1  0.55780809  1.04060238  0.62793012  1
  Ti  Ti98  1  0.65881334  0.79660680  0.90048070  1
  Ti  Ti99  1  0.93608457  0.29113870  0.23637624  1
  Ti  Ti100  1  0.96263298  0.24239328  0.64383139  1
  Ti  Ti101  1  0.90375243  0.28235290  0.85280303  1
  Ti  Ti102  1  0.80743996  0.56207825  0.24799410  1
  Ti  Ti103  1  0.94471755  0.57792185  0.57544318  1
  Ti  Ti104  1  0.98785862  0.62443550  0.91466568  1
  Ti  Ti105  1  0.92445073  0.94173311  0.20054120  1
  Ti  Ti106  1  0.88586571  0.93582040  0.63912182  1
  Ti  Ti107  1  0.91919824  0.93792422  0.96409612  1
  Co  Co108  1  -0.06862454  0.11166239  0.86401345  1
  Co  Co109  1  0.21997761  0.04294807  0.81748379  1
  Co  Co110  1  0.21313399  0.04632995  0.50490181  1
  Co  Co111  1  0.42556993  0.53865038  0.58972346  1
  Co  Co112  1  0.76215311  -0.05236348  0.19728204  1
  Co  Co113  1  0.34850039  0.14728654  0.74964347  1
  Co  Co114  1  0.22676925  0.65722056  0.47478217  1
  Co  Co115  1  0.11146284  0.79787040  0.49590243  1
  Co  Co116  1  0.79295358  0.39921861  0.15696020  1
  Co  Co117  1  0.82558594  0.57740849  0.67983749  1
  Co  Co118  1  0.48052135  0.22298981  0.49889540  1
  Co  Co119  1  0.94451258  0.81018023  0.29889226  1
  Co  Co120  1  0.85327077  0.62138915  0.82933008  1
  Co  Co121  1  0.86266379  0.53693418  0.07355862  1
  Co  Co122  1  0.39144586  0.01197460  0.68032973  1
  Co  Co123  1  -0.05528534  0.65008168  0.28591863  1
  Co  Co124  1  0.78779458  0.62401950  0.51749495  1
  Co  Co125  1  0.90065317  0.54695060  0.40532103  1
  Co  Co126  1  0.76990698  0.37149819  0.82787662  1
  Co  Co127  1  0.05308642  0.48458294  0.47560839  1
  Co  Co128  1  -0.01785210  0.51234428  0.77759172  1
  Co  Co129  1  0.09944375  0.09752575  0.40144884  1
  Co  Co130  1  0.52614568  0.40437152  0.85849604  1
  Co  Co131  1  0.42060585  0.65429657  -0.04847164  1
  Co  Co132  1  0.90348560  0.10609953  0.57557925  1
  Co  Co133  1  -0.01736605  0.66895772  0.73472237  1
  Co  Co134  1  0.34513009  0.18938104  0.24085483  1
  Co  Co135  1  0.81038559  0.29320217  0.57165300  1
  Co  Co136  1  0.27976036  0.81270484  0.49213152  1
  Co  Co137  1  0.47012353  0.76013466  0.42440619  1
  Co  Co138  1  0.65816867  0.66128318  0.27029229  1
  Co  Co139  1  0.39931973  0.49297206  0.76985213  1
  Co  Co140  1  0.51684645  0.80049399  -0.01569157  1
  Co  Co141  1  0.63255762  0.01799911  0.25891018  1
  Co  Co142  1  0.44406461  0.70899970  0.10303850  1
  Co  Co143  1  0.66633943  0.44563859  0.92386014  1
  Co  Co144  1  0.57843062  0.62802277  0.03017076  1
  Co  Co145  1  0.66061752  0.47668650  0.26160800  1
  Co  Co146  1  0.63272710  0.36421532  0.74342910  1
  Co  Co147  1  0.21048648  0.37215557  0.53576223  1
  Co  Co148  1  0.50660721  0.75531636  0.83070714  1
  Co  Co149  1  0.32342071  0.46295389  0.48099033  1
  Co  Co150  1  0.32543949  0.41349116  0.65393107  1
  Co  Co151  1  0.62373251  0.65848732  0.78933777  1
  Co  Co152  1  -0.01201043  0.08191962  0.02488364  1
  Co  Co153  1  0.50543827  0.21712665  0.34507429  1
  Co  Co154  1  0.07012239  0.14123269  0.56181513  1
  Co  Co155  1  0.14338292  0.27051075  0.64884516  1
  Co  Co156  1  0.16793295  0.01280449  0.24548562  1
  Co  Co157  1  0.53736484  0.58303154  0.35504060  1
  Co  Co158  1  0.76987907  0.32633221  -0.01722671  1
  Co  Co159  1  -0.07829570  0.15270252  0.15152862  1
  Co  Co160  1  0.55869751  0.78485086  0.57067435  1
  Co  Co161  1  0.88323564  0.20381663  0.00226740  1
  Ni  Ni162  1  0.79575369  -0.01140907  0.50372642  1
  Ni  Ni163  1  0.75337145  0.72358822  0.74241519  1
  Ni  Ni164  1  0.50341968  -0.07437780  0.19286574  1
  Ni  Ni165  1  0.02848799  -0.05167384  0.33524461  1
  Ni  Ni166  1  0.15266090  0.58562611  -0.05471204  1
  Ni  Ni167  1  0.86201538  0.72976877  0.62231715  1
  Ni  Ni168  1  -0.01767734  0.91467811  0.78127662  1
  Ni  Ni169  1  0.66335236  0.11383811  0.13379000  1
  Ni  Ni170  1  0.06793490  0.54228412  0.29214176  1
  Ni  Ni171  1  0.83312383  -0.03475779  0.82372155  1
  Ni  Ni172  1  0.53377434  0.63505328  0.51635274  1
  Ni  Ni173  1  0.52465501  -0.08159786  0.85728805  1
  Ni  Ni174  1  0.15625555  0.11940221  -0.02359451  1
  Ni  Ni175  1  0.16380897  0.30342938  0.91752519  1
  Ni  Ni176  1  0.05382498  0.35054498  0.77083819  1
  Ni  Ni177  1  0.72046987  -0.03623300  0.65255319  1
  Ni  Ni178  1  0.01443944  0.06458253  0.70451658  1
  Ni  Ni179  1  0.53155471  0.44853621  0.03194433  1
  Ni  Ni180  1  -0.01149934  0.83452321  0.09017318  1
  Ni  Ni181  1  0.64243998  0.84719776  0.25372320  1
  Ni  Ni182  1  0.50034330  0.05657182  0.44536872  1
  Ni  Ni183  1  0.58107631  0.47815603  0.51677115  1
  Ni  Ni184  1  0.28879623  0.34036381  0.25746690  1
  Ni  Ni185  1  -0.06068505  0.46317090  0.21971486  1
  Ni  Ni186  1  0.30350788  0.75496013  0.17737105  1
  Ni  Ni187  1  0.19795058  0.74848646  0.83892128  1
  Ni  Ni188  1  0.15772215  0.82580037  0.08415844  1
  Ni  Ni189  1  0.34973859  -0.03656412  0.41727878  1
  Ni  Ni190  1  0.10457401  0.61481159  0.59057085  1
  Ni  Ni191  1  0.28902558  0.88859478  0.77014528  1
  Ni  Ni192  1  0.07071148  0.69402418  0.04756835  1
  Ni  Ni193  1  0.74201644  -0.05340651  -0.04389342  1
  Ni  Ni194  1  0.97713835  0.21737743  0.37457880  1
  Ni  Ni195  1  0.44306044  0.43715642  0.17012350  1
  Ni  Ni196  1  0.19042244  0.85061553  0.24679335  1
  Ni  Ni197  1  0.64402011  0.22683018  0.44982340  1
  Ni  Ni198  1  0.32608555  0.72590828  0.73516014  1
  Ni  Ni199  1  0.38927353  0.61532468  0.24739653  1
  Ni  Ni200  1  0.21420175  0.20725581  0.48329751  1
  Ni  Ni201  1  0.62657821  0.93295802  0.50852732  1
  Ni  Ni202  1  0.18206478  0.59221407  0.12615360  1
  Ni  Ni203  1  0.31423600  0.31432307  -0.03386903  1
  Ni  Ni204  1  -0.06176674  0.88042884  0.47131397  1
  Ni  Ni205  1  0.02920783  0.22614103  -0.06405675  1
  Ni  Ni206  1  0.90070714  0.75938427  -0.03144680  1
  Ni  Ni207  1  0.28362184  0.48441934  0.19677497  1
  Ni  Ni208  1  0.02953121  0.38435860  0.34150905  1
  Ni  Ni209  1  0.22183066  0.29795205  0.11136226  1
  Ni  Ni210  1  0.71284028  0.37496815  0.46509385  1
  Ni  Ni211  1  0.47563230  0.18658997  0.65516251  1
  Ni  Ni212  1  0.65472922  0.13874316  0.73724184  1
  Ni  Ni213  1  0.25697773  -0.04970402  0.11156570  1
  Ni  Ni214  1  0.73809754  0.65433309  0.11744964  1
