# generated using pymatgen
data_Ti108Co54Ni53
_symmetry_space_group_name_H-M   'P 1'
_cell_length_a   14.64832474
_cell_length_b   14.67894054
_cell_length_c   14.64804492
_cell_angle_alpha   89.84069843
_cell_angle_beta   89.72634562
_cell_angle_gamma   89.80219369
_symmetry_Int_Tables_number   1
_chemical_formula_structural   Ti108Co54Ni53
_chemical_formula_sum   'Ti108 Co54 Ni53'
_cell_volume   3149.58354793
_cell_formula_units_Z   1
loop_
 _symmetry_equiv_pos_site_id
 _symmetry_equiv_pos_as_xyz
  1  'x, y, z'
loop_
 _atom_site_type_symbol
 _atom_site_label
 _atom_site_symmetry_multiplicity
 _atom_site_fract_x
 _atom_site_fract_y
 _atom_site_fract_z
 _atom_site_occupancy
  Ti  Ti0  1  0.05842172  0.06012884  0.20215850  1
  Ti  Ti1  1  0.07106928  0.05573527  0.56440790  1
  Ti  Ti2  1  0.04536224  0.05352524  0.88851667  1
  Ti  Ti3  1  0.07190296  0.40346227  0.27616759  1
  Ti  Ti4  1  0.06142695  0.51172840  0.59504643  1
  Ti  Ti5  1  0.11339852  0.37812150  0.91824566  1
  Ti  Ti6  1  0.14009359  0.69213729  0.24567432  1
  Ti  Ti7  1  0.12648889  0.70473314  0.66484536  1
  Ti  Ti8  1  0.06562420  0.70907840  0.90259979  1
  Ti  Ti9  1  0.40648223  0.06102330  0.25624284  1
  Ti  Ti10  1  0.35943523  0.11804761  0.58938702  1
  Ti  Ti11  1  0.41587167  0.11217278  0.89895983  1
  Ti  Ti12  1  0.39853597  0.50097560  0.27229972  1
  Ti  Ti13  1  0.39774004  0.48508709  0.59309638  1
  Ti  Ti14  1  0.37551852  0.30871749  0.87789919  1
  Ti  Ti15  1  0.44566435  0.74047078  0.27385603  1
  Ti  Ti16  1  0.40761063  0.79973265  0.50821143  1
  Ti  Ti17  1  0.44376884  0.79325859  0.88608565  1
  Ti  Ti18  1  0.76316234  0.04476479  0.20984821  1
  Ti  Ti19  1  0.67998611  0.11041529  0.52237556  1
  Ti  Ti20  1  0.72001284  0.01360049  0.94248564  1
  Ti  Ti21  1  0.73895746  0.46344364  0.29495574  1
  Ti  Ti22  1  0.77647376  0.44096840  0.66894231  1
  Ti  Ti23  1  0.78056692  0.50413220  0.86702361  1
  Ti  Ti24  1  0.79910191  0.73914659  0.26874137  1
  Ti  Ti25  1  0.75063362  0.74789537  0.55098378  1
  Ti  Ti26  1  0.80051310  0.70654207  0.90007132  1
  Ti  Ti27  1  0.07450535  0.24423469  0.09540588  1
  Ti  Ti28  1  0.05480880  0.26723107  0.43498646  1
  Ti  Ti29  1  0.05075987  0.28068091  0.72759594  1
  Ti  Ti30  1  0.10126555  0.65736419  0.07351917  1
  Ti  Ti31  1  0.01524523  0.58689268  0.36150871  1
  Ti  Ti32  1  0.10409385  0.55174036  0.80546811  1
  Ti  Ti33  1  0.15331247  0.85025289  0.12930342  1
  Ti  Ti34  1  0.06211753  0.96349154  0.39362855  1
  Ti  Ti35  1  0.04285668  0.93969566  0.72254229  1
  Ti  Ti36  1  0.45646557  0.20829351  0.07103211  1
  Ti  Ti37  1  0.44279777  0.20309845  0.43142639  1
  Ti  Ti38  1  0.47976816  0.32596454  0.68964740  1
  Ti  Ti39  1  0.44313229  0.48047554  0.09347970  1
  Ti  Ti40  1  0.40446774  0.59047498  0.42673105  1
  Ti  Ti41  1  0.41010180  0.48900668  0.79320034  1
  Ti  Ti42  1  0.35008355  0.92215800  0.13962770  1
  Ti  Ti43  1  0.39679656  0.98711114  0.43948063  1
  Ti  Ti44  1  0.35759128  0.97605393  0.76910068  1
  Ti  Ti45  1  0.79307181  0.32303375  0.01288119  1
  Ti  Ti46  1  0.77630137  0.27998687  0.38890812  1
  Ti  Ti47  1  0.73731067  0.16111634  0.76048165  1
  Ti  Ti48  1  0.69236969  0.51667884  0.09983428  1
  Ti  Ti49  1  0.74774204  0.54839247  0.49467425  1
  Ti  Ti50  1  0.81630690  0.63110026  0.70530599  1
  Ti  Ti51  1  0.74298449  0.87179628  0.13737309  1
  Ti  Ti52  1  0.79567480  0.96949854  0.42711415  1
  Ti  Ti53  1  0.75639957  0.95383240  0.73768665  1
  Ti  Ti54  1  0.25079763  0.16250280  0.16274309  1
  Ti  Ti55  1  0.25993178  0.13393304  0.39273069  1
  Ti  Ti56  1  0.22356712  0.12449320  0.82959170  1
  Ti  Ti57  1  0.28968062  0.44433844  -0.00064764  1
  Ti  Ti58  1  0.24935923  0.43107777  0.41313133  1
  Ti  Ti59  1  0.27447314  0.37191290  0.67652075  1
  Ti  Ti60  1  0.29755305  0.76329198  0.02847439  1
  Ti  Ti61  1  0.25710558  0.70796134  0.39431664  1
  Ti  Ti62  1  0.32680078  0.79601140  0.71283067  1
  Ti  Ti63  1  0.65806806  0.15111531  0.07945844  1
  Ti  Ti64  1  0.57365693  0.04962253  0.38406706  1
  Ti  Ti65  1  0.51330826  0.12977251  0.72279484  1
  Ti  Ti66  1  0.61358520  0.34260014  0.11093055  1
  Ti  Ti67  1  0.52192521  0.40534920  0.37614894  1
  Ti  Ti68  1  0.62708246  0.46843063  0.76568967  1
  Ti  Ti69  1  0.61154302  0.72976537  0.09949484  1
  Ti  Ti70  1  0.57000235  0.71624771  0.44551044  1
  Ti  Ti71  1  0.54639786  0.72574320  0.69331218  1
  Ti  Ti72  1  0.92276518  0.15590986  0.02563228  1
  Ti  Ti73  1  0.90216578  0.11520998  0.49427292  1
  Ti  Ti74  1  0.93092748  0.10812236  0.72194645  1
  Ti  Ti75  1  0.93621006  0.38468336  0.14205992  1
  Ti  Ti76  1  0.91138762  0.44957220  0.42657423  1
  Ti  Ti77  1  0.94200428  0.44612904  0.75566672  1
  Ti  Ti78  1  0.95367675  0.81696824  0.09687651  1
  Ti  Ti79  1  0.99933117  0.76939792  0.37159561  1
  Ti  Ti80  1  0.95416657  0.76910812  0.76841392  1
  Ti  Ti81  1  0.19750889  0.27672608  0.29484771  1
  Ti  Ti82  1  0.19396748  0.20498151  0.61186830  1
  Ti  Ti83  1  0.24447939  0.23864909  0.98539963  1
  Ti  Ti84  1  0.21179909  0.50397827  0.17526050  1
  Ti  Ti85  1  0.29148324  0.65809158  0.58368822  1
  Ti  Ti86  1  0.32498648  0.61946705  0.89190483  1
  Ti  Ti87  1  0.22432831  0.97529458  0.28962913  1
  Ti  Ti88  1  0.19061463  0.88703852  0.61360182  1
  Ti  Ti89  1  0.25738772  0.97093502  0.95910038  1
  Ti  Ti90  1  0.53724133  0.20966448  0.25999787  1
  Ti  Ti91  1  0.66228674  0.29656761  0.57980625  1
  Ti  Ti92  1  0.60652658  0.23350080  0.90510762  1
  Ti  Ti93  1  0.61795691  0.61956028  0.26800054  1
  Ti  Ti94  1  0.58405448  0.48633254  0.56818358  1
  Ti  Ti95  1  0.55089183  0.52783217  0.94127875  1
  Ti  Ti96  1  0.53561119  0.90607181  0.20628273  1
  Ti  Ti97  1  0.58901160  0.89650498  0.54318041  1
  Ti  Ti98  1  0.47477612  0.94284870  0.99983684  1
  Ti  Ti99  1  0.88087286  0.19514472  0.21360021  1
  Ti  Ti100  1  0.86029664  0.26839919  0.64046460  1
  Ti  Ti101  1  0.90895962  0.25996552  0.85127452  1
  Ti  Ti102  1  0.88604712  0.58203637  0.16014212  1
  Ti  Ti103  1  0.96604543  0.69806658  0.56194841  1
  Ti  Ti104  1  0.98700615  0.51215086  0.98234981  1
  Ti  Ti105  1  0.89453093  0.90735588  0.27502210  1
  Ti  Ti106  1  0.95460861  0.88268252  0.53042870  1
  Ti  Ti107  1  0.89422165  0.96227512  0.98179418  1
  Co  Co108  1  0.92431579  0.60068100  0.85819031  1
  Co  Co109  1  0.87483979  0.64249270  0.45729692  1
  Co  Co110  1  0.10207288  0.11519196  0.35735969  1
  Co  Co111  1  0.37254545  0.27655047  0.57808384  1
  Co  Co112  1  0.62945704  0.78119535  0.27255897  1
  Co  Co113  1  0.84792004  0.80560592  0.42795395  1
  Co  Co114  1  0.48233196  0.05666668  0.11372786  1
  Co  Co115  1  0.12750296  0.41696986  0.72442950  1
  Co  Co116  1  0.77872541  0.69783539  0.09193465  1
  Co  Co117  1  0.46624904  0.34850061  0.20759180  1
  Co  Co118  1  0.03539424  0.23104942  0.25174882  1
  Co  Co119  1  0.59972508  0.06376363  0.22243058  1
  Co  Co120  1  0.72026777  0.67385014  0.39474639  1
  Co  Co121  1  0.08319591  0.44536732  0.43937701  1
  Co  Co122  1  -0.01599788  0.61508098  0.70768011  1
  Co  Co123  1  0.25079404  0.27152675  0.47157752  1
  Co  Co124  1  0.57888290  0.55469468  0.41356826  1
  Co  Co125  1  0.53836805  0.18911682  0.56847549  1
  Co  Co126  1  0.18750521  0.34829257  0.11223248  1
  Co  Co127  1  0.44528634  0.64797799  -0.00264760  1
  Co  Co128  1  0.25190938  0.55241175  0.71213952  1
  Co  Co129  1  0.18824013  -0.03886814  0.80721593  1
  Co  Co130  1  0.17778048  0.55487965  0.33261200  1
  Co  Co131  1  0.50905776  0.34230195  0.52312613  1
  Co  Co132  1  0.07346320  0.21650674  0.90426218  1
  Co  Co133  1  0.56243395  0.08493933  -0.03731675  1
  Co  Co134  1  0.62851092  0.06213894  0.81797494  1
  Co  Co135  1  0.52055582  0.56133284  0.70012463  1
  Co  Co136  1  0.61256178  0.23356693  0.41527172  1
  Co  Co137  1  0.09253507  0.11720145  0.73140853  1
  Co  Co138  1  0.30188288  0.37750510  0.22347561  1
  Co  Co139  1  0.80460087  0.83144374  -0.00233313  1
  Co  Co140  1  0.63709210  0.34105642  0.28169553  1
  Co  Co141  1  0.74947214  -0.07746870  0.56924210  1
  Co  Co142  1  0.13614306  0.35328535  0.56428645  1
  Co  Co143  1  0.37316118  0.33375830  0.36477358  1
  Co  Co144  1  0.67289498  0.40167748  0.44112512  1
  Co  Co145  1  0.38333949  0.64763968  0.72101167  1
  Co  Co146  1  -0.09951790  -0.02364939  0.63430488  1
  Co  Co147  1  0.34944231  0.32030689  0.08661686  1
  Co  Co148  1  0.21326125  0.68157941  0.80212499  1
  Co  Co149  1  0.48968594  0.35772255  -0.00011516  1
  Co  Co150  1  0.36780117  0.21952856  0.25330293  1
  Co  Co151  1  0.68906358  0.83400556  0.42272149  1
  Co  Co152  1  0.01765649  0.20988226  0.58431030  1
  Co  Co153  1  0.89459604  0.52835143  0.58804030  1
  Co  Co154  1  0.33351449  0.08488368  0.04266387  1
  Co  Co155  1  0.04393973  0.87484099  0.23768990  1
  Co  Co156  1  -0.02346755  0.70730499  0.21438291  1
  Co  Co157  1  0.13141288  0.81641274  0.78325045  1
  Co  Co158  1  0.56633707  0.47821849  0.21357643  1
  Co  Co159  1  -0.03154472  0.37583338  0.57262803  1
  Co  Co160  1  0.79418035  0.09058124  0.62259461  1
  Co  Co161  1  0.80939298  0.37826236  0.52682369  1
  Ni  Ni162  1  0.25132023  0.44637476  0.83899993  1
  Ni  Ni163  1  0.84353399  0.81989216  0.66565601  1
  Ni  Ni164  1  0.70560444  0.20463706  0.23019405  1
  Ni  Ni165  1  0.63399613  0.02600504  0.65617899  1
  Ni  Ni166  1  0.82488011  0.55962434  0.00638693  1
  Ni  Ni167  1  -0.08568447  0.33340868  0.30623723  1
  Ni  Ni168  1  -0.08479057  0.06835867  0.32577562  1
  Ni  Ni169  1  0.90082293  -0.04448324  0.80880529  1
  Ni  Ni170  1  0.05464410  -0.03328653  0.04506710  1
  Ni  Ni171  1  0.85594387  0.10086021  -0.11950875  1
  Ni  Ni172  1  0.63562301  0.29207725  0.74334374  1
  Ni  Ni173  1  0.62778730  -0.02078407  0.07887751  1
  Ni  Ni174  1  0.29924008  0.60469378  0.07583660  1
  Ni  Ni175  1  0.22725218  0.02417947  0.50665285  1
  Ni  Ni176  1  0.28408297  0.78933892  0.22023108  1
  Ni  Ni177  1  0.34661713  0.20085526  0.74032181  1
  Ni  Ni178  1  0.35204566  0.93903976  0.59770510  1
  Ni  Ni179  1  0.50559078  -0.03534460  0.83842828  1
  Ni  Ni180  1  -0.06697551  0.67849017  0.01211513  1
  Ni  Ni181  1  0.67507350  -0.06274772  0.30165109  1
  Ni  Ni182  1  0.31029946  0.63207268  0.24821671  1
  Ni  Ni183  1  0.37374030  -0.11153083  0.31226237  1
  Ni  Ni184  1  0.77036404  0.34260904  0.82084128  1
  Ni  Ni185  1  0.16741355  0.55766005  -0.03944678  1
  Ni  Ni186  1  0.22740172  0.50442322  0.55733167  1
  Ni  Ni187  1  0.50153552  0.64744611  0.83882140  1
  Ni  Ni188  1  0.47322674  0.64138179  0.56713422  1
  Ni  Ni189  1  0.13552489  0.62646068  0.48554452  1
  Ni  Ni190  1  0.26575607  0.87261155  0.45689414  1
  Ni  Ni191  1  0.66115014  0.39659930  -0.05934868  1
  Ni  Ni192  1  0.49933068  0.03345314  0.56375998  1
  Ni  Ni193  1  0.20361996  0.00651825  0.12227415  1
  Ni  Ni194  1  0.14552670  0.10696107  0.01070490  1
  Ni  Ni195  1  0.16396320  0.83247979  0.33648678  1
  Ni  Ni196  1  -0.03297265  0.32949141  -0.01263860  1
  Ni  Ni197  1  0.45454693  0.79088170  0.08273207  1
  Ni  Ni198  1  0.52556021  0.36935756  0.84655164  1
  Ni  Ni199  1  0.04567140  0.54636591  0.19171856  1
  Ni  Ni200  1  0.66294600  0.61921300  0.63763129  1
  Ni  Ni201  1  0.28112563  0.82867778  0.86713505  1
  Ni  Ni202  1  0.11327652  0.79372514  0.49718777  1
  Ni  Ni203  1  0.66633616  0.63093471  0.80573145  1
  Ni  Ni204  1  0.01137831  0.87397653  0.89531333  1
  Ni  Ni205  1  0.52636859  0.87274001  0.38087057  1
  Ni  Ni206  1  0.91340274  0.01477733  0.13992527  1
  Ni  Ni207  1  0.22976479  0.04437371  0.67227570  1
  Ni  Ni208  1  0.14947482  0.84090344  -0.03612345  1
  Ni  Ni209  1  0.48220481  0.62594986  0.15860786  1
  Ni  Ni210  1  0.67312244  0.63168145  -0.02531395  1
  Ni  Ni211  1  0.20770374  0.28641791  0.80972765  1
  Ni  Ni212  1  0.78038954  0.34264867  0.18406302  1
  Ni  Ni213  1  0.84282677  0.58305169  0.31754515  1
  Ni  Ni214  1  0.74684499  0.11928556  0.36475659  1
