# generated using pymatgen
data_Ti108Co54Ni53
_symmetry_space_group_name_H-M   'P 1'
_cell_length_a   14.74712198
_cell_length_b   14.59459434
_cell_length_c   14.66317896
_cell_angle_alpha   89.92147415
_cell_angle_beta   90.06475141
_cell_angle_gamma   89.48225703
_symmetry_Int_Tables_number   1
_chemical_formula_structural   Ti108Co54Ni53
_chemical_formula_sum   'Ti108 Co54 Ni53'
_cell_volume   3155.79666449
_cell_formula_units_Z   1
loop_
 _symmetry_equiv_pos_site_id
 _symmetry_equiv_pos_as_xyz
  1  'x, y, z'
loop_
 _atom_site_type_symbol
 _atom_site_label
 _atom_site_symmetry_multiplicity
 _atom_site_fract_x
 _atom_site_fract_y
 _atom_site_fract_z
 _atom_site_occupancy
  Ti  Ti0  1  0.05495910  0.12395835  0.32598894  1
  Ti  Ti1  1  0.02747493  0.10231417  0.56122013  1
  Ti  Ti2  1  0.00587974  0.12309454  0.91639398  1
  Ti  Ti3  1  0.18086322  0.45490400  0.28994151  1
  Ti  Ti4  1  -0.00102769  0.47838996  0.56401071  1
  Ti  Ti5  1  0.07534014  0.31359788  0.88465802  1
  Ti  Ti6  1  0.11084409  0.80497676  0.25933769  1
  Ti  Ti7  1  0.02343393  0.75212702  0.54815124  1
  Ti  Ti8  1  0.16270579  0.79709912  0.97474691  1
  Ti  Ti9  1  0.37987728  0.15874334  0.24023788  1
  Ti  Ti10  1  0.40020449  0.11238984  0.63048372  1
  Ti  Ti11  1  0.40652913  0.05725493  0.92087372  1
  Ti  Ti12  1  0.36293384  0.45474779  0.19283676  1
  Ti  Ti13  1  0.45347879  0.36172910  0.58956877  1
  Ti  Ti14  1  0.47548960  0.48050769  1.01096126  1
  Ti  Ti15  1  0.40954366  0.74049002  0.33910720  1
  Ti  Ti16  1  0.49444016  0.69823839  0.63624768  1
  Ti  Ti17  1  0.36133383  0.72921328  0.91531093  1
  Ti  Ti18  1  0.75695817  0.11949356  0.19236490  1
  Ti  Ti19  1  0.69988829  0.10610339  0.55060259  1
  Ti  Ti20  1  0.70829213  0.07229326  0.89694790  1
  Ti  Ti21  1  0.72874137  0.32798411  0.18107698  1
  Ti  Ti22  1  0.77450193  0.43112382  0.62314031  1
  Ti  Ti23  1  0.68814488  0.33608890  0.89144855  1
  Ti  Ti24  1  0.73016917  0.83758740  0.20949660  1
  Ti  Ti25  1  0.79663799  0.78846487  0.59409130  1
  Ti  Ti26  1  0.77849929  0.76231662  0.84578839  1
  Ti  Ti27  1  0.13333496  0.20097944  0.04548481  1
  Ti  Ti28  1  0.14935969  0.21829377  0.46516703  1
  Ti  Ti29  1  0.07799210  0.19457218  0.71889115  1
  Ti  Ti30  1  0.11471346  0.56924667  0.03475591  1
  Ti  Ti31  1  0.07640696  0.60925084  0.36322456  1
  Ti  Ti32  1  0.12123987  0.46775266  0.74610295  1
  Ti  Ti33  1  0.10934401  0.98560612  0.01268554  1
  Ti  Ti34  1  0.13117578  0.87779744  0.45562513  1
  Ti  Ti35  1  0.13854115  0.87791223  0.75669499  1
  Ti  Ti36  1  0.46922884  0.29572341  0.12311093  1
  Ti  Ti37  1  0.42482998  0.25263180  0.40228945  1
  Ti  Ti38  1  0.47091886  0.33431029  0.79066386  1
  Ti  Ti39  1  0.39494227  0.62715416  0.13834746  1
  Ti  Ti40  1  0.40825204  0.58480549  0.46347900  1
  Ti  Ti41  1  0.45149434  0.55949284  0.82175585  1
  Ti  Ti42  1  0.44071199  0.97594508  0.09895136  1
  Ti  Ti43  1  0.41544889  0.92040857  0.53326363  1
  Ti  Ti44  1  0.34642881  0.81321633  0.70366132  1
  Ti  Ti45  1  0.69099812  0.20923930  0.02990286  1
  Ti  Ti46  1  0.77155397  0.25085267  0.42633198  1
  Ti  Ti47  1  0.73970296  0.17579026  0.74369013  1
  Ti  Ti48  1  0.69590922  0.69569968  0.08632127  1
  Ti  Ti49  1  0.71982333  0.59905867  0.43408039  1
  Ti  Ti50  1  0.70392858  0.62245125  0.71415333  1
  Ti  Ti51  1  0.78415748  0.89446663  -0.00161839  1
  Ti  Ti52  1  0.77307732  0.92099361  0.42629148  1
  Ti  Ti53  1  0.81559042  0.93621286  0.75721575  1
  Ti  Ti54  1  0.26735164  0.07167761  0.12281362  1
  Ti  Ti55  1  0.31097603  0.08287055  0.45184007  1
  Ti  Ti56  1  0.25822896  0.13291703  0.77318762  1
  Ti  Ti57  1  0.19363363  0.38869585  0.07536310  1
  Ti  Ti58  1  0.26495481  0.36223672  0.43616077  1
  Ti  Ti59  1  0.31200251  0.45551399  0.71756158  1
  Ti  Ti60  1  0.30779474  0.80377600  0.12560006  1
  Ti  Ti61  1  0.22698846  0.70564947  0.42655055  1
  Ti  Ti62  1  0.15057414  0.67386563  0.70949017  1
  Ti  Ti63  1  0.55240054  0.11564693  0.09576456  1
  Ti  Ti64  1  0.59786319  0.00642937  0.38217279  1
  Ti  Ti65  1  0.53687233  0.04568491  0.77112958  1
  Ti  Ti66  1  0.58507553  0.44979122  0.19115668  1
  Ti  Ti67  1  0.55773825  0.40569624  0.41053950  1
  Ti  Ti68  1  0.58064186  0.47416243  0.71201900  1
  Ti  Ti69  1  0.51005497  0.74092981  0.01978848  1
  Ti  Ti70  1  0.62065469  0.73333158  0.32423772  1
  Ti  Ti71  1  0.61342613  0.81336195  0.74088793  1
  Ti  Ti72  1  0.95492414  0.10164753  0.12342745  1
  Ti  Ti73  1  0.89061190  0.04702792  0.33123847  1
  Ti  Ti74  1  0.99688365  0.01505273  0.75154321  1
  Ti  Ti75  1  0.92027172  0.38868447  0.16228149  1
  Ti  Ti76  1  0.97748181  0.43666086  0.35184904  1
  Ti  Ti77  1  0.96256585  0.36409606  0.71866928  1
  Ti  Ti78  1  0.96767023  0.81889428  0.09198174  1
  Ti  Ti79  1  0.83879900  0.73645745  0.36798089  1
  Ti  Ti80  1  0.96530979  0.79793507  0.71842112  1
  Ti  Ti81  1  0.17928074  0.25469196  0.23060614  1
  Ti  Ti82  1  0.19940324  0.31498582  0.62736588  1
  Ti  Ti83  1  0.29998467  0.25757545  0.92710889  1
  Ti  Ti84  1  0.20442664  0.62916491  0.20762189  1
  Ti  Ti85  1  0.28059076  0.62266984  0.59544369  1
  Ti  Ti86  1  0.25274378  0.58135015  0.88144789  1
  Ti  Ti87  1  0.20263735  0.98022983  0.29697989  1
  Ti  Ti88  1  0.23886091  0.97549142  0.61742761  1
  Ti  Ti89  1  0.27970930  0.92985479  0.86516955  1
  Ti  Ti90  1  0.58262822  0.18180741  0.27603330  1
  Ti  Ti91  1  0.63937136  0.29836394  0.57012394  1
  Ti  Ti92  1  0.49912131  0.25463484  0.95448883  1
  Ti  Ti93  1  0.52001171  0.57469562  0.30699248  1
  Ti  Ti94  1  0.58808741  0.53791887  0.53950843  1
  Ti  Ti95  1  0.62485618  0.61266900  0.89980828  1
  Ti  Ti96  1  0.50370008  0.87998082  0.24925644  1
  Ti  Ti97  1  0.61938795  0.88625673  0.56051229  1
  Ti  Ti98  1  0.56885946  0.94275178  0.96369284  1
  Ti  Ti99  1  0.89270402  0.24526067  0.28736746  1
  Ti  Ti100  1  0.86786495  0.23657603  0.60326265  1
  Ti  Ti101  1  0.86213085  0.24200572  0.92616193  1
  Ti  Ti102  1  0.86265842  0.56820554  0.27667282  1
  Ti  Ti103  1  0.86066327  0.60537384  0.58782156  1
  Ti  Ti104  1  0.92661616  0.62500676  0.86217972  1
  Ti  Ti105  1  0.91456714  0.86528707  0.26293746  1
  Ti  Ti106  1  0.93511360  0.93734672  0.57889701  1
  Ti  Ti107  1  0.95417585  0.85554835  0.89712112  1
  Co  Co108  1  0.01623588  0.95798498  0.17403592  1
  Co  Co109  1  0.29118801  0.25445222  0.11291733  1
  Co  Co110  1  0.83239823  0.10032983  0.01225723  1
  Co  Co111  1  0.71748729  0.63760932  0.24627240  1
  Co  Co112  1  0.11584415  0.72844655  0.11338078  1
  Co  Co113  1  0.69413522  0.77976805  0.45660690  1
  Co  Co114  1  0.20407304  0.78695151  0.58112541  1
  Co  Co115  1  0.75213426  -0.02246274  0.27577020  1
  Co  Co116  1  0.01686998  0.23673968  0.18461037  1
  Co  Co117  1  0.33883092  0.64844277  0.74506508  1
  Co  Co118  1  0.04278039  -0.04324824  0.33629527  1
  Co  Co119  1  0.85699213  0.68681331  0.72621571  1
  Co  Co120  1  0.86449824  0.50858447  0.73348599  1
  Co  Co121  1  0.64741165  0.33123975  0.72952851  1
  Co  Co122  1  0.49470945  0.21002403  0.53942430  1
  Co  Co123  1  0.68708660  0.49011518  0.31155697  1
  Co  Co124  1  0.23728865  0.76041379  0.81978178  1
  Co  Co125  1  0.60722119  0.19349759  0.43200897  1
  Co  Co126  1  0.53901622  0.21430393  0.68766143  1
  Co  Co127  1  0.31941844  0.23425169  0.53460125  1
  Co  Co128  1  0.54014617  0.68145622  0.46185880  1
  Co  Co129  1  -0.05761694  -0.02314043  0.00026967  1
  Co  Co130  1  0.42388852  0.16577795  0.80195742  1
  Co  Co131  1  0.39580189  0.14734432  0.05257131  1
  Co  Co132  1  -0.14694493  0.50819257  0.45181645  1
  Co  Co133  1  0.36298440  -0.00833236  0.73861776  1
  Co  Co134  1  0.17927206  0.43761158  -0.08272760  1
  Co  Co135  1  0.29143334  0.51663144  0.03912990  1
  Co  Co136  1  0.82029945  0.39276847  0.31985160  1
  Co  Co137  1  0.22543347  0.53956726  0.43445609  1
  Co  Co138  1  0.22903278  0.13721623  0.32343217  1
  Co  Co139  1  0.35741371  0.27010766  0.69087685  1
  Co  Co140  1  -0.01109049  0.69612563  0.23763824  1
  Co  Co141  1  0.17274976  0.90306213  0.14383211  1
  Co  Co142  1  0.57098507  0.44562710  0.88726283  1
  Co  Co143  1  0.35827246  0.36888959  0.02830698  1
  Co  Co144  1  0.60613557  0.35523063  0.04630650  1
  Co  Co145  1  0.66258685  0.31989323  0.32515134  1
  Co  Co146  1  0.86532251  0.06339178  0.85290352  1
  Co  Co147  1  0.93144777  0.89422564  0.43400645  1
  Co  Co148  1  0.47646139  0.04384800  0.26684220  1
  Co  Co149  1  0.20391299  0.13179530  0.60223496  1
  Co  Co150  1  0.50012746  0.91857293  0.66900726  1
  Co  Co151  1  0.73704781  0.10451426  0.37226253  1
  Co  Co152  1  0.65196395  0.69928091  0.58663982  1
  Co  Co153  1  0.08623863  -0.08275938  0.61207280  1
  Co  Co154  1  0.27593241  -0.06102459  0.02873101  1
  Co  Co155  1  0.84144060  0.72000251  0.17775248  1
  Co  Co156  1  0.01272057  0.76992883  0.38331520  1
  Co  Co157  1  0.46729148  0.09066589  0.42383892  1
  Co  Co158  1  0.25493472  0.66975528  0.04183017  1
  Co  Co159  1  0.07394139  0.38447648  0.18415386  1
  Co  Co160  1  0.18021419  0.47331103  0.59369234  1
  Co  Co161  1  0.09152017  0.58234354  0.86698230  1
  Ni  Ni162  1  0.50972591  0.71817951  0.82748509  1
  Ni  Ni163  1  0.37115103  0.75578830  0.52212223  1
  Ni  Ni164  1  0.03877730  0.53863885  0.21313200  1
  Ni  Ni165  1  0.84847107  0.73180861  -0.00300826  1
  Ni  Ni166  1  0.53213587  0.84815328  0.42141397  1
  Ni  Ni167  1  0.34102461  0.94209950  0.21941969  1
  Ni  Ni168  1  0.84424116  -0.02979116  0.13822680  1
  Ni  Ni169  1  0.86286170  0.08118378  0.66769239  1
  Ni  Ni170  1  0.88746129  0.35817831  0.48842242  1
  Ni  Ni171  1  0.14502485  0.04377452  0.45742865  1
  Ni  Ni172  1  0.39474104  -0.06072731  0.37189857  1
  Ni  Ni173  1  0.10938122  0.41179929  0.45590874  1
  Ni  Ni174  1  -0.08008464  0.20186100  0.77241580  1
  Ni  Ni175  1  0.46789459  -0.11019744  0.82697346  1
  Ni  Ni176  1  0.67893532  0.91593463  0.84535839  1
  Ni  Ni177  1  0.33334753  0.46178468  0.54384454  1
  Ni  Ni178  1  0.85400659  0.24178012  0.10299159  1
  Ni  Ni179  1  0.77720745  0.96240335  0.58774963  1
  Ni  Ni180  1  0.01438367  0.70132644  -0.01656691  1
  Ni  Ni181  1  0.06293324  0.30116846  0.33867018  1
  Ni  Ni182  1  0.61088747  -0.00586519  0.19676095  1
  Ni  Ni183  1  0.13486731  0.03556033  0.83958109  1
  Ni  Ni184  1  -0.00681335  0.29040808  0.02851930  1
  Ni  Ni185  1  0.71833008  0.48070130  0.80526789  1
  Ni  Ni186  1  0.23900390  0.09602192  -0.04914253  1
  Ni  Ni187  1  0.69653420  0.02075556  0.06356792  1
  Ni  Ni188  1  -0.01411740  0.46263495  0.85118355  1
  Ni  Ni189  1  0.26858328  0.81816200  0.30349102  1
  Ni  Ni190  1  0.56025476  0.59239547  0.10415564  1
  Ni  Ni191  1  0.72006747  0.41666347  0.46198213  1
  Ni  Ni192  1  0.85935158  0.08566337  0.49449526  1
  Ni  Ni193  1  0.33222543  0.58845838  0.30694906  1
  Ni  Ni194  1  0.48941218  0.33743271  0.27405851  1
  Ni  Ni195  1  0.64852913  0.78619954  -0.05667831  1
  Ni  Ni196  1  -0.04317073  0.20940421  0.44243683  1
  Ni  Ni197  1  0.11776699  0.08711331  0.17756888  1
  Ni  Ni198  1  0.61059004  0.85432745  0.09852637  1
  Ni  Ni199  1  0.34592504  0.43237800  0.88338150  1
  Ni  Ni200  1  0.66432027  -0.00616503  0.69316105  1
  Ni  Ni201  1  0.39412567  0.44383959  0.36703249  1
  Ni  Ni202  1  0.32112764  0.32036065  0.27491400  1
  Ni  Ni203  1  0.52261446  0.72711055  0.18816048  1
  Ni  Ni204  1  0.22170888  0.32076650  0.79404898  1
  Ni  Ni205  1  0.40925502  0.87355609  -0.02468862  1
  Ni  Ni206  1  0.00225584  0.59584992  0.70420236  1
  Ni  Ni207  1  0.59804361  0.19746479  0.83725928  1
  Ni  Ni208  1  0.54676698  0.04944525  0.56975724  1
  Ni  Ni209  1  0.80823217  0.33386717  0.76461220  1
  Ni  Ni210  1  0.43909765  0.54076079  0.64426684  1
  Ni  Ni211  1  0.07202837  0.74322915  0.83861655  1
  Ni  Ni212  1  0.94426665  0.63261985  0.44689094  1
  Ni  Ni213  1  0.02867291  0.30230543  0.56863990  1
  Ni  Ni214  1  0.10823282  0.61131854  0.54474150  1
