# generated using pymatgen
data_Ti108Co54Ni53
_symmetry_space_group_name_H-M   'P 1'
_cell_length_a   14.56035955
_cell_length_b   14.62494646
_cell_length_c   14.58460095
_cell_angle_alpha   90.20772664
_cell_angle_beta   90.25221904
_cell_angle_gamma   89.54450586
_symmetry_Int_Tables_number   1
_chemical_formula_structural   Ti108Co54Ni53
_chemical_formula_sum   'Ti108 Co54 Ni53'
_cell_volume   3105.56199778
_cell_formula_units_Z   1
loop_
 _symmetry_equiv_pos_site_id
 _symmetry_equiv_pos_as_xyz
  1  'x, y, z'
loop_
 _atom_site_type_symbol
 _atom_site_label
 _atom_site_symmetry_multiplicity
 _atom_site_fract_x
 _atom_site_fract_y
 _atom_site_fract_z
 _atom_site_occupancy
  Ti  Ti0  1  -0.01499778  0.05009864  0.20164118  1
  Ti  Ti1  1  0.11937787  0.03688775  0.64380770  1
  Ti  Ti2  1  0.06370546  0.04538723  0.99263804  1
  Ti  Ti3  1  0.08542518  0.46323383  0.27842687  1
  Ti  Ti4  1  0.03896916  0.45831662  0.63419187  1
  Ti  Ti5  1  0.03851802  0.42530496  1.00175990  1
  Ti  Ti6  1  0.10784320  0.75508985  0.33694509  1
  Ti  Ti7  1  0.17065788  0.73221423  0.53043479  1
  Ti  Ti8  1  0.02877684  0.74493164  0.87623851  1
  Ti  Ti9  1  0.44876066  0.07413432  0.31924690  1
  Ti  Ti10  1  0.49937533  0.05722392  0.62997511  1
  Ti  Ti11  1  0.46448544  0.08859643  1.00935536  1
  Ti  Ti12  1  0.37994072  0.52024840  0.32335087  1
  Ti  Ti13  1  0.42372798  0.36966170  0.60801717  1
  Ti  Ti14  1  0.42979310  0.42234228  0.92438081  1
  Ti  Ti15  1  0.41785376  0.80351266  0.22255455  1
  Ti  Ti16  1  0.41984843  0.81413780  0.58542207  1
  Ti  Ti17  1  0.38584765  0.81002297  0.92695243  1
  Ti  Ti18  1  0.80188379  0.12872145  0.28667591  1
  Ti  Ti19  1  0.72675966  0.09380708  0.59388053  1
  Ti  Ti20  1  0.74912174  0.04186967  0.88947217  1
  Ti  Ti21  1  0.76223757  0.39976666  0.30661470  1
  Ti  Ti22  1  0.74803572  0.45125900  0.61018327  1
  Ti  Ti23  1  0.78975625  0.37257363  0.93727544  1
  Ti  Ti24  1  0.72122551  0.78381058  0.23447710  1
  Ti  Ti25  1  0.75601780  0.76508857  0.55175543  1
  Ti  Ti26  1  0.74352909  0.73102895  0.89827715  1
  Ti  Ti27  1  0.10491633  0.24178782  0.04862382  1
  Ti  Ti28  1  0.05450880  0.24219306  0.44000831  1
  Ti  Ti29  1  0.13021468  0.33029725  0.73229684  1
  Ti  Ti30  1  0.02637268  0.59891060  0.13826562  1
  Ti  Ti31  1  0.09910846  0.55650627  0.46274898  1
  Ti  Ti32  1  0.04693045  0.59532249  0.76351991  1
  Ti  Ti33  1  0.07532109  0.86412736  0.05356536  1
  Ti  Ti34  1  0.04860309  0.94342744  0.42013784  1
  Ti  Ti35  1  0.13357909  0.87541680  0.76355377  1
  Ti  Ti36  1  0.41101193  0.27195832  0.04480943  1
  Ti  Ti37  1  0.42309214  0.32064104  0.41835904  1
  Ti  Ti38  1  0.38471596  0.18682009  0.68930225  1
  Ti  Ti39  1  0.37592693  0.47040437  0.11926304  1
  Ti  Ti40  1  0.42629264  0.64443355  0.49298943  1
  Ti  Ti41  1  0.40858679  0.53920185  0.72808185  1
  Ti  Ti42  1  0.39866873  0.95918154  0.11721520  1
  Ti  Ti43  1  0.48813135  0.84465214  0.40918736  1
  Ti  Ti44  1  0.43991019  0.91897420  0.74190699  1
  Ti  Ti45  1  0.68608878  0.30833285  0.13130822  1
  Ti  Ti46  1  0.83492894  0.28959524  0.43378559  1
  Ti  Ti47  1  0.73343284  0.30524103  0.73167281  1
  Ti  Ti48  1  0.72126140  0.62173145  0.12320317  1
  Ti  Ti49  1  0.69301937  0.51417720  0.43609731  1
  Ti  Ti50  1  0.74565942  0.60456825  0.75110245  1
  Ti  Ti51  1  0.73702844  0.88385369  0.06438245  1
  Ti  Ti52  1  0.75108933  0.96783920  0.37003354  1
  Ti  Ti53  1  0.80510592  0.92973753  0.72696016  1
  Ti  Ti54  1  0.26290011  0.11369338  0.05038194  1
  Ti  Ti55  1  0.28639449  0.05488102  0.42385906  1
  Ti  Ti56  1  0.26065164  0.05287187  0.78945862  1
  Ti  Ti57  1  0.20182129  0.52172496  0.07011596  1
  Ti  Ti58  1  0.23911149  0.41817619  0.40907320  1
  Ti  Ti59  1  0.16763197  0.47741471  0.86139155  1
  Ti  Ti60  1  0.18023520  0.70842157  0.02700585  1
  Ti  Ti61  1  0.29501924  0.75730386  0.37505088  1
  Ti  Ti62  1  0.30891994  0.72932701  0.76151301  1
  Ti  Ti63  1  0.62865749  0.17352305  0.02120131  1
  Ti  Ti64  1  0.59153399  0.03159171  0.45439089  1
  Ti  Ti65  1  0.62131061  0.15466174  0.74446536  1
  Ti  Ti66  1  0.62431917  0.47026353  0.02441982  1
  Ti  Ti67  1  0.56458415  0.38376606  0.30073509  1
  Ti  Ti68  1  0.56709139  0.40796488  0.77242138  1
  Ti  Ti69  1  0.50138463  0.72219443  0.06094029  1
  Ti  Ti70  1  0.61921247  0.68837102  0.40659749  1
  Ti  Ti71  1  0.58556090  0.74946519  0.74086158  1
  Ti  Ti72  1  0.80712601  0.06682948  0.08108111  1
  Ti  Ti73  1  0.88147554  0.10037699  0.46667266  1
  Ti  Ti74  1  0.93239372  0.08844659  0.70580331  1
  Ti  Ti75  1  0.86915124  0.51179522  0.06217930  1
  Ti  Ti76  1  0.90527820  0.49843119  0.43138891  1
  Ti  Ti77  1  0.93012771  0.32970271  0.76611206  1
  Ti  Ti78  1  0.91661944  0.81160053  0.13357979  1
  Ti  Ti79  1  0.96137407  0.71668173  0.47624877  1
  Ti  Ti80  1  0.96920078  0.76757506  0.66998173  1
  Ti  Ti81  1  0.27079175  0.28788354  0.17009408  1
  Ti  Ti82  1  0.25775150  0.23323917  0.52772372  1
  Ti  Ti83  1  0.27389034  0.28430437  0.86002209  1
  Ti  Ti84  1  0.26484053  0.65707871  0.21053209  1
  Ti  Ti85  1  0.24559067  0.49666981  0.60142981  1
  Ti  Ti86  1  0.32225582  0.58239203  0.90591166  1
  Ti  Ti87  1  0.22852764  0.87576044  0.19506600  1
  Ti  Ti88  1  0.25697823  0.88403602  0.62809190  1
  Ti  Ti89  1  0.23073075  0.94444515  0.97446273  1
  Ti  Ti90  1  0.52407471  0.21850816  0.20465622  1
  Ti  Ti91  1  0.56166100  0.21926488  0.53808981  1
  Ti  Ti92  1  0.48888273  0.23166097  0.86668259  1
  Ti  Ti93  1  0.57030372  0.57249975  0.25380183  1
  Ti  Ti94  1  0.54624223  0.52283171  0.57432645  1
  Ti  Ti95  1  0.58850683  0.59867551  0.88888881  1
  Ti  Ti96  1  0.58254739  0.92563647  0.26631828  1
  Ti  Ti97  1  0.60061178  0.89259246  0.60142617  1
  Ti  Ti98  1  0.55102366  0.93168330  0.91324496  1
  Ti  Ti99  1  0.91758692  0.24678913  0.16861899  1
  Ti  Ti100  1  0.87057633  0.23356273  0.61136384  1
  Ti  Ti101  1  0.99547425  0.18172197  0.88181818  1
  Ti  Ti102  1  0.88184839  0.52502813  0.24790035  1
  Ti  Ti103  1  0.89306469  0.59143578  0.61654754  1
  Ti  Ti104  1  0.90570947  0.58125408  0.90102031  1
  Ti  Ti105  1  0.91993933  0.82054799  0.31281932  1
  Ti  Ti106  1  0.92546559  0.94343916  0.56753269  1
  Ti  Ti107  1  0.87881232  0.86839902  0.93565878  1
  Co  Co108  1  0.38331128  0.47595640  0.49434860  1
  Co  Co109  1  0.60738636  0.37504320  0.60206812  1
  Co  Co110  1  0.43523504  0.67828472  0.33367902  1
  Co  Co111  1  0.18294193  0.58917522  0.32571106  1
  Co  Co112  1  0.36754409  -0.06763197  0.31032530  1
  Co  Co113  1  0.56647559  0.87329337  0.11608017  1
  Co  Co114  1  0.25246743  0.45902756  0.23665221  1
  Co  Co115  1  0.57230033  0.74086966  0.55163990  1
  Co  Co116  1  0.52615934  0.50598862  0.40892119  1
  Co  Co117  1  -0.08507788  -0.00326356  0.34514285  1
  Co  Co118  1  0.86485268  0.68118719  0.21827242  1
  Co  Co119  1  0.44880288  0.66958521  0.85151833  1
  Co  Co120  1  0.29872375  0.44297767  0.78758629  1
  Co  Co121  1  0.46264514  0.67491341  0.66413300  1
  Co  Co122  1  0.56580169  0.77079123  -0.09130343  1
  Co  Co123  1  0.14924117  0.38424227  0.13241922  1
  Co  Co124  1  0.22978264  0.58287237  0.73171252  1
  Co  Co125  1  0.53901002  0.20825190  0.37934266  1
  Co  Co126  1  0.17807911  0.65642485  0.86130280  1
  Co  Co127  1  -0.05157595  0.14584610  0.04546995  1
  Co  Co128  1  0.58399250  0.57414909  0.72671632  1
  Co  Co129  1  0.14853166  0.72903587  0.69898368  1
  Co  Co130  1  -0.06277934  0.30848300  -0.01685102  1
  Co  Co131  1  0.65709923  0.84811696  0.42867092  1
  Co  Co132  1  0.89034699  0.68247671  0.77982610  1
  Co  Co133  1  0.62539481  0.08708917  0.30663670  1
  Co  Co134  1  0.41400758  0.34077265  0.77300280  1
  Co  Co135  1  0.05964761  0.62774174  0.60189023  1
  Co  Co136  1  0.27097912  0.59489509  0.45838050  1
  Co  Co137  1  0.18942835  0.81014254  -0.09602037  1
  Co  Co138  1  0.37878953  -0.02221573  -0.07580739  1
  Co  Co139  1  0.78276386  0.11748049  0.74926468  1
  Co  Co140  1  0.79245871  0.72824018  0.37165789  1
  Co  Co141  1  0.71296943  0.15186571  0.43665784  1
  Co  Co142  1  0.00753117  0.44779316  0.83589903  1
  Co  Co143  1  0.80448758  0.61970754  0.48355689  1
  Co  Co144  1  0.59345891  0.08756973  -0.11132657  1
  Co  Co145  1  0.30181065  0.68003976  0.60850813  1
  Co  Co146  1  0.40996551  0.15765393  0.49630787  1
  Co  Co147  1  0.05870286  0.18473925  0.72636590  1
  Co  Co148  1  0.82369777  0.71141836  0.03933299  1
  Co  Co149  1  0.08469386  0.04191944  0.81175301  1
  Co  Co150  1  0.73730105  0.59397886  0.29729992  1
  Co  Co151  1  0.65944431  0.74797538  0.04523023  1
  Co  Co152  1  0.17959642  -0.02499210  0.50988869  1
  Co  Co153  1  -0.01683620  0.70974028  0.02520439  1
  Co  Co154  1  -0.07060914  -0.03419839  0.06740143  1
  Co  Co155  1  0.15918859  0.36805534  0.54365118  1
  Co  Co156  1  0.56392109  0.74048302  0.24681839  1
  Co  Co157  1  0.87769112  0.48976867  0.74204700  1
  Co  Co158  1  0.43673531  0.62070493  0.17899320  1
  Co  Co159  1  0.71897049  0.26119245  0.56848208  1
  Co  Co160  1  0.09801510  0.31150719  0.89416986  1
  Co  Co161  1  0.53541973  0.26729992  0.69370383  1
  Ni  Ni162  1  0.47880045  0.55971042  0.01780756  1
  Ni  Ni163  1  0.67690389  0.24477921  0.88127691  1
  Ni  Ni164  1  0.95621872  0.17631547  0.32493387  1
  Ni  Ni165  1  0.43554506  -0.01164561  0.49431952  1
  Ni  Ni166  1  0.34184950  0.14354589  0.90506756  1
  Ni  Ni167  1  0.68345958  0.86910916  0.83039594  1
  Ni  Ni168  1  0.16975476  0.15291544  -0.09818134  1
  Ni  Ni169  1  0.83703701  0.22086235  0.86043985  1
  Ni  Ni170  1  0.31387344  0.88851856  0.46869201  1
  Ni  Ni171  1  0.01637585  0.12695335  0.55800971  1
  Ni  Ni172  1  0.56819893  0.32393060  -0.01697939  1
  Ni  Ni173  1  0.19912278  0.91209057  0.35087325  1
  Ni  Ni174  1  0.33504623  0.64335739  0.05531157  1
  Ni  Ni175  1  0.76918391  0.77077755  0.71476481  1
  Ni  Ni176  1  0.68716805  0.14450026  0.17062967  1
  Ni  Ni177  1  -0.02138349  -0.07217480  0.73271652  1
  Ni  Ni178  1  0.04062126  0.40225264  0.43920542  1
  Ni  Ni179  1  0.29397013  0.89243793  0.80809442  1
  Ni  Ni180  1  0.63142024  0.00639993  0.03403421  1
  Ni  Ni181  1  0.52203031  0.38486154  0.13360261  1
  Ni  Ni182  1  0.82639368  0.38259842  0.14759421  1
  Ni  Ni183  1  0.74687005  -0.05596065  0.54485637  1
  Ni  Ni184  1  0.53908060  0.05368305  0.16270998  1
  Ni  Ni185  1  0.21538102  0.17361102  0.67917674  1
  Ni  Ni186  1  0.31030409  0.05117363  0.59785627  1
  Ni  Ni187  1  -0.01305006  0.40277993  0.15644973  1
  Ni  Ni188  1  0.45539557  0.06974536  0.80409760  1
  Ni  Ni189  1  0.68247608  0.25171871  0.30395101  1
  Ni  Ni190  1  0.39446969  0.35686640  0.25558362  1
  Ni  Ni191  1  0.65451871  0.34530359  0.44077891  1
  Ni  Ni192  1  0.85136159  0.86101675  0.45220151  1
  Ni  Ni193  1  0.68378194  0.62060385  0.59628980  1
  Ni  Ni194  1  0.03695203  0.91025517  0.89517942  1
  Ni  Ni195  1  -0.06571612  0.35547257  0.31230462  1
  Ni  Ni196  1  0.64496833  -0.00765068  0.73173877  1
  Ni  Ni197  1  0.71555843  0.46105593  0.81450792  1
  Ni  Ni198  1  0.06889349  0.58510881  -0.03791930  1
  Ni  Ni199  1  0.74824382  0.56057685  -0.05007599  1
  Ni  Ni200  1  0.91311034  0.02125465  0.86071421  1
  Ni  Ni201  1  0.06055514  0.90286547  0.23992884  1
  Ni  Ni202  1  0.07851688  0.86625510  0.58759945  1
  Ni  Ni203  1  0.02505991  0.28896534  0.60309842  1
  Ni  Ni204  1  0.89972915  0.39867694  0.57149974  1
  Ni  Ni205  1  0.09438731  0.74715020  0.17264031  1
  Ni  Ni206  1  0.26312201  0.38112865  -0.00175624  1
  Ni  Ni207  1  0.68053936  0.47035746  0.18265094  1
  Ni  Ni208  1  0.00516446  0.62252020  0.32531775  1
  Ni  Ni209  1  0.38306628  0.13355618  0.16694582  1
  Ni  Ni210  1  0.32214647  0.80505954  0.07788967  1
  Ni  Ni211  1  0.82330131  -0.05601305  0.21034966  1
  Ni  Ni212  1  0.80011935  0.22530501  0.02716926  1
  Ni  Ni213  1  0.27853019  0.32637702  0.67036693  1
  Ni  Ni214  1  0.15122566  0.01095297  0.13132577  1
