# generated using pymatgen
data_Ti108Co54Ni53
_symmetry_space_group_name_H-M   'P 1'
_cell_length_a   14.68095276
_cell_length_b   14.60034968
_cell_length_c   14.59686229
_cell_angle_alpha   89.99614119
_cell_angle_beta   89.86631476
_cell_angle_gamma   90.03642303
_symmetry_Int_Tables_number   1
_chemical_formula_structural   Ti108Co54Ni53
_chemical_formula_sum   'Ti108 Co54 Ni53'
_cell_volume   3128.78512647
_cell_formula_units_Z   1
loop_
 _symmetry_equiv_pos_site_id
 _symmetry_equiv_pos_as_xyz
  1  'x, y, z'
loop_
 _atom_site_type_symbol
 _atom_site_label
 _atom_site_symmetry_multiplicity
 _atom_site_fract_x
 _atom_site_fract_y
 _atom_site_fract_z
 _atom_site_occupancy
  Ti  Ti0  1  0.18189914  0.10357121  0.28982276  1
  Ti  Ti1  1  0.07718604  0.09234973  0.54140713  1
  Ti  Ti2  1  0.07519437  0.13961817  0.91348151  1
  Ti  Ti3  1  0.04843424  0.43691570  0.33243018  1
  Ti  Ti4  1  0.10852036  0.42619010  0.53694897  1
  Ti  Ti5  1  0.02674140  0.37012459  0.86663939  1
  Ti  Ti6  1  -0.00134877  0.73163922  0.21888157  1
  Ti  Ti7  1  0.06790024  0.79801998  0.59852745  1
  Ti  Ti8  1  0.17215944  0.68322592  0.95100436  1
  Ti  Ti9  1  0.40293639  0.03761988  0.31196482  1
  Ti  Ti10  1  0.41859739  0.02438835  0.58336812  1
  Ti  Ti11  1  0.41848029  0.04453113  0.92937194  1
  Ti  Ti12  1  0.52256599  0.36864673  0.25704440  1
  Ti  Ti13  1  0.41544646  0.41241781  0.47684666  1
  Ti  Ti14  1  0.45996326  0.36847189  0.93748105  1
  Ti  Ti15  1  0.47680966  0.73519473  0.29041109  1
  Ti  Ti16  1  0.33415130  0.73243965  0.56016751  1
  Ti  Ti17  1  0.37807256  0.83426373  0.89093198  1
  Ti  Ti18  1  0.72146487  0.07470937  0.32229470  1
  Ti  Ti19  1  0.73625740  0.09297726  0.57377481  1
  Ti  Ti20  1  0.76295234  0.08477285  0.92564342  1
  Ti  Ti21  1  0.74544777  0.36539164  0.33142107  1
  Ti  Ti22  1  0.77003432  0.39161599  0.58165864  1
  Ti  Ti23  1  0.69798176  0.46506142  0.89358083  1
  Ti  Ti24  1  0.80242415  0.75681036  0.18387467  1
  Ti  Ti25  1  0.74006562  0.73901749  0.58216440  1
  Ti  Ti26  1  0.66796005  0.77908977  0.95086416  1
  Ti  Ti27  1  0.08872338  0.19439514  0.14248394  1
  Ti  Ti28  1  0.07311191  0.24755769  0.38342169  1
  Ti  Ti29  1  0.10318598  0.22119016  0.71404483  1
  Ti  Ti30  1  0.13298229  0.56119782  0.11055142  1
  Ti  Ti31  1  0.00853051  0.59899632  0.44288089  1
  Ti  Ti32  1  0.07606348  0.54332280  0.78414239  1
  Ti  Ti33  1  0.08910912  0.87982288  0.12531972  1
  Ti  Ti34  1  0.10821182  0.93464177  0.33419091  1
  Ti  Ti35  1  0.12407393  0.83963803  0.79752761  1
  Ti  Ti36  1  0.37835992  0.17470436  0.08088973  1
  Ti  Ti37  1  0.39179006  0.19124053  0.45006188  1
  Ti  Ti38  1  0.41158257  0.30378119  0.75645784  1
  Ti  Ti39  1  0.45766045  0.58318604  0.02028058  1
  Ti  Ti40  1  0.33394775  0.57988124  0.43496268  1
  Ti  Ti41  1  0.47744978  0.59779339  0.76996925  1
  Ti  Ti42  1  0.43735079  0.87577735  0.15139414  1
  Ti  Ti43  1  0.39850689  0.87727413  0.43850887  1
  Ti  Ti44  1  0.47877587  0.96832012  0.76186651  1
  Ti  Ti45  1  0.75624327  0.30153554  0.12915142  1
  Ti  Ti46  1  0.67394186  0.24057019  0.47371248  1
  Ti  Ti47  1  0.79099029  0.25766422  0.81163068  1
  Ti  Ti48  1  0.71086501  0.60330675  0.09877457  1
  Ti  Ti49  1  0.79595350  0.64106054  0.42404871  1
  Ti  Ti50  1  0.78411711  0.58145038  0.71033112  1
  Ti  Ti51  1  0.79891061  0.95375629  0.09361960  1
  Ti  Ti52  1  0.74281261  0.85050200  0.41328176  1
  Ti  Ti53  1  0.78279572  0.97707578  0.73211790  1
  Ti  Ti54  1  0.20054144  0.07500437  0.06931368  1
  Ti  Ti55  1  0.25593007  0.03612464  0.46011041  1
  Ti  Ti56  1  0.16912377  0.05190534  0.75589540  1
  Ti  Ti57  1  0.17736936  0.40649246  -0.00015457  1
  Ti  Ti58  1  0.23549380  0.36554396  0.39049000  1
  Ti  Ti59  1  0.21130076  0.38151882  0.76015487  1
  Ti  Ti60  1  0.28195808  0.80448945  0.05529288  1
  Ti  Ti61  1  0.21223700  0.83200563  0.45781186  1
  Ti  Ti62  1  0.31813861  0.70110594  0.75874778  1
  Ti  Ti63  1  0.59808915  0.06665956  0.04267427  1
  Ti  Ti64  1  0.54807508  0.14099089  0.35364158  1
  Ti  Ti65  1  0.55614477  0.14613338  0.69666062  1
  Ti  Ti66  1  0.60313951  0.42824658  0.05561845  1
  Ti  Ti67  1  0.61487248  0.45573898  0.44164375  1
  Ti  Ti68  1  0.62582861  0.48507918  0.68425930  1
  Ti  Ti69  1  0.62763994  0.84839623  0.12698515  1
  Ti  Ti70  1  0.61792475  0.67053711  0.40685488  1
  Ti  Ti71  1  0.57037310  0.80610862  0.75318146  1
  Ti  Ti72  1  0.95973333  0.04534985  0.07499100  1
  Ti  Ti73  1  0.89632999  0.12864320  0.40018797  1
  Ti  Ti74  1  0.94943407  0.07772987  0.73798435  1
  Ti  Ti75  1  0.96307705  0.43138041  0.04837174  1
  Ti  Ti76  1  0.87435092  0.45094613  0.42824564  1
  Ti  Ti77  1  0.90642686  0.42914985  0.72907773  1
  Ti  Ti78  1  0.96539371  0.68911554  0.03578926  1
  Ti  Ti79  1  1.00740847  0.79151828  0.41276915  1
  Ti  Ti80  1  0.85322348  0.74990590  0.84097364  1
  Ti  Ti81  1  0.26840152  0.25953481  0.21646638  1
  Ti  Ti82  1  0.28157020  0.28649008  0.57361095  1
  Ti  Ti83  1  0.29023217  0.17396687  0.90424522  1
  Ti  Ti84  1  0.23572208  0.61891749  0.26920616  1
  Ti  Ti85  1  0.17532642  0.62072599  0.58709779  1
  Ti  Ti86  1  0.26962466  0.53819780  0.87835427  1
  Ti  Ti87  1  0.28479993  0.80126370  0.24816407  1
  Ti  Ti88  1  0.23377036  0.93945070  0.61819579  1
  Ti  Ti89  1  0.22864946  0.96124835  0.91856682  1
  Ti  Ti90  1  0.56663082  0.21078366  0.14862263  1
  Ti  Ti91  1  0.52561349  0.30666372  0.58992829  1
  Ti  Ti92  1  0.60929977  0.24725368  0.86059146  1
  Ti  Ti93  1  0.58348581  0.56212823  0.24070916  1
  Ti  Ti94  1  0.50673543  0.58792613  0.54977360  1
  Ti  Ti95  1  0.66182282  0.64660162  0.82642449  1
  Ti  Ti96  1  0.57559191  0.94345426  0.28563949  1
  Ti  Ti97  1  0.56095680  0.86752264  0.56179848  1
  Ti  Ti98  1  0.52965216  0.90086554  0.95710930  1
  Ti  Ti99  1  0.95986858  0.32039052  0.19574965  1
  Ti  Ti100  1  0.96326143  0.28081237  0.58180544  1
  Ti  Ti101  1  0.90860123  0.22495361  0.96926864  1
  Ti  Ti102  1  0.88752888  0.58807855  0.27387898  1
  Ti  Ti103  1  0.97787024  0.61654507  0.62642945  1
  Ti  Ti104  1  0.89811881  0.54285129  0.91521216  1
  Ti  Ti105  1  0.91011237  0.91681179  0.28207057  1
  Ti  Ti106  1  0.90133371  0.91027863  0.57852077  1
  Ti  Ti107  1  0.96296835  0.87709880  0.94452449  1
  Co  Co108  1  0.32856019  0.41365277  0.65536708  1
  Co  Co109  1  0.44401593  0.15519278  0.81107114  1
  Co  Co110  1  0.22019008  0.19130974  0.43194226  1
  Co  Co111  1  -0.07899618  0.60960004  0.77986421  1
  Co  Co112  1  0.53932709  0.50168909  -0.11638805  1
  Co  Co113  1  0.69236328  0.44636223  0.18802965  1
  Co  Co114  1  0.15566042  0.71776511  0.13489228  1
  Co  Co115  1  0.77654479  0.63211246  0.95222503  1
  Co  Co116  1  0.13423312  0.77640343  0.29113945  1
  Co  Co117  1  0.22081014  0.25067395  0.04415777  1
  Co  Co118  1  0.85526201  0.43646254  0.22852839  1
  Co  Co119  1  0.65145120  0.00855662  0.45757998  1
  Co  Co120  1  0.07670819  0.61285478  0.29387807  1
  Co  Co121  1  0.32484486  0.72861924  0.38326963  1
  Co  Co122  1  0.39130082  0.87052526  0.64012363  1
  Co  Co123  1  0.50480650  0.71973482  0.87584560  1
  Co  Co124  1  0.57303122  0.84024464  0.40241554  1
  Co  Co125  1  0.38819471  0.46333902  0.80143387  1
  Co  Co126  1  0.05826085  0.38017227  0.68985223  1
  Co  Co127  1  0.30937893  0.07858015  0.19263843  1
  Co  Co128  1  0.81152253  -0.00474150  0.45530746  1
  Co  Co129  1  0.40248923  0.18096940  0.62985934  1
  Co  Co130  1  0.15794529  0.67553301  0.77315360  1
  Co  Co131  1  0.47059932  0.72004367  0.45841292  1
  Co  Co132  1  0.61354215  -0.00674430  0.66418859  1
  Co  Co133  1  0.42558904  0.19214964  0.24189040  1
  Co  Co134  1  0.38097164  0.31228866  0.33948456  1
  Co  Co135  1  0.65674403  0.75516770  0.26847711  1
  Co  Co136  1  0.81389086  -0.07741597  0.89377907  1
  Co  Co137  1  0.02456416  0.70137641  -0.11057660  1
  Co  Co138  1  0.21571547  0.78321260  0.65757800  1
  Co  Co139  1  0.55899289  0.37545270  0.77971157  1
  Co  Co140  1  0.86190209  0.76003554  0.33810554  1
  Co  Co141  1  0.09783517  -0.06609080  0.50893536  1
  Co  Co142  1  0.72995704  0.91142449  0.58094961  1
  Co  Co143  1  0.04643079  -0.01873532  0.83527332  1
  Co  Co144  1  0.72882058  0.53225576  0.32152510  1
  Co  Co145  1  -0.04404421  0.45105244  0.57046989  1
  Co  Co146  1  0.16828322  0.52137448  0.40681969  1
  Co  Co147  1  0.05306659  -0.03960864  0.66748986  1
  Co  Co148  1  0.74708881  0.40130180  0.75259526  1
  Co  Co149  1  -0.07324924  0.89184587  0.75850395  1
  Co  Co150  1  0.26145077  0.47317662  0.53236279  1
  Co  Co151  1  -0.06873752  0.85052800  0.11471025  1
  Co  Co152  1  0.12382090  0.25569602  0.54757881  1
  Co  Co153  1  0.12444396  0.83392655  -0.02994941  1
  Co  Co154  1  0.49749950  0.00313284  0.44129251  1
  Co  Co155  1  0.78151987  0.44936210  0.04195518  1
  Co  Co156  1  0.36225953  0.58117480  0.62870294  1
  Co  Co157  1  0.60484735  0.61634999  -0.02151064  1
  Co  Co158  1  0.68474509  -0.05530343  -0.01520429  1
  Co  Co159  1  0.47283755  0.76243967  0.02566927  1
  Co  Co160  1  0.08233800  -0.00603555  -0.01219450  1
  Co  Co161  1  0.23623914  0.53533128  0.71224562  1
  Ni  Ni162  1  0.22898365  -0.05908688  0.17273555  1
  Ni  Ni163  1  0.62010102  0.66152167  0.66274674  1
  Ni  Ni164  1  0.70862357  0.12432583  0.75837764  1
  Ni  Ni165  1  0.33681648  0.05640693  0.73844657  1
  Ni  Ni166  1  0.47555798  0.04486680  0.15390977  1
  Ni  Ni167  1  0.27604244  -0.05696288  0.32535356  1
  Ni  Ni168  1  0.56067352  0.69374794  0.13756259  1
  Ni  Ni169  1  0.15992080  0.27401971  0.88516523  1
  Ni  Ni170  1  0.53436792  0.30263267  0.41288542  1
  Ni  Ni171  1  -0.04719935  0.23960000  0.78852267  1
  Ni  Ni172  1  0.84232658  0.56131672  0.55721763  1
  Ni  Ni173  1  0.37945133  0.69374793  0.14641171  1
  Ni  Ni174  1  -0.03009962  0.97926254  0.43116492  1
  Ni  Ni175  1  0.73986603  0.91356612  0.24907574  1
  Ni  Ni176  1  0.49220729  0.20368056  -0.03206572  1
  Ni  Ni177  1  0.34652763  -0.02700817  0.05404707  1
  Ni  Ni178  1  0.87547597  0.56908867  0.10684166  1
  Ni  Ni179  1  -0.00270641  0.74492380  0.73697330  1
  Ni  Ni180  1  0.16555912  0.68096518  0.42372627  1
  Ni  Ni181  1  0.65551669  0.92928006  0.82386292  1
  Ni  Ni182  1  0.74654972  0.81103002  0.73118872  1
  Ni  Ni183  1  0.58362799  0.07041912  0.87028456  1
  Ni  Ni184  1  0.30261542  0.35201723  -0.09647673  1
  Ni  Ni185  1  0.85509913  0.05649451  0.22442914  1
  Ni  Ni186  1  -0.09106787  0.08900247  0.56835256  1
  Ni  Ni187  1  0.72715567  0.13021815  0.13590669  1
  Ni  Ni188  1  0.12253812  0.37095043  0.16024850  1
  Ni  Ni189  1  0.85925038  0.37974464  0.90553296  1
  Ni  Ni190  1  0.55345805  0.13076345  0.53201265  1
  Ni  Ni191  1  0.81344215  0.21306552  0.26935853  1
  Ni  Ni192  1  0.48559597  0.54585144  0.37433916  1
  Ni  Ni193  1  -0.02118862  0.16695620  0.26495564  1
  Ni  Ni194  1  0.07101593  0.53735779  -0.04778925  1
  Ni  Ni195  1  0.65280142  0.24491326  0.28407342  1
  Ni  Ni196  1  0.00698813  0.50334023  0.19118378  1
  Ni  Ni197  1  0.46227937  0.32941497  0.10091622  1
  Ni  Ni198  1  0.68350170  0.56669322  0.54163156  1
  Ni  Ni199  1  0.83165940  0.25389439  0.49084797  1
  Ni  Ni200  1  0.67150575  0.27479032  0.67051089  1
  Ni  Ni201  1  0.47484280  0.45290919  0.64463379  1
  Ni  Ni202  1  -0.08344363  0.30683075  0.35865528  1
  Ni  Ni203  1  0.28895020  0.89872522  0.76915535  1
  Ni  Ni204  1  0.90015805  0.73765508  0.52770390  1
  Ni  Ni205  1  0.81929841  0.78865625  0.01255146  1
  Ni  Ni206  1  0.26860217  0.20895982  0.74635827  1
  Ni  Ni207  1  0.05437189  0.29043029  0.02020660  1
  Ni  Ni208  1  0.47269115  0.72777838  0.64139545  1
  Ni  Ni209  1  0.83061677  0.21485946  0.65675628  1
  Ni  Ni210  1  0.34674134  0.67785068  -0.05741675  1
  Ni  Ni211  1  0.04141802  0.02762579  0.21750332  1
  Ni  Ni212  1  0.72401467  0.30196954  -0.02998323  1
  Ni  Ni213  1  0.23758145  0.12332644  0.60560161  1
  Ni  Ni214  1  0.88666105  0.18447972  0.12311804  1
