# generated using pymatgen
data_Ti108Co54Ni53
_symmetry_space_group_name_H-M   'P 1'
_cell_length_a   14.63237985
_cell_length_b   14.65631470
_cell_length_c   14.59756583
_cell_angle_alpha   90.40974119
_cell_angle_beta   89.89718788
_cell_angle_gamma   89.95290154
_symmetry_Int_Tables_number   1
_chemical_formula_structural   Ti108Co54Ni53
_chemical_formula_sum   'Ti108 Co54 Ni53'
_cell_volume   3130.46054709
_cell_formula_units_Z   1
loop_
 _symmetry_equiv_pos_site_id
 _symmetry_equiv_pos_as_xyz
  1  'x, y, z'
loop_
 _atom_site_type_symbol
 _atom_site_label
 _atom_site_symmetry_multiplicity
 _atom_site_fract_x
 _atom_site_fract_y
 _atom_site_fract_z
 _atom_site_occupancy
  Ti  Ti0  1  0.01966626  0.13709272  0.24571281  1
  Ti  Ti1  1  0.09070347  0.13130897  0.46242867  1
  Ti  Ti2  1  0.05278190  0.06170752  0.90651586  1
  Ti  Ti3  1  0.12594266  0.42643566  0.26767651  1
  Ti  Ti4  1  0.07439308  0.43003544  0.58216648  1
  Ti  Ti5  1  0.15118556  0.40052374  0.92214809  1
  Ti  Ti6  1  0.07386377  0.74341624  0.14746612  1
  Ti  Ti7  1  0.11814124  0.71266594  0.64405964  1
  Ti  Ti8  1  0.11601287  0.73244738  0.92559818  1
  Ti  Ti9  1  0.39190467  0.07398847  0.20127073  1
  Ti  Ti10  1  0.40752011  0.14979914  0.55237893  1
  Ti  Ti11  1  0.36473157  0.06507583  0.88367544  1
  Ti  Ti12  1  0.45206513  0.40785723  0.26579229  1
  Ti  Ti13  1  0.42469470  0.34165753  0.59914307  1
  Ti  Ti14  1  0.37076268  0.38066403  0.90030806  1
  Ti  Ti15  1  0.41319501  0.75338566  0.30650054  1
  Ti  Ti16  1  0.46737621  0.81700688  0.54895775  1
  Ti  Ti17  1  0.43604976  0.67048776  0.98973165  1
  Ti  Ti18  1  0.70435761  0.13120297  0.31173258  1
  Ti  Ti19  1  0.74663564  0.09889003  0.56313096  1
  Ti  Ti20  1  0.72393218  0.14050749  0.88666406  1
  Ti  Ti21  1  0.77961677  0.42933780  0.18194497  1
  Ti  Ti22  1  0.74813013  0.47558288  0.60089697  1
  Ti  Ti23  1  0.76629642  0.46594157  0.97456074  1
  Ti  Ti24  1  0.73947345  0.80552521  0.24132144  1
  Ti  Ti25  1  0.71217625  0.78031828  0.53352209  1
  Ti  Ti26  1  0.74272011  0.78066082  0.85509942  1
  Ti  Ti27  1  0.08349930  0.24064099  0.01515422  1
  Ti  Ti28  1  0.18241842  0.29461526  0.39797321  1
  Ti  Ti29  1  0.08422892  0.13894457  0.69310216  1
  Ti  Ti30  1  0.07372987  0.52161510  0.08364398  1
  Ti  Ti31  1  0.08981003  0.60727519  0.46071115  1
  Ti  Ti32  1  0.06280057  0.55174025  0.76771372  1
  Ti  Ti33  1  0.10590768  0.94853658  0.12949047  1
  Ti  Ti34  1  0.03834362  0.88951605  0.42310986  1
  Ti  Ti35  1  0.09150257  0.95598087  0.72565352  1
  Ti  Ti36  1  0.39824354  0.19825079  0.04023391  1
  Ti  Ti37  1  0.39829282  0.24997984  0.37326363  1
  Ti  Ti38  1  0.45266541  0.17478508  0.73130832  1
  Ti  Ti39  1  0.45964614  0.55480361  0.14588999  1
  Ti  Ti40  1  0.39222197  0.60304911  0.46780073  1
  Ti  Ti41  1  0.46984396  0.64208851  0.78997576  1
  Ti  Ti42  1  0.37421025  0.88354784  0.12954615  1
  Ti  Ti43  1  0.40586034  1.04029478  0.39389733  1
  Ti  Ti44  1  0.43693655  0.95468789  0.72271131  1
  Ti  Ti45  1  0.72028061  0.22970827  0.10936072  1
  Ti  Ti46  1  0.74936864  0.27553690  0.45723444  1
  Ti  Ti47  1  0.71083510  0.34990210  0.79131490  1
  Ti  Ti48  1  0.68433604  0.58279769  0.11125647  1
  Ti  Ti49  1  0.76356430  0.52960908  0.35573163  1
  Ti  Ti50  1  0.73115608  0.55242974  0.79534099  1
  Ti  Ti51  1  0.71486619  0.95934430  0.12755796  1
  Ti  Ti52  1  0.84438043  0.87376468  0.40111274  1
  Ti  Ti53  1  0.74572824  0.94419011  0.75356343  1
  Ti  Ti54  1  0.21853096  0.13576015  0.12075758  1
  Ti  Ti55  1  0.21449118  -0.00800325  0.39540386  1
  Ti  Ti56  1  0.27350528  0.13266099  0.72246377  1
  Ti  Ti57  1  0.28026594  0.50349832  0.05687566  1
  Ti  Ti58  1  0.27069452  0.45081592  0.52477533  1
  Ti  Ti59  1  0.21784350  0.43519033  0.73659250  1
  Ti  Ti60  1  0.30440733  0.69391954  0.13976947  1
  Ti  Ti61  1  0.20378401  0.79703797  0.48403839  1
  Ti  Ti62  1  0.27737555  0.79308772  0.76439823  1
  Ti  Ti63  1  0.58122679  0.10856854  0.14017083  1
  Ti  Ti64  1  0.60735598  0.01126511  0.44508395  1
  Ti  Ti65  1  0.57186260  0.05092628  0.80973715  1
  Ti  Ti66  1  0.58519590  0.41356391  0.07541130  1
  Ti  Ti67  1  0.58142848  0.45153386  0.42237049  1
  Ti  Ti68  1  0.56071375  0.47203042  0.72664778  1
  Ti  Ti69  1  0.60831884  0.78847254  0.09317063  1
  Ti  Ti70  1  0.55502096  0.70150636  0.43363681  1
  Ti  Ti71  1  0.61355480  0.74451301  0.70706134  1
  Ti  Ti72  1  0.90371641  0.16832342  0.07545275  1
  Ti  Ti73  1  0.91819094  0.03814172  0.47417505  1
  Ti  Ti74  1  0.88499893  0.08380725  0.76860960  1
  Ti  Ti75  1  0.98932047  0.32935369  0.14304921  1
  Ti  Ti76  1  0.91021334  0.38037380  0.37887488  1
  Ti  Ti77  1  0.90594784  0.41679063  0.69227815  1
  Ti  Ti78  1  0.83661551  0.71917612  0.07441527  1
  Ti  Ti79  1  0.87587435  0.69068179  0.39941967  1
  Ti  Ti80  1  0.88104464  0.68534642  0.61087406  1
  Ti  Ti81  1  0.28803446  0.31249930  0.19649357  1
  Ti  Ti82  1  0.21268882  0.26533871  0.59484599  1
  Ti  Ti83  1  0.21450718  0.18773281  0.90057212  1
  Ti  Ti84  1  0.16262441  0.61154148  0.25083580  1
  Ti  Ti85  1  0.32100171  0.60890735  0.66735737  1
  Ti  Ti86  1  0.30476581  0.56636385  0.87127702  1
  Ti  Ti87  1  0.22698104  0.84454284  0.25713434  1
  Ti  Ti88  1  0.29850650  0.95955499  0.56821032  1
  Ti  Ti89  1  0.29824653  0.89455609  0.94056288  1
  Ti  Ti90  1  0.59484050  0.28366093  0.27031699  1
  Ti  Ti91  1  0.60546617  0.24057179  0.60535570  1
  Ti  Ti92  1  0.54701215  0.25032072  0.91553082  1
  Ti  Ti93  1  0.59660584  0.62723766  0.26339773  1
  Ti  Ti94  1  0.60078502  0.58978069  0.57464830  1
  Ti  Ti95  1  0.59469124  0.57789924  0.93010256  1
  Ti  Ti96  1  0.55595413  0.94747603  0.25240187  1
  Ti  Ti97  1  0.61366480  0.93175405  0.62564654  1
  Ti  Ti98  1  0.63870634  0.93643674  0.95060271  1
  Ti  Ti99  1  0.84811512  0.25100370  0.25898771  1
  Ti  Ti100  1  0.90448735  0.21095809  0.60384377  1
  Ti  Ti101  1  0.87351733  0.27917778  0.89553043  1
  Ti  Ti102  1  0.92633465  0.60435433  0.19473982  1
  Ti  Ti103  1  0.90861003  0.52169042  0.51097164  1
  Ti  Ti104  1  0.96244227  0.53294555  0.91829778  1
  Ti  Ti105  1  0.91028074  0.95620602  0.22299490  1
  Ti  Ti106  1  0.94982965  0.87213233  0.60186906  1
  Ti  Ti107  1  0.90826037  0.97294768  1.02344333  1
  Co  Co108  1  0.13317658  0.25867146  0.20232306  1
  Co  Co109  1  0.79898608  -0.02985573  0.89939091  1
  Co  Co110  1  0.89126547  0.35918275  0.53626463  1
  Co  Co111  1  0.34043442  0.86236362  0.43356413  1
  Co  Co112  1  0.41792066  0.42792853  0.44209315  1
  Co  Co113  1  0.17446656  0.64734117  0.05811399  1
  Co  Co114  1  0.17550396  0.86357316  0.63347703  1
  Co  Co115  1  0.00332446  0.74489997  0.49622239  1
  Co  Co116  1  0.00709848  0.58766539  0.62055927  1
  Co  Co117  1  0.17741634  0.14347885  0.30568409  1
  Co  Co118  1  0.75939170  0.07371084  0.02519399  1
  Co  Co119  1  0.57551558  0.78810056  0.27878845  1
  Co  Co120  1  0.46967831  0.55941817  0.33185830  1
  Co  Co121  1  0.29580233  0.39036524  0.34147404  1
  Co  Co122  1  0.77566569  0.64093283  0.23198586  1
  Co  Co123  1  0.24126234  0.00810835  0.22731800  1
  Co  Co124  1  0.55381260  0.25815420  0.07838256  1
  Co  Co125  1  -0.01722515  0.37284366  -0.02605687  1
  Co  Co126  1  0.47484414  0.71984572  0.15255132  1
  Co  Co127  1  0.46983871  0.82586023  0.01600805  1
  Co  Co128  1  0.60987897  0.46492646  0.24084495  1
  Co  Co129  1  0.06812516  0.43438025  0.42143519  1
  Co  Co130  1  0.38303202  0.02376791  0.04171020  1
  Co  Co131  1  0.46991890  0.66897420  0.61399254  1
  Co  Co132  1  0.70248589  0.08620349  0.70935532  1
  Co  Co133  1  0.58359943  0.88012030  0.79393907  1
  Co  Co134  1  0.24148919  0.63478329  0.51899280  1
  Co  Co135  1  0.55671891  0.08455981  0.63134642  1
  Co  Co136  1  0.21221122  0.09321551  0.57728467  1
  Co  Co137  1  0.19431185  0.65087467  0.79033312  1
  Co  Co138  1  0.03036129  0.28173466  0.32822523  1
  Co  Co139  1  0.21156615  0.02657538  0.00936393  1
  Co  Co140  1  0.14819286  0.56247780  -0.07757709  1
  Co  Co141  1  0.37048363  0.92464784  0.28903572  1
  Co  Co142  1  0.60192125  0.40168032  0.58061208  1
  Co  Co143  1  -0.04800084  0.83585725  0.09544108  1
  Co  Co144  1  0.16901837  0.55240252  0.63416253  1
  Co  Co145  1  0.21724912  0.51956618  0.38998443  1
  Co  Co146  1  0.08275988  0.00066703  0.30058196  1
  Co  Co147  1  0.89920751  0.11366591  -0.07498167  1
  Co  Co148  1  0.77658659  0.85619958  0.01709763  1
  Co  Co149  1  0.84162782  0.32812581  0.06513771  1
  Co  Co150  1  0.37493715  0.22434103  0.87056674  1
  Co  Co151  1  0.73447016  0.64342226  0.66728570  1
  Co  Co152  1  0.79139289  0.21392257  0.74093887  1
  Co  Co153  1  0.09351264  -0.01846565  0.54546040  1
  Co  Co154  1  0.53078772  -0.03986273  0.08923417  1
  Co  Co155  1  0.51924295  0.30015523  0.46505020  1
  Co  Co156  1  0.05062368  0.08743194  0.06778043  1
  Co  Co157  1  0.41277976  0.78956933  0.86522622  1
  Co  Co158  1  0.44929611  0.79515094  0.71203437  1
  Co  Co159  1  0.88523239  0.57277886  0.74269556  1
  Co  Co160  1  0.86061277  0.43633940  0.84295979  1
  Co  Co161  1  0.89018700  0.77348288  0.23371356  1
  Ni  Ni162  1  0.75485925  0.61566502  0.50160006  1
  Ni  Ni163  1  0.74599955  -0.02826216  0.30086957  1
  Ni  Ni164  1  0.70737240  0.70512946  0.37107007  1
  Ni  Ni165  1  0.19834363  0.02416878  0.84854661  1
  Ni  Ni166  1  0.82856769  0.63230045  0.90488902  1
  Ni  Ni167  1  0.44522103  0.23731917  0.20206302  1
  Ni  Ni168  1  0.61252144  0.17177708  0.44847552  1
  Ni  Ni169  1  -0.01211896  0.66575118  0.02247456  1
  Ni  Ni170  1  0.03878621  0.28420514  0.50155819  1
  Ni  Ni171  1  0.27971538  0.71929425  -0.05610796  1
  Ni  Ni172  1  0.72532671  0.36843371  0.32660547  1
  Ni  Ni173  1  0.66610214  0.86400060  0.39913253  1
  Ni  Ni174  1  0.31887068  0.76477509  0.60021324  1
  Ni  Ni175  1  0.69801150  0.31382245  -0.03145724  1
  Ni  Ni176  1  0.02953014  -0.14686126  0.25894459  1
  Ni  Ni177  1  0.20969576  0.81928222  0.06575475  1
  Ni  Ni178  1  0.96253810  0.54568950  0.35601706  1
  Ni  Ni179  1  0.46752036  -0.01577266  0.54033144  1
  Ni  Ni180  1  0.69463621  0.69486918  -0.01506844  1
  Ni  Ni181  1  0.45343901  0.49826321  -0.01918569  1
  Ni  Ni182  1  0.32645319  0.30279557  0.73256653  1
  Ni  Ni183  1  0.02728498  0.21845104  0.84656294  1
  Ni  Ni184  1  0.38517393  0.46572735  0.74870997  1
  Ni  Ni185  1  0.52980935  0.08970812  -0.02363534  1
  Ni  Ni186  1  -0.08990758  0.20689685  0.42653376  1
  Ni  Ni187  1  0.75536067  0.31342904  0.62055158  1
  Ni  Ni188  1  0.79039687  -0.06411391  0.55876791  1
  Ni  Ni189  1  0.49930529  0.88297697  0.39859992  1
  Ni  Ni190  1  0.58802285  0.41763753  0.89361434  1
  Ni  Ni191  1  -0.03800779  0.03941946  0.63097339  1
  Ni  Ni192  1  0.26873328  0.30200676  0.01751435  1
  Ni  Ni193  1  0.16562687  0.27782485  0.76922725  1
  Ni  Ni194  1  0.61627712  0.21152944  0.76421302  1
  Ni  Ni195  1  0.15966641  0.38556485  0.10156764  1
  Ni  Ni196  1  0.57126403  0.74887541  0.89244150  1
  Ni  Ni197  1  0.27602919  0.14940790  0.44049025  1
  Ni  Ni198  1  0.90451155  0.48575425  0.07383390  1
  Ni  Ni199  1  0.52693918  0.12570658  0.30759411  1
  Ni  Ni200  1  0.49035078  0.33269430  0.77752362  1
  Ni  Ni201  1  0.86937384  0.08351199  0.32730484  1
  Ni  Ni202  1  0.44955408  0.50322782  0.59578594  1
  Ni  Ni203  1  0.13494327  0.75738581  0.34877149  1
  Ni  Ni204  1  0.27395363  -0.04208336  0.73206357  1
  Ni  Ni205  1  0.80293102  0.08928672  0.18029731  1
  Ni  Ni206  1  0.30198231  0.50734888  0.22127226  1
  Ni  Ni207  1  0.00829751  0.69163365  0.30834201  1
  Ni  Ni208  1  0.41604571  0.37213754  0.09107212  1
  Ni  Ni209  1  0.03031596  0.38466918  0.80916978  1
  Ni  Ni210  1  0.78920581  0.80799993  0.67836726  1
  Ni  Ni211  1  0.03463851  0.29548263  0.67045618  1
  Ni  Ni212  1  0.27636946  0.67786918  0.35848460  1
  Ni  Ni213  1  0.47186690  -0.05854097  0.90738370  1
  Ni  Ni214  1  -0.04917184  0.44724167  0.23351682  1
