# generated using pymatgen
data_Ti108Co54Ni53
_symmetry_space_group_name_H-M   'P 1'
_cell_length_a   14.68528352
_cell_length_b   14.62339502
_cell_length_c   14.65077779
_cell_angle_alpha   90.04545067
_cell_angle_beta   90.35907178
_cell_angle_gamma   90.20159013
_symmetry_Int_Tables_number   1
_chemical_formula_structural   Ti108Co54Ni53
_chemical_formula_sum   'Ti108 Co54 Ni53'
_cell_volume   3146.15320898
_cell_formula_units_Z   1
loop_
 _symmetry_equiv_pos_site_id
 _symmetry_equiv_pos_as_xyz
  1  'x, y, z'
loop_
 _atom_site_type_symbol
 _atom_site_label
 _atom_site_symmetry_multiplicity
 _atom_site_fract_x
 _atom_site_fract_y
 _atom_site_fract_z
 _atom_site_occupancy
  Ti  Ti0  1  0.08828312  0.03910150  0.27767390  1
  Ti  Ti1  1  0.07540230  0.02424194  0.58828730  1
  Ti  Ti2  1  0.08752002  0.17783638  0.88999601  1
  Ti  Ti3  1  0.10993107  0.42283479  0.26956887  1
  Ti  Ti4  1  0.12396861  0.41888384  0.60747704  1
  Ti  Ti5  1  0.10815987  0.40443430  0.93318924  1
  Ti  Ti6  1  0.01404803  0.75896215  0.28763422  1
  Ti  Ti7  1  0.09938867  0.69152777  0.57948190  1
  Ti  Ti8  1  0.11235961  0.82994041  1.02470127  1
  Ti  Ti9  1  0.36067027  0.10784096  0.29042390  1
  Ti  Ti10  1  0.47842525  0.01807175  0.52372343  1
  Ti  Ti11  1  0.46788340  0.10939906  0.85993707  1
  Ti  Ti12  1  0.41213364  0.45446217  0.25898028  1
  Ti  Ti13  1  0.45366059  0.48580926  0.58418752  1
  Ti  Ti14  1  0.36996146  0.46199606  0.91877646  1
  Ti  Ti15  1  0.40441804  0.66216687  0.24484862  1
  Ti  Ti16  1  0.42940496  0.72481247  0.60773732  1
  Ti  Ti17  1  0.28019049  0.81491551  0.89387914  1
  Ti  Ti18  1  0.72451852  0.08907334  0.29487700  1
  Ti  Ti19  1  0.75593408  0.05618312  0.58644040  1
  Ti  Ti20  1  0.68104881  0.12006500  0.85464987  1
  Ti  Ti21  1  0.80699430  0.38729709  0.26827618  1
  Ti  Ti22  1  0.77911079  0.43949648  0.61760502  1
  Ti  Ti23  1  0.69625797  0.34045798  0.86546537  1
  Ti  Ti24  1  0.79657324  0.70055564  0.33407663  1
  Ti  Ti25  1  0.74166473  0.72869189  0.52492817  1
  Ti  Ti26  1  0.76506013  0.71827893  0.95575278  1
  Ti  Ti27  1  0.08320026  0.15405041  0.10284160  1
  Ti  Ti28  1  0.08263274  0.26727013  0.39963642  1
  Ti  Ti29  1  0.11914099  0.27089481  0.72923425  1
  Ti  Ti30  1  0.06274419  0.64664127  0.12771773  1
  Ti  Ti31  1  0.09354795  0.54236194  0.44092135  1
  Ti  Ti32  1  0.04882132  0.64285168  0.77861913  1
  Ti  Ti33  1  -0.00521860  0.97629967  0.06683938  1
  Ti  Ti34  1  0.10993687  0.81156419  0.44413818  1
  Ti  Ti35  1  0.02758482  0.86495005  0.70448849  1
  Ti  Ti36  1  0.39622768  0.25887536  0.14457589  1
  Ti  Ti37  1  0.42080985  0.18524149  0.45818581  1
  Ti  Ti38  1  0.43248718  0.31125855  0.81221438  1
  Ti  Ti39  1  0.37809249  0.55926456  0.08447581  1
  Ti  Ti40  1  0.37837272  0.58087727  0.42429352  1
  Ti  Ti41  1  0.47943841  0.60889609  0.83240234  1
  Ti  Ti42  1  0.41211929  0.92762666  0.01773661  1
  Ti  Ti43  1  0.40702849  0.83844558  0.46907044  1
  Ti  Ti44  1  0.35361886  0.86319364  0.70858945  1
  Ti  Ti45  1  0.74339366  0.25770358  0.12145847  1
  Ti  Ti46  1  0.77618840  0.24485708  0.41911106  1
  Ti  Ti47  1  0.83688712  0.29603933  0.73508399  1
  Ti  Ti48  1  0.75558800  0.55880353  0.13290069  1
  Ti  Ti49  1  0.70700820  0.43406592  0.42777784  1
  Ti  Ti50  1  0.67760174  0.63929701  0.75466106  1
  Ti  Ti51  1  0.81948446  0.94526612  0.00073440  1
  Ti  Ti52  1  0.81196767  0.95468314  0.42397827  1
  Ti  Ti53  1  0.79801184  0.93267419  0.78961784  1
  Ti  Ti54  1  0.29205830  0.07392812  0.10447057  1
  Ti  Ti55  1  0.23081095  0.13091467  0.44695752  1
  Ti  Ti56  1  0.27505305  0.08217457  0.77439872  1
  Ti  Ti57  1  0.26012001  0.39907630  0.06542770  1
  Ti  Ti58  1  0.29500105  0.34041148  0.38631087  1
  Ti  Ti59  1  0.27500692  0.41933676  0.71427978  1
  Ti  Ti60  1  0.25565748  0.70737111  0.06115428  1
  Ti  Ti61  1  0.26138150  0.75101742  0.33725313  1
  Ti  Ti62  1  0.20077843  0.75073632  0.72133686  1
  Ti  Ti63  1  0.58233940  0.03408362  0.02906906  1
  Ti  Ti64  1  0.62123460  0.15534993  0.47186445  1
  Ti  Ti65  1  0.58214989  0.06823049  0.68430188  1
  Ti  Ti66  1  0.54573275  0.45962414  0.08944218  1
  Ti  Ti67  1  0.55990648  0.32459135  0.37762491  1
  Ti  Ti68  1  0.57815319  0.44308228  0.73464126  1
  Ti  Ti69  1  0.48297612  0.73730802  0.03602641  1
  Ti  Ti70  1  0.56284309  0.73251542  0.36039229  1
  Ti  Ti71  1  0.55032367  0.77896361  0.75782119  1
  Ti  Ti72  1  0.88241735  0.11323403  0.14032749  1
  Ti  Ti73  1  0.91769776  0.10973804  0.36710149  1
  Ti  Ti74  1  0.95485415  0.15341677  0.75903184  1
  Ti  Ti75  1  0.95418669  0.43424496  0.03193689  1
  Ti  Ti76  1  0.89873194  0.48111088  0.41460114  1
  Ti  Ti77  1  0.92243618  0.47278645  0.77276622  1
  Ti  Ti78  1  0.91821617  0.77826853  0.08720091  1
  Ti  Ti79  1  0.93242319  0.68915480  0.48097500  1
  Ti  Ti80  1  0.88179807  0.74751904  0.79784014  1
  Ti  Ti81  1  0.20229572  0.21665541  0.25636721  1
  Ti  Ti82  1  0.26646950  0.27628363  0.57144900  1
  Ti  Ti83  1  0.31522315  0.23114850  0.94244715  1
  Ti  Ti84  1  0.23271781  0.56392964  0.20272127  1
  Ti  Ti85  1  0.28641170  0.59964563  0.60758570  1
  Ti  Ti86  1  0.24990441  0.57573684  0.81232322  1
  Ti  Ti87  1  0.30340543  0.91783159  0.22806682  1
  Ti  Ti88  1  0.28038727  0.97417463  0.56084979  1
  Ti  Ti89  1  0.17799817  0.98189617  0.92688720  1
  Ti  Ti90  1  0.54514941  0.17576630  0.23548320  1
  Ti  Ti91  1  0.53816528  0.25773481  0.61256184  1
  Ti  Ti92  1  0.58214502  0.23612613  0.99195800  1
  Ti  Ti93  1  0.60029056  0.52540157  0.27683774  1
  Ti  Ti94  1  0.64091766  0.56015460  0.57630066  1
  Ti  Ti95  1  0.65638847  0.53893152  0.92062185  1
  Ti  Ti96  1  0.51362404  0.93223390  0.23640319  1
  Ti  Ti97  1  0.62943245  0.88444934  0.53752447  1
  Ti  Ti98  1  0.53893508  0.94053838  0.83868069  1
  Ti  Ti99  1  0.94876245  0.30725992  0.16163380  1
  Ti  Ti100  1  0.93141148  0.20114459  0.56547596  1
  Ti  Ti101  1  0.84710674  0.23913924  0.94601572  1
  Ti  Ti102  1  0.94632604  0.50560754  0.20959448  1
  Ti  Ti103  1  0.96637121  0.53507742  0.60246864  1
  Ti  Ti104  1  0.93951667  0.58645321  0.93924768  1
  Ti  Ti105  1  0.90835225  0.93847931  0.24648017  1
  Ti  Ti106  1  0.83664840  0.87422856  0.60441094  1
  Ti  Ti107  1  0.98698023  0.97403540  0.86931004  1
  Co  Co108  1  0.50384668  0.58221435  -0.01059906  1
  Co  Co109  1  0.50004490  0.89215909  0.63545751  1
  Co  Co110  1  0.18002827  0.68829303  0.89811980  1
  Co  Co111  1  -0.02699471  0.34567610  0.65874075  1
  Co  Co112  1  0.52707064  0.61305943  0.16276912  1
  Co  Co113  1  0.41240888  0.27599650  0.30594273  1
  Co  Co114  1  0.43556689  0.17938621  0.70752794  1
  Co  Co115  1  0.24990885  0.50637852  0.35455655  1
  Co  Co116  1  0.19463124  0.13118279  -0.01390661  1
  Co  Co117  1  0.75178627  0.77311989  0.69537937  1
  Co  Co118  1  0.53891243  -0.09819002  0.39248979  1
  Co  Co119  1  0.26523429  0.88192393  0.06154832  1
  Co  Co120  1  0.77672354  0.54529317  0.30296063  1
  Co  Co121  1  0.61172722  0.39174668  0.55512212  1
  Co  Co122  1  0.60362820  0.73388090  0.61085962  1
  Co  Co123  1  0.34444658  0.12294464  0.58992037  1
  Co  Co124  1  0.29781398  0.44865339  0.53409062  1
  Co  Co125  1  0.39976930  0.33594065  0.64614385  1
  Co  Co126  1  0.16414912  0.39466928  0.45310732  1
  Co  Co127  1  0.79712318  0.52769373  -0.01800917  1
  Co  Co128  1  0.67668255  0.41165734  0.18984056  1
  Co  Co129  1  0.36942304  -0.05398992  0.84599373  1
  Co  Co130  1  0.08863370  0.24265606  0.56239829  1
  Co  Co131  1  0.65770901  0.00752530  0.43149341  1
  Co  Co132  1  0.37766317  -0.02069207  0.38702262  1
  Co  Co133  1  0.53479395  0.34727656  0.21607195  1
  Co  Co134  1  0.14500734  0.56800722  0.67266168  1
  Co  Co135  1  0.69228967  0.81914865  0.84626191  1
  Co  Co136  1  0.68117770  0.26239403  0.28336435  1
  Co  Co137  1  0.64120896  0.64236466  0.05480857  1
  Co  Co138  1  0.18212061  0.75656009  0.19427326  1
  Co  Co139  1  0.74990009  0.10732021  0.00921299  1
  Co  Co140  1  0.42120153  0.81893412  0.30781466  1
  Co  Co141  1  0.24099593  0.23608213  0.10388168  1
  Co  Co142  1  0.60020472  0.70280143  0.90949700  1
  Co  Co143  1  0.28733241  0.24102948  0.74208914  1
  Co  Co144  1  0.41863425  0.47911791  0.75327640  1
  Co  Co145  1  0.51339101  0.60691784  0.67647928  1
  Co  Co146  1  0.81446792  0.40282187  0.08642004  1
  Co  Co147  1  0.81678002  0.60124823  0.83483436  1
  Co  Co148  1  0.33205362  0.05999217  -0.05608812  1
  Co  Co149  1  -0.00222439  -0.03972799  0.39479882  1
  Co  Co150  1  -0.03873132  0.35050636  0.32765749  1
  Co  Co151  1  0.37086160  0.79109862  0.15235980  1
  Co  Co152  1  0.15182601  0.87362800  0.59372832  1
  Co  Co153  1  0.12812058  0.62495685  0.30097449  1
  Co  Co154  1  0.68704600  -0.02946693  -0.08268485  1
  Co  Co155  1  0.26847964  0.37255694  0.22224430  1
  Co  Co156  1  0.44574502  0.79842373  -0.11477673  1
  Co  Co157  1  0.45066389  0.15156548  0.02145627  1
  Co  Co158  1  0.36354787  0.70059613  0.76081804  1
  Co  Co159  1  0.84725151  0.40257493  0.89611683  1
  Co  Co160  1  0.74744966  0.46746406  0.77214460  1
  Co  Co161  1  0.21731708  0.64551508  0.44806340  1
  Ni  Ni162  1  0.16583041  -0.02558588  0.43191816  1
  Ni  Ni163  1  0.00364270  0.27235542  0.00075791  1
  Ni  Ni164  1  0.09678945  0.05456869  0.76278628  1
  Ni  Ni165  1  0.69809551  0.83559983  0.38607326  1
  Ni  Ni166  1  0.88751095  0.66183436  0.19865357  1
  Ni  Ni167  1  0.15329322  -0.01454706  0.12667033  1
  Ni  Ni168  1  0.01924415  0.19536972  0.25922245  1
  Ni  Ni169  1  0.53787081  0.42137181  0.90629036  1
  Ni  Ni170  1  0.85715020  0.34338137  0.52098300  1
  Ni  Ni171  1  0.67499881  0.31985761  0.69659359  1
  Ni  Ni172  1  0.35188275  0.65481619  -0.06832044  1
  Ni  Ni173  1  0.18859202  0.13540276  0.63791196  1
  Ni  Ni174  1  0.80146437  0.57508921  0.50453216  1
  Ni  Ni175  1  0.10777663  0.49027205  0.09214330  1
  Ni  Ni176  1  0.66490010  0.60589559  0.41310360  1
  Ni  Ni177  1  0.91667268  0.03487173  0.53007096  1
  Ni  Ni178  1  0.52085152  0.06455581  0.35615535  1
  Ni  Ni179  1  0.04986958  0.86119492  0.17150753  1
  Ni  Ni180  1  0.44897152  0.05650915  0.15312385  1
  Ni  Ni181  1  0.82561802  0.61265610  0.66716672  1
  Ni  Ni182  1  0.19542502  0.91730997  0.76420097  1
  Ni  Ni183  1  0.06008463  0.10735330  0.44800291  1
  Ni  Ni184  1  0.77010440  -0.00572621  0.15301119  1
  Ni  Ni185  1  0.11164569  0.32893245  0.12483032  1
  Ni  Ni186  1  0.24130262  0.35320915  0.86021324  1
  Ni  Ni187  1  0.08891272  0.45402918  0.77441819  1
  Ni  Ni188  1  0.93190871  0.83036366  -0.06751845  1
  Ni  Ni189  1  0.78699382  0.13149222  0.72668082  1
  Ni  Ni190  1  -0.01526484  0.31686362  0.83411010  1
  Ni  Ni191  1  0.66156802  0.11746181  0.14189847  1
  Ni  Ni192  1  0.15219495  0.88633724  0.29577437  1
  Ni  Ni193  1  0.22807316  0.54913132  -0.01179003  1
  Ni  Ni194  1  0.74829055  0.22825605  0.58700961  1
  Ni  Ni195  1  -0.05854302  0.72826703  0.64075613  1
  Ni  Ni196  1  0.65800508  -0.08588753  0.70176362  1
  Ni  Ni197  1  0.57446064  0.23094607  0.79384537  1
  Ni  Ni198  1  -0.03134465  0.60874878  0.33466800  1
  Ni  Ni199  1  -0.04421274  0.11183314  -0.02041959  1
  Ni  Ni200  1  0.41969301  0.01843210  0.70096086  1
  Ni  Ni201  1  0.52219959  0.64577604  0.49580352  1
  Ni  Ni202  1  0.03663595  0.70309226  -0.03661585  1
  Ni  Ni203  1  0.67285174  0.38450009  0.02011190  1
  Ni  Ni204  1  0.44018481  0.33719333  0.00995778  1
  Ni  Ni205  1  0.00635948  0.38387588  0.49595434  1
  Ni  Ni206  1  0.84795848  0.22196001  0.26684985  1
  Ni  Ni207  1  0.53717304  0.48835083  0.43141692  1
  Ni  Ni208  1  0.84176186  0.07215675  0.87255331  1
  Ni  Ni209  1  -0.08004914  0.00515649  0.69499511  1
  Ni  Ni210  1  -0.01446777  0.87039415  0.53816604  1
  Ni  Ni211  1  0.43405142  0.35582144  0.48016030  1
  Ni  Ni212  1  0.90222002  0.82514016  0.39302709  1
  Ni  Ni213  1  0.26738980  0.77058019  0.54361353  1
  Ni  Ni214  1  0.08657724  0.81941673  0.85270931  1
