# generated using pymatgen
data_Ti108Co54Ni53
_symmetry_space_group_name_H-M   'P 1'
_cell_length_a   14.62999256
_cell_length_b   14.66971071
_cell_length_c   14.64102755
_cell_angle_alpha   90.45612612
_cell_angle_beta   89.98722886
_cell_angle_gamma   90.43052435
_symmetry_Int_Tables_number   1
_chemical_formula_structural   Ti108Co54Ni53
_chemical_formula_sum   'Ti108 Co54 Ni53'
_cell_volume   3142.03620162
_cell_formula_units_Z   1
loop_
 _symmetry_equiv_pos_site_id
 _symmetry_equiv_pos_as_xyz
  1  'x, y, z'
loop_
 _atom_site_type_symbol
 _atom_site_label
 _atom_site_symmetry_multiplicity
 _atom_site_fract_x
 _atom_site_fract_y
 _atom_site_fract_z
 _atom_site_occupancy
  Ti  Ti0  1  0.13307106  0.08912682  0.28085266  1
  Ti  Ti1  1  0.08814283  0.07939775  0.60214047  1
  Ti  Ti2  1  0.08604564  0.14848713  0.95685161  1
  Ti  Ti3  1  0.04366392  0.42734877  0.27211206  1
  Ti  Ti4  1  0.12691500  0.36142903  0.63155427  1
  Ti  Ti5  1  0.11354248  0.45981355  0.92720977  1
  Ti  Ti6  1  0.07031232  0.74846104  0.22210452  1
  Ti  Ti7  1  0.07279290  0.76871907  0.64197799  1
  Ti  Ti8  1  0.03022432  0.80436590  0.92155490  1
  Ti  Ti9  1  0.43580854  0.02314881  0.14092345  1
  Ti  Ti10  1  0.43849354  0.05232296  0.57828412  1
  Ti  Ti11  1  0.31409738  0.08724828  0.95850467  1
  Ti  Ti12  1  0.38482275  0.40913572  0.27199352  1
  Ti  Ti13  1  0.33507526  0.39249060  0.59643472  1
  Ti  Ti14  1  0.45959977  0.33851749  0.95762211  1
  Ti  Ti15  1  0.48209846  0.74610331  0.32903375  1
  Ti  Ti16  1  0.44578419  0.68627018  0.53682229  1
  Ti  Ti17  1  0.35514134  0.79976360  0.93930404  1
  Ti  Ti18  1  0.76777501  0.06211466  0.29583856  1
  Ti  Ti19  1  0.72611375  0.04911503  0.52348827  1
  Ti  Ti20  1  0.78167138  0.07879348  1.00102504  1
  Ti  Ti21  1  0.73583410  0.35458914  0.25276547  1
  Ti  Ti22  1  0.72306406  0.39120537  0.62155087  1
  Ti  Ti23  1  0.72676453  0.42030237  0.94822003  1
  Ti  Ti24  1  0.78853319  0.72891033  0.23913014  1
  Ti  Ti25  1  0.79266542  0.74672174  0.57890345  1
  Ti  Ti26  1  0.77059993  0.61023811  0.88606043  1
  Ti  Ti27  1  0.05541702  0.26175574  0.15412847  1
  Ti  Ti28  1  0.09464339  0.26655672  0.37435823  1
  Ti  Ti29  1  0.04559375  0.31703743  0.81642960  1
  Ti  Ti30  1  0.11809132  0.57070985  0.08832292  1
  Ti  Ti31  1  0.06487044  0.58140504  0.42180808  1
  Ti  Ti32  1  0.09012726  0.54558314  0.74612975  1
  Ti  Ti33  1  0.12820414  0.88134544  0.08685545  1
  Ti  Ti34  1  0.04982809  0.96217571  0.40589129  1
  Ti  Ti35  1  0.11986645  0.94498284  0.74756373  1
  Ti  Ti36  1  0.46287917  0.24604188  0.13629840  1
  Ti  Ti37  1  0.44761471  0.26753789  0.38016975  1
  Ti  Ti38  1  0.42836573  0.23363154  0.65628143  1
  Ti  Ti39  1  0.39279990  0.63122961  0.04186294  1
  Ti  Ti40  1  0.37733823  0.57333830  0.36235810  1
  Ti  Ti41  1  0.39011230  0.59130478  0.69146491  1
  Ti  Ti42  1  0.42449101  0.83447299  0.14190104  1
  Ti  Ti43  1  0.40899452  0.90460631  0.45495350  1
  Ti  Ti44  1  0.38086395  0.91242762  0.70243871  1
  Ti  Ti45  1  0.80569908  0.28559938  0.06703429  1
  Ti  Ti46  1  0.67752456  0.22290174  0.49090147  1
  Ti  Ti47  1  0.82649966  0.31367962  0.76249553  1
  Ti  Ti48  1  0.70639082  0.61840920  0.06085190  1
  Ti  Ti49  1  0.72481059  0.61918985  0.44080304  1
  Ti  Ti50  1  0.74825873  0.59471208  0.68858796  1
  Ti  Ti51  1  0.80300866  0.88255546  0.10385495  1
  Ti  Ti52  1  0.68945749  0.91562419  0.36895788  1
  Ti  Ti53  1  0.80558705  0.90561269  0.71530657  1
  Ti  Ti54  1  0.17566664  0.07343045  0.09653765  1
  Ti  Ti55  1  0.24361858  0.02325492  0.45038034  1
  Ti  Ti56  1  0.28382039  0.11149154  0.71978189  1
  Ti  Ti57  1  0.31146244  0.37330124  0.09721106  1
  Ti  Ti58  1  0.20704939  0.44977130  0.45416524  1
  Ti  Ti59  1  0.37563149  0.38978256  0.79261497  1
  Ti  Ti60  1  0.25341256  0.75530607  0.12313570  1
  Ti  Ti61  1  0.28773691  0.72185606  0.41897560  1
  Ti  Ti62  1  0.20718595  0.72295578  0.79314405  1
  Ti  Ti63  1  0.59951773  0.09545493  0.07993014  1
  Ti  Ti64  1  0.54000188  0.07073426  0.40043704  1
  Ti  Ti65  1  0.65768705  0.16734891  0.77612979  1
  Ti  Ti66  1  0.58156938  0.44799512  0.09913938  1
  Ti  Ti67  1  0.55652116  0.47319194  0.37175159  1
  Ti  Ti68  1  0.61101100  0.37267416  0.80208219  1
  Ti  Ti69  1  0.54162102  0.67409499  0.14887042  1
  Ti  Ti70  1  0.60679816  0.79539644  0.47473452  1
  Ti  Ti71  1  0.57671538  0.68768862  0.76690155  1
  Ti  Ti72  1  0.98055973  0.00039928  0.03764525  1
  Ti  Ti73  1  0.91391108  0.13880544  0.43590265  1
  Ti  Ti74  1  0.88377849  0.12867137  0.66507240  1
  Ti  Ti75  1  0.96050051  0.43156240  0.06227815  1
  Ti  Ti76  1  0.90624064  0.46279688  0.46279951  1
  Ti  Ti77  1  0.93706387  0.44210947  0.67290086  1
  Ti  Ti78  1  0.89359696  0.69601120  0.07939063  1
  Ti  Ti79  1  0.96858112  0.80101402  0.47048498  1
  Ti  Ti80  1  0.85916770  0.73892959  0.78365269  1
  Ti  Ti81  1  0.24425947  0.26338058  0.23525384  1
  Ti  Ti82  1  0.24015456  0.21465147  0.53469406  1
  Ti  Ti83  1  0.22972012  0.29575165  0.89792449  1
  Ti  Ti84  1  0.27707208  0.55429328  0.18794742  1
  Ti  Ti85  1  0.22163135  0.66534861  0.59278330  1
  Ti  Ti86  1  0.28228103  0.56169689  0.85161004  1
  Ti  Ti87  1  0.25237921  0.94147076  0.22134059  1
  Ti  Ti88  1  0.18981284  0.85686783  0.50022914  1
  Ti  Ti89  1  0.17555147  0.95658239  0.93073751  1
  Ti  Ti90  1  0.60850539  0.20092194  0.26209746  1
  Ti  Ti91  1  0.53748978  0.36835913  0.52759923  1
  Ti  Ti92  1  0.61049835  0.23843802  0.96429768  1
  Ti  Ti93  1  0.66270668  0.56561914  0.24762472  1
  Ti  Ti94  1  0.57302696  0.54324373  0.60957807  1
  Ti  Ti95  1  0.55992332  0.56691714  0.94465618  1
  Ti  Ti96  1  0.61528621  0.86251226  0.21164788  1
  Ti  Ti97  1  0.61555993  0.92594849  0.66240365  1
  Ti  Ti98  1  0.66527015  0.89086751  0.95243357  1
  Ti  Ti99  1  0.90087602  0.21080347  0.24196487  1
  Ti  Ti100  1  0.88790303  0.29426463  0.54830602  1
  Ti  Ti101  1  0.91045472  0.17975787  0.88940032  1
  Ti  Ti102  1  0.90761106  0.56833874  0.29974769  1
  Ti  Ti103  1  0.96075665  0.62589489  0.60486704  1
  Ti  Ti104  1  0.96751850  0.60661773  0.92285262  1
  Ti  Ti105  1  0.91589568  0.88840540  0.26972136  1
  Ti  Ti106  1  0.90052621  0.96408042  0.54937355  1
  Ti  Ti107  1  0.86298168  0.90596576  0.91121071  1
  Co  Co108  1  0.19237710  0.79059483  -0.05067157  1
  Co  Co109  1  0.62854678  0.32640231  0.37701521  1
  Co  Co110  1  0.06784898  -0.05604258  0.22303548  1
  Co  Co111  1  0.04818158  0.38832736  0.46880895  1
  Co  Co112  1  0.12072473  0.63353707  0.90267837  1
  Co  Co113  1  -0.04288558  0.45927610  0.85485980  1
  Co  Co114  1  -0.02864162  0.86024678  0.78557269  1
  Co  Co115  1  0.27508205  0.28223070  0.71262821  1
  Co  Co116  1  0.76129499  0.48392895  0.34855232  1
  Co  Co117  1  0.06307152  0.92027051  0.57957552  1
  Co  Co118  1  0.73277805  0.88876580  0.53390372  1
  Co  Co119  1  0.85224293  -0.03933783  0.40095645  1
  Co  Co120  1  0.16590389  0.85340193  0.33322258  1
  Co  Co121  1  0.42963126  0.48196955  0.09414678  1
  Co  Co122  1  0.28257287  0.32034827  0.40250385  1
  Co  Co123  1  0.92623164  0.81964740  0.63664457  1
  Co  Co124  1  0.11128262  0.72396669  0.45186212  1
  Co  Co125  1  0.24117786  0.65210250  0.00118411  1
  Co  Co126  1  0.58591632  0.03548421  0.24195952  1
  Co  Co127  1  0.51314028  0.20176227  0.51749011  1
  Co  Co128  1  -0.07607365  0.31035159  0.36869672  1
  Co  Co129  1  0.84870753  0.52666882  0.00953249  1
  Co  Co130  1  0.02597274  0.09955303  0.16139211  1
  Co  Co131  1  0.74678304  0.20874152  0.63660212  1
  Co  Co132  1  0.67655109  0.47092219  0.49146600  1
  Co  Co133  1  0.37568381  0.68943222  0.22267707  1
  Co  Co134  1  0.74387443  0.43716070  0.10888840  1
  Co  Co135  1  0.76923143  0.21832139  0.34764692  1
  Co  Co136  1  0.70910883  -0.00503122  0.14204553  1
  Co  Co137  1  0.29785399  -0.07440429  0.05788014  1
  Co  Co138  1  0.07201847  0.71670528  0.05040052  1
  Co  Co139  1  0.07762066  0.51074121  0.57733663  1
  Co  Co140  1  0.01503274  -0.00669056  -0.12244860  1
  Co  Co141  1  -0.02526260  0.26064877  0.69090689  1
  Co  Co142  1  0.77509967  0.35036264  0.44367055  1
  Co  Co143  1  0.63228188  0.28988291  0.11413554  1
  Co  Co144  1  0.59798273  0.10119757  0.61301420  1
  Co  Co145  1  0.38403415  0.13040422  0.45007110  1
  Co  Co146  1  0.48013416  0.54973353  0.23374358  1
  Co  Co147  1  0.36096078  0.74622337  0.73085015  1
  Co  Co148  1  -0.02802996  0.57318639  0.15143932  1
  Co  Co149  1  -0.03448351  -0.01350893  0.69718646  1
  Co  Co150  1  0.10157784  0.57813821  0.26071290  1
  Co  Co151  1  0.63415096  0.71278619  -0.07543575  1
  Co  Co152  1  0.57279933  -0.04433787  0.50718980  1
  Co  Co153  1  0.10008091  0.11831350  0.44197865  1
  Co  Co154  1  0.90069806  0.57754615  0.75952433  1
  Co  Co155  1  -0.04202168  0.05655906  0.30453139  1
  Co  Co156  1  0.34069052  0.23830365  0.01399187  1
  Co  Co157  1  0.81116948  0.56205292  0.17385237  1
  Co  Co158  1  0.19813706  0.41497753  0.78727852  1
  Co  Co159  1  0.46390371  0.14476610  -0.00305271  1
  Co  Co160  1  0.81414860  0.54781809  0.56497968  1
  Co  Co161  1  0.56569744  -0.07532434  0.07650949  1
  Ni  Ni162  1  0.23727304  0.51571970  0.66222392  1
  Ni  Ni163  1  0.25384665  0.16704068  0.36694566  1
  Ni  Ni164  1  0.21374641  0.42551310  0.28237939  1
  Ni  Ni165  1  0.33649565  0.83612885  0.30735853  1
  Ni  Ni166  1  0.80362032  0.79058712  0.40395397  1
  Ni  Ni167  1  0.88500362  0.34366219  0.92667306  1
  Ni  Ni168  1  0.40796725  0.49404507  -0.06748588  1
  Ni  Ni169  1  0.13610525  0.20530369  0.70042214  1
  Ni  Ni170  1  0.33759990  0.80573775  0.56881745  1
  Ni  Ni171  1  0.48561728  0.91951624  0.30361301  1
  Ni  Ni172  1  0.62325704  0.70214809  0.60616583  1
  Ni  Ni173  1  0.55650762  0.62729358  0.42885251  1
  Ni  Ni174  1  0.59757939  0.27136392  0.65589955  1
  Ni  Ni175  1  0.73468621  0.04955806  0.69552728  1
  Ni  Ni176  1  0.51009101  0.76858439  0.00769759  1
  Ni  Ni177  1  0.85976240  0.04129999  0.81848454  1
  Ni  Ni178  1  0.86628902  0.04741404  0.15639067  1
  Ni  Ni179  1  0.18854471  0.24620797  0.05681055  1
  Ni  Ni180  1  0.17140010  0.09111226  0.83066468  1
  Ni  Ni181  1  0.35228259  0.01871255  0.32382429  1
  Ni  Ni182  1  0.04412215  0.30674573  -0.01462106  1
  Ni  Ni183  1  0.78911207  0.76367780  -0.04154499  1
  Ni  Ni184  1  0.40191374  0.42811301  0.44609221  1
  Ni  Ni185  1  0.25769959  0.49309442  0.00963890  1
  Ni  Ni186  1  0.65785136  0.52526319  0.80339156  1
  Ni  Ni187  1  -0.04778153  0.72444749  0.32681963  1
  Ni  Ni188  1  0.88824293  0.40608159  0.20698854  1
  Ni  Ni189  1  -0.03209909  0.84303421  0.10637009  1
  Ni  Ni190  1  0.67002529  0.77782801  0.07976574  1
  Ni  Ni191  1  0.43748935  0.14219676  0.26897321  1
  Ni  Ni192  1  0.33368284  0.55780075  0.52850557  1
  Ni  Ni193  1  0.02437975  0.69797331  0.77903427  1
  Ni  Ni194  1  0.04756506  0.23334842  0.54501928  1
  Ni  Ni195  1  0.31942137  0.13758913  0.14408694  1
  Ni  Ni196  1  0.49702841  0.40326884  0.68117996  1
  Ni  Ni197  1  0.93001441  0.17243501  0.05658050  1
  Ni  Ni198  1  0.01875783  0.12162815  0.77712366  1
  Ni  Ni199  1  0.49400238  0.83316510  0.60373662  1
  Ni  Ni200  1  0.88858555  0.64970334  0.45558286  1
  Ni  Ni201  1  0.64928289  0.72778053  0.32274513  1
  Ni  Ni202  1  0.70438282  0.80326750  0.80710535  1
  Ni  Ni203  1  0.43776081  0.66605980  0.86793753  1
  Ni  Ni204  1  0.25680452  -0.01328601  0.61024402  1
  Ni  Ni205  1  0.22335014  0.83621042  0.67162530  1
  Ni  Ni206  1  0.27304966  0.87882349  0.82231713  1
  Ni  Ni207  1  0.75544760  0.24579960  0.89743331  1
  Ni  Ni208  1  0.54424460  0.36806852  0.23721633  1
  Ni  Ni209  1  0.50964177  0.24783198  0.80415457  1
  Ni  Ni210  1  0.21718854  0.69387577  0.27865053  1
  Ni  Ni211  1  0.74308307  0.16501366  0.16034407  1
  Ni  Ni212  1  0.36274402  0.20965706  0.84795487  1
  Ni  Ni213  1  0.49609006  0.52241580  0.79397138  1
  Ni  Ni214  1  0.14457701  0.40345808  0.11327547  1
