# generated using pymatgen
data_Ti108Co54Ni53
_symmetry_space_group_name_H-M   'P 1'
_cell_length_a   14.57947360
_cell_length_b   14.47335734
_cell_length_c   14.64030382
_cell_angle_alpha   89.91581386
_cell_angle_beta   90.04623246
_cell_angle_gamma   89.92125312
_symmetry_Int_Tables_number   1
_chemical_formula_structural   Ti108Co54Ni53
_chemical_formula_sum   'Ti108 Co54 Ni53'
_cell_volume   3089.30080079
_cell_formula_units_Z   1
loop_
 _symmetry_equiv_pos_site_id
 _symmetry_equiv_pos_as_xyz
  1  'x, y, z'
loop_
 _atom_site_type_symbol
 _atom_site_label
 _atom_site_symmetry_multiplicity
 _atom_site_fract_x
 _atom_site_fract_y
 _atom_site_fract_z
 _atom_site_occupancy
  Ti  Ti0  1  0.09766986  0.11806185  0.26997405  1
  Ti  Ti1  1  0.12650425  0.14892160  0.59895114  1
  Ti  Ti2  1  0.06082256  0.02879771  0.97582401  1
  Ti  Ti3  1  0.11184320  0.38613042  0.30338684  1
  Ti  Ti4  1  0.08329983  0.35020285  0.61553346  1
  Ti  Ti5  1  0.10828892  0.49274807  0.94338197  1
  Ti  Ti6  1  0.06163054  0.80213922  0.22670507  1
  Ti  Ti7  1  0.09443792  0.79539912  0.57598756  1
  Ti  Ti8  1  0.16055862  0.73511983  0.95122876  1
  Ti  Ti9  1  0.43885438  0.03795669  0.28508229  1
  Ti  Ti10  1  0.45998303  0.09260032  0.57840277  1
  Ti  Ti11  1  0.43962494  0.14070351  0.92498234  1
  Ti  Ti12  1  0.39988096  0.43302300  0.22728389  1
  Ti  Ti13  1  0.37211791  0.41171427  0.61615097  1
  Ti  Ti14  1  0.40744397  0.37786251  0.92486382  1
  Ti  Ti15  1  0.39143229  0.64370319  0.24694061  1
  Ti  Ti16  1  0.47271717  0.70076871  0.55795231  1
  Ti  Ti17  1  0.43978915  0.78182173  0.82880487  1
  Ti  Ti18  1  0.73592078  0.03241885  0.28929021  1
  Ti  Ti19  1  0.76050997  0.11429768  0.55096423  1
  Ti  Ti20  1  0.74449273  0.15301914  1.00848845  1
  Ti  Ti21  1  0.74885509  0.46869716  0.22810402  1
  Ti  Ti22  1  0.81456263  0.44037355  0.57738745  1
  Ti  Ti23  1  0.77358159  0.46556999  0.91415879  1
  Ti  Ti24  1  0.78324149  0.74088694  0.21459445  1
  Ti  Ti25  1  0.68566571  0.71300962  0.51451063  1
  Ti  Ti26  1  0.74526918  0.71504876  0.91890674  1
  Ti  Ti27  1  0.08133152  0.29943298  0.02519091  1
  Ti  Ti28  1  0.02927284  0.20322761  0.44329792  1
  Ti  Ti29  1  0.03321349  0.23116197  0.75194635  1
  Ti  Ti30  1  0.09136343  0.61296805  0.09797852  1
  Ti  Ti31  1  0.02259305  0.58969047  0.38892680  1
  Ti  Ti32  1  0.11750988  0.48800460  0.74494287  1
  Ti  Ti33  1  0.14680827  0.88163739  0.08216041  1
  Ti  Ti34  1  0.11412773  0.94129529  0.32692723  1
  Ti  Ti35  1  0.10700536  0.88736597  0.73695393  1
  Ti  Ti36  1  0.40877690  0.27563020  0.09608256  1
  Ti  Ti37  1  0.42599441  0.22620444  0.43409448  1
  Ti  Ti38  1  0.35567609  0.17858352  0.74591835  1
  Ti  Ti39  1  0.40660043  0.62662977  0.05720093  1
  Ti  Ti40  1  0.41104486  0.49729205  0.41813919  1
  Ti  Ti41  1  0.47992492  0.61461352  0.72986675  1
  Ti  Ti42  1  0.45806758  0.93866832  0.09759127  1
  Ti  Ti43  1  0.39380543  0.84371912  0.44728621  1
  Ti  Ti44  1  0.45803950  0.98623163  0.75156844  1
  Ti  Ti45  1  0.70456801  0.30455148  0.12138694  1
  Ti  Ti46  1  0.80764014  0.34983829  0.38440437  1
  Ti  Ti47  1  0.72648967  0.21435196  0.72151259  1
  Ti  Ti48  1  0.72189267  0.57802632  0.06532697  1
  Ti  Ti49  1  0.78213935  0.55518272  0.40930204  1
  Ti  Ti50  1  0.71092826  0.59203467  0.73493990  1
  Ti  Ti51  1  0.69595354  0.93765845  0.10201299  1
  Ti  Ti52  1  0.71033357  0.93752192  0.49640092  1
  Ti  Ti53  1  0.73483161  1.01040853  0.74136380  1
  Ti  Ti54  1  0.28209166  0.06625313  0.03863282  1
  Ti  Ti55  1  0.27618924  0.10560225  0.39952386  1
  Ti  Ti56  1  0.24557087  0.02638976  0.69887169  1
  Ti  Ti57  1  0.21069621  0.41941767  0.12819135  1
  Ti  Ti58  1  0.19695302  0.48269840  0.46436729  1
  Ti  Ti59  1  0.26561453  0.36595142  0.78611127  1
  Ti  Ti60  1  0.24804146  0.72201621  0.11957824  1
  Ti  Ti61  1  0.19836585  0.79178528  0.40551744  1
  Ti  Ti62  1  0.23463741  0.75906564  0.78102960  1
  Ti  Ti63  1  0.57553155  0.04953493  0.00630152  1
  Ti  Ti64  1  0.58100632  0.11352884  0.42093229  1
  Ti  Ti65  1  0.55085371  0.15230433  0.74846198  1
  Ti  Ti66  1  0.57388541  0.44529141  0.02194912  1
  Ti  Ti67  1  0.63687799  0.40295801  0.45586463  1
  Ti  Ti68  1  0.59873113  0.43085965  0.79792412  1
  Ti  Ti69  1  0.54421716  0.74199034  0.15684169  1
  Ti  Ti70  1  0.52510600  0.69925056  0.35511091  1
  Ti  Ti71  1  0.61221541  0.83536566  0.72007171  1
  Ti  Ti72  1  0.88115532  0.03980284  0.04819603  1
  Ti  Ti73  1  0.85537697  0.16658024  0.38506369  1
  Ti  Ti74  1  0.97526411  0.04145716  0.75311731  1
  Ti  Ti75  1  0.97834321  0.39307420  0.14904121  1
  Ti  Ti76  1  0.96356844  0.42084046  0.45894127  1
  Ti  Ti77  1  0.95010830  0.43181753  0.83011911  1
  Ti  Ti78  1  0.97937626  0.81239918  0.01619367  1
  Ti  Ti79  1  0.87810521  0.73164323  0.45201322  1
  Ti  Ti80  1  0.96615023  0.75318665  0.81654147  1
  Ti  Ti81  1  0.26439484  0.17445366  0.20495273  1
  Ti  Ti82  1  0.25617488  0.29537035  0.48722359  1
  Ti  Ti83  1  0.21477451  0.19930521  0.91324786  1
  Ti  Ti84  1  0.24417974  0.62148396  0.35556957  1
  Ti  Ti85  1  0.19611583  0.62681921  0.63555373  1
  Ti  Ti86  1  0.30453945  0.57844683  0.85954967  1
  Ti  Ti87  1  0.28484136  0.95291586  0.19951940  1
  Ti  Ti88  1  0.21399985  0.95079711  0.51946308  1
  Ti  Ti89  1  0.22572456  0.92981614  0.90300955  1
  Ti  Ti90  1  0.56810361  0.21499055  0.23630100  1
  Ti  Ti91  1  0.59363481  0.24712485  0.57783597  1
  Ti  Ti92  1  0.60757798  0.27802710  0.90740882  1
  Ti  Ti93  1  0.57275371  0.51080519  0.29211888  1
  Ti  Ti94  1  0.54503798  0.49559726  0.60611228  1
  Ti  Ti95  1  0.49145979  0.58136373  0.90507035  1
  Ti  Ti96  1  0.64891474  0.84817614  0.26983385  1
  Ti  Ti97  1  0.53374807  0.91827660  0.56413870  1
  Ti  Ti98  1  0.60521542  0.85198606  0.93931913  1
  Ti  Ti99  1  0.93788123  0.17355994  0.19130145  1
  Ti  Ti100  1  0.90443006  0.24802924  0.58092644  1
  Ti  Ti101  1  0.87952524  0.24345692  0.86011106  1
  Ti  Ti102  1  0.90057760  0.59019590  0.18722204  1
  Ti  Ti103  1  0.93988597  0.57573943  0.66722958  1
  Ti  Ti104  1  0.92391448  0.53295558  1.00670638  1
  Ti  Ti105  1  0.89988842  0.88175110  0.32203217  1
  Ti  Ti106  1  0.98013891  0.93715079  0.49180413  1
  Ti  Ti107  1  0.88661946  0.93698402  0.88464864  1
  Co  Co108  1  0.06386071  0.69393260  0.70352652  1
  Co  Co109  1  0.81600764  0.47882773  0.73753542  1
  Co  Co110  1  0.00317806  0.58212213  0.81960530  1
  Co  Co111  1  0.19195581  0.19997292  0.75405559  1
  Co  Co112  1  0.25549165  0.28732978  0.64504372  1
  Co  Co113  1  0.37701210  0.67604220  0.42054899  1
  Co  Co114  1  0.65231507  0.56520286  0.89877914  1
  Co  Co115  1  0.43072035  0.82951800  0.66115310  1
  Co  Co116  1  0.07367961  -0.00832061  0.61630976  1
  Co  Co117  1  0.27969536  0.74090814  0.53706695  1
  Co  Co118  1  0.21225921  0.44634204  0.61488092  1
  Co  Co119  1  0.59487348  -0.02660851  0.83084997  1
  Co  Co120  1  0.31548785  0.32379718  0.33645597  1
  Co  Co121  1  -0.05762193  0.36750058  -0.02424434  1
  Co  Co122  1  0.17631739  0.23251685  0.34830536  1
  Co  Co123  1  0.66967895  0.11333410  0.14488113  1
  Co  Co124  1  0.58455422  0.65830200  0.01476355  1
  Co  Co125  1  0.65388656  0.34968108  0.29709658  1
  Co  Co126  1  0.68824440  0.76402596  0.08340838  1
  Co  Co127  1  0.60658111  0.68238209  0.65157755  1
  Co  Co128  1  -0.08186281  0.79633784  0.15808259  1
  Co  Co129  1  0.26857282  0.56642027  0.17167693  1
  Co  Co130  1  0.11316061  0.26759532  0.18608477  1
  Co  Co131  1  0.82503245  0.42238755  0.08677617  1
  Co  Co132  1  0.69055760  0.54394983  0.56910894  1
  Co  Co133  1  0.89158154  0.23705748  0.05529211  1
  Co  Co134  1  0.49132988  0.35048469  0.33530597  1
  Co  Co135  1  0.15001349  0.02718169  0.14780895  1
  Co  Co136  1  0.32339573  0.90365265  0.77903741  1
  Co  Co137  1  0.83983190  0.00946620  0.43817757  1
  Co  Co138  1  0.48153274  0.86402682  0.28639750  1
  Co  Co139  1  0.24763311  0.25145333  0.06528099  1
  Co  Co140  1  0.43256553  0.00749234  0.44202507  1
  Co  Co141  1  0.30860636  0.06290353  0.85751712  1
  Co  Co142  1  -0.04933125  0.09020442  0.55357834  1
  Co  Co143  1  0.55065612  0.37845588  0.16850698  1
  Co  Co144  1  0.25388194  0.84887428  0.64454768  1
  Co  Co145  1  0.34638767  0.69353326  0.68621896  1
  Co  Co146  1  0.52460801  0.55040827  0.13806649  1
  Co  Co147  1  0.75598646  0.82946176  0.38981112  1
  Co  Co148  1  0.75100128  0.29120253  0.55069420  1
  Co  Co149  1  -0.01523216  0.28394931  0.31226538  1
  Co  Co150  1  0.57325204  -0.00702896  0.19961662  1
  Co  Co151  1  0.82633443  0.62480284  0.56386323  1
  Co  Co152  1  0.59967026  0.70865637  0.82807909  1
  Co  Co153  1  0.23839399  0.80702939  0.25494434  1
  Co  Co154  1  0.03193974  0.78975147  0.41100077  1
  Co  Co155  1  0.36385417  -0.03840756  0.59285511  1
  Co  Co156  1  0.06667343  0.14599271  0.08304334  1
  Co  Co157  1  0.65518477  0.62694802  0.19906758  1
  Co  Co158  1  0.15105832  0.62787177  0.83070393  1
  Co  Co159  1  0.86945165  0.13999589  0.69975459  1
  Co  Co160  1  0.67267757  0.39558030  0.65549909  1
  Co  Co161  1  0.10320763  0.34355833  0.45746988  1
  Ni  Ni162  1  0.69182699  0.67676103  0.34653958  1
  Ni  Ni163  1  0.82394154  0.09102929  0.85895461  1
  Ni  Ni164  1  0.31081685  0.87084691  0.03294872  1
  Ni  Ni165  1  0.91453478  0.45986906  0.30060817  1
  Ni  Ni166  1  0.81524804  0.85358396  0.02027836  1
  Ni  Ni167  1  0.85184254  0.60764267  0.85242179  1
  Ni  Ni168  1  0.06130337  0.52159714  0.56402248  1
  Ni  Ni169  1  0.42570632  -0.05549950  -0.07785365  1
  Ni  Ni170  1  0.85370269  0.68892011  0.04759692  1
  Ni  Ni171  1  0.73861198  0.20310638  0.26456669  1
  Ni  Ni172  1  0.25497174  0.46888443  0.29937263  1
  Ni  Ni173  1  0.69387752  0.22686110  0.41845166  1
  Ni  Ni174  1  0.24152347  0.38427904  -0.03654732  1
  Ni  Ni175  1  0.30881993  0.53196606  0.71119122  1
  Ni  Ni176  1  0.46510060  0.78974265  0.00775410  1
  Ni  Ni177  1  0.75280813  0.34711224  0.80045181  1
  Ni  Ni178  1  0.58356038  0.82426771  0.43650078  1
  Ni  Ni179  1  -0.05735422  0.70211458  0.29737201  1
  Ni  Ni180  1  0.12675427  0.06522000  0.81954256  1
  Ni  Ni181  1  0.62180318  0.05206448  0.62319032  1
  Ni  Ni182  1  0.29164702  -0.05811609  0.36099873  1
  Ni  Ni183  1  0.74738293  0.85570819  0.82493581  1
  Ni  Ni184  1  0.34472314  0.57726664  0.55348852  1
  Ni  Ni185  1  0.48278157  0.36502640  0.50120682  1
  Ni  Ni186  1  0.13395333  0.65562371  0.48589477  1
  Ni  Ni187  1  0.56173145  0.22018141  0.05494688  1
  Ni  Ni188  1  0.46702450  0.29181074  0.79831861  1
  Ni  Ni189  1  0.43554333  0.45476592  0.77681403  1
  Ni  Ni190  1  0.02583904  0.18297403  0.91615280  1
  Ni  Ni191  1  0.58496738  0.57492538  0.45144074  1
  Ni  Ni192  1  0.00915159  0.65957814  -0.04577331  1
  Ni  Ni193  1  0.42647713  0.25447966  0.61684812  1
  Ni  Ni194  1  0.32689280  0.72736790  -0.05640242  1
  Ni  Ni195  1  0.13804695  0.66716521  0.25032841  1
  Ni  Ni196  1  -0.07151971  0.36808718  0.68606521  1
  Ni  Ni197  1  0.29961948  0.13995751  0.57029107  1
  Ni  Ni198  1  0.10620254  0.34037320  0.86073259  1
  Ni  Ni199  1  -0.00191920  -0.04255504  0.14291393  1
  Ni  Ni200  1  0.24345798  0.56326395  0.01214537  1
  Ni  Ni201  1  0.77159599  0.31584485  -0.03321954  1
  Ni  Ni202  1  0.58629514  -0.03205540  0.36521614  1
  Ni  Ni203  1  0.65496635  0.12061130  0.86791976  1
  Ni  Ni204  1  0.84698959  0.31796685  0.22263630  1
  Ni  Ni205  1  -0.03381674  0.04373609  0.34051205  1
  Ni  Ni206  1  0.83729950  -0.06225555  0.18315050  1
  Ni  Ni207  1  0.38004032  0.46181735  0.06597779  1
  Ni  Ni208  1  0.38527938  0.80184424  0.16835220  1
  Ni  Ni209  1  0.72862401  -0.01650511  -0.06064009  1
  Ni  Ni210  1  0.05706051  0.52705182  0.23474466  1
  Ni  Ni211  1  0.40863944  0.20955106  0.26952702  1
  Ni  Ni212  1  0.05962738  0.88567645  0.89202439  1
  Ni  Ni213  1  0.10267190  0.05662757  0.45049018  1
  Ni  Ni214  1  0.44718923  0.11087159  0.12488962  1
