# generated using pymatgen
data_Ti108Co54Ni53
_symmetry_space_group_name_H-M   'P 1'
_cell_length_a   14.67801266
_cell_length_b   14.62927577
_cell_length_c   14.69885927
_cell_angle_alpha   89.98090004
_cell_angle_beta   90.43439083
_cell_angle_gamma   90.12243934
_symmetry_Int_Tables_number   1
_chemical_formula_structural   Ti108Co54Ni53
_chemical_formula_sum   'Ti108 Co54 Ni53'
_cell_volume   3156.16879309
_cell_formula_units_Z   1
loop_
 _symmetry_equiv_pos_site_id
 _symmetry_equiv_pos_as_xyz
  1  'x, y, z'
loop_
 _atom_site_type_symbol
 _atom_site_label
 _atom_site_symmetry_multiplicity
 _atom_site_fract_x
 _atom_site_fract_y
 _atom_site_fract_z
 _atom_site_occupancy
  Ti  Ti0  1  0.03650670  0.12254312  0.32726078  1
  Ti  Ti1  1  0.07946945  0.08108456  0.51886977  1
  Ti  Ti2  1  0.06088249  -0.02108799  0.92559715  1
  Ti  Ti3  1  0.05159332  0.44395230  0.13677705  1
  Ti  Ti4  1  0.14053633  0.39624272  0.59544476  1
  Ti  Ti5  1  -0.01298030  0.46139878  0.94477150  1
  Ti  Ti6  1  0.09115572  0.81991811  0.31133899  1
  Ti  Ti7  1  0.07523891  0.74555348  0.61609269  1
  Ti  Ti8  1  0.09689728  0.70773491  0.83906868  1
  Ti  Ti9  1  0.37812768  0.20751993  0.22603523  1
  Ti  Ti10  1  0.40851065  -0.00123695  0.55945622  1
  Ti  Ti11  1  0.44164527  -0.00115516  0.92650451  1
  Ti  Ti12  1  0.38387054  0.42222943  0.24613762  1
  Ti  Ti13  1  0.49205885  0.42539060  0.55282085  1
  Ti  Ti14  1  0.50329179  0.41870051  0.91001660  1
  Ti  Ti15  1  0.35119731  0.69615402  0.18921028  1
  Ti  Ti16  1  0.47010633  0.75979138  0.53836369  1
  Ti  Ti17  1  0.45423270  0.70383027  0.87566950  1
  Ti  Ti18  1  0.74809319  0.11960638  0.24699291  1
  Ti  Ti19  1  0.71168498  0.05830766  0.54607318  1
  Ti  Ti20  1  0.71362899  0.13783929  0.87772604  1
  Ti  Ti21  1  0.73842949  0.49306751  0.26082276  1
  Ti  Ti22  1  0.79583240  0.45354668  0.58443099  1
  Ti  Ti23  1  0.76542500  0.39229170  0.93420886  1
  Ti  Ti24  1  0.72877744  0.70693386  0.27075679  1
  Ti  Ti25  1  0.75156329  0.78914605  0.64791499  1
  Ti  Ti26  1  0.73505818  0.75081538  0.97119896  1
  Ti  Ti27  1  0.03889583  0.13553254  0.08127378  1
  Ti  Ti28  1  0.06138505  0.28259065  0.45607093  1
  Ti  Ti29  1  -0.03733827  0.21656557  0.76083188  1
  Ti  Ti30  1  0.08644427  0.64308657  0.15915387  1
  Ti  Ti31  1  0.14964107  0.57122848  0.50792983  1
  Ti  Ti32  1  0.10533548  0.56605054  0.70083404  1
  Ti  Ti33  1  0.11857829  0.88061201  0.12293862  1
  Ti  Ti34  1  0.17600290  0.91058733  0.46690493  1
  Ti  Ti35  1  0.05310525  0.92871533  0.68967141  1
  Ti  Ti36  1  0.49318656  0.31348059  0.11119626  1
  Ti  Ti37  1  0.43563470  0.27690138  0.42232541  1
  Ti  Ti38  1  0.40633475  0.16708978  0.68746928  1
  Ti  Ti39  1  0.44835091  0.53408201  0.08200808  1
  Ti  Ti40  1  0.35433747  0.57692410  0.50484906  1
  Ti  Ti41  1  0.55886599  0.54792141  0.73833516  1
  Ti  Ti42  1  0.42371274  0.95309417  0.11066224  1
  Ti  Ti43  1  0.42612785  0.93012520  0.37275523  1
  Ti  Ti44  1  0.34115124  0.86811579  0.80077102  1
  Ti  Ti45  1  0.82771622  0.23261414  0.11145160  1
  Ti  Ti46  1  0.73349232  0.22583639  0.40430451  1
  Ti  Ti47  1  0.74043631  0.27764124  0.73581812  1
  Ti  Ti48  1  0.75055234  0.59349826  0.08620006  1
  Ti  Ti49  1  0.81909176  0.56906913  0.42040548  1
  Ti  Ti50  1  0.82308025  0.53931662  0.77135211  1
  Ti  Ti51  1  0.66504799  0.93902587  0.06895281  1
  Ti  Ti52  1  0.73427253  0.89637056  0.42133885  1
  Ti  Ti53  1  0.75128143  0.98475942  0.73270616  1
  Ti  Ti54  1  0.23707414  0.06331821  0.12475400  1
  Ti  Ti55  1  0.25733088  0.06623219  0.36104676  1
  Ti  Ti56  1  0.25234369  0.05934767  0.81330161  1
  Ti  Ti57  1  0.24976641  0.38835136  0.11923838  1
  Ti  Ti58  1  0.21465343  0.43868069  0.39120342  1
  Ti  Ti59  1  0.36683543  0.46131233  0.70875397  1
  Ti  Ti60  1  0.21292660  0.68604837  0.02545380  1
  Ti  Ti61  1  0.39220079  0.72479406  0.37514961  1
  Ti  Ti62  1  0.27189743  0.63258949  0.80322690  1
  Ti  Ti63  1  0.55993344  0.09566523  0.12458310  1
  Ti  Ti64  1  0.54598708  0.09857290  0.45821395  1
  Ti  Ti65  1  0.56720989  0.02891373  0.79452351  1
  Ti  Ti66  1  0.68357642  0.38418735  0.11307934  1
  Ti  Ti67  1  0.55355185  0.43999750  0.35873347  1
  Ti  Ti68  1  0.53841409  0.35094204  0.73167454  1
  Ti  Ti69  1  0.50628410  0.77108514  0.08683628  1
  Ti  Ti70  1  0.58117517  0.75956455  0.38804786  1
  Ti  Ti71  1  0.55689499  0.74142846  0.69970019  1
  Ti  Ti72  1  0.86649432  0.04188767  0.01311250  1
  Ti  Ti73  1  0.89097637  0.12402204  0.48778766  1
  Ti  Ti74  1  0.91598044  0.03529169  0.79754265  1
  Ti  Ti75  1  0.86652540  0.42855120  0.11213814  1
  Ti  Ti76  1  0.88861334  0.36435668  0.40399483  1
  Ti  Ti77  1  0.97246525  0.43180702  0.71349755  1
  Ti  Ti78  1  0.96177582  0.76726414  0.05553158  1
  Ti  Ti79  1  0.93997161  0.76479898  0.41341315  1
  Ti  Ti80  1  0.92666677  0.69542349  0.71783089  1
  Ti  Ti81  1  0.17765083  0.20897371  0.24061688  1
  Ti  Ti82  1  0.22636706  0.21119413  0.60905237  1
  Ti  Ti83  1  0.29563848  0.24109071  0.92546865  1
  Ti  Ti84  1  0.20132158  0.64005872  0.32989369  1
  Ti  Ti85  1  0.26969244  0.73289777  0.58548019  1
  Ti  Ti86  1  0.30675321  0.50988291  0.95814891  1
  Ti  Ti87  1  0.27188467  0.90548365  0.24347963  1
  Ti  Ti88  1  0.24480043  0.93417356  0.64977245  1
  Ti  Ti89  1  0.24674944  0.92941624  0.97942732  1
  Ti  Ti90  1  0.56390694  0.19431565  0.29407665  1
  Ti  Ti91  1  0.57135677  0.23398310  0.59363978  1
  Ti  Ti92  1  0.51834593  0.21231190  0.94218602  1
  Ti  Ti93  1  0.49487623  0.59130058  0.27069289  1
  Ti  Ti94  1  0.65668344  0.64310855  0.54438673  1
  Ti  Ti95  1  0.67579000  0.56828128  0.89513117  1
  Ti  Ti96  1  0.63242543  0.90199220  0.25038312  1
  Ti  Ti97  1  0.57694919  0.92145106  0.63043845  1
  Ti  Ti98  1  0.57982510  0.85835115  0.92521299  1
  Ti  Ti99  1  0.97371971  0.28303390  0.22202467  1
  Ti  Ti100  1  0.90551490  0.27578465  0.59671892  1
  Ti  Ti101  1  0.87713284  0.23581043  0.93468907  1
  Ti  Ti102  1  0.92039638  0.62547581  0.25678857  1
  Ti  Ti103  1  0.96484467  0.58856712  0.54317461  1
  Ti  Ti104  1  0.90601253  0.67794392  0.90347921  1
  Ti  Ti105  1  0.94640455  0.94583057  0.23159264  1
  Ti  Ti106  1  0.88696014  0.96050396  0.59316818  1
  Ti  Ti107  1  0.87175847  0.87270752  0.89334353  1
  Co  Co108  1  0.29384050  0.43963664  0.56446209  1
  Co  Co109  1  0.40116136  0.84562774  0.65179567  1
  Co  Co110  1  0.55401092  0.19499375  0.77496832  1
  Co  Co111  1  0.18707509  0.19328286  0.42338387  1
  Co  Co112  1  -0.03262555  0.31313562  0.04765879  1
  Co  Co113  1  0.57159810  -0.06578506  0.44521502  1
  Co  Co114  1  0.38183847  0.42962563  0.41677888  1
  Co  Co115  1  0.65759241  0.37596487  0.61208985  1
  Co  Co116  1  0.14829660  0.07102823  0.68067335  1
  Co  Co117  1  0.15045347  0.54765132  0.88150471  1
  Co  Co118  1  0.87882968  0.86000095  0.72813464  1
  Co  Co119  1  0.05310645  0.62786056  -0.01579199  1
  Co  Co120  1  0.83642884  0.12894355  0.66712353  1
  Co  Co121  1  0.37554817  0.04522967  0.22677539  1
  Co  Co122  1  0.56422836  0.73086603  0.23238798  1
  Co  Co123  1  -0.01239065  0.09045101  0.65035830  1
  Co  Co124  1  0.81037064  0.33207509  0.25552131  1
  Co  Co125  1  0.67441683  0.04973157  0.37199560  1
  Co  Co126  1  0.55151275  0.44333404  0.19349006  1
  Co  Co127  1  0.61601084  0.70872700  0.84501812  1
  Co  Co128  1  -0.00656676  0.56480418  0.82149940  1
  Co  Co129  1  0.16823138  -0.08356813  0.81735616  1
  Co  Co130  1  0.63791013  0.81016146  0.53352536  1
  Co  Co131  1  0.50291812  -0.13024408  0.78543790  1
  Co  Co132  1  0.54120307  0.07949385  0.63360804  1
  Co  Co133  1  0.77903395  0.72815042  0.80940461  1
  Co  Co134  1  0.40868863  0.00104176  0.73083766  1
  Co  Co135  1  0.73699093  0.41017659  0.40405825  1
  Co  Co136  1  0.34206807  0.56223912  0.32941072  1
  Co  Co137  1  0.02889665  0.62904737  0.38198007  1
  Co  Co138  1  -0.02353814  -0.06613245  0.05621520  1
  Co  Co139  1  0.27414971  0.30887211  0.48839994  1
  Co  Co140  1  0.37738811  0.67043660  0.01302024  1
  Co  Co141  1  0.81568293  0.62564906  0.59398002  1
  Co  Co142  1  0.31213616  0.82889768  0.10236353  1
  Co  Co143  1  0.06607580  0.23509893  0.62599441  1
  Co  Co144  1  0.65482289  0.59141832  0.36178205  1
  Co  Co145  1  0.11432165  0.28566068  0.11506381  1
  Co  Co146  1  0.61434058  0.59224083  0.16215312  1
  Co  Co147  1  0.31450952  0.08115880  -0.02102721  1
  Co  Co148  1  0.83223086  0.71955036  0.14327800  1
  Co  Co149  1  0.67459879  0.85986430  0.79103734  1
  Co  Co150  1  0.01005699  0.84190243  0.81930043  1
  Co  Co151  1  0.69922271  0.62551600  0.71218393  1
  Co  Co152  1  0.38030767  0.35806014  0.00590420  1
  Co  Co153  1  0.41499867  0.11121055  0.36780023  1
  Co  Co154  1  0.19957778  0.75361675  0.19877807  1
  Co  Co155  1  -0.02563421  0.77983385  0.21494658  1
  Co  Co156  1  0.67421791  0.77219739  0.11842989  1
  Co  Co157  1  0.39437011  0.31022937  0.61014515  1
  Co  Co158  1  0.25310207  0.57192513  0.64312784  1
  Co  Co159  1  0.59415728  0.04774830  -0.03489998  1
  Co  Co160  1  0.58519774  0.66125628  0.00604207  1
  Co  Co161  1  0.68047542  0.12744125  0.69800646  1
  Ni  Ni162  1  0.00149563  0.13220349  0.90799755  1
  Ni  Ni163  1  0.88848655  -0.05508950  0.42974113  1
  Ni  Ni164  1  0.02156109  0.87716721  0.51733526  1
  Ni  Ni165  1  0.40208895  0.30383629  0.81237118  1
  Ni  Ni166  1  0.40616714  0.13674564  0.84589457  1
  Ni  Ni167  1  0.44609380  0.83895829  0.23803109  1
  Ni  Ni168  1  0.36540002  0.16395609  0.51553159  1
  Ni  Ni169  1  0.73484104  -0.03133955  0.91301667  1
  Ni  Ni170  1  0.53187364  0.02597464  0.27987271  1
  Ni  Ni171  1  0.09958262  0.51976501  0.27561040  1
  Ni  Ni172  1  0.33408025  0.86261100  0.49635590  1
  Ni  Ni173  1  0.28524477  0.30433009  0.32575782  1
  Ni  Ni174  1  0.72137558  0.11137282  0.05118721  1
  Ni  Ni175  1  0.83689480  0.54047873  -0.04443261  1
  Ni  Ni176  1  0.74610616  0.23295725  0.56778852  1
  Ni  Ni177  1  0.50180897  0.58917256  0.59566974  1
  Ni  Ni178  1  0.60685848  0.31221342  0.45215054  1
  Ni  Ni179  1  0.65199596  0.33294146  0.27963293  1
  Ni  Ni180  1  0.09625988  0.81658879  -0.03570440  1
  Ni  Ni181  1  0.65504495  0.22778635  0.15272556  1
  Ni  Ni182  1  0.12655935  0.00327645  0.24652605  1
  Ni  Ni183  1  -0.02370985  0.42007807  0.54986353  1
  Ni  Ni184  1  0.77338940  0.73083044  0.45590302  1
  Ni  Ni185  1  -0.09828527  0.77689833  0.57324878  1
  Ni  Ni186  1  0.10751943  0.35440454  0.28962345  1
  Ni  Ni187  1  0.27004996  0.55228733  0.16796869  1
  Ni  Ni188  1  0.93516621  0.45612281  0.27336614  1
  Ni  Ni189  1  0.79164604  -0.00997184  0.16617095  1
  Ni  Ni190  1  0.16221189  0.52074937  0.04334182  1
  Ni  Ni191  1  0.24986059  0.77420264  0.89518227  1
  Ni  Ni192  1  0.41815411  0.14974999  0.07167134  1
  Ni  Ni193  1  -0.06757185  0.58455295  0.08686661  1
  Ni  Ni194  1  0.50822772  0.59678637  0.43705401  1
  Ni  Ni195  1  0.24335189  0.05736097  0.53595554  1
  Ni  Ni196  1  0.39716582  0.66186990  0.69129401  1
  Ni  Ni197  1  0.68847244  0.43892159  0.77183547  1
  Ni  Ni198  1  0.04092597  0.46067608  0.41284796  1
  Ni  Ni199  1  0.63838822  0.49120359  0.49863876  1
  Ni  Ni200  1  -0.08239509  0.10877946  0.19279664  1
  Ni  Ni201  1  0.88426429  0.19874355  0.33525636  1
  Ni  Ni202  1  0.25252018  0.79905207  0.36574042  1
  Ni  Ni203  1  0.27058403  0.22339806  0.08708430  1
  Ni  Ni204  1  0.03828416  -0.03188803  0.38245675  1
  Ni  Ni205  1  0.82162512  0.86823592  0.06242576  1
  Ni  Ni206  1  0.39733758  0.84007172  -0.03535474  1
  Ni  Ni207  1  0.12678190  0.73827298  0.46033388  1
  Ni  Ni208  1  0.83729516  0.83035728  0.29496201  1
  Ni  Ni209  1  0.87033856  0.35719611  0.81176612  1
  Ni  Ni210  1  0.42181429  0.55064464  0.83983387  1
  Ni  Ni211  1  0.16078415  0.11355048  -0.03551996  1
  Ni  Ni212  1  0.59819280  0.49142709  0.02677926  1
  Ni  Ni213  1  0.19821419  0.78320162  0.72720813  1
  Ni  Ni214  1  0.63861947  0.30634527  -0.12858990  1
