# generated using pymatgen
data_Ti108Co54Ni53
_symmetry_space_group_name_H-M   'P 1'
_cell_length_a   14.64474833
_cell_length_b   14.58649763
_cell_length_c   14.61172602
_cell_angle_alpha   90.07342800
_cell_angle_beta   90.04508283
_cell_angle_gamma   90.05726560
_symmetry_Int_Tables_number   1
_chemical_formula_structural   Ti108Co54Ni53
_chemical_formula_sum   'Ti108 Co54 Ni53'
_cell_volume   3121.28733651
_cell_formula_units_Z   1
loop_
 _symmetry_equiv_pos_site_id
 _symmetry_equiv_pos_as_xyz
  1  'x, y, z'
loop_
 _atom_site_type_symbol
 _atom_site_label
 _atom_site_symmetry_multiplicity
 _atom_site_fract_x
 _atom_site_fract_y
 _atom_site_fract_z
 _atom_site_occupancy
  Ti  Ti0  1  0.04617211  0.04089158  0.20591413  1
  Ti  Ti1  1  0.14058480  0.09426511  0.49342979  1
  Ti  Ti2  1  0.07545082  0.07823914  0.94002171  1
  Ti  Ti3  1  0.25286591  0.40033545  0.22434517  1
  Ti  Ti4  1  0.07187281  0.41659106  0.62249659  1
  Ti  Ti5  1  0.07683003  0.44308807  0.81832661  1
  Ti  Ti6  1  0.13805166  0.81527358  0.23326414  1
  Ti  Ti7  1  0.10694891  0.75569184  0.50046439  1
  Ti  Ti8  1  0.06771769  0.69003982  0.93399616  1
  Ti  Ti9  1  0.55906161  0.10891197  0.33018762  1
  Ti  Ti10  1  0.32675010  0.09071585  0.59431102  1
  Ti  Ti11  1  0.44870735  0.11896716  0.87130693  1
  Ti  Ti12  1  0.42883140  0.42613212  0.31616161  1
  Ti  Ti13  1  0.46046459  0.41048484  0.62649923  1
  Ti  Ti14  1  0.38932339  0.46592311  0.92805550  1
  Ti  Ti15  1  0.37443168  0.74319389  0.26169727  1
  Ti  Ti16  1  0.40824854  0.75082366  0.60206419  1
  Ti  Ti17  1  0.40694090  0.77946814  0.89728008  1
  Ti  Ti18  1  0.80876004  0.05952483  0.16449279  1
  Ti  Ti19  1  0.77971595  0.11709507  0.60398386  1
  Ti  Ti20  1  0.71205641  0.12137392  0.90250200  1
  Ti  Ti21  1  0.64431925  0.44392613  0.26878210  1
  Ti  Ti22  1  0.73387246  0.49929834  0.52588463  1
  Ti  Ti23  1  0.71181335  0.42609597  0.93455167  1
  Ti  Ti24  1  0.80314656  0.80161765  0.20498450  1
  Ti  Ti25  1  0.71405222  0.71381397  0.60705189  1
  Ti  Ti26  1  0.76410225  0.72047498  0.99245524  1
  Ti  Ti27  1  0.07113087  0.23735769  0.06546300  1
  Ti  Ti28  1  0.05782180  0.28597420  0.35473532  1
  Ti  Ti29  1  0.12001192  0.25589364  0.86693483  1
  Ti  Ti30  1  0.09914062  0.51624545  0.17483195  1
  Ti  Ti31  1  0.09561972  0.61652017  0.35245483  1
  Ti  Ti32  1  0.09235780  0.62935867  0.73019356  1
  Ti  Ti33  1  0.04880139  0.90972102  0.05234613  1
  Ti  Ti34  1  0.07743785  0.92854134  0.39104027  1
  Ti  Ti35  1  0.11724624  0.94295887  0.77652484  1
  Ti  Ti36  1  0.40325987  0.23149606  0.09881245  1
  Ti  Ti37  1  0.41119844  0.25494895  0.35638716  1
  Ti  Ti38  1  0.43470201  0.30037260  0.77246880  1
  Ti  Ti39  1  0.44680643  0.58749079  0.10778978  1
  Ti  Ti40  1  0.36313534  0.55928406  0.56918000  1
  Ti  Ti41  1  0.45797386  0.60562729  0.73866316  1
  Ti  Ti42  1  0.43371649  0.92625438  0.04736497  1
  Ti  Ti43  1  0.47358005  0.86021572  0.43718001  1
  Ti  Ti44  1  0.41333198  0.94718856  0.72717250  1
  Ti  Ti45  1  0.72811201  0.29639036  0.14639557  1
  Ti  Ti46  1  0.76012593  0.13688564  0.35678155  1
  Ti  Ti47  1  0.76416038  0.29267737  0.74322526  1
  Ti  Ti48  1  0.79409481  0.47508339  0.13371205  1
  Ti  Ti49  1  0.79111183  0.67196137  0.39760138  1
  Ti  Ti50  1  0.78127519  0.58159653  0.83785944  1
  Ti  Ti51  1  0.65498247  0.91545700  0.08557324  1
  Ti  Ti52  1  0.65082295  0.93984991  0.39083341  1
  Ti  Ti53  1  0.75630759  0.87290140  0.72064968  1
  Ti  Ti54  1  0.25813217  0.08998745  0.13885128  1
  Ti  Ti55  1  0.32390884  0.09624378  0.39426116  1
  Ti  Ti56  1  0.15619453  0.13146954  0.69567214  1
  Ti  Ti57  1  0.17932163  0.41522422  0.01786691  1
  Ti  Ti58  1  0.25821383  0.47553501  0.41206528  1
  Ti  Ti59  1  0.24985046  0.32263908  0.72504483  1
  Ti  Ti60  1  0.21270071  0.76586651  0.06408224  1
  Ti  Ti61  1  0.28815860  0.65311991  0.41904301  1
  Ti  Ti62  1  0.25885011  0.78496763  0.74732171  1
  Ti  Ti63  1  0.53880338  0.08523686  0.12738813  1
  Ti  Ti64  1  0.49449869  0.04197382  0.51720009  1
  Ti  Ti65  1  0.59078159  0.00215425  0.78558936  1
  Ti  Ti66  1  0.56319702  0.37218860  0.04670291  1
  Ti  Ti67  1  0.56685833  0.39450155  0.45426200  1
  Ti  Ti68  1  0.55461708  0.46055412  0.81967537  1
  Ti  Ti69  1  0.60474480  0.71456011  0.12527418  1
  Ti  Ti70  1  0.62719366  0.74150884  0.42249732  1
  Ti  Ti71  1  0.55777900  0.77888154  0.73670987  1
  Ti  Ti72  1  0.88233185  0.02588781  -0.02395519  1
  Ti  Ti73  1  0.94031017  0.07539931  0.48807483  1
  Ti  Ti74  1  0.91412284  0.00813473  0.75866423  1
  Ti  Ti75  1  0.97703361  0.41473693  0.09430543  1
  Ti  Ti76  1  0.92625289  0.48168388  0.38973866  1
  Ti  Ti77  1  0.90059696  0.46448886  0.71736967  1
  Ti  Ti78  1  0.94222660  0.75880686  0.07836396  1
  Ti  Ti79  1  0.95653115  0.75392249  0.37369631  1
  Ti  Ti80  1  0.89201325  0.71381160  0.72291580  1
  Ti  Ti81  1  0.21525538  0.20768052  0.26595149  1
  Ti  Ti82  1  0.23717934  0.26236115  0.53484959  1
  Ti  Ti83  1  0.30753892  0.25444726  0.91960739  1
  Ti  Ti84  1  0.23136111  0.63857977  0.21655651  1
  Ti  Ti85  1  0.17836471  0.58175638  0.57241230  1
  Ti  Ti86  1  0.23683369  0.57963270  0.87210509  1
  Ti  Ti87  1  0.29940320  0.91475854  0.30506796  1
  Ti  Ti88  1  0.18825521  0.91405443  0.59332819  1
  Ti  Ti89  1  0.24240688  0.95814627  0.99401811  1
  Ti  Ti90  1  0.54881203  0.27775512  0.23059000  1
  Ti  Ti91  1  0.57024740  0.22182193  0.59537502  1
  Ti  Ti92  1  0.59649780  0.26542498  0.85755649  1
  Ti  Ti93  1  0.52126478  0.59466655  0.29556824  1
  Ti  Ti94  1  0.55582324  0.60876624  0.55198954  1
  Ti  Ti95  1  0.60020881  0.65452622  0.90010240  1
  Ti  Ti96  1  0.51183374  0.90155762  0.22738826  1
  Ti  Ti97  1  0.65680829  0.97407765  0.59719107  1
  Ti  Ti98  1  0.63897839  0.84707706  0.89483224  1
  Ti  Ti99  1  0.90992393  0.25999336  0.19165719  1
  Ti  Ti100  1  0.94984059  0.21983291  0.64025239  1
  Ti  Ti101  1  0.90384666  0.22683583  0.91472086  1
  Ti  Ti102  1  0.92869226  0.60605077  0.23495834  1
  Ti  Ti103  1  0.89171530  0.60521800  0.54607574  1
  Ti  Ti104  1  0.89032820  0.51664636  0.96385965  1
  Ti  Ti105  1  0.88626550  0.95972211  0.31395189  1
  Ti  Ti106  1  0.98482497  0.87473169  0.61930809  1
  Ti  Ti107  1  0.87444830  0.84600730  0.88148433  1
  Co  Co108  1  0.91102505  -0.05856962  0.13655589  1
  Co  Co109  1  0.38239523  0.25198844  0.62328717  1
  Co  Co110  1  0.01546772  0.78955412  0.79980545  1
  Co  Co111  1  0.44028685  0.19099808  0.49493397  1
  Co  Co112  1  0.13174294  0.85527046  -0.08235691  1
  Co  Co113  1  0.52988496  0.75646141  0.29368099  1
  Co  Co114  1  0.55191972  0.52281772  -0.00923410  1
  Co  Co115  1  0.00694996  0.69407639  0.60328394  1
  Co  Co116  1  0.84526234  0.34505914  0.02344081  1
  Co  Co117  1  0.54362158  0.80994900  0.00616144  1
  Co  Co118  1  0.35526853  0.56354924  0.28578742  1
  Co  Co119  1  0.00307743  -0.05653728  -0.11059613  1
  Co  Co120  1  0.70507732  0.57229754  0.01143186  1
  Co  Co121  1  0.44732250  -0.00521996  0.35069389  1
  Co  Co122  1  0.58355807  0.23765469  0.42214943  1
  Co  Co123  1  0.66387964  0.83158243  0.25962786  1
  Co  Co124  1  -0.04120236  0.30813240  0.77616804  1
  Co  Co125  1  0.11634085  0.78985737  0.67373754  1
  Co  Co126  1  0.16382460  0.60527357  0.04937138  1
  Co  Co127  1  0.20278311  0.49178900  0.72153165  1
  Co  Co128  1  0.41187291  0.15180010  0.23858019  1
  Co  Co129  1  0.90362048  0.69132348  0.90810384  1
  Co  Co130  1  0.24708760  0.40252633  0.86710538  1
  Co  Co131  1  0.01865698  0.13696650  0.79357575  1
  Co  Co132  1  0.24640383  0.74832483  0.90927540  1
  Co  Co133  1  0.09426733  0.28020940  0.70119412  1
  Co  Co134  1  0.84036238  0.95422915  0.60794388  1
  Co  Co135  1  0.74819757  0.03333080  0.74324614  1
  Co  Co136  1  -0.03326318  0.59909485  0.07404647  1
  Co  Co137  1  0.09827528  0.33347882  0.19460078  1
  Co  Co138  1  0.54557466  0.18399581  0.00041952  1
  Co  Co139  1  0.07386936  0.23315850  0.53841250  1
  Co  Co140  1  0.45894833  0.30921862  0.93905237  1
  Co  Co141  1  0.84837145  0.39287509  0.85459396  1
  Co  Co142  1  0.06626825  0.68736900  0.17133627  1
  Co  Co143  1  0.24848423  0.73170205  0.58676074  1
  Co  Co144  1  0.26136331  -0.00378856  0.71264264  1
  Co  Co145  1  0.81294919  0.37997950  0.27125860  1
  Co  Co146  1  0.06468377  0.51750614  -0.03663660  1
  Co  Co147  1  0.67198267  0.66103595  0.26719017  1
  Co  Co148  1  0.10926407  0.45314281  0.32751202  1
  Co  Co149  1  0.79162713  0.83585022  0.37740037  1
  Co  Co150  1  0.36514632  0.47055563  0.74860224  1
  Co  Co151  1  -0.02926971  0.57704097  0.81977929  1
  Co  Co152  1  0.61717009  0.54173877  0.14456479  1
  Co  Co153  1  0.60313268  0.33243132  0.71024162  1
  Co  Co154  1  0.32484838  0.16418989  0.75061008  1
  Co  Co155  1  0.45625787  0.52121661  0.44569738  1
  Co  Co156  1  0.78659266  -0.00098761  0.46156988  1
  Co  Co157  1  0.69037092  0.28095891  0.31757416  1
  Co  Co158  1  0.72621062  0.84834136  0.52243570  1
  Co  Co159  1  -0.03061415  0.41332187  0.25645727  1
  Co  Co160  1  0.37811171  0.08730053  0.01032041  1
  Co  Co161  1  0.86616619  0.77091779  0.54471732  1
  Ni  Ni162  1  0.04850827  0.10218043  0.36116333  1
  Ni  Ni163  1  0.29255682  0.62778586  0.70967239  1
  Ni  Ni164  1  0.67241248  0.15358062  0.20541580  1
  Ni  Ni165  1  0.04026727  0.55822627  0.49554758  1
  Ni  Ni166  1  0.47827088  0.11831461  0.69681394  1
  Ni  Ni167  1  0.46672409  0.43341106  0.16125852  1
  Ni  Ni168  1  0.29299705  0.51653215  0.11945485  1
  Ni  Ni169  1  -0.03601820  0.11325543  0.08716856  1
  Ni  Ni170  1  0.25353561  0.31431648  0.38177463  1
  Ni  Ni171  1  0.78731682  0.64243404  0.14239412  1
  Ni  Ni172  1  0.19667716  0.78195994  0.37047725  1
  Ni  Ni173  1  0.65543449  0.10294662  0.48656803  1
  Ni  Ni174  1  0.78128864  0.57740459  0.67094363  1
  Ni  Ni175  1  0.61075011  0.47546690  0.63264947  1
  Ni  Ni176  1  0.74790610  -0.03635109  0.89484516  1
  Ni  Ni177  1  0.24583254  0.07264981  0.86060080  1
  Ni  Ni178  1  0.26338803  0.42278218  0.58608528  1
  Ni  Ni179  1  0.45035613  0.68881272  0.43611594  1
  Ni  Ni180  1  0.32334083  0.81029150  0.45862788  1
  Ni  Ni181  1  -0.01911586  0.83493578  0.23043098  1
  Ni  Ni182  1  0.23046752  0.27384737  0.10605144  1
  Ni  Ni183  1  0.52127456  0.88144983  0.60945090  1
  Ni  Ni184  1  0.02617325  0.04820597  0.63457538  1
  Ni  Ni185  1  0.72625476  0.73045858  0.79725804  1
  Ni  Ni186  1  0.69725285  0.26833684  -0.01423342  1
  Ni  Ni187  1  0.80359249  0.88170564  0.03523915  1
  Ni  Ni188  1  -0.07641981  0.89987570  0.46383142  1
  Ni  Ni189  1  0.32019843  0.63970500  0.01140641  1
  Ni  Ni190  1  0.38566235  0.36935910  0.48229216  1
  Ni  Ni191  1  0.41780813  0.75289618  0.09050463  1
  Ni  Ni192  1  0.18625139  0.03829477  0.30389456  1
  Ni  Ni193  1  0.71792229  0.45102572  0.75354252  1
  Ni  Ni194  1  0.24136145  -0.03688187  0.45079916  1
  Ni  Ni195  1  0.81611286  0.17933135  0.05102014  1
  Ni  Ni196  1  0.29267538  0.90703151  0.85010866  1
  Ni  Ni197  1  0.58590066  0.01798398  -0.03415313  1
  Ni  Ni198  1  0.62894128  0.61073436  0.72962857  1
  Ni  Ni199  1  0.45781383  -0.05612856  0.88898973  1
  Ni  Ni200  1  0.12292846  0.39019778  0.47467533  1
  Ni  Ni201  1  0.64240952  0.15700786  0.73538336  1
  Ni  Ni202  1  0.18071570  -0.05153076  0.15223971  1
  Ni  Ni203  1  0.44258525  0.61874853  0.90349328  1
  Ni  Ni204  1  0.85099556  0.15832647  0.77082036  1
  Ni  Ni205  1  0.21079999  0.15212629  -0.00341519  1
  Ni  Ni206  1  0.78248843  0.53818718  0.30189970  1
  Ni  Ni207  1  0.64260623  0.55866975  0.40422509  1
  Ni  Ni208  1  0.00144647  0.35746324  -0.05895809  1
  Ni  Ni209  1  0.66935944  -0.00586387  0.23600443  1
  Ni  Ni210  1  0.34800192  0.37771022  0.05560360  1
  Ni  Ni211  1  0.91181115  0.13375013  0.29383254  1
  Ni  Ni212  1  0.31733370  0.86164309  0.15012153  1
  Ni  Ni213  1  0.36032501  -0.07832943  0.57135014  1
  Ni  Ni214  1  0.38816854  0.00792960  0.18873762  1
