# generated using pymatgen
data_Ti108Co54Ni53
_symmetry_space_group_name_H-M   'P 1'
_cell_length_a   14.61972389
_cell_length_b   14.63872164
_cell_length_c   14.69716211
_cell_angle_alpha   89.97519301
_cell_angle_beta   89.90932858
_cell_angle_gamma   90.02754186
_symmetry_Int_Tables_number   1
_chemical_formula_structural   Ti108Co54Ni53
_chemical_formula_sum   'Ti108 Co54 Ni53'
_cell_volume   3145.39486025
_cell_formula_units_Z   1
loop_
 _symmetry_equiv_pos_site_id
 _symmetry_equiv_pos_as_xyz
  1  'x, y, z'
loop_
 _atom_site_type_symbol
 _atom_site_label
 _atom_site_symmetry_multiplicity
 _atom_site_fract_x
 _atom_site_fract_y
 _atom_site_fract_z
 _atom_site_occupancy
  Ti  Ti0  1  0.10260985  0.11712016  0.23986826  1
  Ti  Ti1  1  -0.04506875  0.14533031  0.58112120  1
  Ti  Ti2  1  0.04966609  0.09627607  0.86670996  1
  Ti  Ti3  1  0.07735130  0.48123749  0.27258836  1
  Ti  Ti4  1  0.07698023  0.35711595  0.57468929  1
  Ti  Ti5  1  0.05618854  0.38185893  0.90535840  1
  Ti  Ti6  1  0.12243662  0.68833483  0.22627803  1
  Ti  Ti7  1  0.10315177  0.78427683  0.53501153  1
  Ti  Ti8  1  0.12510243  0.68443166  0.96907523  1
  Ti  Ti9  1  0.45663204  0.06896407  0.21519590  1
  Ti  Ti10  1  0.46190198  0.06439931  0.62393892  1
  Ti  Ti11  1  0.42204336  0.15342669  1.01578759  1
  Ti  Ti12  1  0.36973844  0.28884955  0.30185590  1
  Ti  Ti13  1  0.35738551  0.46787271  0.60598806  1
  Ti  Ti14  1  0.39813040  0.36388852  0.91774645  1
  Ti  Ti15  1  0.41402618  0.81200483  0.23480328  1
  Ti  Ti16  1  0.47955529  0.73759935  0.59324112  1
  Ti  Ti17  1  0.38050314  0.81045267  0.86989783  1
  Ti  Ti18  1  0.81798352  0.07168952  0.22419841  1
  Ti  Ti19  1  0.76983503  0.00657871  0.57243100  1
  Ti  Ti20  1  0.72473389  0.03096504  0.90594529  1
  Ti  Ti21  1  0.74308085  0.42260967  0.29121709  1
  Ti  Ti22  1  0.66895754  0.35360205  0.60571202  1
  Ti  Ti23  1  0.73831969  0.42068710  0.96402386  1
  Ti  Ti24  1  0.73966478  0.72339795  0.28237706  1
  Ti  Ti25  1  0.66732197  0.79640057  0.59456032  1
  Ti  Ti26  1  0.77833695  0.69733867  0.93187055  1
  Ti  Ti27  1  0.03133271  0.26460951  0.10582610  1
  Ti  Ti28  1  0.11889067  0.21840895  0.44098768  1
  Ti  Ti29  1  0.12652667  0.28219978  0.76028660  1
  Ti  Ti30  1  0.01812042  0.58334390  0.09619429  1
  Ti  Ti31  1  -0.00624442  0.62281398  0.43782927  1
  Ti  Ti32  1  0.10122746  0.63535037  0.69540890  1
  Ti  Ti33  1  0.10711508  0.94144117  0.13220424  1
  Ti  Ti34  1  0.02283605  0.90916874  0.36666993  1
  Ti  Ti35  1  0.12177952  0.90967686  0.80093749  1
  Ti  Ti36  1  0.40404129  0.34946818  0.11325959  1
  Ti  Ti37  1  0.42391538  0.37434222  0.46286028  1
  Ti  Ti38  1  0.47349252  0.19606648  0.82252950  1
  Ti  Ti39  1  0.37730067  0.65871856  0.11842288  1
  Ti  Ti40  1  0.40526130  0.61365169  0.45383955  1
  Ti  Ti41  1  0.44669935  0.63668705  0.79850773  1
  Ti  Ti42  1  0.49568520  0.96496429  0.04351965  1
  Ti  Ti43  1  0.48565497  0.94693454  0.34701448  1
  Ti  Ti44  1  0.40156742  1.00646394  0.82291866  1
  Ti  Ti45  1  0.82500708  0.23601672  0.08004276  1
  Ti  Ti46  1  0.78181234  0.17284360  0.47462473  1
  Ti  Ti47  1  0.73857765  0.33476619  0.77306530  1
  Ti  Ti48  1  0.68552828  0.60010951  0.06304904  1
  Ti  Ti49  1  0.75766748  0.49307780  0.48453715  1
  Ti  Ti50  1  0.75280305  0.59449961  0.75132309  1
  Ti  Ti51  1  0.81877001  0.91106579  0.04381022  1
  Ti  Ti52  1  0.79471183  0.86492947  0.44514337  1
  Ti  Ti53  1  0.74629449  0.90338462  0.72993248  1
  Ti  Ti54  1  0.23885827  0.09354939  0.07608967  1
  Ti  Ti55  1  0.34914453  0.09844807  0.39388680  1
  Ti  Ti56  1  0.21561802  0.11086249  0.73307231  1
  Ti  Ti57  1  0.22263950  0.42798194  0.05693607  1
  Ti  Ti58  1  0.21997296  0.39038922  0.37748079  1
  Ti  Ti59  1  0.25576381  0.41207172  0.74788587  1
  Ti  Ti60  1  0.22982343  0.78158356  0.11844489  1
  Ti  Ti61  1  0.25216978  0.76013160  0.38504252  1
  Ti  Ti62  1  0.22689196  0.71328472  0.81397660  1
  Ti  Ti63  1  0.61289096  0.11740890  0.06906387  1
  Ti  Ti64  1  0.64384542  0.10119507  0.34372088  1
  Ti  Ti65  1  0.63705507  0.10566078  0.73490762  1
  Ti  Ti66  1  0.57876166  0.42358403  0.09201683  1
  Ti  Ti67  1  0.54022134  0.39696459  0.29675197  1
  Ti  Ti68  1  0.54628427  0.46820863  0.74862187  1
  Ti  Ti69  1  0.55318868  0.77184818  0.07475278  1
  Ti  Ti70  1  0.60897094  0.69180132  0.44661583  1
  Ti  Ti71  1  0.55741619  0.81148387  0.76292928  1
  Ti  Ti72  1  0.94930772  0.05546007  0.06672930  1
  Ti  Ti73  1  0.94854418  0.09835673  0.37581803  1
  Ti  Ti74  1  0.86656694  0.04995109  0.74334694  1
  Ti  Ti75  1  0.91850067  0.41864519  0.02717184  1
  Ti  Ti76  1  0.94781643  0.42081990  0.41069048  1
  Ti  Ti77  1  0.89306318  0.42621469  0.79292436  1
  Ti  Ti78  1  0.86888724  0.73192631  0.11184770  1
  Ti  Ti79  1  0.81784104  0.67795570  0.47276768  1
  Ti  Ti80  1  0.89714384  0.74072368  0.78795349  1
  Ti  Ti81  1  0.20308631  0.28718259  0.18043714  1
  Ti  Ti82  1  0.33625514  0.25485363  0.63797291  1
  Ti  Ti83  1  0.17294558  0.21709686  0.93942257  1
  Ti  Ti84  1  0.27152232  0.56624834  0.26414619  1
  Ti  Ti85  1  0.27238736  0.66029480  0.58980175  1
  Ti  Ti86  1  0.30022415  0.55613379  0.92287156  1
  Ti  Ti87  1  0.31746579  0.94306510  0.15844929  1
  Ti  Ti88  1  0.31058076  0.86126727  0.57696963  1
  Ti  Ti89  1  0.23031710  0.88220162  0.95748674  1
  Ti  Ti90  1  0.54248468  0.24077886  0.19004473  1
  Ti  Ti91  1  0.58980506  0.23944727  0.48358214  1
  Ti  Ti92  1  0.65615634  0.22690388  0.92218901  1
  Ti  Ti93  1  0.54206350  0.64713350  0.26122846  1
  Ti  Ti94  1  0.56441085  0.52982475  0.56433367  1
  Ti  Ti95  1  0.50714094  0.53182384  0.94856843  1
  Ti  Ti96  1  0.68294651  0.92317886  0.28212828  1
  Ti  Ti97  1  0.51058666  0.90426443  0.52551376  1
  Ti  Ti98  1  0.66218306  0.84760742  0.93606449  1
  Ti  Ti99  1  0.91269469  0.33759907  0.23739085  1
  Ti  Ti100  1  0.85917274  0.33172746  0.57550383  1
  Ti  Ti101  1  0.91994566  0.21980879  0.79828324  1
  Ti  Ti102  1  0.93857980  0.64509351  0.26247739  1
  Ti  Ti103  1  0.96614512  0.51717831  0.60701750  1
  Ti  Ti104  1  0.99594269  0.56990788  0.84053127  1
  Ti  Ti105  1  0.85978878  0.88997988  0.23422229  1
  Ti  Ti106  1  0.93201582  0.87804865  0.63990216  1
  Ti  Ti107  1  0.95122747  0.93913141  0.88539885  1
  Co  Co108  1  0.23603872  0.36633056  0.54805095  1
  Co  Co109  1  -0.05128532  0.17329177  0.21622983  1
  Co  Co110  1  0.38596355  0.83138650  0.04577222  1
  Co  Co111  1  0.38480780  0.48038313  0.34902914  1
  Co  Co112  1  0.67250106  0.29061257  0.08081982  1
  Co  Co113  1  0.76870122  0.42773017  0.12742867  1
  Co  Co114  1  0.80578031  -0.12911362  0.86853338  1
  Co  Co115  1  0.43500598  0.59776906  0.64556232  1
  Co  Co116  1  0.50710579  0.36534691  0.59774486  1
  Co  Co117  1  0.09552511  0.47443417  0.46199019  1
  Co  Co118  1  0.29809964  0.25963106  0.02303696  1
  Co  Co119  1  0.52324218  0.27499674  0.00633254  1
  Co  Co120  1  0.10960779  -0.00545530  -0.02815172  1
  Co  Co121  1  0.91415500  0.79704076  -0.03847684  1
  Co  Co122  1  0.12438904  0.62164191  0.53194664  1
  Co  Co123  1  0.22707612  0.20499788  0.31589212  1
  Co  Co124  1  0.45531929  0.50868947  0.20913206  1
  Co  Co125  1  -0.01805682  -0.00026000  0.22409327  1
  Co  Co126  1  0.38184706  0.50300896  0.06008677  1
  Co  Co127  1  0.05864237  0.44749987  0.73155086  1
  Co  Co128  1  0.71332083  0.75169075  0.77875306  1
  Co  Co129  1  0.06918670  0.75311044  0.36586097  1
  Co  Co130  1  0.65502828  0.27012015  0.33590524  1
  Co  Co131  1  0.28818352  0.71198224  -0.02265607  1
  Co  Co132  1  0.63073231  0.52155125  0.20763691  1
  Co  Co133  1  0.17259569  0.22125600  0.59838537  1
  Co  Co134  1  0.01615325  -0.00095994  0.71692257  1
  Co  Co135  1  0.85477471  0.54377065  0.35534407  1
  Co  Co136  1  0.26556602  0.51956368  0.46919761  1
  Co  Co137  1  0.28044040  0.89756014  0.77270129  1
  Co  Co138  1  0.76187830  0.17246912  0.80971386  1
  Co  Co139  1  0.77327576  0.33235495  0.43575239  1
  Co  Co140  1  0.50903530  0.87904042  -0.08526768  1
  Co  Co141  1  0.69317706  0.58066107  0.35270745  1
  Co  Co142  1  0.29308221  0.58060747  0.73450712  1
  Co  Co143  1  0.08585606  0.12649775  0.05991266  1
  Co  Co144  1  0.61988060  0.39943291  0.44740561  1
  Co  Co145  1  0.77058529  0.08308705  0.06209512  1
  Co  Co146  1  -0.08515714  0.48799914  0.19933941  1
  Co  Co147  1  0.28680688  0.25026452  0.45697205  1
  Co  Co148  1  0.38283079  0.67015774  0.30351886  1
  Co  Co149  1  0.17656509  0.50084306  0.62184133  1
  Co  Co150  1  0.52782769  0.60196333  0.09436925  1
  Co  Co151  1  -0.05262899  0.80403019  0.49073240  1
  Co  Co152  1  0.04878356  0.15463569  0.70083523  1
  Co  Co153  1  0.10532995  0.51611384  -0.01871802  1
  Co  Co154  1  0.79783346  0.01842311  0.38522875  1
  Co  Co155  1  0.83078497  0.54236911  0.89793876  1
  Co  Co156  1  0.58944948  0.64907681  0.70815902  1
  Co  Co157  1  -0.05341752  0.64623241  -0.03776938  1
  Co  Co158  1  0.77958880  0.58627801  0.20847159  1
  Co  Co159  1  0.22187826  0.37760646  0.90344714  1
  Co  Co160  1  0.58502838  0.30317876  0.76189810  1
  Co  Co161  1  0.30191405  0.42023601  0.21587654  1
  Ni  Ni162  1  0.31429211  0.00857747  0.65885469  1
  Ni  Ni163  1  0.84743757  0.56366291  0.06177946  1
  Ni  Ni164  1  0.83309878  0.28939960  0.92184127  1
  Ni  Ni165  1  0.52267304  0.21278609  0.65216585  1
  Ni  Ni166  1  -0.01460864  0.22863646  -0.04308096  1
  Ni  Ni167  1  0.15186200  0.60598767  0.37325222  1
  Ni  Ni168  1  0.58329205  0.38719263  0.89895727  1
  Ni  Ni169  1  0.90109827  0.77753883  0.34187612  1
  Ni  Ni170  1  0.25893971  0.05579238  0.25657369  1
  Ni  Ni171  1  0.43531260  0.89715022  0.68883039  1
  Ni  Ni172  1  0.34826178  -0.00793152  -0.01101567  1
  Ni  Ni173  1  0.49618286  0.19451664  0.34968439  1
  Ni  Ni174  1  0.17762055  0.85906992  0.26674672  1
  Ni  Ni175  1  -0.03243620  0.68662028  0.60320712  1
  Ni  Ni176  1  0.42645230  0.34393876  0.74692239  1
  Ni  Ni177  1  0.86994589  0.10969328  -0.07277232  1
  Ni  Ni178  1  0.55513561  0.05650796  0.90071434  1
  Ni  Ni179  1  0.06362985  0.42092695  0.12118499  1
  Ni  Ni180  1  0.05255434  0.75449146  0.83414216  1
  Ni  Ni181  1  0.21370354  0.59966228  0.09414633  1
  Ni  Ni182  1  0.23689478  0.04078194  0.87763302  1
  Ni  Ni183  1  0.63091251  0.09611741  0.56585536  1
  Ni  Ni184  1  0.35318514  0.75180958  0.70667896  1
  Ni  Ni185  1  0.42977453  0.19917512  0.51077043  1
  Ni  Ni186  1  0.57195878  0.80351318  0.33022352  1
  Ni  Ni187  1  0.65929151  0.53670136  0.87540557  1
  Ni  Ni188  1  0.79080202  0.18230332  0.64595851  1
  Ni  Ni189  1  0.81650981  0.74824431  0.63933801  1
  Ni  Ni190  1  0.59990433  0.69038751  -0.10741141  1
  Ni  Ni191  1  0.70776663  0.62105291  0.58921963  1
  Ni  Ni192  1  0.92425633  -0.02129601  0.50014031  1
  Ni  Ni193  1  0.54691993  -0.09073100  0.19187990  1
  Ni  Ni194  1  0.31999242  -0.08084088  0.33870745  1
  Ni  Ni195  1  0.71330279  0.80421364  0.13332476  1
  Ni  Ni196  1  0.81710294  0.22008528  0.31618890  1
  Ni  Ni197  1  0.34581921  0.18276280  0.17283067  1
  Ni  Ni198  1  0.54052695  0.53186974  0.39597771  1
  Ni  Ni199  1  0.16338106  0.53140849  0.82806795  1
  Ni  Ni200  1  0.66250612  -0.04598110  0.08042857  1
  Ni  Ni201  1  0.51072857  0.06613646  0.45633632  1
  Ni  Ni202  1  0.59752275  -0.04801321  0.66280105  1
  Ni  Ni203  1  0.41792804  0.79457707  0.42606005  1
  Ni  Ni204  1  0.30222116  0.24917028  0.81811174  1
  Ni  Ni205  1  0.45236690  0.69186655  0.96884656  1
  Ni  Ni206  1  0.79413072  0.47110085  0.64949966  1
  Ni  Ni207  1  -0.05897385  0.25629377  0.43680647  1
  Ni  Ni208  1  0.01419585  0.82008013  0.21470235  1
  Ni  Ni209  1  0.65012885  0.96157740  0.45471970  1
  Ni  Ni210  1  0.06572989  0.84279027  -0.01862348  1
  Ni  Ni211  1  0.18437886  0.80043327  0.67853839  1
  Ni  Ni212  1  0.70133925  0.18165292  0.20000018  1
  Ni  Ni213  1  -0.02928673  0.31587982  0.68734332  1
  Ni  Ni214  1  0.06682535  0.29148373  0.29638662  1
