# generated using pymatgen
data_Ti108Co54Ni53
_symmetry_space_group_name_H-M   'P 1'
_cell_length_a   14.67880196
_cell_length_b   14.68721409
_cell_length_c   14.64459633
_cell_angle_alpha   89.99526215
_cell_angle_beta   89.68016423
_cell_angle_gamma   90.03481976
_symmetry_Int_Tables_number   1
_chemical_formula_structural   Ti108Co54Ni53
_chemical_formula_sum   'Ti108 Co54 Ni53'
_cell_volume   3157.18908990
_cell_formula_units_Z   1
loop_
 _symmetry_equiv_pos_site_id
 _symmetry_equiv_pos_as_xyz
  1  'x, y, z'
loop_
 _atom_site_type_symbol
 _atom_site_label
 _atom_site_symmetry_multiplicity
 _atom_site_fract_x
 _atom_site_fract_y
 _atom_site_fract_z
 _atom_site_occupancy
  Ti  Ti0  1  0.12506604  0.11759547  0.27681043  1
  Ti  Ti1  1  0.04104605  0.10056425  0.56802302  1
  Ti  Ti2  1  0.05479961  0.00495472  0.92557083  1
  Ti  Ti3  1  0.10656852  0.42031019  0.27125660  1
  Ti  Ti4  1  0.12143585  0.44136217  0.60507940  1
  Ti  Ti5  1  0.02326528  0.44682426  0.91681613  1
  Ti  Ti6  1  0.05852360  0.65827317  0.28541526  1
  Ti  Ti7  1  0.09259420  0.75722255  0.59032283  1
  Ti  Ti8  1  0.06605507  0.78304733  0.94443853  1
  Ti  Ti9  1  0.39648774  0.13053883  0.24466269  1
  Ti  Ti10  1  0.41085231  0.11737970  0.62067374  1
  Ti  Ti11  1  0.33034500  0.12815631  0.91927042  1
  Ti  Ti12  1  0.49811242  0.42751177  0.22586084  1
  Ti  Ti13  1  0.37520961  0.46736634  0.65901888  1
  Ti  Ti14  1  0.40910261  0.42487797  0.88747825  1
  Ti  Ti15  1  0.41802353  0.74195180  0.31121964  1
  Ti  Ti16  1  0.50104850  0.74074150  0.63381483  1
  Ti  Ti17  1  0.41250737  0.79072358  0.81209577  1
  Ti  Ti18  1  0.75383670  0.09816636  0.24052866  1
  Ti  Ti19  1  0.76992769  0.02346582  0.58166547  1
  Ti  Ti20  1  0.78354338  0.12386252  0.88233350  1
  Ti  Ti21  1  0.69145585  0.46058637  0.21091905  1
  Ti  Ti22  1  0.76811434  0.36564247  0.50317515  1
  Ti  Ti23  1  0.74973403  0.39981670  0.96214171  1
  Ti  Ti24  1  0.75351329  0.72211546  0.31938081  1
  Ti  Ti25  1  0.73302591  0.75998829  0.64354363  1
  Ti  Ti26  1  0.72126862  0.71745979  0.95004789  1
  Ti  Ti27  1  0.13486413  0.31234987  0.04845348  1
  Ti  Ti28  1  0.04238799  0.24939343  0.39519621  1
  Ti  Ti29  1  0.05360431  0.31658956  0.73898837  1
  Ti  Ti30  1  0.08673105  0.53512132  0.10207677  1
  Ti  Ti31  1  0.10085131  0.54840423  0.43366073  1
  Ti  Ti32  1  0.13359704  0.61917313  0.84140941  1
  Ti  Ti33  1  0.01325516  0.85717342  0.12348105  1
  Ti  Ti34  1  0.03608397  0.87174338  0.42054600  1
  Ti  Ti35  1  0.03060824  0.91064400  0.74735161  1
  Ti  Ti36  1  0.36742778  0.34186175  0.06556634  1
  Ti  Ti37  1  0.40680032  0.20683192  0.45336961  1
  Ti  Ti38  1  0.45039436  0.23163845  0.79250701  1
  Ti  Ti39  1  0.37866843  0.52879671  0.08237015  1
  Ti  Ti40  1  0.39930620  0.53584463  0.37128373  1
  Ti  Ti41  1  0.43896897  0.60562534  0.79283522  1
  Ti  Ti42  1  0.40673899  0.85595716  0.14014928  1
  Ti  Ti43  1  0.38684872  0.85411423  0.49420362  1
  Ti  Ti44  1  0.40221260  0.98291346  0.76399580  1
  Ti  Ti45  1  0.79332516  0.19985129  0.05337671  1
  Ti  Ti46  1  0.70784994  0.24422518  0.37481943  1
  Ti  Ti47  1  0.74013288  0.20419934  0.69630722  1
  Ti  Ti48  1  0.73131923  0.56476526  0.05218950  1
  Ti  Ti49  1  0.78224412  0.56141800  0.49742081  1
  Ti  Ti50  1  0.71389111  0.52083966  0.70002969  1
  Ti  Ti51  1  0.78035389  0.97136530  0.01310933  1
  Ti  Ti52  1  0.77260370  0.92127514  0.38470993  1
  Ti  Ti53  1  0.73292949  0.97279877  0.80903526  1
  Ti  Ti54  1  0.20128627  0.11741883  0.09929791  1
  Ti  Ti55  1  0.31585712  0.03255857  0.40953787  1
  Ti  Ti56  1  0.21010173  0.03119233  0.70870446  1
  Ti  Ti57  1  0.22464300  0.46706823  -0.04673501  1
  Ti  Ti58  1  0.31140397  0.35615297  0.37960593  1
  Ti  Ti59  1  0.26092093  0.34813016  0.76322778  1
  Ti  Ti60  1  0.22745869  0.80049245  0.06660159  1
  Ti  Ti61  1  0.23913219  0.82913603  0.37908578  1
  Ti  Ti62  1  0.25647924  0.71188062  0.71632297  1
  Ti  Ti63  1  0.49499291  0.08838858  0.04902884  1
  Ti  Ti64  1  0.59453535  0.10102796  0.53213520  1
  Ti  Ti65  1  0.58570476  0.05692225  0.73856551  1
  Ti  Ti66  1  0.55791229  0.40763506  0.03606928  1
  Ti  Ti67  1  0.62185051  0.45060334  0.39348257  1
  Ti  Ti68  1  0.55370165  0.38468534  0.70294078  1
  Ti  Ti69  1  0.51761993  0.69937995  0.07921176  1
  Ti  Ti70  1  0.58959709  0.75938486  0.46517918  1
  Ti  Ti71  1  0.61844566  0.67972083  0.77154248  1
  Ti  Ti72  1  1.01524139  0.05192277  0.11599642  1
  Ti  Ti73  1  0.86436791  0.11662462  0.41639002  1
  Ti  Ti74  1  0.92010799  0.16982425  0.74363188  1
  Ti  Ti75  1  0.83988517  0.38596498  0.13920421  1
  Ti  Ti76  1  0.92715743  0.45466581  0.41066065  1
  Ti  Ti77  1  0.86064425  0.38941582  0.77708519  1
  Ti  Ti78  1  0.92458179  0.67754544  0.09630265  1
  Ti  Ti79  1  0.95938250  0.67111334  0.48756579  1
  Ti  Ti80  1  0.96966020  0.73478174  0.74243726  1
  Ti  Ti81  1  0.24639850  0.28037161  0.21157296  1
  Ti  Ti82  1  0.25653239  0.27859847  0.56881612  1
  Ti  Ti83  1  0.16025837  0.17822671  0.85050894  1
  Ti  Ti84  1  0.24622424  0.60683620  0.21582928  1
  Ti  Ti85  1  0.25716942  0.61087786  0.52004497  1
  Ti  Ti86  1  0.33720174  0.64795200  0.94261019  1
  Ti  Ti87  1  0.26838072  0.95985797  0.22131793  1
  Ti  Ti88  1  0.18845267  0.95349630  0.52708387  1
  Ti  Ti89  1  0.33791375  0.92915720  0.94641678  1
  Ti  Ti90  1  0.59831896  0.25640232  0.23166951  1
  Ti  Ti91  1  0.57457689  0.30007935  0.52137441  1
  Ti  Ti92  1  0.62208038  0.23370841  0.97105983  1
  Ti  Ti93  1  0.58682844  0.61739987  0.27876534  1
  Ti  Ti94  1  0.50587625  0.57531327  0.52101926  1
  Ti  Ti95  1  0.59867966  0.50749111  0.86166748  1
  Ti  Ti96  1  0.56127990  1.01836829  0.32645104  1
  Ti  Ti97  1  0.52071973  0.93343999  0.59680890  1
  Ti  Ti98  1  0.55164664  0.90651342  0.91664595  1
  Ti  Ti99  1  0.95843965  0.22604438  0.12143540  1
  Ti  Ti100  1  0.94780784  0.32471430  0.57568294  1
  Ti  Ti101  1  0.97348826  0.23173252  0.90943008  1
  Ti  Ti102  1  0.92664182  0.51884346  0.23072818  1
  Ti  Ti103  1  0.88422525  0.60656618  0.65317120  1
  Ti  Ti104  1  0.91402409  0.58729102  0.85641299  1
  Ti  Ti105  1  0.93957160  0.97424098  0.28528130  1
  Ti  Ti106  1  0.89470475  0.84029349  0.57206333  1
  Ti  Ti107  1  0.87628684  0.82271700  0.88856758  1
  Co  Co108  1  -0.06445648  -0.07387396  0.00055900  1
  Co  Co109  1  0.53739559  0.55111072  0.68220649  1
  Co  Co110  1  0.88829948  0.81488493  0.39388275  1
  Co  Co111  1  0.45143519  0.24167909  -0.04283304  1
  Co  Co112  1  0.03802073  0.93180108  0.58948124  1
  Co  Co113  1  0.54832132  0.34749763  0.87398386  1
  Co  Co114  1  0.91214857  -0.02542333  0.48309474  1
  Co  Co115  1  0.29978119  0.29127147  -0.08881809  1
  Co  Co116  1  0.12120177  0.77626198  0.78600857  1
  Co  Co117  1  0.71041104  0.35116418  0.65001980  1
  Co  Co118  1  0.80745264  0.27039418  0.87349841  1
  Co  Co119  1  0.39617329  -0.09111836  0.31524811  1
  Co  Co120  1  0.37838509  0.64083231  0.63513706  1
  Co  Co121  1  0.23184070  0.54635341  0.67058729  1
  Co  Co122  1  0.50879854  0.25013357  0.10843571  1
  Co  Co123  1  0.62472017  0.46341691  0.55788203  1
  Co  Co124  1  0.07974369  0.15521508  0.00266325  1
  Co  Co125  1  0.73465345  0.19503028  0.52862070  1
  Co  Co126  1  0.34096773  -0.02538381  0.59712516  1
  Co  Co127  1  0.09597544  0.27092376  0.55512685  1
  Co  Co128  1  0.08046922  0.26352674  0.21694246  1
  Co  Co129  1  0.25246625  0.11739745  0.55850017  1
  Co  Co130  1  0.26701851  0.77842978  0.22801245  1
  Co  Co131  1  0.68107805  0.31787406  0.10801558  1
  Co  Co132  1  0.35123800  0.69472403  0.11470524  1
  Co  Co133  1  0.43459546  0.59279303  0.22052446  1
  Co  Co134  1  0.13716374  0.33327162  0.88602364  1
  Co  Co135  1  0.23579713  0.50267262  0.35949645  1
  Co  Co136  1  -0.02290772  0.51041657  0.55384004  1
  Co  Co137  1  0.87962058  0.27607658  0.41796831  1
  Co  Co138  1  0.64966724  0.61704945  0.42670414  1
  Co  Co139  1  0.46028978  0.03496851  0.46436268  1
  Co  Co140  1  0.40082141  0.69423958  0.46979808  1
  Co  Co141  1  0.85835094  0.04869405  0.13544252  1
  Co  Co142  1  -0.01604193  0.47742231  0.72598603  1
  Co  Co143  1  0.19229238  0.63575996  0.01058253  1
  Co  Co144  1  0.40841635  0.79243086  -0.01608786  1
  Co  Co145  1  0.94339201  0.14860164  0.26830667  1
  Co  Co146  1  0.26556525  0.66855836  0.36556306  1
  Co  Co147  1  0.12343751  0.72154361  0.43267160  1
  Co  Co148  1  0.00656241  0.39762214  0.11972804  1
  Co  Co149  1  0.91532362  0.09273853  -0.01704219  1
  Co  Co150  1  0.64746602  0.63517708  0.59197996  1
  Co  Co151  1  0.25551248  0.76824007  0.54497615  1
  Co  Co152  1  0.11048675  -0.03682130  0.20525434  1
  Co  Co153  1  0.76194254  0.54472787  0.33477424  1
  Co  Co154  1  0.23934034  0.76705407  0.90432568  1
  Co  Co155  1  0.84255839  0.80013897  0.04607294  1
  Co  Co156  1  0.52165330  0.89025464  0.41280051  1
  Co  Co157  1  0.18482737  0.86880181  0.65996655  1
  Co  Co158  1  0.84802822  0.44676781  0.62260234  1
  Co  Co159  1  0.40771118  0.28696464  0.24466341  1
  Co  Co160  1  0.02455515  0.06862115  0.40125291  1
  Co  Co161  1  0.79865161  0.25162754  0.23034439  1
  Ni  Ni162  1  0.21168367  0.01375477  0.87652852  1
  Ni  Ni163  1  0.02834872  0.62147459  -0.02671579  1
  Ni  Ni164  1  0.75514914  0.55391895  -0.12652990  1
  Ni  Ni165  1  0.35365881  0.18505052  0.08789708  1
  Ni  Ni166  1  0.07109735  0.60663950  0.65757595  1
  Ni  Ni167  1  0.13767912  0.46333844  0.78039247  1
  Ni  Ni168  1  0.64680576  0.13517455  0.11003623  1
  Ni  Ni169  1  0.48885724  0.07875338  0.87900403  1
  Ni  Ni170  1  0.69890640  0.07254089  0.41061127  1
  Ni  Ni171  1  0.14501745  0.18578461  0.67942183  1
  Ni  Ni172  1  0.84271909  0.86955592  0.72839530  1
  Ni  Ni173  1  0.79096888  0.38803941  0.32793004  1
  Ni  Ni174  1  -0.05576936  0.33967359  0.27410497  1
  Ni  Ni175  1  0.88248190  0.16661817  0.58301298  1
  Ni  Ni176  1  0.14606104  0.37991359  0.44041428  1
  Ni  Ni177  1  0.33392944  0.44262301  0.23304468  1
  Ni  Ni178  1  0.69390227  0.36887557  0.80912544  1
  Ni  Ni179  1  0.90162590  -0.00124025  0.83816356  1
  Ni  Ni180  1  0.27064744  0.19160761  0.35997767  1
  Ni  Ni181  1  0.54299024  0.72740757  0.91083633  1
  Ni  Ni182  1  0.41422446  0.29252205  0.63505562  1
  Ni  Ni183  1  0.26744757  0.88124614  0.79247506  1
  Ni  Ni184  1  0.30155546  0.18335980  0.72940798  1
  Ni  Ni185  1  0.54935275  0.86558138  0.75547988  1
  Ni  Ni186  1  0.04893360  0.07387828  0.76337485  1
  Ni  Ni187  1  0.22322587  0.44055153  0.12045350  1
  Ni  Ni188  1  -0.08837592  0.01511248  0.66483234  1
  Ni  Ni189  1  0.45128956  0.41158671  0.51440801  1
  Ni  Ni190  1  -0.09385568  0.35418395  -0.01276004  1
  Ni  Ni191  1  0.77981798  0.73079420  0.48671080  1
  Ni  Ni192  1  0.79901760  0.62047432  0.19308657  1
  Ni  Ni193  1  0.90422715  0.51803003  0.03511131  1
  Ni  Ni194  1  0.66116662  0.91310685  0.50180865  1
  Ni  Ni195  1  0.49938165  0.33606406  0.37260845  1
  Ni  Ni196  1  0.62353835  0.20092562  0.81505421  1
  Ni  Ni197  1  0.67728692  -0.08815800  0.66459637  1
  Ni  Ni198  1  0.33978491  0.01848609  0.08281313  1
  Ni  Ni199  1  0.10411268  0.81586810  0.27070201  1
  Ni  Ni200  1  0.57072833  0.55016849  0.12009432  1
  Ni  Ni201  1  0.17535632  0.95980440  0.04507294  1
  Ni  Ni202  1  0.46850915  -0.00498519  0.19108374  1
  Ni  Ni203  1  -0.10501081  0.64049490  0.34494429  1
  Ni  Ni204  1  0.64006912  0.05461445  -0.05629656  1
  Ni  Ni205  1  0.56232324  0.21032363  0.66009405  1
  Ni  Ni206  1  -0.07009309  0.77318920  0.24372587  1
  Ni  Ni207  1  0.29260487  0.52965486  0.81554283  1
  Ni  Ni208  1  0.15579316  -0.02283199  0.36037193  1
  Ni  Ni209  1  0.69620208  0.81891947  0.81837066  1
  Ni  Ni210  1  0.49685860  0.57065452  -0.03125499  1
  Ni  Ni211  1  0.09718253  0.70835650  0.12603461  1
  Ni  Ni212  1  0.80207674  0.69457824  0.78894420  1
  Ni  Ni213  1  0.28152057  0.44769681  0.51825449  1
  Ni  Ni214  1  0.54583906  0.17678302  0.37341701  1
