# generated using pymatgen
data_Ti108Co54Ni53
_symmetry_space_group_name_H-M   'P 1'
_cell_length_a   14.60783725
_cell_length_b   14.69950119
_cell_length_c   14.59122401
_cell_angle_alpha   90.15819307
_cell_angle_beta   90.05927958
_cell_angle_gamma   90.10540882
_symmetry_Int_Tables_number   1
_chemical_formula_structural   Ti108Co54Ni53
_chemical_formula_sum   'Ti108 Co54 Ni53'
_cell_volume   3133.12425836
_cell_formula_units_Z   1
loop_
 _symmetry_equiv_pos_site_id
 _symmetry_equiv_pos_as_xyz
  1  'x, y, z'
loop_
 _atom_site_type_symbol
 _atom_site_label
 _atom_site_symmetry_multiplicity
 _atom_site_fract_x
 _atom_site_fract_y
 _atom_site_fract_z
 _atom_site_occupancy
  Ti  Ti0  1  0.02640277  0.03140205  0.23376363  1
  Ti  Ti1  1  -0.01029556  0.13690870  0.53569243  1
  Ti  Ti2  1  0.14185483  0.04077052  0.91367309  1
  Ti  Ti3  1  0.15285404  0.37434854  0.26197872  1
  Ti  Ti4  1  0.07374716  0.45926863  0.53945951  1
  Ti  Ti5  1  0.13921327  0.41555890  0.95693857  1
  Ti  Ti6  1  0.11354147  0.74749598  0.19527167  1
  Ti  Ti7  1  0.11220515  0.75321613  0.61215784  1
  Ti  Ti8  1  0.09688183  0.62523419  0.97928099  1
  Ti  Ti9  1  0.47645241  -0.00075901  0.29872420  1
  Ti  Ti10  1  0.38557463  0.02361094  0.53786109  1
  Ti  Ti11  1  0.41657351  0.06580152  0.88030993  1
  Ti  Ti12  1  0.43651933  0.41297749  0.30139906  1
  Ti  Ti13  1  0.38051354  0.40967951  0.60075895  1
  Ti  Ti14  1  0.42797068  0.39849238  0.98400983  1
  Ti  Ti15  1  0.30207213  0.77622430  0.29405656  1
  Ti  Ti16  1  0.36567169  0.81001261  0.61105219  1
  Ti  Ti17  1  0.44042426  0.72984701  0.92170404  1
  Ti  Ti18  1  0.72484223  0.05406391  0.22281503  1
  Ti  Ti19  1  0.69290889  0.18420112  0.63155900  1
  Ti  Ti20  1  0.72372043  0.14390561  0.92378998  1
  Ti  Ti21  1  0.75568561  0.50470269  0.23603759  1
  Ti  Ti22  1  0.74900488  0.43520833  0.68772224  1
  Ti  Ti23  1  0.76272372  0.43613664  0.89654337  1
  Ti  Ti24  1  0.78367482  0.75120307  0.21091818  1
  Ti  Ti25  1  0.70422885  0.72893806  0.53860534  1
  Ti  Ti26  1  0.71893892  0.81974235  0.87377448  1
  Ti  Ti27  1  0.04238592  0.34806812  0.09760969  1
  Ti  Ti28  1  0.10778856  0.21847261  0.39247745  1
  Ti  Ti29  1  0.07058903  0.19792758  0.76253773  1
  Ti  Ti30  1  0.11776593  0.52689504  0.13613243  1
  Ti  Ti31  1  0.09468171  0.54550538  0.35584696  1
  Ti  Ti32  1  0.14580382  0.53102094  0.70975897  1
  Ti  Ti33  1  0.16989983  0.92709728  0.09250506  1
  Ti  Ti34  1  0.06843227  0.98985851  0.43239588  1
  Ti  Ti35  1  0.09976949  0.95565230  0.63051185  1
  Ti  Ti36  1  0.42824803  0.22522314  0.09175685  1
  Ti  Ti37  1  0.43290784  0.24379592  0.40899819  1
  Ti  Ti38  1  0.42173767  0.28792034  0.78134454  1
  Ti  Ti39  1  0.38591540  0.60325206  0.05841878  1
  Ti  Ti40  1  0.38764940  0.60039436  0.39451024  1
  Ti  Ti41  1  0.44880326  0.58871233  0.71880512  1
  Ti  Ti42  1  0.43379440  0.99446117  0.07712506  1
  Ti  Ti43  1  0.48571454  0.86956237  0.46115178  1
  Ti  Ti44  1  0.40408194  0.92838462  0.74501353  1
  Ti  Ti45  1  0.81744256  0.19523289  0.08671953  1
  Ti  Ti46  1  0.80446884  0.24902610  0.49011421  1
  Ti  Ti47  1  0.76317750  0.27300767  0.79473840  1
  Ti  Ti48  1  0.66992279  0.61918222  0.08458446  1
  Ti  Ti49  1  0.72472016  0.55958459  0.42674207  1
  Ti  Ti50  1  0.72038779  0.62943513  0.88077623  1
  Ti  Ti51  1  0.69316543  0.85912217  0.06866123  1
  Ti  Ti52  1  0.78096383  0.88214042  0.39478768  1
  Ti  Ti53  1  0.74721773  0.92856273  0.72199049  1
  Ti  Ti54  1  0.26818460  0.13432024  0.02911573  1
  Ti  Ti55  1  0.30987060  0.09027381  0.37943850  1
  Ti  Ti56  1  0.32552384  0.11683223  0.69005446  1
  Ti  Ti57  1  0.29405652  0.39410079  0.13106189  1
  Ti  Ti58  1  0.23686771  0.34313624  0.46848112  1
  Ti  Ti59  1  0.19929754  0.35412361  0.79221693  1
  Ti  Ti60  1  0.33273400  0.81144002  0.06551183  1
  Ti  Ti61  1  0.12955880  0.79146504  0.40429915  1
  Ti  Ti62  1  0.26554744  0.67711678  0.74757580  1
  Ti  Ti63  1  0.62649109  0.20470018  0.08932773  1
  Ti  Ti64  1  0.56946521  0.07405091  0.48682338  1
  Ti  Ti65  1  0.57556447  0.14756969  0.79454159  1
  Ti  Ti66  1  0.62661794  0.41742291  0.05802164  1
  Ti  Ti67  1  0.66773991  0.37271126  0.39321581  1
  Ti  Ti68  1  0.54956582  0.42702667  0.65843615  1
  Ti  Ti69  1  0.51761685  0.74741118  0.12045958  1
  Ti  Ti70  1  0.55646244  0.68744854  0.41673348  1
  Ti  Ti71  1  0.57713817  0.81169968  0.68948644  1
  Ti  Ti72  1  1.03591421  0.16170765  0.06256553  1
  Ti  Ti73  1  0.86494950  0.05911573  0.39360677  1
  Ti  Ti74  1  0.86548886  0.10462267  0.79161951  1
  Ti  Ti75  1  0.86653586  0.38138858  0.13225636  1
  Ti  Ti76  1  0.88873778  0.42842256  0.37426756  1
  Ti  Ti77  1  0.93788765  0.48574201  0.68000267  1
  Ti  Ti78  1  0.94147963  0.72903388  0.05471478  1
  Ti  Ti79  1  0.89407137  0.74646712  0.44954734  1
  Ti  Ti80  1  0.88611199  0.69964629  0.66922509  1
  Ti  Ti81  1  0.26298017  0.20093255  0.22558638  1
  Ti  Ti82  1  0.16484217  0.20698173  0.60704120  1
  Ti  Ti83  1  0.25869210  0.18462899  0.84592938  1
  Ti  Ti84  1  0.25285399  0.58910907  0.23989471  1
  Ti  Ti85  1  0.24876687  0.55393135  0.53083668  1
  Ti  Ti86  1  0.34019334  0.54007493  0.88086720  1
  Ti  Ti87  1  0.20997304  0.94778452  0.28175199  1
  Ti  Ti88  1  0.23846242  0.89404040  0.50384460  1
  Ti  Ti89  1  0.25366238  0.83868762  0.87821075  1
  Ti  Ti90  1  0.55952756  0.27393454  0.25287227  1
  Ti  Ti91  1  0.48871285  0.23377894  0.59942112  1
  Ti  Ti92  1  0.58243845  0.30415683  0.90754588  1
  Ti  Ti93  1  0.53525428  0.59495404  0.24790612  1
  Ti  Ti94  1  0.63776145  0.60717357  0.67071296  1
  Ti  Ti95  1  0.54352838  0.55369959  0.92637583  1
  Ti  Ti96  1  0.62215414  0.89972600  0.23565520  1
  Ti  Ti97  1  0.66989964  0.91633131  0.53725596  1
  Ti  Ti98  1  0.60961182  0.98126051  0.92972439  1
  Ti  Ti99  1  0.88558884  0.17835728  0.25826015  1
  Ti  Ti100  1  0.91494258  0.28428083  0.66368131  1
  Ti  Ti101  1  0.89832286  0.27170602  0.93334156  1
  Ti  Ti102  1  0.96834029  0.62534477  0.21945539  1
  Ti  Ti103  1  0.93051244  0.57256617  0.49612902  1
  Ti  Ti104  1  0.91266873  0.57167048  0.90457350  1
  Ti  Ti105  1  0.86384802  0.91984332  0.21478587  1
  Ti  Ti106  1  0.88750659  0.97222072  0.56656543  1
  Ti  Ti107  1  0.87429343  0.91653704  1.00723076  1
  Co  Co108  1  0.73787969  0.30521678  -0.00858772  1
  Co  Co109  1  0.01871407  0.69141708  0.36239888  1
  Co  Co110  1  0.78707892  0.73546832  0.00926086  1
  Co  Co111  1  -0.05805552  -0.09461648  0.37669316  1
  Co  Co112  1  0.38053341  0.44049313  0.44731836  1
  Co  Co113  1  0.53073067  0.86901699  0.02006729  1
  Co  Co114  1  0.52417516  0.53305410  0.09764279  1
  Co  Co115  1  0.26457543  -0.02704391  0.64874738  1
  Co  Co116  1  0.30589291  0.27712890  0.66973288  1
  Co  Co117  1  0.18504671  0.55933565  0.86330552  1
  Co  Co118  1  0.18768826  0.27531694  0.09524956  1
  Co  Co119  1  0.41172629  -0.10051376  0.91308198  1
  Co  Co120  1  0.15910211  0.06758920  0.73597185  1
  Co  Co121  1  0.71685632  0.34750231  0.16449978  1
  Co  Co122  1  0.73122381  0.74136748  0.72664381  1
  Co  Co123  1  -0.04414721  0.42219248  -0.03450562  1
  Co  Co124  1  0.75105607  0.06327341  0.51485995  1
  Co  Co125  1  0.04122073  0.49037584  0.83219162  1
  Co  Co126  1  0.62089901  0.83624703  0.38577394  1
  Co  Co127  1  0.81501462  0.83247175  0.59473216  1
  Co  Co128  1  0.73061746  0.16133049  0.38078054  1
  Co  Co129  1  0.39217347  0.68358937  0.20340403  1
  Co  Co130  1  0.16129985  0.08080534  0.14363401  1
  Co  Co131  1  0.93470586  0.78063450  0.25742207  1
  Co  Co132  1  0.26892567  0.68615328  -0.06129382  1
  Co  Co133  1  0.39069360  0.51834591  0.19893771  1
  Co  Co134  1  0.25349228  0.48219441  0.35892581  1
  Co  Co135  1  0.64351965  0.49604727  0.54259311  1
  Co  Co136  1  0.52159176  0.37493595  0.49078755  1
  Co  Co137  1  0.22680504  0.83403581  0.70471450  1
  Co  Co138  1  0.15702129  0.09404042  0.31590137  1
  Co  Co139  1  0.28982241  -0.02591001  -0.01236841  1
  Co  Co140  1  0.06209190  0.36212644  0.69053296  1
  Co  Co141  1  0.55075735  0.83989991  0.85234044  1
  Co  Co142  1  0.30237248  0.32379337  0.32088739  1
  Co  Co143  1  0.51200119  -0.05871717  0.60642071  1
  Co  Co144  1  0.41984275  0.22203943  0.92774804  1
  Co  Co145  1  0.13471029  0.23418864  -0.05994338  1
  Co  Co146  1  0.06290968  0.87986731  0.27254865  1
  Co  Co147  1  0.35714250  0.64584978  0.59741165  1
  Co  Co148  1  0.80244012  0.32030112  0.30566854  1
  Co  Co149  1  0.80850707  0.57508739  0.76251740  1
  Co  Co150  1  0.36034871  0.75407538  0.45369103  1
  Co  Co151  1  0.71040592  0.20898081  0.23340435  1
  Co  Co152  1  0.88785793  0.40334586  0.80749428  1
  Co  Co153  1  0.48569731  0.09078237  0.67439045  1
  Co  Co154  1  0.84999522  0.13565498  0.62921308  1
  Co  Co155  1  0.87964828  0.08667270  -0.02949551  1
  Co  Co156  1  0.48109494  0.54550088  0.54844589  1
  Co  Co157  1  0.22597266  0.65502450  0.39760721  1
  Co  Co158  1  0.27655001  -0.00045852  0.82491694  1
  Co  Co159  1  0.47844765  0.37505164  0.13652305  1
  Co  Co160  1  0.66656543  -0.00125107  0.37699776  1
  Co  Co161  1  0.02820977  0.61479391  0.63839757  1
  Ni  Ni162  1  0.86270555  0.60997209  0.34062887  1
  Ni  Ni163  1  0.19601173  0.06869288  0.51496872  1
  Ni  Ni164  1  0.41421061  0.75907911  0.76639496  1
  Ni  Ni165  1  0.78017373  -0.01620782  0.88209521  1
  Ni  Ni166  1  0.62443141  0.73242382  0.24921340  1
  Ni  Ni167  1  0.35160848  -0.08330648  0.37997780  1
  Ni  Ni168  1  0.79346702  0.49765563  0.04041372  1
  Ni  Ni169  1  -0.02926521  0.31354661  0.25771797  1
  Ni  Ni170  1  0.00079143  0.85220245  0.52934696  1
  Ni  Ni171  1  0.57311749  0.68396623  0.80812036  1
  Ni  Ni172  1  0.85832430  0.72521851  0.84337428  1
  Ni  Ni173  1  0.54962263  0.51079157  0.39813144  1
  Ni  Ni174  1  0.60962025  0.30283103  0.73829736  1
  Ni  Ni175  1  0.50822360  0.71099415  0.57177617  1
  Ni  Ni176  1  0.02313671  0.00305171  0.03519947  1
  Ni  Ni177  1  -0.03788986  0.53965787  0.07165739  1
  Ni  Ni178  1  -0.00595934  0.06927797  0.68963745  1
  Ni  Ni179  1  0.54414321  0.12761221  -0.02627287  1
  Ni  Ni180  1  0.64179233  0.03623574  0.64859672  1
  Ni  Ni181  1  0.47668644  0.81118271  0.28790724  1
  Ni  Ni182  1  0.57911607  0.12670187  0.31689585  1
  Ni  Ni183  1  0.00619304  0.86594386  0.11968006  1
  Ni  Ni184  1  0.24201568  0.53193790  0.02598716  1
  Ni  Ni185  1  0.31966452  0.18883290  0.52364697  1
  Ni  Ni186  1  0.62804764  0.47291446  0.80730672  1
  Ni  Ni187  1  0.82809728  0.42079948  0.53867477  1
  Ni  Ni188  1  0.78900072  0.57699822  0.59048329  1
  Ni  Ni189  1  0.23259783  0.68405371  0.10122770  1
  Ni  Ni190  1  0.59349079  0.02489210  0.11270384  1
  Ni  Ni191  1  0.31529107  0.45823305  0.74214798  1
  Ni  Ni192  1  0.03609578  0.29781496  0.53643905  1
  Ni  Ni193  1  0.28469707  0.31150442  -0.03730456  1
  Ni  Ni194  1  0.35898042  0.91235218  0.20565508  1
  Ni  Ni195  1  0.89485101  0.05524579  0.13123198  1
  Ni  Ni196  1  0.73316536  0.71453205  0.36941967  1
  Ni  Ni197  1  0.67242035  0.33624092  0.56813586  1
  Ni  Ni198  1  0.60946112  0.72518421  -0.03073387  1
  Ni  Ni199  1  -0.06059863  0.24851360  0.40491359  1
  Ni  Ni200  1  0.46784567  0.44052287  0.81742524  1
  Ni  Ni201  1  0.13199733  0.78539511  0.01429470  1
  Ni  Ni202  1  0.82962346  0.62011692  0.13117483  1
  Ni  Ni203  1  0.04905144  0.38257598  0.39255247  1
  Ni  Ni204  1  0.60089097  0.44250886  0.24242002  1
  Ni  Ni205  1  0.56218212  0.97671431  0.77189113  1
  Ni  Ni206  1  0.09443169  0.63454579  0.49702257  1
  Ni  Ni207  1  0.59794357  0.23238263  0.45798633  1
  Ni  Ni208  1  0.74663079  0.02547280  0.04972211  1
  Ni  Ni209  1  0.42639622  0.15149932  0.24771105  1
  Ni  Ni210  1  0.03161358  0.33093509  0.85112374  1
  Ni  Ni211  1  0.00546052  0.13954938  0.89566433  1
  Ni  Ni212  1  0.08802258  0.21062006  0.21779420  1
  Ni  Ni213  1  0.20840351  0.39868864  0.62299972  1
  Ni  Ni214  1  -0.00564194  0.46505990  0.23302070  1
