# generated using pymatgen
data_Ti108Co54Ni53
_symmetry_space_group_name_H-M   'P 1'
_cell_length_a   14.60411352
_cell_length_b   14.66461263
_cell_length_c   14.70281067
_cell_angle_alpha   89.91481369
_cell_angle_beta   90.06640606
_cell_angle_gamma   89.86343473
_symmetry_Int_Tables_number   1
_chemical_formula_structural   Ti108Co54Ni53
_chemical_formula_sum   'Ti108 Co54 Ni53'
_cell_volume   3148.79330233
_cell_formula_units_Z   1
loop_
 _symmetry_equiv_pos_site_id
 _symmetry_equiv_pos_as_xyz
  1  'x, y, z'
loop_
 _atom_site_type_symbol
 _atom_site_label
 _atom_site_symmetry_multiplicity
 _atom_site_fract_x
 _atom_site_fract_y
 _atom_site_fract_z
 _atom_site_occupancy
  Ti  Ti0  1  0.10059591  0.07915511  0.22309390  1
  Ti  Ti1  1  0.10505436  0.08128619  0.57745011  1
  Ti  Ti2  1  0.00737252  0.13221490  0.92212768  1
  Ti  Ti3  1  0.11625263  0.33940008  0.25908525  1
  Ti  Ti4  1  0.10202066  0.41098737  0.55900263  1
  Ti  Ti5  1  0.02884861  0.44170100  0.89656406  1
  Ti  Ti6  1  0.02882324  0.76662404  0.21777460  1
  Ti  Ti7  1  0.05403416  0.73414935  0.55643642  1
  Ti  Ti8  1  0.09391783  0.75354768  0.85560295  1
  Ti  Ti9  1  0.45063812  0.07733074  0.30235149  1
  Ti  Ti10  1  0.44200687  0.05689788  0.62858862  1
  Ti  Ti11  1  0.42000040  0.09990453  0.96950790  1
  Ti  Ti12  1  0.42420245  0.39572606  0.34421841  1
  Ti  Ti13  1  0.48454157  0.39725953  0.53347036  1
  Ti  Ti14  1  0.39074350  0.32925143  0.88643030  1
  Ti  Ti15  1  0.37475188  0.78597592  0.31725744  1
  Ti  Ti16  1  0.36819041  0.67799363  0.55677046  1
  Ti  Ti17  1  0.44348795  0.80346546  0.84475872  1
  Ti  Ti18  1  0.79329763  0.06041384  0.30327776  1
  Ti  Ti19  1  0.77686492  0.03632805  0.55202700  1
  Ti  Ti20  1  0.75059928  0.13048324  0.96375468  1
  Ti  Ti21  1  0.67568005  0.43700343  0.22410612  1
  Ti  Ti22  1  0.76171424  0.41326565  0.56583732  1
  Ti  Ti23  1  0.70907085  0.47068879  0.92797354  1
  Ti  Ti24  1  0.83340283  0.73205518  0.15727220  1
  Ti  Ti25  1  0.71217670  0.71489432  0.61104591  1
  Ti  Ti26  1  0.74440996  0.72807344  0.94964852  1
  Ti  Ti27  1  0.02858833  0.20744767  0.11578025  1
  Ti  Ti28  1  0.03440028  0.24652690  0.44569265  1
  Ti  Ti29  1  0.06808288  0.26035535  0.81204733  1
  Ti  Ti30  1  0.13409160  0.61496734  0.07983515  1
  Ti  Ti31  1  0.02111103  0.53619406  0.45833629  1
  Ti  Ti32  1  0.12034753  0.52735981  0.76158728  1
  Ti  Ti33  1  0.16137738  0.91773943  0.11847525  1
  Ti  Ti34  1  0.02997771  0.86086544  0.38968638  1
  Ti  Ti35  1  0.08894065  0.96729712  0.80571961  1
  Ti  Ti36  1  0.45559072  0.22531478  0.11026116  1
  Ti  Ti37  1  0.47910886  0.20104327  0.44738806  1
  Ti  Ti38  1  0.35800320  0.22687273  0.70404698  1
  Ti  Ti39  1  0.45762048  0.63927273  0.05962688  1
  Ti  Ti40  1  0.46183971  0.57263570  0.43037017  1
  Ti  Ti41  1  0.44191189  0.60131419  0.73992341  1
  Ti  Ti42  1  0.47408637  0.91987716  0.04785017  1
  Ti  Ti43  1  0.37681174  0.97311496  0.47094898  1
  Ti  Ti44  1  0.54281733  0.90827164  0.71459269  1
  Ti  Ti45  1  0.76798712  0.26539793  0.13933795  1
  Ti  Ti46  1  0.75276166  0.29486033  0.36727044  1
  Ti  Ti47  1  0.70676267  0.26797466  0.76062979  1
  Ti  Ti48  1  0.70400492  0.59496666  0.08668021  1
  Ti  Ti49  1  0.73135616  0.61005577  0.31386099  1
  Ti  Ti50  1  0.77312125  0.61056965  0.79568745  1
  Ti  Ti51  1  0.71808437  0.94160488  0.05832178  1
  Ti  Ti52  1  0.68060707  0.91717358  0.42144539  1
  Ti  Ti53  1  0.73483290  0.95526598  0.73013813  1
  Ti  Ti54  1  0.24767482  0.10538059  0.07250300  1
  Ti  Ti55  1  0.24732559  0.10168225  0.40580115  1
  Ti  Ti56  1  0.24193443  0.05355234  0.73203871  1
  Ti  Ti57  1  0.16291541  0.36817851  0.06374874  1
  Ti  Ti58  1  0.27563639  0.47647761  0.45346510  1
  Ti  Ti59  1  0.21733317  0.35393464  0.73790262  1
  Ti  Ti60  1  0.26817431  0.76482847  0.05292386  1
  Ti  Ti61  1  0.23348143  0.79875257  0.47997447  1
  Ti  Ti62  1  0.27665998  0.74913761  0.72252880  1
  Ti  Ti63  1  0.58328669  0.04341599  0.14326728  1
  Ti  Ti64  1  0.66203923  0.13148537  0.42650496  1
  Ti  Ti65  1  0.55818860  0.09158574  0.78227836  1
  Ti  Ti66  1  0.60414523  0.36287900  0.06792350  1
  Ti  Ti67  1  0.63157764  0.46392111  0.41474682  1
  Ti  Ti68  1  0.55167853  0.43093290  0.75485728  1
  Ti  Ti69  1  0.61848387  0.78290051  0.09580972  1
  Ti  Ti70  1  0.58215666  0.71308855  0.42048302  1
  Ti  Ti71  1  0.61044598  0.74284206  0.77665177  1
  Ti  Ti72  1  0.90329931  0.02494835  0.04278105  1
  Ti  Ti73  1  1.01159081  0.05747643  0.39501087  1
  Ti  Ti74  1  0.88997132  0.06785575  0.79839880  1
  Ti  Ti75  1  0.95451014  0.41194792  0.12342653  1
  Ti  Ti76  1  0.83596790  0.47320860  0.38595573  1
  Ti  Ti77  1  0.89887270  0.46784677  0.73766078  1
  Ti  Ti78  1  0.98309625  0.72995212  0.01976717  1
  Ti  Ti79  1  0.87436528  0.82749180  0.50097920  1
  Ti  Ti80  1  0.92366712  0.72032440  0.70764907  1
  Ti  Ti81  1  0.30346415  0.21932311  0.24509836  1
  Ti  Ti82  1  0.20695391  0.25487566  0.54193318  1
  Ti  Ti83  1  0.25802245  0.18950743  0.87320605  1
  Ti  Ti84  1  0.20271767  0.61346457  0.27202763  1
  Ti  Ti85  1  0.18601529  0.60082703  0.58598533  1
  Ti  Ti86  1  0.25274082  0.61857225  0.88225846  1
  Ti  Ti87  1  0.19084911  0.91074981  0.30380969  1
  Ti  Ti88  1  0.17692342  0.89174742  0.63764571  1
  Ti  Ti89  1  0.30329921  0.93686343  0.88671705  1
  Ti  Ti90  1  0.61354347  0.20467225  0.24527588  1
  Ti  Ti91  1  0.63452887  0.16675776  0.61522060  1
  Ti  Ti92  1  0.57075817  0.21772211  0.92299211  1
  Ti  Ti93  1  0.55706029  0.65364120  0.23005265  1
  Ti  Ti94  1  0.60307583  0.53225755  0.59285982  1
  Ti  Ti95  1  0.56667028  0.57846593  0.90659468  1
  Ti  Ti96  1  0.57375895  0.84652367  0.26375141  1
  Ti  Ti97  1  0.52078494  0.84845204  0.54085938  1
  Ti  Ti98  1  0.63369352  0.90414400  0.89816107  1
  Ti  Ti99  1  0.93248457  0.23901004  0.28410822  1
  Ti  Ti100  1  0.92168685  0.27444208  0.62330100  1
  Ti  Ti101  1  0.86977621  0.32156794  0.95383601  1
  Ti  Ti102  1  0.96560822  0.58055827  0.27380254  1
  Ti  Ti103  1  0.87433830  0.63845282  0.49959813  1
  Ti  Ti104  1  0.88732571  0.55944437  0.95962596  1
  Ti  Ti105  1  0.84522594  0.86881622  0.31235737  1
  Ti  Ti106  1  0.94530445  0.97416892  0.63906621  1
  Ti  Ti107  1  0.97079774  0.89886973  0.92113197  1
  Co  Co108  1  0.06257143  0.60748247  -0.06730367  1
  Co  Co109  1  0.39827730  0.06548551  0.13651096  1
  Co  Co110  1  0.46180924  -0.06343929  0.21407469  1
  Co  Co111  1  0.41020995  0.65689332  0.90159094  1
  Co  Co112  1  0.58199227  0.33656699  0.33128470  1
  Co  Co113  1  0.04107012  0.90398051  0.54090659  1
  Co  Co114  1  0.41233352  0.78896165  -0.00007051  1
  Co  Co115  1  0.19148214  0.76090320  0.19321857  1
  Co  Co116  1  0.39136692  0.39613142  0.71359338  1
  Co  Co117  1  0.17762672  0.34023353  0.40739474  1
  Co  Co118  1  0.13745855  0.19079188  0.33297822  1
  Co  Co119  1  0.70911581  0.92909917  0.22179030  1
  Co  Co120  1  0.34622482  0.33056843  0.56541130  1
  Co  Co121  1  0.81297752  0.57066738  0.63410305  1
  Co  Co122  1  0.60632255  0.02526524  0.31362639  1
  Co  Co123  1  0.89933604  0.72864136  0.87998520  1
  Co  Co124  1  0.28403436  0.57995133  0.71701178  1
  Co  Co125  1  -0.03102865  0.60022648  0.80490655  1
  Co  Co126  1  0.30638716  -0.04457058  0.03772095  1
  Co  Co127  1  0.44527709  0.77049716  0.16188457  1
  Co  Co128  1  0.50146888  0.90135886  0.38830565  1
  Co  Co129  1  0.62137381  0.59410187  0.73782113  1
  Co  Co130  1  0.26933969  0.02108734  0.58075290  1
  Co  Co131  1  0.19431505  0.33997298  0.90603616  1
  Co  Co132  1  0.01102250  0.57792066  0.63107920  1
  Co  Co133  1  0.63024708  0.18666281  0.07422344  1
  Co  Co134  1  0.62657725  0.34414227  0.63512779  1
  Co  Co135  1  0.87246983  0.71308018  0.32916640  1
  Co  Co136  1  0.31701871  0.65496529  0.39672632  1
  Co  Co137  1  0.56760932  0.52169402  0.10512469  1
  Co  Co138  1  0.61006621  0.00958703  0.61500967  1
  Co  Co139  1  0.11610551  0.68420705  0.71249029  1
  Co  Co140  1  0.31673128  0.88111398  0.17861786  1
  Co  Co141  1  0.54198472  0.50881316  0.28503888  1
  Co  Co142  1  -0.09421639  0.89236311  0.77929715  1
  Co  Co143  1  0.50353413  0.37762230  0.19290131  1
  Co  Co144  1  0.26338705  0.05667127  0.23389767  1
  Co  Co145  1  0.16385035  0.62271710  0.43622957  1
  Co  Co146  1  0.04345113  0.83593159  0.70962062  1
  Co  Co147  1  0.40392680  0.52149804  0.59244306  1
  Co  Co148  1  0.68228873  0.87023687  0.57603107  1
  Co  Co149  1  0.14956184  0.87747656  -0.03824194  1
  Co  Co150  1  0.88153435  -0.02039177  0.44603383  1
  Co  Co151  1  0.18417306  0.23139434  0.15177377  1
  Co  Co152  1  0.34522900  -0.04760558  0.32322414  1
  Co  Co153  1  0.45638258  0.24913158  0.28170883  1
  Co  Co154  1  0.03889374  0.10663077  0.73573679  1
  Co  Co155  1  0.53849857  0.03673177  0.47653587  1
  Co  Co156  1  0.16767727  0.75349058  0.34728694  1
  Co  Co157  1  0.58766918  0.04909362  -0.02984376  1
  Co  Co158  1  0.70917545  0.29978716  -0.04387416  1
  Co  Co159  1  0.14431157  0.19869701  -0.01353226  1
  Co  Co160  1  0.30441160  0.25863390  0.02454978  1
  Co  Co161  1  0.71502585  0.46066577  0.71554363  1
  Ni  Ni162  1  0.76901295  0.24155411  0.54248719  1
  Ni  Ni163  1  -0.06071451  0.12246245  0.55719197  1
  Ni  Ni164  1  0.80986712  0.14830671  0.67563328  1
  Ni  Ni165  1  0.38765859  0.08888423  0.80406250  1
  Ni  Ni166  1  0.85592344  0.16381744  0.42159016  1
  Ni  Ni167  1  0.16850220  -0.03711315  0.46085234  1
  Ni  Ni168  1  0.37133655  0.92972121  0.73227548  1
  Ni  Ni169  1  0.53624138  0.67663998  0.59024651  1
  Ni  Ni170  1  0.55132706  0.38640744  -0.08765628  1
  Ni  Ni171  1  0.02575405  0.30424832  -0.01801949  1
  Ni  Ni172  1  0.29298417  0.46009279  0.83671926  1
  Ni  Ni173  1  0.84516785  0.84131183  0.01852019  1
  Ni  Ni174  1  0.17412503  0.19522492  0.69537596  1
  Ni  Ni175  1  0.07071967  0.02892964  0.03425781  1
  Ni  Ni176  1  0.03421213  0.38290959  0.70657240  1
  Ni  Ni177  1  -0.10126688  0.24975528  0.78927343  1
  Ni  Ni178  1  0.78470142  0.42659445  0.07459004  1
  Ni  Ni179  1  0.71633744  0.58912549  0.48652357  1
  Ni  Ni180  1  -0.07768133  0.09191578  0.20111973  1
  Ni  Ni181  1  0.82720517  0.54084403  0.18987186  1
  Ni  Ni182  1  -0.01896304  0.40966293  0.32302300  1
  Ni  Ni183  1  0.76306324  0.08871305  0.14067243  1
  Ni  Ni184  1  0.34833593  0.86031557  0.59017715  1
  Ni  Ni185  1  0.82375699  0.84447237  0.64784533  1
  Ni  Ni186  1  0.47856543  -0.03089865  0.86934394  1
  Ni  Ni187  1  0.00664339  -0.05852347  0.24264095  1
  Ni  Ni188  1  0.56449105  0.73754862  -0.05068387  1
  Ni  Ni189  1  0.88189823  0.18944675  0.05607160  1
  Ni  Ni190  1  0.62051874  0.29299856  0.48219512  1
  Ni  Ni191  1  0.44522980  0.77070344  0.68385970  1
  Ni  Ni192  1  0.08748334  0.49552544  0.18650586  1
  Ni  Ni193  1  0.01864408  0.69536037  0.39228629  1
  Ni  Ni194  1  0.96606588  0.59274648  0.10909345  1
  Ni  Ni195  1  0.32587819  0.26801448  0.40831712  1
  Ni  Ni196  1  0.71742744  0.10165177  0.81024567  1
  Ni  Ni197  1  0.27034404  0.78048533  -0.11225985  1
  Ni  Ni198  1  0.17773106  0.49546201  -0.04523258  1
  Ni  Ni199  1  0.83841772  0.38312714  0.24077684  1
  Ni  Ni200  1  0.79607078  0.38136046  0.82590955  1
  Ni  Ni201  1  0.25755624  0.45305575  0.62078236  1
  Ni  Ni202  1  0.74397711  0.74900411  0.43514291  1
  Ni  Ni203  1  0.18477108  0.04576902  0.92111383  1
  Ni  Ni204  1  0.13080314  0.48448447  0.35098239  1
  Ni  Ni205  1  0.34735668  0.16406947  0.54197712  1
  Ni  Ni206  1  -0.00064936  0.88119968  0.08736655  1
  Ni  Ni207  1  0.76833416  0.79480962  0.79628590  1
  Ni  Ni208  1  0.89353895  0.33091133  0.45582381  1
  Ni  Ni209  1  0.49043049  0.24899028  0.60777601  1
  Ni  Ni210  1  0.51483053  0.26546649  0.76973006  1
  Ni  Ni211  1  -0.07211395  0.44743636  0.56949334  1
  Ni  Ni212  1  0.85936741  -0.07297140  0.16356851  1
  Ni  Ni213  1  0.71295510  0.76288731  0.26926229  1
  Ni  Ni214  1  0.79974030  -0.03908043  0.90100176  1
