# generated using pymatgen
data_Ti108Co54Ni53
_symmetry_space_group_name_H-M   'P 1'
_cell_length_a   14.67454553
_cell_length_b   14.71853762
_cell_length_c   14.64710442
_cell_angle_alpha   89.94489447
_cell_angle_beta   90.16418559
_cell_angle_gamma   89.57158015
_symmetry_Int_Tables_number   1
_chemical_formula_structural   Ti108Co54Ni53
_chemical_formula_sum   'Ti108 Co54 Ni53'
_cell_volume   3163.49364020
_cell_formula_units_Z   1
loop_
 _symmetry_equiv_pos_site_id
 _symmetry_equiv_pos_as_xyz
  1  'x, y, z'
loop_
 _atom_site_type_symbol
 _atom_site_label
 _atom_site_symmetry_multiplicity
 _atom_site_fract_x
 _atom_site_fract_y
 _atom_site_fract_z
 _atom_site_occupancy
  Ti  Ti0  1  0.01966057  0.10582943  0.23764697  1
  Ti  Ti1  1  0.06464577  0.12676112  0.63959637  1
  Ti  Ti2  1  0.10703207  0.16979932  0.85662856  1
  Ti  Ti3  1  0.05464688  0.47237365  0.31447353  1
  Ti  Ti4  1  0.09288597  0.42585963  0.52789895  1
  Ti  Ti5  1  0.11071075  0.38290924  0.88464841  1
  Ti  Ti6  1  0.07689666  0.69678912  0.32650858  1
  Ti  Ti7  1  0.00790126  0.69706302  0.54240382  1
  Ti  Ti8  1  0.04566580  0.72097327  0.88493738  1
  Ti  Ti9  1  0.49932466  0.11868692  0.20970727  1
  Ti  Ti10  1  0.41956486  0.11252101  0.55571956  1
  Ti  Ti11  1  0.45195925  0.03471815  0.98690970  1
  Ti  Ti12  1  0.33541599  0.42427716  0.24806980  1
  Ti  Ti13  1  0.42353146  0.42385471  0.60087112  1
  Ti  Ti14  1  0.38889884  0.44901710  0.90449973  1
  Ti  Ti15  1  0.45749155  0.70544989  0.31141317  1
  Ti  Ti16  1  0.38810310  0.78049751  0.65467132  1
  Ti  Ti17  1  0.47560945  0.70430395  0.99214785  1
  Ti  Ti18  1  0.70750775  0.08606131  0.23862118  1
  Ti  Ti19  1  0.75198825  0.05573931  0.60379266  1
  Ti  Ti20  1  0.79737604  0.03886430  0.93154961  1
  Ti  Ti21  1  0.71998415  0.42567529  0.29968188  1
  Ti  Ti22  1  0.80398845  0.38255661  0.62560968  1
  Ti  Ti23  1  0.78632696  0.48873437  0.87954089  1
  Ti  Ti24  1  0.79345865  0.71211510  0.29848762  1
  Ti  Ti25  1  0.69067049  0.70794732  0.57327399  1
  Ti  Ti26  1  0.76514360  0.68712717  0.92314100  1
  Ti  Ti27  1  0.11783639  0.23569956  0.13788347  1
  Ti  Ti28  1  0.07933541  0.14076509  0.43542227  1
  Ti  Ti29  1  0.12553406  0.31671384  0.69947058  1
  Ti  Ti30  1  0.11325412  0.60199939  0.12836033  1
  Ti  Ti31  1  0.21922883  0.53885056  0.41950095  1
  Ti  Ti32  1  0.00919471  0.62717665  0.71592777  1
  Ti  Ti33  1  0.18372439  0.89904964  0.10019922  1
  Ti  Ti34  1  0.07308202  0.85498569  0.47813889  1
  Ti  Ti35  1  0.08511964  0.89330577  0.78989251  1
  Ti  Ti36  1  0.51734528  0.28603930  0.04168123  1
  Ti  Ti37  1  0.44652658  0.26860864  0.34102377  1
  Ti  Ti38  1  0.37748656  0.19932776  0.78142769  1
  Ti  Ti39  1  0.43096939  0.58768598  0.14755550  1
  Ti  Ti40  1  0.41343492  0.58049237  0.46835866  1
  Ti  Ti41  1  0.45814542  0.65779873  0.80068111  1
  Ti  Ti42  1  0.39569778  0.95215540  0.15351213  1
  Ti  Ti43  1  0.40644205  0.80911623  0.46591397  1
  Ti  Ti44  1  0.44958305  0.95358026  0.68630541  1
  Ti  Ti45  1  0.73875870  0.34388051  0.01625784  1
  Ti  Ti46  1  0.76016777  0.24222856  0.36958654  1
  Ti  Ti47  1  0.68267917  0.26281590  0.70535090  1
  Ti  Ti48  1  0.76124232  0.56583610  0.06958974  1
  Ti  Ti49  1  0.74357541  0.55658792  0.42976040  1
  Ti  Ti50  1  0.68070527  0.60469720  0.75139501  1
  Ti  Ti51  1  0.75273046  0.93784882  0.11867189  1
  Ti  Ti52  1  0.75422855  0.92909636  0.34028481  1
  Ti  Ti53  1  0.64007303  0.96248103  0.71919270  1
  Ti  Ti54  1  0.25280566  0.07817509  0.03455399  1
  Ti  Ti55  1  0.28292957  0.15483820  0.42454839  1
  Ti  Ti56  1  0.29875917  0.04918160  0.69191266  1
  Ti  Ti57  1  0.20389265  0.40505058  0.08139471  1
  Ti  Ti58  1  0.24419588  0.33438634  0.40918852  1
  Ti  Ti59  1  0.25639328  0.45870716  0.73518537  1
  Ti  Ti60  1  0.32491113  0.75185985  0.09263580  1
  Ti  Ti61  1  0.22980023  0.83222356  0.37805772  1
  Ti  Ti62  1  0.24128343  0.74803500  0.83322625  1
  Ti  Ti63  1  0.63152396  0.11270871  0.03698202  1
  Ti  Ti64  1  0.59901755  0.02897103  0.41411154  1
  Ti  Ti65  1  0.54740017  0.12751748  0.72017357  1
  Ti  Ti66  1  0.53296856  0.42826759  0.17516505  1
  Ti  Ti67  1  0.55099395  0.42810610  0.44670625  1
  Ti  Ti68  1  0.54740523  0.39699286  0.76645140  1
  Ti  Ti69  1  0.64423604  0.79002758  0.03343574  1
  Ti  Ti70  1  0.63810997  0.73391595  0.38951915  1
  Ti  Ti71  1  0.70297380  0.79214037  0.77974289  1
  Ti  Ti72  1  0.89337334  0.11453938  0.08369269  1
  Ti  Ti73  1  0.88813340  0.08691102  0.37942806  1
  Ti  Ti74  1  0.86295182  0.17886433  0.71702536  1
  Ti  Ti75  1  0.90808674  0.42769326  0.11380892  1
  Ti  Ti76  1  0.90199367  0.41425898  0.43535442  1
  Ti  Ti77  1  0.94069781  0.41783726  0.77032367  1
  Ti  Ti78  1  0.84829557  0.75489985  0.09563419  1
  Ti  Ti79  1  0.91113386  0.79384516  0.39866241  1
  Ti  Ti80  1  0.84164407  0.69660518  0.67300632  1
  Ti  Ti81  1  0.29633894  0.20316835  0.21934139  1
  Ti  Ti82  1  0.30143968  0.27088914  0.60650336  1
  Ti  Ti83  1  0.33038598  0.26584568  0.98559726  1
  Ti  Ti84  1  0.26620471  0.65681637  0.25940255  1
  Ti  Ti85  1  0.26010865  0.63558048  0.61949386  1
  Ti  Ti86  1  0.18584066  0.57365913  0.93697544  1
  Ti  Ti87  1  0.27319058  1.01100593  0.29175427  1
  Ti  Ti88  1  0.16819895  0.93905433  0.61158993  1
  Ti  Ti89  1  0.28290449  0.95232102  0.85580163  1
  Ti  Ti90  1  0.63494400  0.26437562  0.19527380  1
  Ti  Ti91  1  0.59773035  0.21680833  0.51568338  1
  Ti  Ti92  1  0.62143864  0.21924465  0.88205857  1
  Ti  Ti93  1  0.61766087  0.59899118  0.23939606  1
  Ti  Ti94  1  0.58226623  0.54098472  0.59855932  1
  Ti  Ti95  1  0.60003042  0.55116927  0.91385503  1
  Ti  Ti96  1  0.58868993  0.86371838  0.22827056  1
  Ti  Ti97  1  0.57633242  0.86474359  0.55897466  1
  Ti  Ti98  1  0.53007157  0.89305675  0.88992422  1
  Ti  Ti99  1  0.96515936  0.28772794  0.29642379  1
  Ti  Ti100  1  0.91328100  0.24015012  0.50662609  1
  Ti  Ti101  1  0.92587390  0.25568546  0.93155720  1
  Ti  Ti102  1  0.94303392  0.61245388  0.19966450  1
  Ti  Ti103  1  0.92363926  0.53233917  0.56893598  1
  Ti  Ti104  1  0.94297126  0.60406987  0.99717828  1
  Ti  Ti105  1  0.98769052  0.93662413  0.31663151  1
  Ti  Ti106  1  0.95777174  0.94638797  0.64023641  1
  Ti  Ti107  1  0.88450541  0.85686148  0.82846736  1
  Co  Co108  1  0.37945603  0.35576995  0.74953316  1
  Co  Co109  1  -0.09346804  0.09586788  0.57141261  1
  Co  Co110  1  0.69872636  0.44533281  0.73474430  1
  Co  Co111  1  0.72335592  0.93796932  0.84370541  1
  Co  Co112  1  0.43351460  0.28691591  0.17876312  1
  Co  Co113  1  -0.00603885  0.06213182  0.76817358  1
  Co  Co114  1  0.78693415  0.84921548  -0.03357627  1
  Co  Co115  1  0.69157266  0.44213197  0.14117624  1
  Co  Co116  1  0.74437291  0.09998036  0.44507910  1
  Co  Co117  1  0.07562143  0.31834972  0.40307622  1
  Co  Co118  1  0.52253799  0.70426494  0.50956676  1
  Co  Co119  1  0.42149286  0.61504312  0.62969888  1
  Co  Co120  1  0.15622885  0.03252825  0.76961284  1
  Co  Co121  1  0.49440729  0.26459423  0.65532131  1
  Co  Co122  1  0.15790912  0.18860981  0.30348533  1
  Co  Co123  1  0.77474612  0.19681687  -0.07174776  1
  Co  Co124  1  0.06060381  0.40513560  0.16805163  1
  Co  Co125  1  0.30447610  0.68580924  0.41703248  1
  Co  Co126  1  0.43260449  0.50825693  0.74469646  1
  Co  Co127  1  0.88602518  0.44655132  0.27924395  1
  Co  Co128  1  0.02694927  0.72656367  0.06447743  1
  Co  Co129  1  0.26791486  0.11997146  0.87428497  1
  Co  Co130  1  0.51077675  0.73849604  0.15941497  1
  Co  Co131  1  0.18547525  0.34238625  0.25673458  1
  Co  Co132  1  0.59314019  0.05012655  -0.12611062  1
  Co  Co133  1  0.13354906  0.90660272  0.26456386  1
  Co  Co134  1  0.33085745  -0.06734623  0.57087772  1
  Co  Co135  1  0.37654102  0.42468048  0.42391081  1
  Co  Co136  1  0.84610368  0.00943758  0.75627665  1
  Co  Co137  1  0.11952847  0.57682843  0.59085255  1
  Co  Co138  1  0.24447622  0.30257050  0.83633396  1
  Co  Co139  1  0.19434820  0.50704831  0.24483360  1
  Co  Co140  1  0.75748352  0.22739350  0.56065070  1
  Co  Co141  1  0.17861074  0.23780605  -0.01507507  1
  Co  Co142  1  0.56595225  -0.12946917  0.39261071  1
  Co  Co143  1  -0.02471789  0.79055691  0.70950765  1
  Co  Co144  1  0.84269360  0.85355009  0.23060611  1
  Co  Co145  1  0.82874542  0.67702696  0.48916015  1
  Co  Co146  1  0.86894503  0.01518513  0.21737155  1
  Co  Co147  1  0.01354124  0.00254870  0.48816852  1
  Co  Co148  1  0.59250233  0.16336468  0.33888236  1
  Co  Co149  1  0.21964857  0.09950968  0.55849609  1
  Co  Co150  1  0.84980347  0.17372598  0.23900758  1
  Co  Co151  1  0.04414259  0.32276562  0.01825989  1
  Co  Co152  1  0.15368745  0.75994856  0.18138320  1
  Co  Co153  1  0.04573509  0.56463219  0.44730381  1
  Co  Co154  1  0.15552844  0.68774034  0.46660277  1
  Co  Co155  1  0.48580387  0.86574900  0.05187198  1
  Co  Co156  1  0.57609885  0.58512655  0.40922052  1
  Co  Co157  1  0.69086563  0.74153889  0.18126031  1
  Co  Co158  1  0.49256550  0.50631843  0.02200629  1
  Co  Co159  1  0.74698693  0.54309286  0.59023131  1
  Co  Co160  1  0.64858559  -0.04808682  -0.01003085  1
  Co  Co161  1  0.61368553  0.37246151  0.60140027  1
  Ni  Ni162  1  0.35205739  0.60315308  -0.02622024  1
  Ni  Ni163  1  0.84054589  0.53751933  0.72259426  1
  Ni  Ni164  1  0.42745132  0.09354251  0.35856031  1
  Ni  Ni165  1  0.57023810  0.03795074  0.57988477  1
  Ni  Ni166  1  0.92427805  0.42417184  -0.05803023  1
  Ni  Ni167  1  0.59601570  0.38881468  -0.06531928  1
  Ni  Ni168  1  0.21155790  0.18250315  0.72031475  1
  Ni  Ni169  1  0.60710522  0.31775412  0.35258184  1
  Ni  Ni170  1  0.39445282  0.14967684  0.08823467  1
  Ni  Ni171  1  0.38944278  0.82331931  0.82176328  1
  Ni  Ni172  1  0.08546504  0.47422627  0.71084974  1
  Ni  Ni173  1  0.71841267  0.11049479  0.78319124  1
  Ni  Ni174  1  -0.00990581  0.25588202  0.76951368  1
  Ni  Ni175  1  0.16760405  0.06287421  0.17831761  1
  Ni  Ni176  1  0.15803712  0.61396709  0.77031308  1
  Ni  Ni177  1  0.42822880  0.04586506  0.82496734  1
  Ni  Ni178  1  -0.01268576  0.78333655  0.21540927  1
  Ni  Ni179  1  0.14575352  0.25369863  0.54100546  1
  Ni  Ni180  1  0.45471695  -0.03066355  0.47314804  1
  Ni  Ni181  1  0.55775041  0.69358004  0.66905786  1
  Ni  Ni182  1  0.74837469  0.83022069  0.47121568  1
  Ni  Ni183  1  0.26237522  0.45405892  0.56169952  1
  Ni  Ni184  1  0.78478460  0.56390024  0.23205267  1
  Ni  Ni185  1  0.13552453  0.76211689  0.67931656  1
  Ni  Ni186  1  0.18492939  0.72968280  0.00444614  1
  Ni  Ni187  1  -0.11142952  0.81425396  0.56296893  1
  Ni  Ni188  1  0.46501557  0.51914269  0.30499428  1
  Ni  Ni189  1  0.60495053  0.62291779  0.07432546  1
  Ni  Ni190  1  0.28951942  0.84323485  0.22757155  1
  Ni  Ni191  1  0.27500705  0.55789158  0.10793680  1
  Ni  Ni192  1  0.37518555  0.41113113  0.08031262  1
  Ni  Ni193  1  0.03103131  0.53947735  0.86379723  1
  Ni  Ni194  1  -0.05167078  0.26069592  0.13361949  1
  Ni  Ni195  1  0.80071382  0.32431051  0.82478753  1
  Ni  Ni196  1  0.80104865  0.32288503  0.19418545  1
  Ni  Ni197  1  0.05987810  0.48477822  0.01932409  1
  Ni  Ni198  1  0.59693497  0.71833051  0.87671577  1
  Ni  Ni199  1  0.46809935  0.29493743  0.87869012  1
  Ni  Ni200  1  0.85240264  -0.04266226  0.48522434  1
  Ni  Ni201  1  0.42729449  0.88231121  0.30831909  1
  Ni  Ni202  1  0.16742708  -0.00571510  0.42386566  1
  Ni  Ni203  1  -0.02526364  0.34899568  0.61425662  1
  Ni  Ni204  1  0.56981484  -0.00929901  0.12937805  1
  Ni  Ni205  1  0.72647865  0.37727705  0.47299802  1
  Ni  Ni206  1  0.89443650  0.64749600  0.83680752  1
  Ni  Ni207  1  0.53715055  0.82491596  0.74288581  1
  Ni  Ni208  1  -0.09337281  0.59235127  0.36634479  1
  Ni  Ni209  1  0.24528065  0.79333926  0.55091930  1
  Ni  Ni210  1  0.75584874  0.19657705  0.09468484  1
  Ni  Ni211  1  0.79048117  0.88307135  0.66915064  1
  Ni  Ni212  1  0.42848112  0.28048516  0.50122668  1
  Ni  Ni213  1  0.32910116  -0.10287918  0.00078031  1
  Ni  Ni214  1  0.30990673  0.59135487  0.81476597  1
