# generated using pymatgen
data_Ti108Co54Ni53
_symmetry_space_group_name_H-M   'P 1'
_cell_length_a   14.61148669
_cell_length_b   14.56546184
_cell_length_c   14.57682129
_cell_angle_alpha   89.93747047
_cell_angle_beta   90.18248374
_cell_angle_gamma   90.15073107
_symmetry_Int_Tables_number   1
_chemical_formula_structural   Ti108Co54Ni53
_chemical_formula_sum   'Ti108 Co54 Ni53'
_cell_volume   3102.25530432
_cell_formula_units_Z   1
loop_
 _symmetry_equiv_pos_site_id
 _symmetry_equiv_pos_as_xyz
  1  'x, y, z'
loop_
 _atom_site_type_symbol
 _atom_site_label
 _atom_site_symmetry_multiplicity
 _atom_site_fract_x
 _atom_site_fract_y
 _atom_site_fract_z
 _atom_site_occupancy
  Ti  Ti0  1  0.05359170  0.07146114  0.25442796  1
  Ti  Ti1  1  0.06982309  0.13178819  0.57774422  1
  Ti  Ti2  1  0.05967725  0.13732850  0.95561359  1
  Ti  Ti3  1  -0.00478519  0.43910322  0.27334531  1
  Ti  Ti4  1  0.04682435  0.32643989  0.55703293  1
  Ti  Ti5  1  0.09232332  0.36809299  0.91893226  1
  Ti  Ti6  1  0.09685749  0.80652670  0.19242371  1
  Ti  Ti7  1  0.11276324  0.74428371  0.51046720  1
  Ti  Ti8  1  0.07885822  0.83039198  0.93265517  1
  Ti  Ti9  1  0.37202644  0.06809814  0.25951036  1
  Ti  Ti10  1  0.48755956  0.11722066  0.53177392  1
  Ti  Ti11  1  0.39136418  0.08886074  0.96728667  1
  Ti  Ti12  1  0.44186263  0.35051103  0.24852048  1
  Ti  Ti13  1  0.36428469  0.37085689  0.61862081  1
  Ti  Ti14  1  0.39117452  0.42552951  0.97200193  1
  Ti  Ti15  1  0.48351253  0.74115942  0.18997362  1
  Ti  Ti16  1  0.44452555  0.77797529  0.61136229  1
  Ti  Ti17  1  0.46461905  0.69581835  0.81346760  1
  Ti  Ti18  1  0.74501270  0.13083486  0.26789829  1
  Ti  Ti19  1  0.67501619  0.05027425  0.52799769  1
  Ti  Ti20  1  0.78063753  0.07606417  0.96059968  1
  Ti  Ti21  1  0.75814327  0.46145731  0.24582737  1
  Ti  Ti22  1  0.74560058  0.37711957  0.57158832  1
  Ti  Ti23  1  0.74257560  0.40038959  0.93484375  1
  Ti  Ti24  1  0.76066451  0.77591778  0.29652709  1
  Ti  Ti25  1  0.83960376  0.75403394  0.56882922  1
  Ti  Ti26  1  0.71730559  0.66973496  0.84356782  1
  Ti  Ti27  1  0.11016698  0.28611213  0.21647769  1
  Ti  Ti28  1  0.10456867  0.18852341  0.39989533  1
  Ti  Ti29  1  -0.00144047  0.18834342  0.76076135  1
  Ti  Ti30  1  0.10400152  0.66741432  0.05856750  1
  Ti  Ti31  1  0.03213844  0.60391319  0.38822171  1
  Ti  Ti32  1  0.10268611  0.66263479  0.78930435  1
  Ti  Ti33  1  0.07457523  0.95975412  0.08367178  1
  Ti  Ti34  1  0.12262821  0.94406076  0.44334220  1
  Ti  Ti35  1  0.08594602  0.86524785  0.69941172  1
  Ti  Ti36  1  0.42231028  0.26214622  0.05051817  1
  Ti  Ti37  1  0.40323798  0.29771830  0.44639019  1
  Ti  Ti38  1  0.40894497  0.37112195  0.79619434  1
  Ti  Ti39  1  0.46202521  0.53571433  0.10443083  1
  Ti  Ti40  1  0.38334101  0.59945339  0.46716383  1
  Ti  Ti41  1  0.31995357  0.56297011  0.74638331  1
  Ti  Ti42  1  0.46533892  0.92994136  0.14576171  1
  Ti  Ti43  1  0.39767167  0.93180994  0.46741634  1
  Ti  Ti44  1  0.41446515  1.03575745  0.71045838  1
  Ti  Ti45  1  0.73449559  0.30297632  0.12164512  1
  Ti  Ti46  1  0.79079598  0.24698512  0.42306379  1
  Ti  Ti47  1  0.77728463  0.20961454  0.80641661  1
  Ti  Ti48  1  0.78911277  0.56692304  0.02725054  1
  Ti  Ti49  1  0.70957043  0.60134643  0.42239886  1
  Ti  Ti50  1  0.75665704  0.53471072  0.68090427  1
  Ti  Ti51  1  0.74837852  0.90660208  0.04701134  1
  Ti  Ti52  1  0.71313810  0.86675614  0.45704049  1
  Ti  Ti53  1  0.77591824  0.84380299  0.74867964  1
  Ti  Ti54  1  0.21709394  0.09394397  0.10496901  1
  Ti  Ti55  1  0.28416367  0.11303970  0.45580002  1
  Ti  Ti56  1  0.23586772  0.12317798  0.70676638  1
  Ti  Ti57  1  0.18916858  0.49478181  0.14744635  1
  Ti  Ti58  1  0.25154501  0.43316765  0.43694860  1
  Ti  Ti59  1  0.18898057  0.39686600  0.72050809  1
  Ti  Ti60  1  0.31017618  0.67747452  0.12442665  1
  Ti  Ti61  1  0.23861689  0.68819306  0.34968525  1
  Ti  Ti62  1  0.28431597  0.76629846  0.78066204  1
  Ti  Ti63  1  0.58792607  0.05126972  0.08995424  1
  Ti  Ti64  1  0.60447959  0.16380713  0.38730144  1
  Ti  Ti65  1  0.61488230  0.12435879  0.71110314  1
  Ti  Ti66  1  0.57483577  0.37448485  0.04904551  1
  Ti  Ti67  1  0.58698420  0.37846853  0.39894834  1
  Ti  Ti68  1  0.61523636  0.39160614  0.73996571  1
  Ti  Ti69  1  0.54876270  0.80380754  0.00738376  1
  Ti  Ti70  1  0.52798220  0.76873109  0.42555736  1
  Ti  Ti71  1  0.59993659  0.78677463  0.72360109  1
  Ti  Ti72  1  0.87846055  0.04943310  0.15910816  1
  Ti  Ti73  1  0.95950151  0.02401370  0.44050379  1
  Ti  Ti74  1  0.87303952  0.02426946  0.74886171  1
  Ti  Ti75  1  1.01302138  0.47333700  0.08042937  1
  Ti  Ti76  1  0.92257879  0.39859308  0.45008545  1
  Ti  Ti77  1  0.96409303  0.37956575  0.76754524  1
  Ti  Ti78  1  0.82374815  0.74422314  0.10064974  1
  Ti  Ti79  1  0.93038403  0.81856085  0.39467694  1
  Ti  Ti80  1  0.87743379  0.68558360  0.74700750  1
  Ti  Ti81  1  0.28810059  0.25157162  0.17605016  1
  Ti  Ti82  1  0.22329066  0.26775615  0.54124766  1
  Ti  Ti83  1  0.27498023  0.26715408  0.91432561  1
  Ti  Ti84  1  0.33398253  0.54089530  0.26519184  1
  Ti  Ti85  1  0.15937024  0.57580508  0.61724997  1
  Ti  Ti86  1  0.29748740  0.59046344  0.95479769  1
  Ti  Ti87  1  0.30175088  0.84610705  0.24002626  1
  Ti  Ti88  1  0.26896830  0.86240449  0.59026180  1
  Ti  Ti89  1  0.27604283  0.90005953  0.94084479  1
  Ti  Ti90  1  0.56414644  0.21437551  0.20235458  1
  Ti  Ti91  1  0.54548995  0.30604089  0.58367544  1
  Ti  Ti92  1  0.54001961  0.24646480  0.87999042  1
  Ti  Ti93  1  0.56549522  0.54880002  0.25657572  1
  Ti  Ti94  1  0.54607060  0.61721429  0.59669349  1
  Ti  Ti95  1  0.58496657  0.57620351  0.95541185  1
  Ti  Ti96  1  0.60213613  0.88492620  0.28367371  1
  Ti  Ti97  1  0.54730428  0.93404384  0.60507270  1
  Ti  Ti98  1  0.53643523  0.93067360  0.82717271  1
  Ti  Ti99  1  0.90876097  0.25636541  0.19500252  1
  Ti  Ti100  1  0.87751340  0.24920231  0.62356398  1
  Ti  Ti101  1  0.89936549  0.28301181  0.92884032  1
  Ti  Ti102  1  0.88241242  0.62912599  0.24890976  1
  Ti  Ti103  1  0.93108628  0.57517602  0.55527835  1
  Ti  Ti104  1  0.97559155  0.61252995  0.91652880  1
  Ti  Ti105  1  0.90943925  0.87487238  0.19412895  1
  Ti  Ti106  1  0.84233445  0.95461474  0.56786188  1
  Ti  Ti107  1  0.88398071  0.89504171  0.91184359  1
  Co  Co108  1  0.66110098  0.49839584  0.10418009  1
  Co  Co109  1  0.37871974  0.81397147  0.06396472  1
  Co  Co110  1  0.36442366  0.17263299  0.82584207  1
  Co  Co111  1  0.59640018  0.39092353  0.21142900  1
  Co  Co112  1  0.14232011  0.23540318  0.83524452  1
  Co  Co113  1  0.71497377  0.24442736  -0.03620889  1
  Co  Co114  1  0.31601043  0.51404137  0.58825982  1
  Co  Co115  1  0.11983870  0.35263696  0.38316281  1
  Co  Co116  1  0.18032914  0.65644357  0.21187873  1
  Co  Co117  1  0.69942154  0.29543909  0.29278535  1
  Co  Co118  1  0.20711695  0.58541464  0.46465562  1
  Co  Co119  1  0.80658970  0.08552427  0.44501161  1
  Co  Co120  1  0.73133365  -0.02743776  0.84582628  1
  Co  Co121  1  0.28936195  0.27136839  0.72643648  1
  Co  Co122  1  0.09261823  0.50060461  0.80149088  1
  Co  Co123  1  0.49931057  0.09245629  0.83582511  1
  Co  Co124  1  -0.08245926  0.11007852  0.88032403  1
  Co  Co125  1  0.71865318  0.68883398  0.66584377  1
  Co  Co126  1  0.79664194  0.38298165  0.76308680  1
  Co  Co127  1  0.36589324  0.19842654  0.59211600  1
  Co  Co128  1  0.64325305  0.11453604  0.88712430  1
  Co  Co129  1  0.60825304  0.70112509  0.30381265  1
  Co  Co130  1  0.12732876  0.25064132  0.67883752  1
  Co  Co131  1  0.25121602  0.39206815  0.27119208  1
  Co  Co132  1  0.22924242  0.83778039  0.40744515  1
  Co  Co133  1  -0.00891677  0.85139387  0.53814964  1
  Co  Co134  1  0.15226223  0.51263550  0.31627809  1
  Co  Co135  1  0.86487870  0.52368405  0.37052587  1
  Co  Co136  1  0.85952011  0.72587268  -0.06633922  1
  Co  Co137  1  0.03926146  0.14528833  0.11551267  1
  Co  Co138  1  0.44819201  0.94669014  -0.01545046  1
  Co  Co139  1  0.42511729  0.11651560  0.12292268  1
  Co  Co140  1  0.43711407  0.54280603  -0.13505200  1
  Co  Co141  1  0.00910142  0.70606264  0.64469810  1
  Co  Co142  1  0.70207569  0.26492749  0.67847851  1
  Co  Co143  1  -0.06042128  0.01029348  0.01416986  1
  Co  Co144  1  -0.02108291  0.80139650  0.05536624  1
  Co  Co145  1  0.92336250  0.85893786  0.68480515  1
  Co  Co146  1  0.40631336  0.81506239  0.89991456  1
  Co  Co147  1  -0.10891141  0.42277774  0.62292981  1
  Co  Co148  1  -0.02272495  0.78587327  0.81700471  1
  Co  Co149  1  0.18392188  -0.04005457  0.22018216  1
  Co  Co150  1  0.41506031  0.86735762  0.73605626  1
  Co  Co151  1  0.33318236  0.02922809  0.58203046  1
  Co  Co152  1  -0.06081117  0.63177751  0.07586581  1
  Co  Co153  1  0.66708264  0.21142369  0.53418422  1
  Co  Co154  1  0.68290458  0.50488433  0.83730128  1
  Co  Co155  1  0.55491650  -0.03610843  0.43694165  1
  Co  Co156  1  0.02485830  -0.07870609  0.29820409  1
  Co  Co157  1  0.55296269  0.04994490  0.26161975  1
  Co  Co158  1  0.17855710  0.73355233  0.66138232  1
  Co  Co159  1  0.07947700  0.47724643  0.47673890  1
  Co  Co160  1  0.58501496  0.65065915  0.10617862  1
  Co  Co161  1  0.57867032  0.19947911  0.03368241  1
  Ni  Ni162  1  0.00253668  -0.00832383  0.62035328  1
  Ni  Ni163  1  0.16430906  0.24275335  0.04560656  1
  Ni  Ni164  1  0.35719692  0.76480609  0.46567568  1
  Ni  Ni165  1  -0.02221857  0.28208308  0.34103249  1
  Ni  Ni166  1  0.17308462  0.00186510  0.59310279  1
  Ni  Ni167  1  0.04953809  0.46389474  0.64094121  1
  Ni  Ni168  1  0.66073569  0.79954267  0.15155975  1
  Ni  Ni169  1  0.13599215  0.53473319  -0.04143299  1
  Ni  Ni170  1  0.26503119  0.25521274  0.35412786  1
  Ni  Ni171  1  0.94838023  0.54641624  0.73019863  1
  Ni  Ni172  1  0.84271496  0.95742702  0.32890331  1
  Ni  Ni173  1  0.40875854  0.68836048  0.31931920  1
  Ni  Ni174  1  0.44858864  0.18903545  0.33724468  1
  Ni  Ni175  1  0.22411331  0.39649968  0.02165345  1
  Ni  Ni176  1  0.86043557  0.41297466  0.11525273  1
  Ni  Ni177  1  0.69628443  -0.02517525  0.68296433  1
  Ni  Ni178  1  0.78216557  0.11771519  0.64117139  1
  Ni  Ni179  1  0.73139134  0.13930493  0.10408281  1
  Ni  Ni180  1  0.25210638  0.44926271  0.86614078  1
  Ni  Ni181  1  0.08028587  0.76326911  0.34400045  1
  Ni  Ni182  1  0.21059612  0.11993611  0.28071234  1
  Ni  Ni183  1  0.32051861  0.67665813  0.61387989  1
  Ni  Ni184  1  0.62710331  0.76875067  0.55819738  1
  Ni  Ni185  1  0.85822334  0.67465973  0.42244610  1
  Ni  Ni186  1  0.42871058  0.45857940  0.36841439  1
  Ni  Ni187  1  0.20039918  0.71873842  0.92162561  1
  Ni  Ni188  1  0.91536088  0.44459048  -0.04650605  1
  Ni  Ni189  1  0.88969602  0.17638526  0.04794718  1
  Ni  Ni190  1  0.61635544  -0.03634189  -0.03717678  1
  Ni  Ni191  1  0.69673485  0.71811620  0.00399134  1
  Ni  Ni192  1  0.90624687  0.13346536  0.31835861  1
  Ni  Ni193  1  0.34340607  0.41710213  0.13383698  1
  Ni  Ni194  1  0.83471588  0.53997124  0.85017891  1
  Ni  Ni195  1  0.00835635  0.30174469  0.06080896  1
  Ni  Ni196  1  0.67278356  0.82750252  0.88621721  1
  Ni  Ni197  1  0.30682597  -0.03976556  0.09658017  1
  Ni  Ni198  1  0.58381947  0.60022786  0.75608319  1
  Ni  Ni199  1  0.27443089  -0.01970753  0.35890025  1
  Ni  Ni200  1  -0.05496584  0.19531778  0.47667302  1
  Ni  Ni201  1  0.48023008  0.48517545  0.68676173  1
  Ni  Ni202  1  0.71974805  -0.02396509  0.19568337  1
  Ni  Ni203  1  0.44347278  0.67118109  -0.00298853  1
  Ni  Ni204  1  0.44194238  0.91002064  0.31258752  1
  Ni  Ni205  1  0.54375950  0.57745244  0.41804708  1
  Ni  Ni206  1  0.71865086  0.63245984  0.19979341  1
  Ni  Ni207  1  0.74401475  0.42345921  0.41103958  1
  Ni  Ni208  1  0.21350224  0.81659946  0.07313416  1
  Ni  Ni209  1  0.55021761  0.42097770  0.89118649  1
  Ni  Ni210  1  0.03772818  0.59095373  0.20680372  1
  Ni  Ni211  1  0.63488027  0.49105392  0.53893428  1
  Ni  Ni212  1  0.68912326  0.00550752  0.35815372  1
  Ni  Ni213  1  0.47523007  0.45955942  0.52203066  1
  Ni  Ni214  1  0.47218399  0.22399878  0.71544762  1
