# generated using pymatgen
data_Ti108Co54Ni53
_symmetry_space_group_name_H-M   'P 1'
_cell_length_a   14.56923513
_cell_length_b   14.63935187
_cell_length_c   14.65432959
_cell_angle_alpha   90.32755916
_cell_angle_beta   90.17229158
_cell_angle_gamma   90.17134858
_symmetry_Int_Tables_number   1
_chemical_formula_structural   Ti108Co54Ni53
_chemical_formula_sum   'Ti108 Co54 Ni53'
_cell_volume   3125.45702251
_cell_formula_units_Z   1
loop_
 _symmetry_equiv_pos_site_id
 _symmetry_equiv_pos_as_xyz
  1  'x, y, z'
loop_
 _atom_site_type_symbol
 _atom_site_label
 _atom_site_symmetry_multiplicity
 _atom_site_fract_x
 _atom_site_fract_y
 _atom_site_fract_z
 _atom_site_occupancy
  Ti  Ti0  1  0.02273969  0.04455437  0.29395410  1
  Ti  Ti1  1  0.02797759  0.07385371  0.56835619  1
  Ti  Ti2  1  0.05841856  0.14324562  0.93296052  1
  Ti  Ti3  1  0.12653195  0.38027059  0.28408117  1
  Ti  Ti4  1  0.16333363  0.43840291  0.57912647  1
  Ti  Ti5  1  0.15852957  0.37907924  0.96430517  1
  Ti  Ti6  1  0.09417584  0.71304304  0.24718250  1
  Ti  Ti7  1  0.08635473  0.79009755  0.58575653  1
  Ti  Ti8  1  0.08665093  0.76670544  0.94339750  1
  Ti  Ti9  1  0.40649902  0.09737353  0.26274210  1
  Ti  Ti10  1  0.39842741  0.09018325  0.55024230  1
  Ti  Ti11  1  0.50874480  0.03644854  0.96129113  1
  Ti  Ti12  1  0.50222613  0.42871375  0.24488345  1
  Ti  Ti13  1  0.46984239  0.42469781  0.60779035  1
  Ti  Ti14  1  0.34699687  0.34240789  0.87283465  1
  Ti  Ti15  1  0.45054830  0.70409951  0.28920159  1
  Ti  Ti16  1  0.40914554  0.73830310  0.62578163  1
  Ti  Ti17  1  0.41762898  0.83975589  0.89782600  1
  Ti  Ti18  1  0.74845039  0.02535961  0.23760003  1
  Ti  Ti19  1  0.72563255  0.07344433  0.58974622  1
  Ti  Ti20  1  0.68055761  0.10480893  0.89597138  1
  Ti  Ti21  1  0.79662682  0.39234003  0.23689653  1
  Ti  Ti22  1  0.78732680  0.42324908  0.59906305  1
  Ti  Ti23  1  0.77177363  0.54709185  0.93088096  1
  Ti  Ti24  1  0.75023011  0.74644418  0.21966309  1
  Ti  Ti25  1  0.70709157  0.75374480  0.53104077  1
  Ti  Ti26  1  0.74033409  0.72794449  0.85996829  1
  Ti  Ti27  1  0.05500608  0.26666200  0.09828343  1
  Ti  Ti28  1  0.10932734  0.24473840  0.46267474  1
  Ti  Ti29  1  0.03025722  0.30728717  0.77997619  1
  Ti  Ti30  1  0.04800308  0.59888974  0.09116884  1
  Ti  Ti31  1  0.06790497  0.51839898  0.42129453  1
  Ti  Ti32  1  0.04433000  0.53261513  0.72432843  1
  Ti  Ti33  1  0.10513792  0.96538699  0.07407471  1
  Ti  Ti34  1  0.03392305  0.84860378  0.39617820  1
  Ti  Ti35  1  0.17233501  0.92684840  0.86580838  1
  Ti  Ti36  1  0.44162656  0.19759370  0.05869053  1
  Ti  Ti37  1  0.49569408  0.26000893  0.34701136  1
  Ti  Ti38  1  0.37918829  0.24983171  0.71190678  1
  Ti  Ti39  1  0.40640952  0.55377727  -0.00615284  1
  Ti  Ti40  1  0.45894960  0.53994407  0.41974184  1
  Ti  Ti41  1  0.36359849  0.55422250  0.72337883  1
  Ti  Ti42  1  0.44996399  0.88217267  0.10123355  1
  Ti  Ti43  1  0.37027191  0.86694061  0.31726281  1
  Ti  Ti44  1  0.46514188  0.87986486  0.72197016  1
  Ti  Ti45  1  0.72808161  0.35413962  0.04064374  1
  Ti  Ti46  1  0.68712737  0.20416335  0.32680541  1
  Ti  Ti47  1  0.80972697  0.29504433  0.74226123  1
  Ti  Ti48  1  0.71796077  0.57104903  0.10227600  1
  Ti  Ti49  1  0.78700885  0.66775503  0.38031554  1
  Ti  Ti50  1  0.70508766  0.55123830  0.73233962  1
  Ti  Ti51  1  0.78305584  0.88040161  0.08469732  1
  Ti  Ti52  1  0.70478099  0.87630671  0.36687003  1
  Ti  Ti53  1  0.77715396  0.91397922  0.81063355  1
  Ti  Ti54  1  0.30953542  0.03548046  0.08100381  1
  Ti  Ti55  1  0.22079887  0.08451533  0.49180294  1
  Ti  Ti56  1  0.28550201  0.09998162  0.80694443  1
  Ti  Ti57  1  0.25552637  0.34875622  0.14943390  1
  Ti  Ti58  1  0.25004446  0.51645938  0.37391727  1
  Ti  Ti59  1  0.19276679  0.41962829  0.78025028  1
  Ti  Ti60  1  0.34210259  0.73030928  0.11882601  1
  Ti  Ti61  1  0.20362045  0.74439424  0.43079326  1
  Ti  Ti62  1  0.27467767  0.74789754  0.78347208  1
  Ti  Ti63  1  0.64163400  0.05817642  0.09185780  1
  Ti  Ti64  1  0.56928554  0.15260977  0.49468359  1
  Ti  Ti65  1  0.51256640  0.12342892  0.73019747  1
  Ti  Ti66  1  0.52611442  0.37904653  0.04045212  1
  Ti  Ti67  1  0.66691438  0.49966193  0.40449033  1
  Ti  Ti68  1  0.61636367  0.36141885  0.71627753  1
  Ti  Ti69  1  0.58078924  0.72819022  0.11644708  1
  Ti  Ti70  1  0.52047541  0.83195843  0.45566666  1
  Ti  Ti71  1  0.54027711  0.70205791  0.80555679  1
  Ti  Ti72  1  0.89095324  0.12865089  0.16320763  1
  Ti  Ti73  1  0.82224709  0.05369718  0.41128657  1
  Ti  Ti74  1  0.80508682  0.10792376  0.75402460  1
  Ti  Ti75  1  0.94568935  0.41970840  0.03916254  1
  Ti  Ti76  1  0.86014284  0.47472254  0.42363906  1
  Ti  Ti77  1  0.88224885  0.46265094  0.79442863  1
  Ti  Ti78  1  0.96840852  0.79749218  0.10701593  1
  Ti  Ti79  1  0.90259745  0.76156594  0.50634001  1
  Ti  Ti80  1  0.94792402  0.75713532  0.76603396  1
  Ti  Ti81  1  0.27393602  0.24074695  0.33371752  1
  Ti  Ti82  1  0.35529121  0.28392779  0.51689214  1
  Ti  Ti83  1  0.25975277  0.21366050  0.97801963  1
  Ti  Ti84  1  0.25610052  0.57142486  0.18521519  1
  Ti  Ti85  1  0.30252375  0.59706453  0.54040671  1
  Ti  Ti86  1  0.18244900  0.59524643  0.89049727  1
  Ti  Ti87  1  0.19427864  0.93099602  0.33930564  1
  Ti  Ti88  1  0.26925571  0.91461559  0.60429925  1
  Ti  Ti89  1  0.26401383  0.85550216  1.00351872  1
  Ti  Ti90  1  0.58969191  0.25899567  0.17454508  1
  Ti  Ti91  1  0.65835417  0.32254289  0.49761908  1
  Ti  Ti92  1  0.53480274  0.26902748  0.87332507  1
  Ti  Ti93  1  0.59724870  0.59332707  0.25052177  1
  Ti  Ti94  1  0.55608685  0.62792308  0.56495648  1
  Ti  Ti95  1  0.55882838  0.49986779  0.87600697  1
  Ti  Ti96  1  0.54407063  0.94732666  0.27639937  1
  Ti  Ti97  1  0.54767701  0.98171256  0.59688598  1
  Ti  Ti98  1  0.60635413  0.84260958  0.95271063  1
  Ti  Ti99  1  0.99746696  0.24685718  0.29068760  1
  Ti  Ti100  1  0.90187660  0.29564232  0.52232828  1
  Ti  Ti101  1  0.84570736  0.19950674  0.98742951  1
  Ti  Ti102  1  0.93537983  0.57715951  0.26169969  1
  Ti  Ti103  1  0.86238680  0.59358420  0.63563579  1
  Ti  Ti104  1  0.98032561  0.60883108  0.90886281  1
  Ti  Ti105  1  0.88015136  0.88830157  0.29157245  1
  Ti  Ti106  1  0.81219456  0.89573226  0.63059550  1
  Ti  Ti107  1  0.91669380  0.89861419  0.94412539  1
  Co  Co108  1  0.13834585  0.61526050  0.53243470  1
  Co  Co109  1  0.40499867  0.64549795  0.84822023  1
  Co  Co110  1  0.63672182  0.36184017  0.32201335  1
  Co  Co111  1  0.92230523  -0.04051317  0.15250490  1
  Co  Co112  1  0.41193906  0.29622404  0.20043777  1
  Co  Co113  1  0.43586372  0.69480622  0.46411952  1
  Co  Co114  1  0.27954990  0.89913401  0.16886784  1
  Co  Co115  1  0.46814698  -0.00020429  0.81746807  1
  Co  Co116  1  0.32464067  0.01732687  0.38535740  1
  Co  Co117  1  -0.08478557  0.20120321  0.84082073  1
  Co  Co118  1  0.61739090  0.21352229  0.01667185  1
  Co  Co119  1  0.31341289  0.50218352  0.86922822  1
  Co  Co120  1  -0.02529577  0.90384046  0.57140862  1
  Co  Co121  1  0.87309304  0.68453013  0.14975539  1
  Co  Co122  1  0.71793032  -0.04455211  -0.04867313  1
  Co  Co123  1  0.30845555  0.91125119  0.78005028  1
  Co  Co124  1  0.38709816  0.46307512  0.13476759  1
  Co  Co125  1  0.83460071  -0.10076171  0.46805055  1
  Co  Co126  1  0.12900141  -0.05905720  0.50554333  1
  Co  Co127  1  0.39102623  0.54262934  0.27513016  1
  Co  Co128  1  0.15461959  0.11649249  0.35343230  1
  Co  Co129  1  0.30107730  0.70734798  -0.05335419  1
  Co  Co130  1  0.56451739  0.53155903  0.06802973  1
  Co  Co131  1  0.72055116  0.23794423  0.61763388  1
  Co  Co132  1  0.39564351  0.15867731  0.41572353  1
  Co  Co133  1  0.19601904  0.05494278  0.94738376  1
  Co  Co134  1  0.76639581  0.19076276  0.47193654  1
  Co  Co135  1  -0.10754106  0.73278069  -0.04797391  1
  Co  Co136  1  0.62291625  0.84497132  0.77963317  1
  Co  Co137  1  0.65334876  0.18971839  0.74957835  1
  Co  Co138  1  0.85243885  0.62454049  0.80450876  1
  Co  Co139  1  0.45513727  0.41271038  0.77612553  1
  Co  Co140  1  0.45255267  0.61326812  0.14673449  1
  Co  Co141  1  0.79970851  0.04569174  0.05614384  1
  Co  Co142  1  0.10106628  0.70820919  0.78104321  1
  Co  Co143  1  0.56499526  0.81016061  0.61008918  1
  Co  Co144  1  -0.01224222  0.47801548  0.55896317  1
  Co  Co145  1  0.41286859  0.15922557  0.88749969  1
  Co  Co146  1  0.20625182  0.36880609  0.43637369  1
  Co  Co147  1  0.00424238  0.30004213  -0.05912910  1
  Co  Co148  1  -0.05669300  0.38245060  0.66653152  1
  Co  Co149  1  0.17021878  0.14055763  0.07816025  1
  Co  Co150  1  0.14425166  0.21241747  0.22606961  1
  Co  Co151  1  0.36510667  0.34785526  0.03091853  1
  Co  Co152  1  0.73572453  0.18908312  0.14818449  1
  Co  Co153  1  0.31490403  0.66265299  0.36243460  1
  Co  Co154  1  0.58666629  0.10345517  0.25226156  1
  Co  Co155  1  0.85403806  0.05402755  0.89865512  1
  Co  Co156  1  0.04232100  0.09965955  0.14937850  1
  Co  Co157  1  0.33799037  0.44278583  0.50876864  1
  Co  Co158  1  0.19572633  0.04024017  0.21051022  1
  Co  Co159  1  0.65331473  0.43501204  0.17112756  1
  Co  Co160  1  0.93290196  0.73985073  0.29362454  1
  Co  Co161  1  0.74493754  0.59258977  0.52606048  1
  Ni  Ni162  1  0.59451233  0.77972630  0.28786865  1
  Ni  Ni163  1  0.60442870  0.66757922  0.40841856  1
  Ni  Ni164  1  0.48688465  0.00438967  0.42471130  1
  Ni  Ni165  1  0.00693943  0.36795226  0.41338928  1
  Ni  Ni166  1  -0.04029442  0.15816705  0.43357892  1
  Ni  Ni167  1  0.37035452  0.02903085  0.68849737  1
  Ni  Ni168  1  0.04458989  0.68324152  0.40549482  1
  Ni  Ni169  1  0.46716618  0.71847552  -0.00349136  1
  Ni  Ni170  1  0.70804791  0.26833770  -0.11222333  1
  Ni  Ni171  1  -0.03843327  0.04562134  0.01866736  1
  Ni  Ni172  1  0.04175034  0.45703408  0.87890736  1
  Ni  Ni173  1  0.64355276  0.00974700  0.74546372  1
  Ni  Ni174  1  0.52542977  0.25529502  0.61872161  1
  Ni  Ni175  1  0.62714074  0.47702249  0.57408123  1
  Ni  Ni176  1  0.19657828  0.59355370  0.69234719  1
  Ni  Ni177  1  0.01211109  0.65334109  0.62559175  1
  Ni  Ni178  1  0.61647815  0.64706598  -0.04542694  1
  Ni  Ni179  1  0.88178368  0.56689592  0.05289610  1
  Ni  Ni180  1  0.10472178  0.54535099  0.25623753  1
  Ni  Ni181  1  0.02091656  0.89090949  0.81684781  1
  Ni  Ni182  1  0.24074753  0.73802447  0.61429996  1
  Ni  Ni183  1  0.88003862  0.29551076  0.13864504  1
  Ni  Ni184  1  0.84998094  0.35440674  0.91235700  1
  Ni  Ni185  1  0.64173705  0.88050875  0.16515802  1
  Ni  Ni186  1  0.14667938  0.80047711  0.11264014  1
  Ni  Ni187  1  0.33880632  0.82401860  0.48452936  1
  Ni  Ni188  1  0.74804555  0.72231972  0.03175536  1
  Ni  Ni189  1  -0.02694704  -0.00917019  0.43790889  1
  Ni  Ni190  1  0.76671614  0.55664138  0.25903205  1
  Ni  Ni191  1  0.31125278  0.39572909  0.66851347  1
  Ni  Ni192  1  0.79818378  0.74425191  0.69602572  1
  Ni  Ni193  1  0.25121498  0.76059420  0.25294983  1
  Ni  Ni194  1  0.67849843  0.92077569  0.52502535  1
  Ni  Ni195  1  0.34605965  -0.00695427  -0.07469022  1
  Ni  Ni196  1  0.10902716  0.44430081  0.12136272  1
  Ni  Ni197  1  0.53972697  0.54556330  0.71172539  1
  Ni  Ni198  1  0.64927690  0.69682768  0.68497865  1
  Ni  Ni199  1  0.87506017  0.15563769  0.59923927  1
  Ni  Ni200  1  0.71326938  0.42045122  0.84076303  1
  Ni  Ni201  1  0.48324329  0.03717003  0.13344793  1
  Ni  Ni202  1  0.25014497  0.49469901  0.03441361  1
  Ni  Ni203  1  0.29778932  0.18250046  0.16820327  1
  Ni  Ni204  1  0.79076511  0.33353745  0.39200404  1
  Ni  Ni205  1  -0.08417192  0.01314262  0.67820482  1
  Ni  Ni206  1  0.84501284  0.19182266  0.30913905  1
  Ni  Ni207  1  0.15656344  0.85387914  0.71666063  1
  Ni  Ni208  1  0.65233369  0.04087648  0.40232657  1
  Ni  Ni209  1  0.18695661  0.25287786  0.83292601  1
  Ni  Ni210  1  0.36189056  0.38575735  0.34972726  1
  Ni  Ni211  1  0.92919324  0.60570554  0.47937099  1
  Ni  Ni212  1  0.05772057  0.88573235  0.22764371  1
  Ni  Ni213  1  0.19365655  0.65827258  0.05118472  1
  Ni  Ni214  1  0.51274504  0.39117442  0.44483581  1
