# generated using pymatgen
data_Ti108Co54Ni53
_symmetry_space_group_name_H-M   'P 1'
_cell_length_a   14.63955951
_cell_length_b   14.66655536
_cell_length_c   14.65147381
_cell_angle_alpha   89.93951895
_cell_angle_beta   90.18024624
_cell_angle_gamma   89.98763431
_symmetry_Int_Tables_number   1
_chemical_formula_structural   Ti108Co54Ni53
_chemical_formula_sum   'Ti108 Co54 Ni53'
_cell_volume   3145.82853055
_cell_formula_units_Z   1
loop_
 _symmetry_equiv_pos_site_id
 _symmetry_equiv_pos_as_xyz
  1  'x, y, z'
loop_
 _atom_site_type_symbol
 _atom_site_label
 _atom_site_symmetry_multiplicity
 _atom_site_fract_x
 _atom_site_fract_y
 _atom_site_fract_z
 _atom_site_occupancy
  Ti  Ti0  1  0.09278006  0.11209902  0.23426474  1
  Ti  Ti1  1  0.10682224  0.10551117  0.55379757  1
  Ti  Ti2  1  0.06722705  0.03702006  0.95618216  1
  Ti  Ti3  1  0.08347910  0.43183737  0.23783101  1
  Ti  Ti4  1  0.07254607  0.38216923  0.52516663  1
  Ti  Ti5  1  0.07680614  0.43132984  0.91966710  1
  Ti  Ti6  1  0.11845527  0.77380317  0.23542145  1
  Ti  Ti7  1  0.04600892  0.76332729  0.57735868  1
  Ti  Ti8  1  0.05742234  0.82832632  0.94798826  1
  Ti  Ti9  1  0.42602123  0.06844876  0.27416221  1
  Ti  Ti10  1  0.46527822  0.13593675  0.57451768  1
  Ti  Ti11  1  0.40208671  0.13967398  0.90298054  1
  Ti  Ti12  1  0.43938172  0.40440176  0.28765870  1
  Ti  Ti13  1  0.40204275  0.41480286  0.66674618  1
  Ti  Ti14  1  0.42137065  0.46639093  0.98020775  1
  Ti  Ti15  1  0.44506189  0.84992378  0.24304278  1
  Ti  Ti16  1  0.46652853  0.82347105  0.62783605  1
  Ti  Ti17  1  0.43540316  0.66629348  0.91032934  1
  Ti  Ti18  1  0.75809367  0.07811063  0.21642677  1
  Ti  Ti19  1  0.71965341  0.07381942  0.54069820  1
  Ti  Ti20  1  0.72412609  0.12983883  0.83191401  1
  Ti  Ti21  1  0.73290884  0.41594865  0.19630950  1
  Ti  Ti22  1  0.76811620  0.40944282  0.50955397  1
  Ti  Ti23  1  0.78027268  0.46868415  0.90553747  1
  Ti  Ti24  1  0.79282578  0.74368213  0.21818861  1
  Ti  Ti25  1  0.74585041  0.69880592  0.52635104  1
  Ti  Ti26  1  0.78446562  0.70410338  0.97757900  1
  Ti  Ti27  1  0.15113968  0.31277300  0.08038686  1
  Ti  Ti28  1  0.02722568  0.22643820  0.37750455  1
  Ti  Ti29  1  0.04225701  0.33367163  0.71736240  1
  Ti  Ti30  1  0.13272877  0.55684124  0.09664250  1
  Ti  Ti31  1  0.05496659  0.54505813  0.41159818  1
  Ti  Ti32  1  0.03764630  0.60684813  0.81982526  1
  Ti  Ti33  1  0.03600840  0.93137224  0.12035874  1
  Ti  Ti34  1  0.02880588  0.87600903  0.41044237  1
  Ti  Ti35  1  0.01703926  0.95827087  0.78197121  1
  Ti  Ti36  1  0.46503914  0.18370646  0.10813063  1
  Ti  Ti37  1  0.46652851  0.23387281  0.39682084  1
  Ti  Ti38  1  0.45371592  0.22951486  0.73598587  1
  Ti  Ti39  1  0.38794986  0.55836326  0.17499847  1
  Ti  Ti40  1  0.42357050  0.54752307  0.39771479  1
  Ti  Ti41  1  0.45536063  0.61356230  0.72634676  1
  Ti  Ti42  1  0.37414957  0.89159490  0.01680345  1
  Ti  Ti43  1  0.46191207  0.93418545  0.45830302  1
  Ti  Ti44  1  0.39195830  0.93480028  0.78862328  1
  Ti  Ti45  1  0.72507646  0.21997730  0.04940163  1
  Ti  Ti46  1  0.72103178  0.19235907  0.38669986  1
  Ti  Ti47  1  0.79843490  0.31106978  0.78458435  1
  Ti  Ti48  1  0.66446992  0.61548708  0.10166335  1
  Ti  Ti49  1  0.65712759  0.56788874  0.41581381  1
  Ti  Ti50  1  0.83709752  0.63582082  0.81172273  1
  Ti  Ti51  1  0.74151743  0.89423947  0.05444974  1
  Ti  Ti52  1  0.77621684  0.83439917  0.38415618  1
  Ti  Ti53  1  0.74013629  0.93575188  0.81670121  1
  Ti  Ti54  1  0.32538667  0.06474242  0.08401612  1
  Ti  Ti55  1  0.20035156  0.01437900  0.40609165  1
  Ti  Ti56  1  0.29288855  0.08791514  0.71313339  1
  Ti  Ti57  1  0.31358769  0.36969574  0.14199644  1
  Ti  Ti58  1  0.31946733  0.36898341  0.44770363  1
  Ti  Ti59  1  0.26253244  0.37746083  0.88278468  1
  Ti  Ti60  1  0.22757177  0.75325539  0.01294776  1
  Ti  Ti61  1  0.22307405  0.80865578  0.38726655  1
  Ti  Ti62  1  0.29933865  0.73907971  0.74287348  1
  Ti  Ti63  1  0.61178657  0.05862096  0.07881798  1
  Ti  Ti64  1  0.57331366  0.07027072  0.41320566  1
  Ti  Ti65  1  0.54715931  0.05998104  0.79310524  1
  Ti  Ti66  1  0.63177944  0.43285242  0.02464128  1
  Ti  Ti67  1  0.53853202  0.41982053  0.48990890  1
  Ti  Ti68  1  0.58369579  0.41597504  0.81893963  1
  Ti  Ti69  1  0.48873029  0.73257894  0.09172585  1
  Ti  Ti70  1  0.47117309  0.74202156  0.41073234  1
  Ti  Ti71  1  0.66499442  0.79200392  0.67903595  1
  Ti  Ti72  1  0.91091118  0.13350424  0.11699298  1
  Ti  Ti73  1  0.90574956  0.11996852  0.50580280  1
  Ti  Ti74  1  0.95663636  0.15315151  0.69929600  1
  Ti  Ti75  1  0.87771522  0.34773895  0.02691247  1
  Ti  Ti76  1  0.85040097  0.47603319  0.35670725  1
  Ti  Ti77  1  0.89860532  0.47920802  0.68328221  1
  Ti  Ti78  1  0.99794713  0.71207313  0.10796836  1
  Ti  Ti79  1  0.95487182  0.71423151  0.34065028  1
  Ti  Ti80  1  0.86490458  0.77732488  0.68295217  1
  Ti  Ti81  1  0.27648298  0.19108075  0.32880257  1
  Ti  Ti82  1  0.28548363  0.18523926  0.53556767  1
  Ti  Ti83  1  0.20624353  0.17256724  0.96637886  1
  Ti  Ti84  1  0.23077981  0.60145805  0.33138586  1
  Ti  Ti85  1  0.21915551  0.66804987  0.55599163  1
  Ti  Ti86  1  0.24525954  0.58728708  0.88885484  1
  Ti  Ti87  1  0.25318455  0.89960928  0.18107240  1
  Ti  Ti88  1  0.25268372  0.88407206  0.62442650  1
  Ti  Ti89  1  0.20598072  0.91541376  0.83408283  1
  Ti  Ti90  1  0.57974177  0.29893948  0.23567625  1
  Ti  Ti91  1  0.59585197  0.31903346  0.64485798  1
  Ti  Ti92  1  0.52902154  0.29024888  0.95351718  1
  Ti  Ti93  1  0.54697950  0.63507753  0.25820638  1
  Ti  Ti94  1  0.53836095  0.62668143  0.56397942  1
  Ti  Ti95  1  0.62488221  0.60340570  0.87275960  1
  Ti  Ti96  1  0.60968455  0.95482466  0.24172275  1
  Ti  Ti97  1  0.65668985  0.91377027  0.52361378  1
  Ti  Ti98  1  0.53719199  0.86251146  0.90764645  1
  Ti  Ti99  1  0.86697456  0.27638599  0.26919702  1
  Ti  Ti100  1  0.77282268  0.23412163  0.60399381  1
  Ti  Ti101  1  0.88578034  0.16753205  0.92862341  1
  Ti  Ti102  1  0.92353104  0.55866467  0.21172219  1
  Ti  Ti103  1  0.91211962  0.61450827  0.51571956  1
  Ti  Ti104  1  0.93924050  0.54573752  0.99889656  1
  Ti  Ti105  1  0.90802613  0.98141445  0.30300788  1
  Ti  Ti106  1  0.96612372  0.95447408  0.59703957  1
  Ti  Ti107  1  0.88020105  0.84884442  0.88111829  1
  Co  Co108  1  0.25367559  0.19582967  0.14978428  1
  Co  Co109  1  -0.06849846  0.45141306  0.50410626  1
  Co  Co110  1  0.18978578  0.91460418  0.01099507  1
  Co  Co111  1  0.40002671  0.53404793  0.55766315  1
  Co  Co112  1  0.80280006  0.61602480  0.65583391  1
  Co  Co113  1  0.61046053  0.24443683  0.80071819  1
  Co  Co114  1  0.66174574  0.71363250  0.35069729  1
  Co  Co115  1  0.37896103  0.69453137  0.59188191  1
  Co  Co116  1  0.43968541  0.29744002  0.55411270  1
  Co  Co117  1  0.13496369  0.01251313  0.68521216  1
  Co  Co118  1  -0.05039110  0.84134072  0.23251801  1
  Co  Co119  1  0.03033584  0.04542446  0.40423516  1
  Co  Co120  1  0.31272474  0.26798044  0.66577490  1
  Co  Co121  1  0.06781224  0.14914134  0.07603418  1
  Co  Co122  1  0.09882912  0.70623963  0.42152530  1
  Co  Co123  1  0.84175877  0.64817477  0.10633067  1
  Co  Co124  1  0.46678606  -0.00404973  0.13911639  1
  Co  Co125  1  0.90442698  0.40799307  0.18305837  1
  Co  Co126  1  0.70743469  0.30839867  -0.08015976  1
  Co  Co127  1  -0.01304284  0.38704548  0.35718205  1
  Co  Co128  1  0.87448426  0.13169099  0.34768805  1
  Co  Co129  1  0.35275458  0.80061708  0.88065479  1
  Co  Co130  1  0.02395037  0.41955690  0.07681178  1
  Co  Co131  1  0.89620981  0.82259083  0.05532459  1
  Co  Co132  1  0.34230974  0.76351594  0.13819030  1
  Co  Co133  1  0.72475323  0.51247019  0.76349707  1
  Co  Co134  1  0.72119408  0.00457074  0.36869855  1
  Co  Co135  1  0.94337711  0.70704137  0.93941007  1
  Co  Co136  1  0.47792648  0.01373937  0.97267865  1
  Co  Co137  1  0.77379562  0.06163052  0.01007491  1
  Co  Co138  1  0.51949642  0.58433466  0.03129080  1
  Co  Co139  1  0.10205971  0.94127318  0.27676149  1
  Co  Co140  1  -0.06537032  0.46611054  0.84290683  1
  Co  Co141  1  0.81383675  0.64728406  0.37359789  1
  Co  Co142  1  0.39896602  0.25231591  0.23783540  1
  Co  Co143  1  0.28682830  0.45680757  0.29180565  1
  Co  Co144  1  0.17301409  0.08564560  0.82442950  1
  Co  Co145  1  0.79238716  0.50024679  0.07220496  1
  Co  Co146  1  0.01886833  0.23701546  0.56259633  1
  Co  Co147  1  0.86809104  -0.02864074  0.13619301  1
  Co  Co148  1  0.76339134  0.90209837  0.23350775  1
  Co  Co149  1  0.16951974  0.03863601  0.10973083  1
  Co  Co150  1  0.53641757  0.74043984  0.79094251  1
  Co  Co151  1  0.64132678  0.63908607  0.71265536  1
  Co  Co152  1  -0.10011606  0.32906129  0.61917963  1
  Co  Co153  1  0.72312387  0.23822378  0.20842015  1
  Co  Co154  1  0.24931847  0.04780117  0.25157604  1
  Co  Co155  1  0.73396679  0.39671873  0.66428204  1
  Co  Co156  1  0.64364769  -0.01284412  -0.06670534  1
  Co  Co157  1  0.38280365  0.68697235  0.27652878  1
  Co  Co158  1  0.29396492  0.02448230  -0.08035627  1
  Co  Co159  1  0.28581076  0.21959162  0.82077884  1
  Co  Co160  1  0.88838118  0.03692102  0.83518227  1
  Co  Co161  1  0.32991068  0.66990676  0.44170924  1
  Ni  Ni162  1  0.34098241  0.82885728  0.49654605  1
  Ni  Ni163  1  0.58837792  0.14272870  -0.06178967  1
  Ni  Ni164  1  0.35046081  0.27754483  -0.00571242  1
  Ni  Ni165  1  0.68408924  0.53617134  0.58061557  1
  Ni  Ni166  1  0.33256378  0.61624556  0.03608427  1
  Ni  Ni167  1  0.72761495  0.57443129  0.25278979  1
  Ni  Ni168  1  0.56299857  0.48903481  0.67207458  1
  Ni  Ni169  1  0.16440084  0.73605378  0.84325180  1
  Ni  Ni170  1  0.03075888  0.15597019  0.84196911  1
  Ni  Ni171  1  0.13068403  0.28083797  0.85269665  1
  Ni  Ni172  1  0.59037868  0.86298629  0.36917289  1
  Ni  Ni173  1  0.56967048  0.88657775  0.07360298  1
  Ni  Ni174  1  -0.00240133  0.76949410  0.78593345  1
  Ni  Ni175  1  -0.08017622  -0.02446529  -0.01447494  1
  Ni  Ni176  1  0.07726638  0.61517021  0.25576411  1
  Ni  Ni177  1  0.95189177  0.30608569  0.84645779  1
  Ni  Ni178  1  0.47565820  0.35477174  0.10476945  1
  Ni  Ni179  1  0.15108181  0.19657226  0.69582975  1
  Ni  Ni180  1  0.59954021  0.76807411  0.50602682  1
  Ni  Ni181  1  0.16944934  0.25873243  0.44715568  1
  Ni  Ni182  1  0.12132117  -0.06770407  0.53719365  1
  Ni  Ni183  1  0.61467635  0.73373598  -0.02199615  1
  Ni  Ni184  1  -0.03021472  0.64407094  0.67415960  1
  Ni  Ni185  1  0.12281035  0.83404162  0.70646187  1
  Ni  Ni186  1  0.72291650  0.35135936  0.35534855  1
  Ni  Ni187  1  0.79848144  0.91614244  0.62459711  1
  Ni  Ni188  1  0.87765807  0.28748339  0.45096663  1
  Ni  Ni189  1  -0.10957240  0.81022092  0.51687565  1
  Ni  Ni190  1  0.61846502  0.14968832  0.66208543  1
  Ni  Ni191  1  0.33667508  -0.06704041  0.34492379  1
  Ni  Ni192  1  0.00506153  0.27445577  0.16634213  1
  Ni  Ni193  1  0.81263793  0.07731280  0.68703401  1
  Ni  Ni194  1  0.67149833  -0.00417787  0.68592289  1
  Ni  Ni195  1  0.84581073  -0.03799175  0.47095932  1
  Ni  Ni196  1  0.55744247  0.89835583  0.74743333  1
  Ni  Ni197  1  0.16038091  0.41345781  0.38592220  1
  Ni  Ni198  1  0.19869751  0.31366334  0.25832419  1
  Ni  Ni199  1  0.70845553  0.76315452  0.83796276  1
  Ni  Ni200  1  0.24673404  0.47100629  0.02182238  1
  Ni  Ni201  1  0.41697405  0.34347180  0.84207797  1
  Ni  Ni202  1  0.60355579  0.22606176  0.50617418  1
  Ni  Ni203  1  0.55498523  0.48538267  0.16660975  1
  Ni  Ni204  1  0.37362134  0.07768075  0.43611649  1
  Ni  Ni205  1  0.62374267  0.78463739  0.19876405  1
  Ni  Ni206  1  0.02159792  0.26969773  -0.01510528  1
  Ni  Ni207  1  0.23431950  0.65724959  0.17763142  1
  Ni  Ni208  1  0.53342818  -0.00587887  0.60995049  1
  Ni  Ni209  1  0.37577783  0.50480020  0.82074994  1
  Ni  Ni210  1  0.59734509  0.45549581  0.31986266  1
  Ni  Ni211  1  0.09468255  0.64933453  -0.03010625  1
  Ni  Ni212  1  0.59084841  0.13197658  0.25414974  1
  Ni  Ni213  1  0.37096875  -0.01143831  0.59281881  1
  Ni  Ni214  1  0.25384988  0.51826192  0.47575187  1
