# generated using pymatgen
data_Ti108Co54Ni53
_symmetry_space_group_name_H-M   'P 1'
_cell_length_a   14.70446865
_cell_length_b   14.64177819
_cell_length_c   14.62577088
_cell_angle_alpha   89.83197839
_cell_angle_beta   90.07609599
_cell_angle_gamma   89.80112150
_symmetry_Int_Tables_number   1
_chemical_formula_structural   Ti108Co54Ni53
_chemical_formula_sum   'Ti108 Co54 Ni53'
_cell_volume   3148.88682891
_cell_formula_units_Z   1
loop_
 _symmetry_equiv_pos_site_id
 _symmetry_equiv_pos_as_xyz
  1  'x, y, z'
loop_
 _atom_site_type_symbol
 _atom_site_label
 _atom_site_symmetry_multiplicity
 _atom_site_fract_x
 _atom_site_fract_y
 _atom_site_fract_z
 _atom_site_occupancy
  Ti  Ti0  1  0.10345135  0.07941212  0.24507528  1
  Ti  Ti1  1  0.06709206  0.13062872  0.63530395  1
  Ti  Ti2  1  0.03671858  0.05349106  0.94043137  1
  Ti  Ti3  1  0.05106444  0.46085558  0.28164091  1
  Ti  Ti4  1  0.04536433  0.38147235  0.48136585  1
  Ti  Ti5  1  0.08394453  0.49428471  0.87218578  1
  Ti  Ti6  1  0.10290761  0.72733916  0.32593015  1
  Ti  Ti7  1  0.08313294  0.77235384  0.53787927  1
  Ti  Ti8  1  0.17322953  0.73944486  0.89534255  1
  Ti  Ti9  1  0.48691470  0.07190761  0.27064719  1
  Ti  Ti10  1  0.45057197  0.04407960  0.63231490  1
  Ti  Ti11  1  0.46481270  0.12324049  0.86008670  1
  Ti  Ti12  1  0.38529613  0.40546662  0.22541572  1
  Ti  Ti13  1  0.37983731  0.34058448  0.49908321  1
  Ti  Ti14  1  0.46033858  0.42377285  0.92511347  1
  Ti  Ti15  1  0.40741025  0.69080016  0.27464693  1
  Ti  Ti16  1  0.39690508  0.70871091  0.59309527  1
  Ti  Ti17  1  0.42972034  0.81842631  0.95986634  1
  Ti  Ti18  1  0.67002091  0.06343661  0.23868912  1
  Ti  Ti19  1  0.68536439  0.06584854  0.57897088  1
  Ti  Ti20  1  0.83952317  0.11445108  0.96482601  1
  Ti  Ti21  1  0.73316938  0.39581728  0.25169730  1
  Ti  Ti22  1  0.66791805  0.41689203  0.59577651  1
  Ti  Ti23  1  0.79315330  0.40922066  0.94211847  1
  Ti  Ti24  1  0.71543540  0.76577634  0.30578260  1
  Ti  Ti25  1  0.73343047  0.71489182  0.57694265  1
  Ti  Ti26  1  0.72788736  0.77253611  0.85326545  1
  Ti  Ti27  1  0.05529086  0.24291609  0.00205288  1
  Ti  Ti28  1  0.05713425  0.24861298  0.33524135  1
  Ti  Ti29  1  0.07275390  0.32246696  0.67223149  1
  Ti  Ti30  1  0.11237784  0.57163372  0.05325913  1
  Ti  Ti31  1  0.07156396  0.58156058  0.46884547  1
  Ti  Ti32  1  0.07062869  0.51942298  0.64876784  1
  Ti  Ti33  1  0.09861359  0.78090400  0.11300683  1
  Ti  Ti34  1  0.15254013  0.90824197  0.34802643  1
  Ti  Ti35  1  0.14112945  0.90215049  0.80206636  1
  Ti  Ti36  1  0.40021206  0.26771856  0.07840284  1
  Ti  Ti37  1  0.36493842  0.15628600  0.39685767  1
  Ti  Ti38  1  0.40113820  0.25049253  0.71438264  1
  Ti  Ti39  1  0.43611743  0.64405060  0.07911545  1
  Ti  Ti40  1  0.51399354  0.60110441  0.41975262  1
  Ti  Ti41  1  0.38779684  0.54763231  0.76185714  1
  Ti  Ti42  1  0.42352235  0.96109729  0.10442489  1
  Ti  Ti43  1  0.43078340  0.96608226  0.43147202  1
  Ti  Ti44  1  0.46014173  0.91783752  0.79402012  1
  Ti  Ti45  1  0.74987684  0.18904220  0.13056745  1
  Ti  Ti46  1  0.83385564  0.26010028  0.43521221  1
  Ti  Ti47  1  0.78000366  0.18735908  0.71271088  1
  Ti  Ti48  1  0.75551489  0.63176620  0.00078560  1
  Ti  Ti49  1  0.69239180  0.55883808  0.32591883  1
  Ti  Ti50  1  0.81568026  0.60544079  0.79015547  1
  Ti  Ti51  1  0.76928210  0.96321241  0.08336093  1
  Ti  Ti52  1  0.76946182  0.97483369  0.39536180  1
  Ti  Ti53  1  0.73743082  0.97553719  0.75299780  1
  Ti  Ti54  1  0.29207647  0.11529161  -0.00185163  1
  Ti  Ti55  1  0.14082865  0.08016066  0.47385880  1
  Ti  Ti56  1  0.22438770  0.06195663  0.70725646  1
  Ti  Ti57  1  0.25861585  0.41401078  0.06347435  1
  Ti  Ti58  1  0.22873857  0.45120392  0.41668292  1
  Ti  Ti59  1  0.21627595  0.45207844  0.74851102  1
  Ti  Ti60  1  0.25106657  0.69123545  0.14000081  1
  Ti  Ti61  1  0.30941730  0.79435441  0.41832701  1
  Ti  Ti62  1  0.32178223  0.76004798  0.76711853  1
  Ti  Ti63  1  0.63128907  0.08855414  0.00490167  1
  Ti  Ti64  1  0.65890804  0.14396329  0.41271787  1
  Ti  Ti65  1  0.59324808  0.15373315  0.72853427  1
  Ti  Ti66  1  0.64101167  0.45159674  0.05889964  1
  Ti  Ti67  1  0.55498976  0.41940181  0.41640768  1
  Ti  Ti68  1  0.58524648  0.46308030  0.78168303  1
  Ti  Ti69  1  0.68207544  0.76181992  0.11303073  1
  Ti  Ti70  1  0.51495070  0.78969000  0.42195153  1
  Ti  Ti71  1  0.54817380  0.69504476  0.76574811  1
  Ti  Ti72  1  0.94104775  0.08061065  0.12180636  1
  Ti  Ti73  1  0.90019681  0.11470902  0.31619912  1
  Ti  Ti74  1  0.99752461  0.01811930  0.75769500  1
  Ti  Ti75  1  0.95652898  0.41231728  0.09627949  1
  Ti  Ti76  1  0.79162057  0.43892281  0.45821361  1
  Ti  Ti77  1  0.91609192  0.41482655  0.76336293  1
  Ti  Ti78  1  0.92986790  0.73562035  0.05552677  1
  Ti  Ti79  1  0.91050878  0.71132635  0.41184293  1
  Ti  Ti80  1  0.99780285  0.76025244  0.77361691  1
  Ti  Ti81  1  0.24514760  0.25187970  0.21755242  1
  Ti  Ti82  1  0.24431113  0.21685697  0.57076303  1
  Ti  Ti83  1  0.22276493  0.28539011  0.89781004  1
  Ti  Ti84  1  0.24620928  0.60242659  0.31540483  1
  Ti  Ti85  1  0.27745673  0.53818584  0.57504060  1
  Ti  Ti86  1  0.28838562  0.57750499  0.95314576  1
  Ti  Ti87  1  0.28650686  1.00082732  0.23293732  1
  Ti  Ti88  1  0.23118241  0.89897565  0.57131338  1
  Ti  Ti89  1  0.18480652  0.92635310  1.00119666  1
  Ti  Ti90  1  0.58752562  0.26702904  0.26794485  1
  Ti  Ti91  1  0.56074501  0.24891457  0.55769638  1
  Ti  Ti92  1  0.56780003  0.26685034  0.98179036  1
  Ti  Ti93  1  0.53516077  0.51583668  0.22283799  1
  Ti  Ti94  1  0.52166190  0.55796103  0.62146530  1
  Ti  Ti95  1  0.56053490  0.59254513  0.95302883  1
  Ti  Ti96  1  0.53684126  0.86653623  0.24764417  1
  Ti  Ti97  1  0.58916916  0.90381252  0.54605092  1
  Ti  Ti98  1  0.60365914  0.90171019  0.97343666  1
  Ti  Ti99  1  0.89621327  0.28909970  0.22126366  1
  Ti  Ti100  1  0.91732217  0.23216140  0.60236211  1
  Ti  Ti101  1  0.96279817  0.21168841  0.81496709  1
  Ti  Ti102  1  0.83551931  0.63942655  0.21272150  1
  Ti  Ti103  1  0.86219799  0.55655725  0.60569375  1
  Ti  Ti104  1  0.92181733  0.54625656  0.96323711  1
  Ti  Ti105  1  0.97705822  0.90640174  0.23151425  1
  Ti  Ti106  1  0.94888137  0.99630584  0.52863824  1
  Ti  Ti107  1  0.89964768  0.91171842  0.90574310  1
  Co  Co108  1  0.38241932  0.88277391  0.29705099  1
  Co  Co109  1  0.42517460  0.48935942  0.52737673  1
  Co  Co110  1  0.08866030  -0.07125443  0.49422745  1
  Co  Co111  1  0.74133346  -0.03599366  -0.08740400  1
  Co  Co112  1  0.31814314  0.32088378  0.34998357  1
  Co  Co113  1  0.13720685  -0.06536321  0.17465922  1
  Co  Co114  1  0.24272535  0.80160554  0.26188076  1
  Co  Co115  1  0.60538306  -0.03980928  0.37676971  1
  Co  Co116  1  0.69759250  0.90304539  0.22739655  1
  Co  Co117  1  0.50850223  0.82231200  0.67274505  1
  Co  Co118  1  0.77313489  0.35307145  0.10067932  1
  Co  Co119  1  -0.04604555  0.36615654  -0.07453475  1
  Co  Co120  1  0.01670433  0.01863776  0.37327409  1
  Co  Co121  1  0.36240420  0.12305321  0.15873220  1
  Co  Co122  1  0.59068702  0.01606765  0.84944388  1
  Co  Co123  1  0.21050042  0.25039063  0.05964848  1
  Co  Co124  1  0.61206629  0.85835832  0.80148425  1
  Co  Co125  1  0.57151478  0.70968744  0.57012243  1
  Co  Co126  1  0.10731111  0.39950694  0.00096689  1
  Co  Co127  1  0.39284425  0.79003780  0.15234800  1
  Co  Co128  1  0.58324318  -0.01888432  0.12487322  1
  Co  Co129  1  -0.01568573  0.60620571  0.30757988  1
  Co  Co130  1  0.58573655  -0.02057095  0.69271988  1
  Co  Co131  1  0.72150432  0.23463530  0.56482140  1
  Co  Co132  1  0.42596158  0.23888485  0.24889429  1
  Co  Co133  1  0.55596578  0.16310979  0.14495887  1
  Co  Co134  1  0.50203704  0.24271625  0.40487093  1
  Co  Co135  1  0.14100814  0.78345270  0.69619378  1
  Co  Co136  1  0.75680386  0.45074365  0.75174115  1
  Co  Co137  1  0.41053483  0.17987763  0.55175106  1
  Co  Co138  1  0.19324340  0.39150701  0.58142251  1
  Co  Co139  1  0.08810345  -0.05980533  0.64958512  1
  Co  Co140  1  0.67300735  0.31583225  0.41691359  1
  Co  Co141  1  0.08412461  0.33507725  0.83185556  1
  Co  Co142  1  -0.05939919  0.41925411  0.58442558  1
  Co  Co143  1  0.11584713  0.60005099  0.20996336  1
  Co  Co144  1  0.86880707  0.48275453  0.26163422  1
  Co  Co145  1  0.30769981  0.54476677  0.14656423  1
  Co  Co146  1  0.22339905  0.44157269  0.25043504  1
  Co  Co147  1  0.52880430  0.08106616  0.47983472  1
  Co  Co148  1  -0.06790429  0.51993730  0.43244462  1
  Co  Co149  1  0.58038991  0.74226131  -0.06861354  1
  Co  Co150  1  0.81049904  0.35186444  0.63867220  1
  Co  Co151  1  0.86068762  0.06539236  0.82368948  1
  Co  Co152  1  -0.03300974  0.57158043  0.14013367  1
  Co  Co153  1  0.70732166  0.83898842  0.45647543  1
  Co  Co154  1  0.46214524  0.12010630  0.02563623  1
  Co  Co155  1  -0.03060860  0.74094169  0.22411523  1
  Co  Co156  1  0.27021574  0.87022170  0.11663052  1
  Co  Co157  1  0.84675841  0.84859493  0.32643389  1
  Co  Co158  1  -0.02904937  0.58269143  0.77714551  1
  Co  Co159  1  0.30669893  0.04906725  0.55963923  1
  Co  Co160  1  0.83329582  0.82176252  0.16576548  1
  Co  Co161  1  0.81201482  0.51110622  0.10244301  1
  Ni  Ni162  1  0.30065957  0.15723669  0.82113103  1
  Ni  Ni163  1  0.79406336  0.61094034  0.45107053  1
  Ni  Ni164  1  0.50620173  0.37664463  0.65490804  1
  Ni  Ni165  1  0.12058030  0.16829267  0.80311545  1
  Ni  Ni166  1  0.18364175  0.29390349  0.44054577  1
  Ni  Ni167  1  0.23627877  0.66261041  0.65977086  1
  Ni  Ni168  1  0.65592864  0.55445381  0.51266659  1
  Ni  Ni169  1  0.01675452  -0.06243245  0.06387961  1
  Ni  Ni170  1  0.52646501  0.30016674  0.81571278  1
  Ni  Ni171  1  0.67067111  0.59408258  0.15299735  1
  Ni  Ni172  1  0.78944749  0.81923387  -0.00030443  1
  Ni  Ni173  1  0.53704363  0.34841147  0.13619510  1
  Ni  Ni174  1  0.29464061  0.89241435  0.87000383  1
  Ni  Ni175  1  0.11208988  0.35346104  0.16286614  1
  Ni  Ni176  1  0.29672522  0.74791973  -0.00690952  1
  Ni  Ni177  1  0.34431142  0.39845591  0.65740288  1
  Ni  Ni178  1  -0.00671490  0.85148909  0.39514298  1
  Ni  Ni179  1  0.39707897  0.48856145  0.36312251  1
  Ni  Ni180  1  0.82432372  0.10888247  0.49922393  1
  Ni  Ni181  1  0.65714678  0.31083464  0.71812775  1
  Ni  Ni182  1  0.88453097  0.72520213  0.89591429  1
  Ni  Ni183  1  -0.01357175  0.15966990  0.46589999  1
  Ni  Ni184  1  0.72846889  0.25035637  -0.02190352  1
  Ni  Ni185  1  0.83274015  -0.00679094  0.23043059  1
  Ni  Ni186  1  0.81776181  0.27915388  0.84614665  1
  Ni  Ni187  1  0.30448294  0.42888604  0.88461112  1
  Ni  Ni188  1  0.22589306  0.27717806  0.72245889  1
  Ni  Ni189  1  0.70517299  0.13474520  0.85814218  1
  Ni  Ni190  1  0.86341905  0.05515877  0.65744389  1
  Ni  Ni191  1  0.32442482  -0.07160036  0.70227626  1
  Ni  Ni192  1  0.19514232  0.04447057  0.88003615  1
  Ni  Ni193  1  0.69657244  0.53217102  0.88267886  1
  Ni  Ni194  1  0.44413159  0.47612157  0.07662314  1
  Ni  Ni195  1  0.39271122  0.26833830  -0.08985904  1
  Ni  Ni196  1  0.53193221  0.78961638  0.08802365  1
  Ni  Ni197  1  0.03352289  0.66125119  -0.08113698  1
  Ni  Ni198  1  0.67893998  0.58986501  0.68233272  1
  Ni  Ni199  1  -0.00097609  0.66648576  0.63238630  1
  Ni  Ni200  1  0.40154855  0.87293226  0.56213543  1
  Ni  Ni201  1  0.03122861  0.21107426  0.16784202  1
  Ni  Ni202  1  0.65110024  0.69065109  0.42828565  1
  Ni  Ni203  1  0.75205822  0.22103885  0.29328684  1
  Ni  Ni204  1  0.04074659  0.83134421  0.94120279  1
  Ni  Ni205  1  0.12936031  0.63197820  0.77594685  1
  Ni  Ni206  1  0.57127912  0.68164218  0.25871634  1
  Ni  Ni207  1  0.21026316  0.16171898  0.35057913  1
  Ni  Ni208  1  0.35843771  0.62871413  0.44613304  1
  Ni  Ni209  1  0.40830859  -0.01067533  -0.05839877  1
  Ni  Ni210  1  0.41675343  0.66385362  0.88801364  1
  Ni  Ni211  1  0.20813776  0.67541959  0.48163540  1
  Ni  Ni212  1  0.27326142  0.00373654  0.40116709  1
  Ni  Ni213  1  -0.07272230  0.37114497  0.36218945  1
  Ni  Ni214  1  0.89141762  0.25233724  0.04357964  1
