# generated using pymatgen
data_Ti108Co54Ni53
_symmetry_space_group_name_H-M   'P 1'
_cell_length_a   14.60402476
_cell_length_b   14.64748924
_cell_length_c   14.60915212
_cell_angle_alpha   90.14405759
_cell_angle_beta   90.01587645
_cell_angle_gamma   89.99124587
_symmetry_Int_Tables_number   1
_chemical_formula_structural   Ti108Co54Ni53
_chemical_formula_sum   'Ti108 Co54 Ni53'
_cell_volume   3125.06723305
_cell_formula_units_Z   1
loop_
 _symmetry_equiv_pos_site_id
 _symmetry_equiv_pos_as_xyz
  1  'x, y, z'
loop_
 _atom_site_type_symbol
 _atom_site_label
 _atom_site_symmetry_multiplicity
 _atom_site_fract_x
 _atom_site_fract_y
 _atom_site_fract_z
 _atom_site_occupancy
  Ti  Ti0  1  0.07958672  0.08886985  0.24248819  1
  Ti  Ti1  1  0.06174545  0.09189059  0.59912955  1
  Ti  Ti2  1  0.01408314  0.10635050  0.93649420  1
  Ti  Ti3  1  0.09403929  0.34167482  0.28259638  1
  Ti  Ti4  1  0.08695962  0.37731118  0.64053675  1
  Ti  Ti5  1  0.03913809  0.41254047  0.96893946  1
  Ti  Ti6  1  0.15725269  0.76637779  0.20831143  1
  Ti  Ti7  1  0.06673590  0.69083714  0.53471674  1
  Ti  Ti8  1  0.02140305  0.75356793  0.93588049  1
  Ti  Ti9  1  0.38088686  0.08360285  0.26105031  1
  Ti  Ti10  1  0.43801592  0.09030571  0.55013404  1
  Ti  Ti11  1  0.44254080  0.12120550  0.90311371  1
  Ti  Ti12  1  0.39393450  0.40565313  0.18282601  1
  Ti  Ti13  1  0.40375438  0.38157033  0.62145247  1
  Ti  Ti14  1  0.42071189  0.42915979  0.88797827  1
  Ti  Ti15  1  0.44830454  0.59229604  0.21957250  1
  Ti  Ti16  1  0.38041211  0.70412279  0.58180688  1
  Ti  Ti17  1  0.46490411  0.76154940  0.85301380  1
  Ti  Ti18  1  0.69862663  0.11381698  0.28533651  1
  Ti  Ti19  1  0.77838743  0.05554200  0.61469796  1
  Ti  Ti20  1  0.76077496  0.11675209  0.95797233  1
  Ti  Ti21  1  0.76810606  0.46007691  0.23755364  1
  Ti  Ti22  1  0.73637651  0.34584487  0.58306700  1
  Ti  Ti23  1  0.71312597  0.47741708  0.91921742  1
  Ti  Ti24  1  0.78704388  0.78264022  0.24233411  1
  Ti  Ti25  1  0.84247274  0.74150399  0.56744705  1
  Ti  Ti26  1  0.66925915  0.70725571  0.86325640  1
  Ti  Ti27  1  0.13278319  0.24720431  0.08633605  1
  Ti  Ti28  1  0.02153840  0.21158032  0.41744550  1
  Ti  Ti29  1  -0.01163980  0.26353955  0.77815654  1
  Ti  Ti30  1  0.10055936  0.59237869  0.04889926  1
  Ti  Ti31  1  0.04836735  0.52429485  0.37439386  1
  Ti  Ti32  1  0.09243313  0.69994334  0.74777578  1
  Ti  Ti33  1  0.07545164  0.95858345  0.04529633  1
  Ti  Ti34  1  0.09796244  0.96003201  0.46068721  1
  Ti  Ti35  1  0.08923683  0.88224304  0.65275158  1
  Ti  Ti36  1  0.44000358  0.21426258  0.10477469  1
  Ti  Ti37  1  0.43477435  0.30825987  0.40159863  1
  Ti  Ti38  1  0.44414420  0.28674825  0.78464168  1
  Ti  Ti39  1  0.42748785  0.65549082  0.03538069  1
  Ti  Ti40  1  0.37813046  0.52538482  0.46583363  1
  Ti  Ti41  1  0.44837719  0.58182636  0.76503429  1
  Ti  Ti42  1  0.43127737  0.91903336  0.16751653  1
  Ti  Ti43  1  0.47600363  0.95267951  0.39201504  1
  Ti  Ti44  1  0.43419651  0.97133823  0.74175499  1
  Ti  Ti45  1  0.72781696  0.27004256  0.12954527  1
  Ti  Ti46  1  0.82414435  0.24119543  0.39287308  1
  Ti  Ti47  1  0.75621132  0.29474811  0.80093012  1
  Ti  Ti48  1  0.72342532  0.61931674  0.06856826  1
  Ti  Ti49  1  0.74843072  0.61580704  0.40155884  1
  Ti  Ti50  1  0.74933966  0.58718017  0.74098396  1
  Ti  Ti51  1  0.75517459  0.93699288  0.06210088  1
  Ti  Ti52  1  0.73729867  0.83759267  0.42806324  1
  Ti  Ti53  1  0.81323669  0.86771854  0.75806279  1
  Ti  Ti54  1  0.23623315  0.02670579  0.15714038  1
  Ti  Ti55  1  0.29739523  0.05199054  0.44246465  1
  Ti  Ti56  1  0.28665006  0.11891955  0.68883381  1
  Ti  Ti57  1  0.22973124  0.41199418  0.00559668  1
  Ti  Ti58  1  0.21414800  0.41074493  0.45642218  1
  Ti  Ti59  1  0.21287680  0.35629203  0.80175062  1
  Ti  Ti60  1  0.25644173  0.68775876  0.07285713  1
  Ti  Ti61  1  0.24164973  0.72138441  0.43770971  1
  Ti  Ti62  1  0.28151566  0.67876937  0.76204500  1
  Ti  Ti63  1  0.53793843  0.05774217  0.10887105  1
  Ti  Ti64  1  0.60480434  0.10533445  0.44810701  1
  Ti  Ti65  1  0.63393435  0.16508460  0.67795943  1
  Ti  Ti66  1  0.55342986  0.37523217  0.03845387  1
  Ti  Ti67  1  0.61609506  0.42449468  0.36657765  1
  Ti  Ti68  1  0.58172976  0.47628999  0.64585599  1
  Ti  Ti69  1  0.53887186  0.74781802  0.14958222  1
  Ti  Ti70  1  0.54372381  0.73362439  0.42604099  1
  Ti  Ti71  1  0.60004921  0.84201158  0.71883023  1
  Ti  Ti72  1  0.86534994  0.12411097  0.18690686  1
  Ti  Ti73  1  0.91967341  0.05673101  0.35452508  1
  Ti  Ti74  1  0.88559688  0.03295298  0.80042423  1
  Ti  Ti75  1  0.95067138  0.49458492  0.16655784  1
  Ti  Ti76  1  0.91032904  0.43471682  0.51031231  1
  Ti  Ti77  1  0.87148836  0.46550956  0.82016751  1
  Ti  Ti78  1  0.86522932  0.75699816  0.06891337  1
  Ti  Ti79  1  0.92118773  0.71652360  0.38265339  1
  Ti  Ti80  1  0.88812549  0.70740708  0.79981629  1
  Ti  Ti81  1  0.23975251  0.21081657  0.31597526  1
  Ti  Ti82  1  0.19320890  0.23295461  0.53766078  1
  Ti  Ti83  1  0.28715846  0.20545313  0.97590592  1
  Ti  Ti84  1  0.26642603  0.61633408  0.26520888  1
  Ti  Ti85  1  0.21649226  0.58860355  0.59022203  1
  Ti  Ti86  1  0.30195724  0.57186672  0.92757619  1
  Ti  Ti87  1  0.30166600  0.87664490  0.30505463  1
  Ti  Ti88  1  0.25828062  0.87505734  0.53104834  1
  Ti  Ti89  1  0.28765813  0.90131373  1.02366231  1
  Ti  Ti90  1  0.54589991  0.23664798  0.25470325  1
  Ti  Ti91  1  0.54863112  0.26724215  0.54777911  1
  Ti  Ti92  1  0.60162379  0.20762944  0.87510112  1
  Ti  Ti93  1  0.63640955  0.60967606  0.25507868  1
  Ti  Ti94  1  0.65435538  0.68110068  0.56272534  1
  Ti  Ti95  1  0.55145790  0.56726928  0.94568558  1
  Ti  Ti96  1  0.62985211  0.91742583  0.21029965  1
  Ti  Ti97  1  0.58031913  0.99307206  0.61056233  1
  Ti  Ti98  1  0.47929595  0.94333632  0.95007362  1
  Ti  Ti99  1  0.95930344  0.30802824  0.12860170  1
  Ti  Ti100  1  0.94868420  0.25830493  0.58490915  1
  Ti  Ti101  1  0.84903009  0.33369502  0.96810013  1
  Ti  Ti102  1  0.97810341  0.67775937  0.21188244  1
  Ti  Ti103  1  0.96149937  0.56230926  0.66806118  1
  Ti  Ti104  1  1.00650795  0.57597678  0.87838171  1
  Ti  Ti105  1  0.93049023  0.91835009  0.18373043  1
  Ti  Ti106  1  0.89848541  0.95384566  0.51893420  1
  Ti  Ti107  1  0.90975086  0.90597601  0.93955122  1
  Co  Co108  1  0.36968746  0.54306999  0.63408668  1
  Co  Co109  1  0.17092054  0.09627602  0.02283521  1
  Co  Co110  1  -0.06836557  0.10962088  0.67150718  1
  Co  Co111  1  0.58884095  0.31805035  0.70564500  1
  Co  Co112  1  0.97343627  0.21643105  0.26592625  1
  Co  Co113  1  0.11396859  0.58477137  0.20916975  1
  Co  Co114  1  0.12554540  -0.08582655  0.19093256  1
  Co  Co115  1  0.58775433  -0.11939413  0.50179891  1
  Co  Co116  1  0.78267043  -0.02716783  0.25580588  1
  Co  Co117  1  -0.09121948  0.02337014  0.04985795  1
  Co  Co118  1  0.93574895  0.93942171  0.66551950  1
  Co  Co119  1  0.28599042  0.28109024  0.67169634  1
  Co  Co120  1  -0.11453657  0.38365085  0.67891659  1
  Co  Co121  1  0.57353526  0.73947576  -0.01498631  1
  Co  Co122  1  -0.12093124  0.18786934  0.85467556  1
  Co  Co123  1  0.69224497  0.30976338  -0.03062207  1
  Co  Co124  1  -0.01098311  0.85347152  0.79950152  1
  Co  Co125  1  0.87476945  0.18668525  0.03699341  1
  Co  Co126  1  0.15659958  0.83978443  0.36762174  1
  Co  Co127  1  0.19469807  0.46762903  0.27826598  1
  Co  Co128  1  0.30168008  0.21227166  0.81812170  1
  Co  Co129  1  0.54947327  0.57682028  0.40638599  1
  Co  Co130  1  0.07143264  0.51795909  0.54308806  1
  Co  Co131  1  0.72536217  0.18824179  0.52360889  1
  Co  Co132  1  0.61117442  0.88342009  0.87568915  1
  Co  Co133  1  0.58209947  0.37822436  0.86430964  1
  Co  Co134  1  0.74013211  0.11749110  0.79426247  1
  Co  Co135  1  0.56938478  0.55767062  0.10596817  1
  Co  Co136  1  0.20685635  0.75098199  0.62665722  1
  Co  Co137  1  0.16493737  0.67284164  0.89863362  1
  Co  Co138  1  0.41559503  0.49505007  0.04467892  1
  Co  Co139  1  0.54087225  0.05760849  0.27844082  1
  Co  Co140  1  0.75049679  -0.03675399  0.88710680  1
  Co  Co141  1  0.82151850  0.62714776  0.21640641  1
  Co  Co142  1  0.12525645  0.21552006  0.69654948  1
  Co  Co143  1  0.63610665  0.77242007  0.29650453  1
  Co  Co144  1  0.51085347  0.60347889  0.56613606  1
  Co  Co145  1  0.72151482  0.42763070  0.72881202  1
  Co  Co146  1  0.42217521  0.81330160  0.02559797  1
  Co  Co147  1  0.69605028  -0.01989799  0.73321384  1
  Co  Co148  1  0.01666133  0.13566146  0.10192566  1
  Co  Co149  1  0.61934635  0.03639029  -0.03111407  1
  Co  Co150  1  -0.11010531  0.12807868  0.50686401  1
  Co  Co151  1  0.84517633  0.31823567  0.23708586  1
  Co  Co152  1  0.50389869  0.79424093  0.60116306  1
  Co  Co153  1  0.44643937  0.14836334  0.39454445  1
  Co  Co154  1  0.15647469  0.50736325  -0.11785822  1
  Co  Co155  1  -0.05656631  0.62512659  0.04525801  1
  Co  Co156  1  0.19872479  0.00388728  0.32043313  1
  Co  Co157  1  -0.00302674  0.25997991  -0.03372987  1
  Co  Co158  1  0.26894611  0.52244998  0.12265832  1
  Co  Co159  1  0.30820943  0.74495108  -0.07757381  1
  Co  Co160  1  0.81620856  0.21740147  0.67477547  1
  Co  Co161  1  0.20762770  0.56701199  0.41429396  1
  Ni  Ni162  1  0.45350217  0.46623418  0.32861607  1
  Ni  Ni163  1  0.34936205  0.88565285  0.85812512  1
  Ni  Ni164  1  0.58062405  0.42066897  0.20439575  1
  Ni  Ni165  1  0.86567404  0.48940258  0.01207446  1
  Ni  Ni166  1  0.56868908  0.04608489  0.80681309  1
  Ni  Ni167  1  0.28296163  0.18328229  0.15000654  1
  Ni  Ni168  1  0.14126768  0.23856611  0.89596669  1
  Ni  Ni169  1  0.69571188  0.29666150  0.29463661  1
  Ni  Ni170  1  0.60403777  0.52639169  0.79909960  1
  Ni  Ni171  1  0.45968554  0.15436126  0.69769378  1
  Ni  Ni172  1  0.35837526  0.23068463  0.52782361  1
  Ni  Ni173  1  0.24232617  0.43108181  0.62625706  1
  Ni  Ni174  1  0.39507059  0.81647657  0.44828589  1
  Ni  Ni175  1  0.60050665  0.19480371  0.04419392  1
  Ni  Ni176  1  0.13009444  0.53129822  0.71887029  1
  Ni  Ni177  1  0.78093145  0.40829120  0.40546916  1
  Ni  Ni178  1  0.09607926  0.68342881  0.34967476  1
  Ni  Ni179  1  0.11102121  0.43280683  0.13295788  1
  Ni  Ni180  1  0.70618827  0.44158775  0.08263256  1
  Ni  Ni181  1  0.64430901  -0.04354126  0.36674213  1
  Ni  Ni182  1  0.57635869  0.67139029  0.71353692  1
  Ni  Ni183  1  0.69302484  0.78351775  0.09701911  1
  Ni  Ni184  1  0.39367269  0.66340242  0.37716216  1
  Ni  Ni185  1  0.29387773  0.50126712  0.77303757  1
  Ni  Ni186  1  0.24296164  0.33935863  0.17899762  1
  Ni  Ni187  1  0.79985306  0.52062918  0.60504498  1
  Ni  Ni188  1  0.73407628  0.87867784  0.59533335  1
  Ni  Ni189  1  0.88523078  0.53697126  0.34143321  1
  Ni  Ni190  1  0.91369489  0.59917706  0.50286988  1
  Ni  Ni191  1  0.02574413  0.79841348  0.10107626  1
  Ni  Ni192  1  0.02912579  0.42664383  0.79178322  1
  Ni  Ni193  1  0.76939141  0.03835433  0.43056912  1
  Ni  Ni194  1  0.41118826  -0.07297726  0.57277845  1
  Ni  Ni195  1  0.37110497  0.05999569  0.05359028  1
  Ni  Ni196  1  0.70849498  0.08231760  0.12157300  1
  Ni  Ni197  1  0.51653264  0.43488594  0.49578521  1
  Ni  Ni198  1  0.88324667  0.88137338  0.35755407  1
  Ni  Ni199  1  0.82274907  0.62707338  0.92608366  1
  Ni  Ni200  1  0.06004554  0.35980897  0.47131248  1
  Ni  Ni201  1  -0.00350408  0.82843354  0.48542001  1
  Ni  Ni202  1  0.03226221  -0.06842015  0.31665937  1
  Ni  Ni203  1  -0.03517997  0.76923803  0.65921919  1
  Ni  Ni204  1  0.14365247  0.11398446  0.42842989  1
  Ni  Ni205  1  0.30657126  0.36936784  0.32928738  1
  Ni  Ni206  1  -0.05879114  0.37270042  0.35326621  1
  Ni  Ni207  1  0.20892565  0.01672187  0.58914290  1
  Ni  Ni208  1  0.37598998  0.33854889  0.02323270  1
  Ni  Ni209  1  0.67014280  0.50838300  0.50485458  1
  Ni  Ni210  1  0.77016340  0.80447904  -0.05964024  1
  Ni  Ni211  1  0.15924293  0.80357062  0.00879472  1
  Ni  Ni212  1  0.73280356  0.74002318  0.69770478  1
  Ni  Ni213  1  0.46487601  0.80340766  0.29500416  1
  Ni  Ni214  1  0.35610597  0.76287342  0.17861722  1
