# generated using pymatgen
data_Ti108Co54Ni53
_symmetry_space_group_name_H-M   'P 1'
_cell_length_a   14.58268365
_cell_length_b   14.68784114
_cell_length_c   14.66626163
_cell_angle_alpha   89.90642267
_cell_angle_beta   89.91904821
_cell_angle_gamma   90.10743545
_symmetry_Int_Tables_number   1
_chemical_formula_structural   Ti108Co54Ni53
_chemical_formula_sum   'Ti108 Co54 Ni53'
_cell_volume   3141.32644951
_cell_formula_units_Z   1
loop_
 _symmetry_equiv_pos_site_id
 _symmetry_equiv_pos_as_xyz
  1  'x, y, z'
loop_
 _atom_site_type_symbol
 _atom_site_label
 _atom_site_symmetry_multiplicity
 _atom_site_fract_x
 _atom_site_fract_y
 _atom_site_fract_z
 _atom_site_occupancy
  Ti  Ti0  1  0.11153269  0.06160381  0.24450878  1
  Ti  Ti1  1  0.06066664  0.11420804  0.54570290  1
  Ti  Ti2  1  0.02432385  0.17221512  0.99500688  1
  Ti  Ti3  1  0.09777690  0.48044990  0.29040839  1
  Ti  Ti4  1  0.11477675  0.35925694  0.51394897  1
  Ti  Ti5  1  0.09525609  0.36071198  0.98494543  1
  Ti  Ti6  1  0.13889756  0.79774231  0.29823946  1
  Ti  Ti7  1  0.16986003  0.81108639  0.50142104  1
  Ti  Ti8  1  0.07455320  0.75200571  0.87673323  1
  Ti  Ti9  1  0.41291868  0.12487703  0.24003509  1
  Ti  Ti10  1  0.44051550  0.04761109  0.55331465  1
  Ti  Ti11  1  0.32822804  0.09143795  0.87527022  1
  Ti  Ti12  1  0.43130958  0.45475809  0.22104093  1
  Ti  Ti13  1  0.41175093  0.40232066  0.63080641  1
  Ti  Ti14  1  0.46190812  0.44876770  0.83561895  1
  Ti  Ti15  1  0.45830719  0.77163085  0.21656406  1
  Ti  Ti16  1  0.34686614  0.75491810  0.57774141  1
  Ti  Ti17  1  0.42178457  0.76541527  0.85286116  1
  Ti  Ti18  1  0.75365838  0.02713261  0.25576307  1
  Ti  Ti19  1  0.77167138  0.12757493  0.54902693  1
  Ti  Ti20  1  0.74940432  0.03274182  0.93379631  1
  Ti  Ti21  1  0.74577952  0.38188176  0.28929140  1
  Ti  Ti22  1  0.72838435  0.31039318  0.60641587  1
  Ti  Ti23  1  0.72010674  0.41663489  0.97842559  1
  Ti  Ti24  1  0.79173335  0.71293779  0.26469968  1
  Ti  Ti25  1  0.77876977  0.81342626  0.57730240  1
  Ti  Ti26  1  0.72616022  0.63853281  0.95338818  1
  Ti  Ti27  1  0.14453392  0.23987651  0.13422708  1
  Ti  Ti28  1  0.06476854  0.21556146  0.35411110  1
  Ti  Ti29  1  0.09176125  0.24240199  0.81175368  1
  Ti  Ti30  1  0.17121715  0.56933767  0.07124302  1
  Ti  Ti31  1  0.06292607  0.65221240  0.40401682  1
  Ti  Ti32  1  0.15841115  0.54915965  0.77580024  1
  Ti  Ti33  1  0.04898073  0.85788260  0.02946442  1
  Ti  Ti34  1  0.09994451  0.97240849  0.40170938  1
  Ti  Ti35  1  0.03235930  0.88005090  0.71409648  1
  Ti  Ti36  1  0.33522244  0.20274433  0.04645297  1
  Ti  Ti37  1  0.40565582  0.30132928  0.45887338  1
  Ti  Ti38  1  0.43622132  0.24597779  0.77697845  1
  Ti  Ti39  1  0.36245639  0.60430885  0.10345969  1
  Ti  Ti40  1  0.33729159  0.56445746  0.49261220  1
  Ti  Ti41  1  0.37589726  0.59958838  0.70477776  1
  Ti  Ti42  1  0.40578789  0.89556938  0.02399601  1
  Ti  Ti43  1  0.42602256  0.97233704  0.35962809  1
  Ti  Ti44  1  0.47826394  0.94939654  0.74465886  1
  Ti  Ti45  1  0.76597880  0.27816044  0.11327352  1
  Ti  Ti46  1  0.81996669  0.28296039  0.44659339  1
  Ti  Ti47  1  0.76608090  0.31886286  0.80230590  1
  Ti  Ti48  1  0.77906508  0.54955063  0.14709069  1
  Ti  Ti49  1  0.71905380  0.56982787  0.37356417  1
  Ti  Ti50  1  0.67353396  0.55953761  0.75997235  1
  Ti  Ti51  1  0.67814834  0.95113511  0.09428781  1
  Ti  Ti52  1  0.68246345  0.81775986  0.40576195  1
  Ti  Ti53  1  0.76416550  1.00056518  0.68279429  1
  Ti  Ti54  1  0.16749745  0.04286384  0.04332815  1
  Ti  Ti55  1  0.25490522  -0.00378015  0.51693243  1
  Ti  Ti56  1  0.15009999  0.04642873  0.71709773  1
  Ti  Ti57  1  0.28457530  0.38778030  0.08022451  1
  Ti  Ti58  1  0.28159118  0.41271276  0.34678656  1
  Ti  Ti59  1  0.23176843  0.34090277  0.68543475  1
  Ti  Ti60  1  0.26229351  0.74916756  -0.00915947  1
  Ti  Ti61  1  0.35179703  0.75652825  0.38070250  1
  Ti  Ti62  1  0.24875588  0.74354285  0.78663363  1
  Ti  Ti63  1  0.52662740  0.10691257  0.07937462  1
  Ti  Ti64  1  0.61149106  0.08206119  0.40946341  1
  Ti  Ti65  1  0.59296442  0.09705166  0.81921629  1
  Ti  Ti66  1  0.51885039  0.43988203  0.04874650  1
  Ti  Ti67  1  0.56650312  0.36375948  0.36962358  1
  Ti  Ti68  1  0.59945199  0.37922849  0.71529684  1
  Ti  Ti69  1  0.62627629  0.74617516  0.10553525  1
  Ti  Ti70  1  0.52373307  0.64164973  0.40154693  1
  Ti  Ti71  1  0.60524054  0.75170533  0.78134374  1
  Ti  Ti72  1  0.85662662  0.11456625  0.09680889  1
  Ti  Ti73  1  0.92728641  0.08435677  0.40349853  1
  Ti  Ti74  1  0.94452345  0.08114438  0.79505609  1
  Ti  Ti75  1  0.99981331  0.48901862  0.11357657  1
  Ti  Ti76  1  0.96542559  0.36982904  0.38648185  1
  Ti  Ti77  1  0.94468682  0.44389054  0.81182506  1
  Ti  Ti78  1  0.83406209  0.76648599  0.08678609  1
  Ti  Ti79  1  0.87635398  0.75339421  0.42687186  1
  Ti  Ti80  1  0.88371620  0.80531614  0.84520728  1
  Ti  Ti81  1  0.25750255  0.21489924  0.29611466  1
  Ti  Ti82  1  0.24684939  0.17137940  0.59022651  1
  Ti  Ti83  1  0.28289483  0.32285945  0.88617587  1
  Ti  Ti84  1  0.24071245  0.63905088  0.27716735  1
  Ti  Ti85  1  0.11676038  0.55457453  0.56890389  1
  Ti  Ti86  1  0.33053223  0.59554616  0.89325028  1
  Ti  Ti87  1  0.29392215  0.93805826  0.20285214  1
  Ti  Ti88  1  0.29924007  0.91251850  0.68389253  1
  Ti  Ti89  1  0.19667498  0.91586239  0.88176032  1
  Ti  Ti90  1  0.56451802  0.26431466  0.20513300  1
  Ti  Ti91  1  0.55516233  0.22550478  0.56627286  1
  Ti  Ti92  1  0.69105502  0.20347437  0.94882142  1
  Ti  Ti93  1  0.59691763  0.53239777  0.24362690  1
  Ti  Ti94  1  0.67544360  0.52509002  0.57147223  1
  Ti  Ti95  1  0.51736856  0.62727377  0.96586676  1
  Ti  Ti96  1  0.58994298  0.91086023  0.27219993  1
  Ti  Ti97  1  0.60586988  0.88449725  0.62765422  1
  Ti  Ti98  1  0.68601761  0.83747078  0.92297198  1
  Ti  Ti99  1  0.87673120  0.23005382  0.26125495  1
  Ti  Ti100  1  0.93164763  0.33461017  0.63994476  1
  Ti  Ti101  1  0.89250310  0.32694890  0.95896141  1
  Ti  Ti102  1  0.91623855  0.55813303  0.29924247  1
  Ti  Ti103  1  0.87347949  0.58485153  0.52011895  1
  Ti  Ti104  1  0.91752185  0.62728480  0.93074419  1
  Ti  Ti105  1  0.94869733  0.89195053  0.27402337  1
  Ti  Ti106  1  0.91952999  0.93587925  0.51419951  1
  Ti  Ti107  1  0.94029625  1.00509693  0.97221032  1
  Co  Co108  1  0.09939434  -0.05183173  0.58037663  1
  Co  Co109  1  0.30507961  0.45127645  0.78848370  1
  Co  Co110  1  0.02202843  0.82870770  0.42894341  1
  Co  Co111  1  0.16680606  0.63302961  0.91722232  1
  Co  Co112  1  0.83835454  0.46592281  0.40363345  1
  Co  Co113  1  0.37458671  0.47291789  -0.01794319  1
  Co  Co114  1  0.21656042  0.47368195  -0.06735456  1
  Co  Co115  1  0.50808171  0.61554677  0.80444252  1
  Co  Co116  1  0.43795733  0.74071136  0.04129128  1
  Co  Co117  1  0.57396322  0.07553518  0.24753103  1
  Co  Co118  1  0.51202649  0.19723415  0.36616814  1
  Co  Co119  1  0.01789469  0.33678449  0.23612604  1
  Co  Co120  1  0.15981169  0.74006615  0.12385771  1
  Co  Co121  1  0.27493373  0.04575851  0.32567577  1
  Co  Co122  1  0.13768376  0.40204063  0.15229644  1
  Co  Co123  1  0.66014428  0.24422503  0.44439533  1
  Co  Co124  1  0.88294604  0.88493432  0.68208148  1
  Co  Co125  1  0.01047987  0.01874314  0.11657448  1
  Co  Co126  1  0.74344649  0.83116966  0.74046854  1
  Co  Co127  1  0.00423638  0.16919093  0.18054092  1
  Co  Co128  1  0.00267548  0.50664761  0.45333554  1
  Co  Co129  1  0.73472529  0.85266446  0.22010528  1
  Co  Co130  1  -0.08336460  0.05329324  0.25258472  1
  Co  Co131  1  0.55385958  0.39438141  0.54280224  1
  Co  Co132  1  0.64446212  -0.05855248  0.80215349  1
  Co  Co133  1  0.17798851  0.11987794  0.42476162  1
  Co  Co134  1  -0.03612878  0.29605394  0.09238967  1
  Co  Co135  1  0.25498009  0.49809971  0.64120276  1
  Co  Co136  1  0.63493996  0.21899176  0.72360757  1
  Co  Co137  1  0.19263155  0.20730575  -0.03976600  1
  Co  Co138  1  0.69350692  0.22137376  0.28141861  1
  Co  Co139  1  0.04431344  0.66823987  0.03185073  1
  Co  Co140  1  0.82078787  0.91126302  0.37424778  1
  Co  Co141  1  0.78215537  0.44370123  0.70311445  1
  Co  Co142  1  0.77314199  0.68680099  0.80960206  1
  Co  Co143  1  -0.03312745  0.23868932  0.50674682  1
  Co  Co144  1  0.43342053  0.30812669  0.11626928  1
  Co  Co145  1  0.27907651  0.40775572  0.51509652  1
  Co  Co146  1  0.33402161  0.06843962  0.69641051  1
  Co  Co147  1  0.24720016  0.18657860  0.77266140  1
  Co  Co148  1  0.22400628  0.67097083  0.45139291  1
  Co  Co149  1  0.51316661  0.62728586  0.15566223  1
  Co  Co150  1  0.38784467  0.22753808  0.62187155  1
  Co  Co151  1  0.22093251  0.88877586  0.05450232  1
  Co  Co152  1  0.83836371  0.43189638  0.55448223  1
  Co  Co153  1  0.50777754  0.80808104  0.38480724  1
  Co  Co154  1  0.12018240  0.40132195  0.82584028  1
  Co  Co155  1  0.82964999  -0.04788260  0.82485024  1
  Co  Co156  1  0.25334067  0.10708371  0.17173016  1
  Co  Co157  1  0.17707911  0.51456200  0.42446037  1
  Co  Co158  1  0.79953669  0.50964623  0.85889470  1
  Co  Co159  1  0.40447951  0.60092650  0.28793878  1
  Co  Co160  1  -0.03719192  0.72209303  0.29763198  1
  Co  Co161  1  0.59008325  0.01661357  -0.03468373  1
  Ni  Ni162  1  0.43922261  0.32066855  -0.04998168  1
  Ni  Ni163  1  0.46647033  -0.03622085  0.17293930  1
  Ni  Ni164  1  0.66406415  0.41056812  0.14231057  1
  Ni  Ni165  1  0.63609331  0.55885884  0.06666690  1
  Ni  Ni166  1  0.69099303  0.69083477  0.65000598  1
  Ni  Ni167  1  0.26629971  0.89402556  0.38055974  1
  Ni  Ni168  1  0.11625385  -0.09489005  0.18091794  1
  Ni  Ni169  1  0.04689029  0.51497389  0.93602905  1
  Ni  Ni170  1  0.85961928  -0.06217328  0.13530921  1
  Ni  Ni171  1  -0.00029716  0.77741920  0.15621067  1
  Ni  Ni172  1  0.57739037  0.75764386  0.53137082  1
  Ni  Ni173  1  0.69730626  0.40729188  0.45928730  1
  Ni  Ni174  1  0.07354851  0.63088752  0.21507361  1
  Ni  Ni175  1  0.82756546  0.88871406  -0.01527625  1
  Ni  Ni176  1  0.48425635  0.16501658  -0.06949442  1
  Ni  Ni177  1  0.07485300  0.42288642  0.67182223  1
  Ni  Ni178  1  0.91936965  0.63598485  0.14422524  1
  Ni  Ni179  1  0.03504262  0.93612035  0.86443517  1
  Ni  Ni180  1  0.49383402  0.11761273  0.68995419  1
  Ni  Ni181  1  0.40293799  0.88982106  0.50585498  1
  Ni  Ni182  1  0.61546325  0.05526642  0.59384343  1
  Ni  Ni183  1  0.08324539  0.24539346  0.64587132  1
  Ni  Ni184  1  0.87394406  0.48742752  0.00717836  1
  Ni  Ni185  1  0.77350194  0.12912082  0.38234819  1
  Ni  Ni186  1  0.61712497  0.72014779  0.27465615  1
  Ni  Ni187  1  0.52559051  0.51986361  0.66295479  1
  Ni  Ni188  1  0.56054737  -0.06493775  0.47331877  1
  Ni  Ni189  1  0.58778318  0.31129330  0.87004246  1
  Ni  Ni190  1  0.23472366  0.26793928  0.44888911  1
  Ni  Ni191  1  -0.07646085  0.25546899  0.80210500  1
  Ni  Ni192  1  0.68509654  0.13103990  0.12844321  1
  Ni  Ni193  1  0.77090070  0.13635144  0.78985457  1
  Ni  Ni194  1  0.47234545  0.63942114  0.56601275  1
  Ni  Ni195  1  0.86527292  0.40322110  0.17154521  1
  Ni  Ni196  1  0.17024312  0.81284118  0.66413595  1
  Ni  Ni197  1  0.12557715  0.07971255  0.87829230  1
  Ni  Ni198  1  0.52231030  0.88775396  -0.10214658  1
  Ni  Ni199  1  0.88451717  0.17560727  0.65994439  1
  Ni  Ni200  1  0.46226882  0.76652928  0.69078452  1
  Ni  Ni201  1  0.61034688  0.49914339  0.89636272  1
  Ni  Ni202  1  0.72755332  -0.03571949  0.50548680  1
  Ni  Ni203  1  0.26490302  0.49750586  0.20538687  1
  Ni  Ni204  1  0.35823787  0.13946109  0.43793759  1
  Ni  Ni205  1  0.44562730  0.47492715  0.39942296  1
  Ni  Ni206  1  0.30781922  0.77584864  0.15890075  1
  Ni  Ni207  1  0.58516220  0.28368507  0.04043762  1
  Ni  Ni208  1  0.35552805  0.91749165  0.85545005  1
  Ni  Ni209  1  0.72260308  0.67573086  0.49348608  1
  Ni  Ni210  1  -0.04125794  0.02849224  0.64188863  1
  Ni  Ni211  1  0.40836723  0.29822706  0.28214055  1
  Ni  Ni212  1  0.22409077  0.66056428  0.63568997  1
  Ni  Ni213  1  0.36264142  0.04514110  0.06745680  1
  Ni  Ni214  1  0.86170960  0.16479003  -0.07288030  1
