# generated using pymatgen
data_Ti108Co54Ni53
_symmetry_space_group_name_H-M   'P 1'
_cell_length_a   14.60247483
_cell_length_b   14.59405932
_cell_length_c   14.59522501
_cell_angle_alpha   90.08453003
_cell_angle_beta   89.93894652
_cell_angle_gamma   90.31580357
_symmetry_Int_Tables_number   1
_chemical_formula_structural   Ti108Co54Ni53
_chemical_formula_sum   'Ti108 Co54 Ni53'
_cell_volume   3110.32703795
_cell_formula_units_Z   1
loop_
 _symmetry_equiv_pos_site_id
 _symmetry_equiv_pos_as_xyz
  1  'x, y, z'
loop_
 _atom_site_type_symbol
 _atom_site_label
 _atom_site_symmetry_multiplicity
 _atom_site_fract_x
 _atom_site_fract_y
 _atom_site_fract_z
 _atom_site_occupancy
  Ti  Ti0  1  0.02453319  0.13865226  0.22912543  1
  Ti  Ti1  1  0.06398674  0.13443893  0.61651002  1
  Ti  Ti2  1  0.06804556  0.09514424  0.86473634  1
  Ti  Ti3  1  0.17318612  0.43723402  0.27065571  1
  Ti  Ti4  1  0.03720258  0.47912626  0.64657208  1
  Ti  Ti5  1  0.04034742  0.52611594  0.95568416  1
  Ti  Ti6  1  -0.00082161  0.81784887  0.24148089  1
  Ti  Ti7  1  0.05686398  0.80123880  0.55537394  1
  Ti  Ti8  1  0.06314388  0.72703649  0.88766111  1
  Ti  Ti9  1  0.35836887  0.12539582  0.28209479  1
  Ti  Ti10  1  0.47858079  0.05573053  0.58835186  1
  Ti  Ti11  1  0.42157488  0.06377167  0.99700527  1
  Ti  Ti12  1  0.46668963  0.36345997  0.26125166  1
  Ti  Ti13  1  0.49775444  0.37990785  0.59350225  1
  Ti  Ti14  1  0.45375768  0.44286893  0.90876662  1
  Ti  Ti15  1  0.37512082  0.79755865  0.25657212  1
  Ti  Ti16  1  0.33559869  0.66180998  0.54249597  1
  Ti  Ti17  1  0.36161113  0.79608900  0.88553746  1
  Ti  Ti18  1  0.71909763  0.07376837  0.30439030  1
  Ti  Ti19  1  0.76886376  0.05415500  0.58361082  1
  Ti  Ti20  1  0.74614166  0.12661059  0.94314699  1
  Ti  Ti21  1  0.68897036  0.40390675  0.27229247  1
  Ti  Ti22  1  0.77034051  0.38243921  0.61137143  1
  Ti  Ti23  1  0.76190142  0.41814871  0.99825732  1
  Ti  Ti24  1  0.78187001  0.83783072  0.21409416  1
  Ti  Ti25  1  0.77391729  0.71674860  0.60870093  1
  Ti  Ti26  1  0.71660826  0.78889284  0.90651673  1
  Ti  Ti27  1  0.06306523  0.20951140  0.05603451  1
  Ti  Ti28  1  0.13870612  0.23454213  0.39840818  1
  Ti  Ti29  1  0.07210551  0.36710299  0.83247548  1
  Ti  Ti30  1  0.05994785  0.55084158  0.14680317  1
  Ti  Ti31  1  0.02973447  0.50971008  0.41302661  1
  Ti  Ti32  1  0.16108136  0.55528996  0.79297218  1
  Ti  Ti33  1  0.09646623  0.87914937  0.07330670  1
  Ti  Ti34  1  0.11550791  0.92510155  0.39612444  1
  Ti  Ti35  1  0.08074670  0.83419651  0.73881311  1
  Ti  Ti36  1  0.45596992  0.26350739  0.00943451  1
  Ti  Ti37  1  0.34731359  0.22129464  0.46019336  1
  Ti  Ti38  1  0.37175654  0.22243223  0.67175879  1
  Ti  Ti39  1  0.47188552  0.59297378  0.08878620  1
  Ti  Ti40  1  0.45086471  0.54688818  0.42006103  1
  Ti  Ti41  1  0.40279936  0.62288394  0.78669814  1
  Ti  Ti42  1  0.40014349  0.86898714  0.07001809  1
  Ti  Ti43  1  0.50467013  0.85899398  0.43189301  1
  Ti  Ti44  1  0.43102492  0.89210221  0.71241662  1
  Ti  Ti45  1  0.75098639  0.24720887  0.12726264  1
  Ti  Ti46  1  0.74991375  0.23045947  0.46771216  1
  Ti  Ti47  1  0.76993577  0.26036014  0.79305255  1
  Ti  Ti48  1  0.76313173  0.62581370  0.01065571  1
  Ti  Ti49  1  0.83915684  0.63815477  0.41826045  1
  Ti  Ti50  1  0.69523460  0.54020683  0.67279125  1
  Ti  Ti51  1  0.73132798  0.96188432  0.04362870  1
  Ti  Ti52  1  0.76877912  0.87036867  0.43587834  1
  Ti  Ti53  1  0.77816459  0.93114154  0.76858319  1
  Ti  Ti54  1  0.22886690  0.11319759  0.01635085  1
  Ti  Ti55  1  0.29215242  0.02999053  0.43221334  1
  Ti  Ti56  1  0.22876824  0.07489603  0.72136077  1
  Ti  Ti57  1  0.24589177  0.31751960  0.05192268  1
  Ti  Ti58  1  0.25690771  0.39871222  0.44110190  1
  Ti  Ti59  1  0.26377024  0.37792330  0.74855674  1
  Ti  Ti60  1  0.16693514  0.69271469  0.03843740  1
  Ti  Ti61  1  0.28973223  0.83694767  0.43395919  1
  Ti  Ti62  1  0.24216981  0.72690274  0.73967820  1
  Ti  Ti63  1  0.50380433  0.13121708  0.16454491  1
  Ti  Ti64  1  0.53064587  0.06221150  0.39545991  1
  Ti  Ti65  1  0.57075752  0.06454861  0.80037704  1
  Ti  Ti66  1  0.58598889  0.43483491  0.11801459  1
  Ti  Ti67  1  0.63973916  0.47009523  0.47251382  1
  Ti  Ti68  1  0.59130278  0.39858214  0.75259700  1
  Ti  Ti69  1  0.62655552  0.80020728  0.10772430  1
  Ti  Ti70  1  0.64013429  0.66300131  0.45889235  1
  Ti  Ti71  1  0.54865873  0.74785664  0.82207848  1
  Ti  Ti72  1  0.98273708  0.03761998  0.05403586  1
  Ti  Ti73  1  0.99530077  0.08910468  0.41000739  1
  Ti  Ti74  1  0.90718150  0.10083829  0.72768724  1
  Ti  Ti75  1  0.94147563  0.37461272  0.06812716  1
  Ti  Ti76  1  0.85040970  0.42357241  0.37898108  1
  Ti  Ti77  1  0.90849474  0.36824566  0.73615682  1
  Ti  Ti78  1  0.95334057  0.71999163  0.07981428  1
  Ti  Ti79  1  1.02574151  0.71369460  0.39534666  1
  Ti  Ti80  1  0.90222727  0.69856857  0.76907525  1
  Ti  Ti81  1  0.20819007  0.21981877  0.21295766  1
  Ti  Ti82  1  0.19693049  0.26101305  0.58379550  1
  Ti  Ti83  1  0.33275670  0.18385557  0.85837538  1
  Ti  Ti84  1  0.26207612  0.64035529  0.30724907  1
  Ti  Ti85  1  0.15944553  0.60451637  0.57814190  1
  Ti  Ti86  1  0.29619358  0.54115196  1.00006560  1
  Ti  Ti87  1  0.23846638  0.94660100  0.23329672  1
  Ti  Ti88  1  0.16859619  0.95494946  0.58650189  1
  Ti  Ti89  1  0.28429878  0.97285669  0.88696028  1
  Ti  Ti90  1  0.61774460  0.21694278  0.28637329  1
  Ti  Ti91  1  0.53940835  0.23116424  0.50305417  1
  Ti  Ti92  1  0.59159879  0.23995460  0.84832446  1
  Ti  Ti93  1  0.62408300  0.63136703  0.21859577  1
  Ti  Ti94  1  0.50523476  0.56565481  0.62022970  1
  Ti  Ti95  1  0.61325193  0.57728356  0.83826129  1
  Ti  Ti96  1  0.52581670  0.92374038  0.23588330  1
  Ti  Ti97  1  0.60209698  0.83244316  0.61853460  1
  Ti  Ti98  1  0.56539800  0.90993888  0.95091253  1
  Ti  Ti99  1  0.92388602  0.28888212  0.23408728  1
  Ti  Ti100  1  0.95249317  0.29654953  0.55771722  1
  Ti  Ti101  1  0.92932210  0.22692949  0.90862232  1
  Ti  Ti102  1  0.91575447  0.61290076  0.25276724  1
  Ti  Ti103  1  0.95222054  0.63527070  0.57425622  1
  Ti  Ti104  1  0.82422578  0.53803079  0.83848773  1
  Ti  Ti105  1  0.89172695  0.97413305  0.27898923  1
  Ti  Ti106  1  0.93822532  0.96120657  0.55691136  1
  Ti  Ti107  1  0.88603918  0.89772283  0.95757005  1
  Co  Co108  1  0.74528814  0.09654079  0.77408373  1
  Co  Co109  1  0.66933311  0.11153059  0.12450732  1
  Co  Co110  1  0.64389320  -0.08326298  0.35005062  1
  Co  Co111  1  0.46156251  0.62040549  0.93062854  1
  Co  Co112  1  0.48614330  0.73993483  0.15799477  1
  Co  Co113  1  0.08438694  0.32957165  0.66920064  1
  Co  Co114  1  0.31039085  0.50843998  0.84242376  1
  Co  Co115  1  0.04138194  -0.07506412  -0.07487669  1
  Co  Co116  1  0.62819509  0.12855247  0.58113353  1
  Co  Co117  1  0.52421127  0.19726557  0.69658928  1
  Co  Co118  1  -0.13291318  0.13924197  0.29360761  1
  Co  Co119  1  0.56292974  0.77420523  0.30039611  1
  Co  Co120  1  0.29661853  0.56040184  0.67857849  1
  Co  Co121  1  0.25035853  0.67273159  0.89901741  1
  Co  Co122  1  0.18485598  0.83419296  -0.07926952  1
  Co  Co123  1  0.87362994  0.77943658  0.33999691  1
  Co  Co124  1  0.61311926  0.67917178  0.66695747  1
  Co  Co125  1  -0.03052610  0.45684125  0.24080375  1
  Co  Co126  1  0.77546053  0.27318286  0.31141975  1
  Co  Co127  1  0.89466248  0.78215540  0.50513365  1
  Co  Co128  1  0.07850612  0.36033188  0.00077901  1
  Co  Co129  1  0.01720879  0.22039873  0.76393611  1
  Co  Co130  1  0.35026032  0.50061657  0.53706651  1
  Co  Co131  1  0.79250118  0.67362469  0.17838129  1
  Co  Co132  1  0.20216861  0.44526962  0.60808228  1
  Co  Co133  1  0.43070404  0.37563818  0.43665260  1
  Co  Co134  1  0.79768667  0.21738992  0.63573400  1
  Co  Co135  1  0.49829175  0.76701938  -0.00854805  1
  Co  Co136  1  0.73359648  0.55479690  0.32583639  1
  Co  Co137  1  0.03709617  -0.01662189  0.68463653  1
  Co  Co138  1  0.26754588  0.88647381  0.73169148  1
  Co  Co139  1  -0.09338729  0.13904070  0.54104981  1
  Co  Co140  1  0.32682455  0.34162575  -0.08550710  1
  Co  Co141  1  0.10439288  0.60115397  0.30279644  1
  Co  Co142  1  0.05205166  -0.02734334  0.24653028  1
  Co  Co143  1  0.76430852  0.88312730  0.60131868  1
  Co  Co144  1  0.33905351  0.35019802  0.57961540  1
  Co  Co145  1  -0.08585000  0.90069395  0.11987925  1
  Co  Co146  1  0.34491002  0.18113853  0.11092108  1
  Co  Co147  1  0.09553199  0.70886405  0.18625405  1
  Co  Co148  1  0.73081819  0.41270134  0.82453336  1
  Co  Co149  1  0.19547405  0.43160434  0.92094990  1
  Co  Co150  1  0.64438826  0.28607357  0.63500573  1
  Co  Co151  1  0.72187759  0.52998888  0.13359813  1
  Co  Co152  1  0.20374529  0.54528323  0.42885824  1
  Co  Co153  1  0.18294350  0.22167553  0.75241600  1
  Co  Co154  1  0.68106427  0.96388163  0.19813451  1
  Co  Co155  1  0.46695603  0.22475971  0.34778581  1
  Co  Co156  1  -0.01128774  0.54014325  0.79885004  1
  Co  Co157  1  -0.03764097  0.89939859  0.40830761  1
  Co  Co158  1  0.50911484  0.69911703  0.52406251  1
  Co  Co159  1  0.14701027  0.09003831  0.48059780  1
  Co  Co160  1  -0.08047246  0.45828022  0.52651688  1
  Co  Co161  1  0.88674206  0.05168763  0.88574132  1
  Ni  Ni162  1  0.44391683  0.30638181  0.80325463  1
  Ni  Ni163  1  0.06189701  0.66736393  0.70376786  1
  Ni  Ni164  1  0.56434533  0.50711238  0.31018370  1
  Ni  Ni165  1  0.18114593  0.70868884  0.44885914  1
  Ni  Ni166  1  0.33436464  -0.04110517  0.59172135  1
  Ni  Ni167  1  0.09022992  0.37960971  0.50099913  1
  Ni  Ni168  1  0.44531006  -0.04052506  0.86218180  1
  Ni  Ni169  1  0.16672319  0.24595131  -0.08635717  1
  Ni  Ni170  1  0.77826607  0.54194038  0.52746870  1
  Ni  Ni171  1  0.14325282  0.05614152  0.14121875  1
  Ni  Ni172  1  0.60945525  0.89472457  0.79300455  1
  Ni  Ni173  1  0.81865150  0.40842926  0.17584585  1
  Ni  Ni174  1  0.71682732  0.72798811  0.32522853  1
  Ni  Ni175  1  0.58513084  0.34396993  0.39011182  1
  Ni  Ni176  1  0.41351888  0.71056620  0.39259352  1
  Ni  Ni177  1  0.14387448  -0.03784737  0.80922673  1
  Ni  Ni178  1  0.57643346  0.12961084  -0.01263737  1
  Ni  Ni179  1  0.42598451  0.45881620  0.73118363  1
  Ni  Ni180  1  0.25202548  -0.05472274  0.05722646  1
  Ni  Ni181  1  0.64435927  0.30585125  -0.01307365  1
  Ni  Ni182  1  0.24261920  0.79190187  0.15237998  1
  Ni  Ni183  1  0.60360163  0.49077016  -0.02817456  1
  Ni  Ni184  1  -0.07867916  0.64201174  -0.06536160  1
  Ni  Ni185  1  0.91567595  0.24591958  0.40397815  1
  Ni  Ni186  1  0.64119762  -0.00912603  0.66996527  1
  Ni  Ni187  1  0.89065800  0.18388886  0.06508474  1
  Ni  Ni188  1  0.55534356  -0.01105901  0.08875431  1
  Ni  Ni189  1  0.03672827  0.35095860  0.34322041  1
  Ni  Ni190  1  0.22672718  0.79449938  0.58830112  1
  Ni  Ni191  1  0.73387073  0.68454059  0.77960782  1
  Ni  Ni192  1  0.16590279  0.08246457  0.31327604  1
  Ni  Ni193  1  0.40129172  0.06575214  0.74156170  1
  Ni  Ni194  1  0.45448988  0.72945475  0.67849121  1
  Ni  Ni195  1  0.31395581  0.30624768  0.30987938  1
  Ni  Ni196  1  0.28608854  0.11086634  0.57394773  1
  Ni  Ni197  1  0.89267340  0.54005341  0.08593000  1
  Ni  Ni198  1  0.58025353  0.27306021  0.13332732  1
  Ni  Ni199  1  0.82623292  0.05479589  0.14825302  1
  Ni  Ni200  1  0.34808358  0.70621331  0.04808523  1
  Ni  Ni201  1  -0.06735329  0.85735966  0.81425671  1
  Ni  Ni202  1  0.83123314  0.03791989  0.42841010  1
  Ni  Ni203  1  0.62041625  -0.03195955  0.50827095  1
  Ni  Ni204  1  0.91437114  0.83220316  0.65925959  1
  Ni  Ni205  1  0.08348250  0.33722135  0.17293172  1
  Ni  Ni206  1  0.17729631  0.46366817  0.08828847  1
  Ni  Ni207  1  0.38123603  0.01000752  0.15766630  1
  Ni  Ni208  1  0.90455124  0.39601152  0.90034595  1
  Ni  Ni209  1  0.38959334  -0.04530664  0.32741328  1
  Ni  Ni210  1  0.79901686  0.78828308  0.05261471  1
  Ni  Ni211  1  0.86604226  0.53174151  0.67217106  1
  Ni  Ni212  1  0.40172681  0.81894179  0.55685166  1
  Ni  Ni213  1  0.60775058  0.65549516  0.01157614  1
  Ni  Ni214  1  0.17891164  0.79283038  0.30517551  1
