# generated using pymatgen
data_Ti108Co54Ni53
_symmetry_space_group_name_H-M   'P 1'
_cell_length_a   14.68369391
_cell_length_b   14.65321972
_cell_length_c   14.68273716
_cell_angle_alpha   90.01802999
_cell_angle_beta   90.04250519
_cell_angle_gamma   90.36706990
_symmetry_Int_Tables_number   1
_chemical_formula_structural   Ti108Co54Ni53
_chemical_formula_sum   'Ti108 Co54 Ni53'
_cell_volume   3159.12168420
_cell_formula_units_Z   1
loop_
 _symmetry_equiv_pos_site_id
 _symmetry_equiv_pos_as_xyz
  1  'x, y, z'
loop_
 _atom_site_type_symbol
 _atom_site_label
 _atom_site_symmetry_multiplicity
 _atom_site_fract_x
 _atom_site_fract_y
 _atom_site_fract_z
 _atom_site_occupancy
  Ti  Ti0  1  0.08989250  -0.00348531  0.19054961  1
  Ti  Ti1  1  0.06881711  0.03138821  0.53488175  1
  Ti  Ti2  1  0.11843947  0.15214738  0.93119707  1
  Ti  Ti3  1  0.08191241  0.41110523  0.15328233  1
  Ti  Ti4  1  0.08179204  0.50192910  0.63130912  1
  Ti  Ti5  1  0.01202540  0.46754683  0.93715045  1
  Ti  Ti6  1  0.13780555  0.81513424  0.23575334  1
  Ti  Ti7  1  0.02328936  0.75616638  0.65813120  1
  Ti  Ti8  1  0.03793045  0.71565267  0.95565852  1
  Ti  Ti9  1  0.40580448  0.08228332  0.34024000  1
  Ti  Ti10  1  0.47120468  0.06788719  0.53004940  1
  Ti  Ti11  1  0.45612223  0.05948677  0.89685155  1
  Ti  Ti12  1  0.42982573  0.38666226  0.19321126  1
  Ti  Ti13  1  0.44529772  0.40594387  0.57865037  1
  Ti  Ti14  1  0.39340966  0.42823478  0.82894399  1
  Ti  Ti15  1  0.42976015  0.75019831  0.19774812  1
  Ti  Ti16  1  0.41819641  0.73180880  0.52702191  1
  Ti  Ti17  1  0.43811211  0.71432448  0.94752474  1
  Ti  Ti18  1  0.72002055  0.05283955  0.22992921  1
  Ti  Ti19  1  0.81203738  0.08889442  0.59565095  1
  Ti  Ti20  1  0.76948808  0.13422210  0.93865023  1
  Ti  Ti21  1  0.80859135  0.37216544  0.25657848  1
  Ti  Ti22  1  0.74373095  0.42671218  0.63921345  1
  Ti  Ti23  1  0.72527107  0.43998962  0.90483699  1
  Ti  Ti24  1  0.76713613  0.68713554  0.27886423  1
  Ti  Ti25  1  0.69414822  0.76244072  0.62787565  1
  Ti  Ti26  1  0.72162419  0.82388852  0.92805843  1
  Ti  Ti27  1  0.07356184  0.22111066  0.14039173  1
  Ti  Ti28  1  0.01749060  0.22027444  0.35035907  1
  Ti  Ti29  1  0.12707242  0.21749538  0.73367041  1
  Ti  Ti30  1  0.13330246  0.58607137  0.07534869  1
  Ti  Ti31  1  0.12541120  0.63292829  0.38105168  1
  Ti  Ti32  1  0.05020934  0.61951743  0.80101996  1
  Ti  Ti33  1  0.04005606  0.88172937  0.03978782  1
  Ti  Ti34  1  0.01727562  0.89674765  0.37518860  1
  Ti  Ti35  1  0.11887980  0.93049541  0.73085175  1
  Ti  Ti36  1  0.35772957  0.26778764  0.06467109  1
  Ti  Ti37  1  0.38391222  0.23025588  0.45139525  1
  Ti  Ti38  1  0.49707455  0.30193208  0.74075208  1
  Ti  Ti39  1  0.48831309  0.58874792  0.09387815  1
  Ti  Ti40  1  0.45392658  0.64444242  0.36308338  1
  Ti  Ti41  1  0.35805774  0.61104926  0.78077845  1
  Ti  Ti42  1  0.36849662  0.98114573  0.10697188  1
  Ti  Ti43  1  0.36346361  0.92239939  0.44454115  1
  Ti  Ti44  1  0.45462901  0.92798578  0.74371499  1
  Ti  Ti45  1  0.71432754  0.21867635  0.10953939  1
  Ti  Ti46  1  0.79413115  0.23587242  0.44609956  1
  Ti  Ti47  1  0.68798368  0.27479514  0.79218896  1
  Ti  Ti48  1  0.78479160  0.56700394  0.10940637  1
  Ti  Ti49  1  0.73178488  0.51356346  0.39703183  1
  Ti  Ti50  1  0.83929103  0.56147905  0.77172375  1
  Ti  Ti51  1  0.68685441  0.97422836  0.05855857  1
  Ti  Ti52  1  0.80858890  0.82421217  0.45711379  1
  Ti  Ti53  1  0.76701003  0.93622388  0.76781308  1
  Ti  Ti54  1  0.22779042  0.11845514  0.10391542  1
  Ti  Ti55  1  0.20272378  0.13023852  0.42457125  1
  Ti  Ti56  1  0.25766090  0.05598184  0.79899595  1
  Ti  Ti57  1  0.29910704  0.48427993  0.09254336  1
  Ti  Ti58  1  0.27201401  0.44141869  0.29310653  1
  Ti  Ti59  1  0.19214168  0.42548368  0.77524691  1
  Ti  Ti60  1  0.21887898  0.77177456  0.05591397  1
  Ti  Ti61  1  0.29806451  0.76965671  0.35139038  1
  Ti  Ti62  1  0.20725720  0.75059533  0.78719422  1
  Ti  Ti63  1  0.54344760  0.12121994  0.18825580  1
  Ti  Ti64  1  0.56963900  -0.01049551  0.38259951  1
  Ti  Ti65  1  0.54294592  0.11401555  0.72433220  1
  Ti  Ti66  1  0.60324655  0.43160421  0.06169452  1
  Ti  Ti67  1  0.51798819  0.36577914  0.38315397  1
  Ti  Ti68  1  0.57578201  0.48039327  0.71785557  1
  Ti  Ti69  1  0.58755619  0.77737187  0.07022235  1
  Ti  Ti70  1  0.63021846  0.79889042  0.35343931  1
  Ti  Ti71  1  0.54932622  0.67711459  0.74323137  1
  Ti  Ti72  1  0.89089845  0.03281593  0.07570943  1
  Ti  Ti73  1  0.88050517  0.00491939  0.45555000  1
  Ti  Ti74  1  0.87723327  0.13073361  0.76973591  1
  Ti  Ti75  1  0.90125295  0.32975419  0.06538445  1
  Ti  Ti76  1  0.94314010  0.45150506  0.40591624  1
  Ti  Ti77  1  0.86480307  0.36371855  0.76451633  1
  Ti  Ti78  1  0.89801626  0.74168892  0.13152596  1
  Ti  Ti79  1  0.95940103  0.71959244  0.45764464  1
  Ti  Ti80  1  0.88024428  0.77084591  0.78977676  1
  Ti  Ti81  1  0.28111533  0.23780142  0.27230725  1
  Ti  Ti82  1  0.28811348  0.19409292  0.62378764  1
  Ti  Ti83  1  0.28622975  0.25027338  0.86566268  1
  Ti  Ti84  1  0.24262678  0.65032425  0.21793362  1
  Ti  Ti85  1  0.25846723  0.61820420  0.55821428  1
  Ti  Ti86  1  0.20775349  0.56065843  0.90985243  1
  Ti  Ti87  1  0.24199550  0.98406502  0.29429416  1
  Ti  Ti88  1  0.29623561  0.91306506  0.62391425  1
  Ti  Ti89  1  0.31449595  0.90165796  0.92039886  1
  Ti  Ti90  1  0.61661388  0.32564048  0.22507234  1
  Ti  Ti91  1  0.63591928  0.16505695  0.55782627  1
  Ti  Ti92  1  0.49658898  0.25007573  0.92759313  1
  Ti  Ti93  1  0.54953129  0.52136846  0.26027792  1
  Ti  Ti94  1  0.58168708  0.58185680  0.53482489  1
  Ti  Ti95  1  0.53413281  0.54685290  0.90452994  1
  Ti  Ti96  1  0.54332793  0.91577763  0.20521330  1
  Ti  Ti97  1  0.62052419  0.95832866  0.64080650  1
  Ti  Ti98  1  0.52847838  0.88112557  0.91533977  1
  Ti  Ti99  1  0.87001961  0.19949645  0.19904194  1
  Ti  Ti100  1  0.92245327  0.27539152  0.59670289  1
  Ti  Ti101  1  0.97824938  0.26276872  0.86070774  1
  Ti  Ti102  1  0.99651756  0.59091657  0.22048482  1
  Ti  Ti103  1  0.82805968  0.58332486  0.55344586  1
  Ti  Ti104  1  0.82371177  0.65550961  0.94343080  1
  Ti  Ti105  1  0.88694704  0.98261717  0.26387291  1
  Ti  Ti106  1  0.94003879  0.94465663  0.65910538  1
  Ti  Ti107  1  0.96950992  0.95830665  0.87579691  1
  Co  Co108  1  -0.08572037  0.46858287  0.13946092  1
  Co  Co109  1  -0.04809380  0.15228424  0.48420828  1
  Co  Co110  1  -0.01043880  0.10865919  0.22613570  1
  Co  Co111  1  0.29263303  0.39462449  -0.05638785  1
  Co  Co112  1  0.32606047  0.65139476  0.07759395  1
  Co  Co113  1  0.17976393  0.80247542  0.63805349  1
  Co  Co114  1  0.40031432  -0.07767853  0.28225016  1
  Co  Co115  1  -0.01348541  0.47573987  0.77278215  1
  Co  Co116  1  0.74099651  0.68093404  0.46462377  1
  Co  Co117  1  -0.01713459  0.12322972  0.64320182  1
  Co  Co118  1  0.05004388  0.05467280  0.37152400  1
  Co  Co119  1  0.23853027  0.33809617  0.15564153  1
  Co  Co120  1  0.60844546  0.12758883  0.02729869  1
  Co  Co121  1  0.05148026  0.86669935  0.54035961  1
  Co  Co122  1  0.16142011  0.83956046  -0.08034136  1
  Co  Co123  1  0.13360024  0.32688957  0.87374846  1
  Co  Co124  1  0.41219347  0.47854410  0.35633053  1
  Co  Co125  1  0.30223927  0.05897678  0.51736724  1
  Co  Co126  1  0.69551906  0.59389886  0.66852821  1
  Co  Co127  1  0.86257713  0.12850524  0.34634180  1
  Co  Co128  1  0.41949972  0.83201281  0.05857736  1
  Co  Co129  1  0.49307533  0.79757286  0.65903454  1
  Co  Co130  1  0.52986350  0.26722074  0.09458650  1
  Co  Co131  1  0.32821665  0.72820917  0.66118512  1
  Co  Co132  1  0.15157787  0.13509351  0.26753476  1
  Co  Co133  1  0.06160114  0.72143371  0.12926523  1
  Co  Co134  1  0.52715668  -0.02800924  0.05226846  1
  Co  Co135  1  0.85522720  0.82359099  0.30000269  1
  Co  Co136  1  0.61321945  0.32281935  0.63947372  1
  Co  Co137  1  0.14141592  -0.00857876  0.90003468  1
  Co  Co138  1  -0.01740137  0.87018409  0.19371875  1
  Co  Co139  1  0.73366405  0.72267180  0.78608756  1
  Co  Co140  1  0.40485686  0.55162491  0.49551144  1
  Co  Co141  1  0.61515129  0.15014635  0.86803210  1
  Co  Co142  1  0.92149297  0.44887087  0.60756647  1
  Co  Co143  1  0.75246375  0.39246339  0.09475149  1
  Co  Co144  1  0.60113778  0.71826880  0.89721319  1
  Co  Co145  1  0.56251712  0.39189799  0.87546609  1
  Co  Co146  1  0.29007691  0.59109108  0.37843735  1
  Co  Co147  1  0.44751904  0.20893617  0.61968101  1
  Co  Co148  1  0.15662270  0.42680197  0.00999850  1
  Co  Co149  1  0.85753489  0.48105972  -0.02124286  1
  Co  Co150  1  0.53402570  0.27722991  0.51122966  1
  Co  Co151  1  0.74506742  0.74135287  0.07823100  1
  Co  Co152  1  0.25979457  0.78642729  0.50768121  1
  Co  Co153  1  0.04646586  0.30702531  0.00402327  1
  Co  Co154  1  0.47519413  0.81725157  0.37625160  1
  Co  Co155  1  0.29357188  0.07929635  -0.04209905  1
  Co  Co156  1  0.36712647  0.12460143  0.19226742  1
  Co  Co157  1  0.60865961  -0.00849763  0.82122468  1
  Co  Co158  1  0.38387887  0.57022110  0.22185285  1
  Co  Co159  1  0.27981480  0.70652800  0.92289182  1
  Co  Co160  1  0.13500462  0.79384857  0.40066048  1
  Co  Co161  1  0.20228408  0.26627186  0.01594891  1
  Ni  Ni162  1  0.20136490  -0.04472050  0.05169165  1
  Ni  Ni163  1  0.68063176  0.58060322  0.83397949  1
  Ni  Ni164  1  0.55706070  0.16522231  0.39212464  1
  Ni  Ni165  1  0.71105173  0.08499988  0.41896697  1
  Ni  Ni166  1  0.29108825  0.84896147  0.18151518  1
  Ni  Ni167  1  0.71233725  0.09804724  0.73594936  1
  Ni  Ni168  1  0.03665628  0.81136737  0.81861893  1
  Ni  Ni169  1  -0.03067556  0.34839707  0.25519863  1
  Ni  Ni170  1  0.93595148  0.17590521  0.00710142  1
  Ni  Ni171  1  0.44599657  0.41184679  0.01394060  1
  Ni  Ni172  1  0.82740982  -0.11039467  0.12312268  1
  Ni  Ni173  1  0.04616095  0.08064757  0.78607612  1
  Ni  Ni174  1  0.45878971  0.24093595  0.27715293  1
  Ni  Ni175  1  0.16743713  0.07563642  0.65466779  1
  Ni  Ni176  1  0.65681829  0.60885040  0.00719362  1
  Ni  Ni177  1  0.58321151  0.74786100  0.50186137  1
  Ni  Ni178  1  0.65908179  0.28645572  -0.03131136  1
  Ni  Ni179  1  0.76337239  0.24208721  0.64807501  1
  Ni  Ni180  1  0.20256535  0.59196714  0.72057313  1
  Ni  Ni181  1  0.14043025  0.52292754  0.25846585  1
  Ni  Ni182  1  0.50330217  -0.10538484  0.52985852  1
  Ni  Ni183  1  0.61711878  0.83760071  0.76960152  1
  Ni  Ni184  1  0.85399211  0.54138674  0.28245537  1
  Ni  Ni185  1  0.05298392  0.05272569  0.03955905  1
  Ni  Ni186  1  -0.04070827  0.59952717  0.04856772  1
  Ni  Ni187  1  0.61964060  0.63105773  0.37047772  1
  Ni  Ni188  1  0.78884195  -0.08396795  0.60009143  1
  Ni  Ni189  1  0.73671609  -0.06357416  0.34683818  1
  Ni  Ni190  1  -0.04887068  0.60842467  0.66015196  1
  Ni  Ni191  1  0.19176534  -0.05963422  0.45700651  1
  Ni  Ni192  1  0.88717143  0.82558316  -0.02956413  1
  Ni  Ni193  1  -0.00341943  0.73775039  0.29544457  1
  Ni  Ni194  1  0.69710858  0.84769764  0.20424273  1
  Ni  Ni195  1  0.59739406  0.69951830  0.21623572  1
  Ni  Ni196  1  0.86407440  0.75816244  0.60702387  1
  Ni  Ni197  1  0.00728977  0.56722561  0.50176033  1
  Ni  Ni198  1  0.80984497  0.39952340  0.48964455  1
  Ni  Ni199  1  0.03491928  0.34652178  0.70009331  1
  Ni  Ni200  1  0.11191161  0.69837698  0.53246905  1
  Ni  Ni201  1  0.62636198  0.42343759  0.51140283  1
  Ni  Ni202  1  0.38756086  0.78493346  0.80470121  1
  Ni  Ni203  1  0.37251398  0.55380777  0.95278712  1
  Ni  Ni204  1  0.71454157  0.20671127  0.29488745  1
  Ni  Ni205  1  0.37964303  0.05629136  0.66738957  1
  Ni  Ni206  1  0.44303090  0.57540500  0.64643540  1
  Ni  Ni207  1  0.66561645  0.90414802  0.49253056  1
  Ni  Ni208  1  0.39156958  0.17360961  0.77668587  1
  Ni  Ni209  1  0.32790844  0.33482305  0.70288915  1
  Ni  Ni210  1  0.80966832  -0.02785942  0.92745294  1
  Ni  Ni211  1  0.44254607  0.12390792  0.04597694  1
  Ni  Ni212  1  0.70134236  0.49526084  0.22563701  1
  Ni  Ni213  1  0.82091407  0.29667229  0.92056403  1
  Ni  Ni214  1  0.68803838  0.34933579  0.37906424  1
