# generated using pymatgen
data_Ti108Co54Ni53
_symmetry_space_group_name_H-M   'P 1'
_cell_length_a   14.60802692
_cell_length_b   14.60753054
_cell_length_c   14.60878970
_cell_angle_alpha   89.84638663
_cell_angle_beta   89.89108826
_cell_angle_gamma   89.85314462
_symmetry_Int_Tables_number   1
_chemical_formula_structural   Ti108Co54Ni53
_chemical_formula_sum   'Ti108 Co54 Ni53'
_cell_volume   3117.30168530
_cell_formula_units_Z   1
loop_
 _symmetry_equiv_pos_site_id
 _symmetry_equiv_pos_as_xyz
  1  'x, y, z'
loop_
 _atom_site_type_symbol
 _atom_site_label
 _atom_site_symmetry_multiplicity
 _atom_site_fract_x
 _atom_site_fract_y
 _atom_site_fract_z
 _atom_site_occupancy
  Ti  Ti0  1  0.04807331  0.10644741  0.23312386  1
  Ti  Ti1  1  0.05197624  0.05315105  0.58393082  1
  Ti  Ti2  1  0.10248875  -0.01524499  0.94032912  1
  Ti  Ti3  1  0.08376266  0.39772138  0.31684720  1
  Ti  Ti4  1  0.08217776  0.46123572  0.52039729  1
  Ti  Ti5  1  0.00822743  0.40507157  0.89067329  1
  Ti  Ti6  1  0.12559099  0.79538359  0.23938227  1
  Ti  Ti7  1  0.07870034  0.71643872  0.67358257  1
  Ti  Ti8  1  0.09017470  0.75983253  0.88854630  1
  Ti  Ti9  1  0.43561452  0.11501001  0.30220072  1
  Ti  Ti10  1  0.45890936  0.07169550  0.63424916  1
  Ti  Ti11  1  0.37776302  0.08229001  0.98172224  1
  Ti  Ti12  1  0.47058933  0.42670073  0.30746959  1
  Ti  Ti13  1  0.38854107  0.44029866  0.49654301  1
  Ti  Ti14  1  0.39856826  0.42263009  0.85071675  1
  Ti  Ti15  1  0.42370054  0.74765779  0.21316550  1
  Ti  Ti16  1  0.46162163  0.76629439  0.58000129  1
  Ti  Ti17  1  0.40466302  0.74176921  0.88853414  1
  Ti  Ti18  1  0.69944150  0.08810528  0.26663106  1
  Ti  Ti19  1  0.67008335  0.05283441  0.62878611  1
  Ti  Ti20  1  0.73650819  0.01083931  0.94971552  1
  Ti  Ti21  1  0.76745522  0.37754907  0.27379501  1
  Ti  Ti22  1  0.75183119  0.40910187  0.60658030  1
  Ti  Ti23  1  0.61175030  0.34599969  0.89142790  1
  Ti  Ti24  1  0.78287552  0.72010440  0.31007784  1
  Ti  Ti25  1  0.77448705  0.72190485  0.58047218  1
  Ti  Ti26  1  0.78650312  0.80152118  0.87531175  1
  Ti  Ti27  1  0.09878018  0.28260553  0.00908590  1
  Ti  Ti28  1  0.06418114  0.26420466  0.48141068  1
  Ti  Ti29  1  0.14499799  0.24608619  0.80849281  1
  Ti  Ti30  1  0.05155844  0.54940776  0.04285709  1
  Ti  Ti31  1  0.09823215  0.61203944  0.34632298  1
  Ti  Ti32  1  0.13417233  0.55078782  0.85503911  1
  Ti  Ti33  1  0.14388268  0.96634941  0.12424343  1
  Ti  Ti34  1  0.02463858  0.90970738  0.39729122  1
  Ti  Ti35  1  0.11372161  0.91416297  0.74714017  1
  Ti  Ti36  1  0.42949818  0.21752832  0.09160345  1
  Ti  Ti37  1  0.38107819  0.25550407  0.45933101  1
  Ti  Ti38  1  0.35667473  0.24927180  0.72210213  1
  Ti  Ti39  1  0.46719714  0.55067087  0.08549282  1
  Ti  Ti40  1  0.35304773  0.57823346  0.35691899  1
  Ti  Ti41  1  0.42698787  0.51473735  0.67068437  1
  Ti  Ti42  1  0.42435188  0.90348601  0.07457649  1
  Ti  Ti43  1  0.40322312  0.84975994  0.39847668  1
  Ti  Ti44  1  0.38208943  0.89173215  0.72325110  1
  Ti  Ti45  1  0.75832622  0.31746924  0.02196599  1
  Ti  Ti46  1  0.68438186  0.23004311  0.36911308  1
  Ti  Ti47  1  0.70248993  0.22410959  0.74318074  1
  Ti  Ti48  1  0.70739508  0.53826365  0.02332961  1
  Ti  Ti49  1  0.80174368  0.55537620  0.44922798  1
  Ti  Ti50  1  0.71073741  0.65512615  0.76823948  1
  Ti  Ti51  1  0.76946425  0.94004874  0.17512830  1
  Ti  Ti52  1  0.73881084  1.02808340  0.44582177  1
  Ti  Ti53  1  0.82314410  0.95917281  0.72135327  1
  Ti  Ti54  1  0.23529614  0.17036983  0.11046807  1
  Ti  Ti55  1  0.27633503  0.03623919  0.38221913  1
  Ti  Ti56  1  0.25818928  0.08478094  0.68659900  1
  Ti  Ti57  1  0.28312526  0.38122297  0.10271251  1
  Ti  Ti58  1  0.28349456  0.39646851  0.31122525  1
  Ti  Ti59  1  0.24848901  0.45243320  0.71576578  1
  Ti  Ti60  1  0.20391095  0.68507778  0.07099858  1
  Ti  Ti61  1  0.24186264  0.71629342  0.39450578  1
  Ti  Ti62  1  0.23814965  0.67067702  0.75181984  1
  Ti  Ti63  1  0.66425544  0.11842950  0.08431162  1
  Ti  Ti64  1  0.55993239  0.11819315  0.46233732  1
  Ti  Ti65  1  0.59462745  0.08363638  0.80837181  1
  Ti  Ti66  1  0.58443279  0.38983302  0.09190981  1
  Ti  Ti67  1  0.63346950  0.41688290  0.42701559  1
  Ti  Ti68  1  0.60404720  0.49082113  0.75661083  1
  Ti  Ti69  1  0.59693333  0.68421803  0.12395062  1
  Ti  Ti70  1  0.61040493  0.72033871  0.44754921  1
  Ti  Ti71  1  0.56885259  0.79189340  0.77146663  1
  Ti  Ti72  1  0.98022638  0.11616792  0.04942565  1
  Ti  Ti73  1  0.88607647  0.04337653  0.33976302  1
  Ti  Ti74  1  0.97252117  0.10261748  0.74222804  1
  Ti  Ti75  1  0.87052517  0.45365008  0.11140506  1
  Ti  Ti76  1  0.91058244  0.38822623  0.40610049  1
  Ti  Ti77  1  0.84387242  0.49062858  0.77551452  1
  Ti  Ti78  1  0.89616607  0.77766083  0.14434605  1
  Ti  Ti79  1  1.02769748  0.73762662  0.47820423  1
  Ti  Ti80  1  0.91177731  0.67704062  0.77108197  1
  Ti  Ti81  1  0.21149381  0.22523097  0.32827520  1
  Ti  Ti82  1  0.21299421  0.16979172  0.52573770  1
  Ti  Ti83  1  0.29196772  0.28211578  0.94064649  1
  Ti  Ti84  1  0.17563776  0.52110126  0.19744265  1
  Ti  Ti85  1  0.29185950  0.63218164  0.56962001  1
  Ti  Ti86  1  0.30383237  0.53402138  0.97750070  1
  Ti  Ti87  1  0.28630983  0.90135923  0.24361846  1
  Ti  Ti88  1  0.25879959  0.95277223  0.56278799  1
  Ti  Ti89  1  0.27853908  0.97159675  0.86895627  1
  Ti  Ti90  1  0.55377160  0.22956845  0.22159327  1
  Ti  Ti91  1  0.59246922  0.27603210  0.54987441  1
  Ti  Ti92  1  0.47101606  0.21096493  0.88374231  1
  Ti  Ti93  1  0.63995265  0.57913499  0.30590227  1
  Ti  Ti94  1  0.58602385  0.63890307  0.63534883  1
  Ti  Ti95  1  0.59196670  0.65451431  0.92146354  1
  Ti  Ti96  1  0.58616990  0.88466842  0.20138471  1
  Ti  Ti97  1  0.58200186  0.92135288  0.49974189  1
  Ti  Ti98  1  0.50873747  0.93986862  0.89144237  1
  Ti  Ti99  1  0.86271364  0.22790458  0.20980683  1
  Ti  Ti100  1  0.88789890  0.22161712  0.55881225  1
  Ti  Ti101  1  0.88488420  0.24264842  0.88815542  1
  Ti  Ti102  1  0.94691546  0.56581038  0.24329467  1
  Ti  Ti103  1  0.94198006  0.59129667  0.59532981  1
  Ti  Ti104  1  0.88490667  0.63932176  1.03091128  1
  Ti  Ti105  1  0.97267072  0.92669103  0.20498245  1
  Ti  Ti106  1  0.88012975  0.89547062  0.52092980  1
  Ti  Ti107  1  0.92424199  0.96711813  0.89261890  1
  Co  Co108  1  0.42193786  -0.07557062  0.56204330  1
  Co  Co109  1  0.62717698  0.35259178  0.68810575  1
  Co  Co110  1  0.39314880  0.71683019  0.71589850  1
  Co  Co111  1  0.28259383  0.81743983  0.11249239  1
  Co  Co112  1  0.51054996  0.62710137  0.78636054  1
  Co  Co113  1  0.60947143  0.37580726  0.26133399  1
  Co  Co114  1  0.87364309  0.71600951  0.45018701  1
  Co  Co115  1  0.12908458  -0.03860215  0.29442675  1
  Co  Co116  1  0.27024060  -0.02248406  0.04089228  1
  Co  Co117  1  0.54575084  0.08699107  -0.02786404  1
  Co  Co118  1  0.45619409  0.60573492  0.53377964  1
  Co  Co119  1  0.13001555  0.61913407  0.51455855  1
  Co  Co120  1  0.36062357  0.10177616  0.51243301  1
  Co  Co121  1  0.11099857  0.11990648  0.37692174  1
  Co  Co122  1  0.51929782  0.27657985  0.37915645  1
  Co  Co123  1  0.49085977  0.60244840  0.24951675  1
  Co  Co124  1  0.84115145  0.19615863  0.38904900  1
  Co  Co125  1  -0.02853104  -0.06175691  0.66896217  1
  Co  Co126  1  0.82059978  0.15732315  0.03270589  1
  Co  Co127  1  0.21990389  0.07848868  0.23752951  1
  Co  Co128  1  0.85749420  0.44685902  -0.05201862  1
  Co  Co129  1  0.72143400  0.77900923  0.17166371  1
  Co  Co130  1  -0.07135465  0.30999955  0.03694692  1
  Co  Co131  1  0.25301533  0.68125540  0.92021760  1
  Co  Co132  1  0.44769332  0.34115122  0.61623031  1
  Co  Co133  1  0.13065708  0.55687398  0.65999554  1
  Co  Co134  1  0.70423006  0.25850303  0.16837278  1
  Co  Co135  1  0.55563153  0.45915739  0.57279332  1
  Co  Co136  1  0.51974257  0.54160902  0.41062837  1
  Co  Co137  1  0.00485620  0.52557924  0.74219436  1
  Co  Co138  1  0.42015237  0.05488798  0.79300580  1
  Co  Co139  1  0.25892272  0.81830566  0.82530498  1
  Co  Co140  1  0.86497475  0.04723057  0.56137745  1
  Co  Co141  1  0.19773749  0.84568431  -0.02439061  1
  Co  Co142  1  0.53748247  0.19704460  0.68553004  1
  Co  Co143  1  0.73338055  0.17043924  0.53549296  1
  Co  Co144  1  0.40673877  0.70222937  0.04761345  1
  Co  Co145  1  0.06027995  0.41484501  0.12816966  1
  Co  Co146  1  0.20895542  0.51181480  0.40040393  1
  Co  Co147  1  0.70143476  0.48946713  0.87802882  1
  Co  Co148  1  0.62982836  0.80611869  0.60289294  1
  Co  Co149  1  -0.10369586  -0.03371028  0.05207493  1
  Co  Co150  1  0.58997031  0.74159269  0.28378562  1
  Co  Co151  1  0.69763437  0.19014669  0.91473750  1
  Co  Co152  1  0.80684353  0.52645673  0.29000006  1
  Co  Co153  1  0.20714933  0.34724104  0.45280231  1
  Co  Co154  1  0.81929272  0.09935794  0.84338074  1
  Co  Co155  1  0.13826097  0.00146486  0.46729732  1
  Co  Co156  1  0.74444826  0.81174973  0.71697977  1
  Co  Co157  1  0.78544279  0.62631844  0.15966871  1
  Co  Co158  1  0.93982952  0.38006131  0.23916975  1
  Co  Co159  1  0.24129395  0.48209454  0.55503297  1
  Co  Co160  1  0.57776548  0.24396458  0.02263857  1
  Co  Co161  1  0.20604268  0.39152635  0.85909762  1
  Ni  Ni162  1  0.80333660  0.61639196  0.89439109  1
  Ni  Ni163  1  -0.03351290  0.55595508  0.43007260  1
  Ni  Ni164  1  0.09914681  0.19809914  0.65421423  1
  Ni  Ni165  1  0.76987753  0.35014434  0.82731758  1
  Ni  Ni166  1  0.17257715  0.31013151  0.19308803  1
  Ni  Ni167  1  0.44680153  0.00294181  0.42283321  1
  Ni  Ni168  1  0.26694885  0.68501162  0.22976673  1
  Ni  Ni169  1  0.06472374  0.65737743  0.18077550  1
  Ni  Ni170  1  0.76651398  0.56697021  0.63697401  1
  Ni  Ni171  1  -0.03341713  0.57231050  0.89471712  1
  Ni  Ni172  1  -0.03825641  0.83266713  0.79496220  1
  Ni  Ni173  1  0.08510188  0.87259925  0.56482752  1
  Ni  Ni174  1  0.44020144  0.36587716  -0.00146641  1
  Ni  Ni175  1  0.29158093  0.14600495  0.84199080  1
  Ni  Ni176  1  0.92752903  0.77937716  0.63168686  1
  Ni  Ni177  1  0.65295051  0.56826378  0.50328435  1
  Ni  Ni178  1  0.58465562  -0.00558172  0.33537268  1
  Ni  Ni179  1  0.54050201  0.79934148  -0.00417996  1
  Ni  Ni180  1  0.22263626  0.81771359  0.66541080  1
  Ni  Ni181  1  0.86922736  0.07028914  0.17275848  1
  Ni  Ni182  1  0.86233738  0.86713858  0.34371806  1
  Ni  Ni183  1  0.54962376  0.93656776  0.68786293  1
  Ni  Ni184  1  0.43267301  0.37632037  0.16328725  1
  Ni  Ni185  1  0.36738116  0.25800964  0.25788296  1
  Ni  Ni186  1  -0.02791784  0.74497817  0.30126012  1
  Ni  Ni187  1  0.02863088  0.87547620  0.04170135  1
  Ni  Ni188  1  0.77420225  0.86328909  0.02941285  1
  Ni  Ni189  1  0.02347742  0.25596358  0.15908318  1
  Ni  Ni190  1  0.16305697  0.44008955  0.00065533  1
  Ni  Ni191  1  0.13761929  0.07434517  0.79733073  1
  Ni  Ni192  1  0.03241043  0.71992869  0.03705330  1
  Ni  Ni193  1  0.77394684  0.32598312  0.46948760  1
  Ni  Ni194  1  0.81731946  0.13310115  0.68365233  1
  Ni  Ni195  1  0.34465044  0.52507237  0.19472429  1
  Ni  Ni196  1  -0.00402109  0.23888600  0.32892948  1
  Ni  Ni197  1  0.45793918  0.69971910  0.38731750  1
  Ni  Ni198  1  0.60926798  -0.05135075  0.04739608  1
  Ni  Ni199  1  0.73470749  0.83779737  0.45496991  1
  Ni  Ni200  1  0.68168950  0.49817876  0.17547357  1
  Ni  Ni201  1  0.17940843  0.13187269  -0.03960014  1
  Ni  Ni202  1  0.28027425  0.32397150  0.59600220  1
  Ni  Ni203  1  0.30724336  0.79719109  0.52932997  1
  Ni  Ni204  1  -0.02685719  0.11528444  0.45352338  1
  Ni  Ni205  1  0.72802854  0.71057805  0.01649920  1
  Ni  Ni206  1  0.44155716  -0.05522697  0.25877974  1
  Ni  Ni207  1  0.36215749  0.05648864  0.15473967  1
  Ni  Ni208  1  0.67511333  -0.06360080  0.80471191  1
  Ni  Ni209  1  0.53618824  0.49584330  -0.06157751  1
  Ni  Ni210  1  0.21465058  0.87269997  0.40814916  1
  Ni  Ni211  1  0.35355629  0.58079483  0.81866511  1
  Ni  Ni212  1  0.02344198  0.14472976  0.89414269  1
  Ni  Ni213  1  0.52863621  0.05213793  0.16113414  1
  Ni  Ni214  1  0.49818254  0.33011332  0.76950849  1
