# generated using pymatgen
data_Ti108Co54Ni53
_symmetry_space_group_name_H-M   'P 1'
_cell_length_a   14.60503160
_cell_length_b   14.66308225
_cell_length_c   14.58250271
_cell_angle_alpha   90.02055949
_cell_angle_beta   89.78425176
_cell_angle_gamma   90.12501442
_symmetry_Int_Tables_number   1
_chemical_formula_structural   Ti108Co54Ni53
_chemical_formula_sum   'Ti108 Co54 Ni53'
_cell_volume   3122.88288557
_cell_formula_units_Z   1
loop_
 _symmetry_equiv_pos_site_id
 _symmetry_equiv_pos_as_xyz
  1  'x, y, z'
loop_
 _atom_site_type_symbol
 _atom_site_label
 _atom_site_symmetry_multiplicity
 _atom_site_fract_x
 _atom_site_fract_y
 _atom_site_fract_z
 _atom_site_occupancy
  Ti  Ti0  1  0.05853674  0.10300167  0.24036105  1
  Ti  Ti1  1  0.12844030  0.04751852  0.57297543  1
  Ti  Ti2  1  0.13034427  0.14578752  0.88386005  1
  Ti  Ti3  1  0.10549373  0.36946165  0.25763025  1
  Ti  Ti4  1  0.13065421  0.42585518  0.55108013  1
  Ti  Ti5  1  0.16346715  0.35047879  0.92692165  1
  Ti  Ti6  1  0.13812644  0.70795702  0.32598415  1
  Ti  Ti7  1  0.10556240  0.74502503  0.52881876  1
  Ti  Ti8  1  0.10845531  0.73191328  0.94091878  1
  Ti  Ti9  1  0.38981928  0.06717530  0.26848063  1
  Ti  Ti10  1  0.44509616  0.02713105  0.63267523  1
  Ti  Ti11  1  0.43102408  0.09542318  0.97961210  1
  Ti  Ti12  1  0.44464465  0.42198485  0.24080608  1
  Ti  Ti13  1  0.32790155  0.48743483  0.56721086  1
  Ti  Ti14  1  0.38540118  0.35732938  0.87570785  1
  Ti  Ti15  1  0.41977556  0.73383490  0.30985266  1
  Ti  Ti16  1  0.38150983  0.69278784  0.63385093  1
  Ti  Ti17  1  0.45641577  0.77232169  0.96072137  1
  Ti  Ti18  1  0.71673050  0.03624139  0.33245110  1
  Ti  Ti19  1  0.81683555  0.04434669  0.64638236  1
  Ti  Ti20  1  0.82771346  0.06559051  0.92600799  1
  Ti  Ti21  1  0.76651507  0.46215973  0.21933120  1
  Ti  Ti22  1  0.74941712  0.36399362  0.53121797  1
  Ti  Ti23  1  0.70493670  0.43941231  0.90730707  1
  Ti  Ti24  1  0.72796047  0.75546946  0.17202926  1
  Ti  Ti25  1  0.76678536  0.74478142  0.64085244  1
  Ti  Ti26  1  0.75613237  0.80358274  0.97229612  1
  Ti  Ti27  1  0.03863507  0.22368306  0.05214495  1
  Ti  Ti28  1  0.05488469  0.25779117  0.45850772  1
  Ti  Ti29  1  0.10232607  0.30515739  0.75082560  1
  Ti  Ti30  1  0.06862939  0.64555971  0.12161606  1
  Ti  Ti31  1  0.01361666  0.57639696  0.45895484  1
  Ti  Ti32  1  0.04628987  0.60767978  0.79684466  1
  Ti  Ti33  1  0.13437449  0.89169855  0.11677060  1
  Ti  Ti34  1  0.02568017  0.91803999  0.33510553  1
  Ti  Ti35  1  0.12456073  0.98492806  0.76874461  1
  Ti  Ti36  1  0.44254805  0.29194297  0.07348442  1
  Ti  Ti37  1  0.44044963  0.21364717  0.43195273  1
  Ti  Ti38  1  0.40737478  0.24095873  0.68454132  1
  Ti  Ti39  1  0.47536671  0.61088065  0.07105455  1
  Ti  Ti40  1  0.42783293  0.55962980  0.39062416  1
  Ti  Ti41  1  0.48134264  0.54726722  0.73957559  1
  Ti  Ti42  1  0.44827260  0.94183996  0.08061151  1
  Ti  Ti43  1  0.44989433  0.90249146  0.41299283  1
  Ti  Ti44  1  0.40519306  0.84726691  0.76773686  1
  Ti  Ti45  1  0.72814016  0.29667716  0.08168451  1
  Ti  Ti46  1  0.67926404  0.22047727  0.38678722  1
  Ti  Ti47  1  0.70347491  0.22311798  0.70357092  1
  Ti  Ti48  1  0.83866852  0.62311282  0.08054204  1
  Ti  Ti49  1  0.69864175  0.55098950  0.41467438  1
  Ti  Ti50  1  0.68404734  0.55689571  0.71974449  1
  Ti  Ti51  1  0.78489914  1.07062133  0.13924840  1
  Ti  Ti52  1  0.75484744  0.88991145  0.49031074  1
  Ti  Ti53  1  0.69519731  0.90574980  0.74421909  1
  Ti  Ti54  1  0.27015117  0.01836699  0.06416267  1
  Ti  Ti55  1  0.24793551  0.13332831  0.41611064  1
  Ti  Ti56  1  0.27228178  0.10624440  0.72224962  1
  Ti  Ti57  1  0.13562397  0.45375078  0.09206791  1
  Ti  Ti58  1  0.24946059  0.45745900  0.37234166  1
  Ti  Ti59  1  0.18678202  0.46145206  0.76757293  1
  Ti  Ti60  1  0.26737883  0.67941936  0.03048277  1
  Ti  Ti61  1  0.28184419  0.79738844  0.42109615  1
  Ti  Ti62  1  0.20177333  0.77527196  0.75025783  1
  Ti  Ti63  1  0.62226333  0.06183850  0.02319470  1
  Ti  Ti64  1  0.58215251  0.07067381  0.48318034  1
  Ti  Ti65  1  0.54871773  0.10630003  0.78375708  1
  Ti  Ti66  1  0.58572120  0.44551478  0.08783001  1
  Ti  Ti67  1  0.55115360  0.41017325  0.41426672  1
  Ti  Ti68  1  0.54879614  0.30573181  0.78326899  1
  Ti  Ti69  1  0.53048185  0.78989328  0.14278968  1
  Ti  Ti70  1  0.60024420  0.74111519  0.44422819  1
  Ti  Ti71  1  0.56896371  0.74098062  0.66727644  1
  Ti  Ti72  1  0.97747892  0.02771399  0.08030525  1
  Ti  Ti73  1  0.93461147  0.10146504  0.41915177  1
  Ti  Ti74  1  0.96021884  0.11307288  0.77039745  1
  Ti  Ti75  1  0.91641945  0.36587453  0.12852952  1
  Ti  Ti76  1  0.88092049  0.43095808  0.40056257  1
  Ti  Ti77  1  0.91592819  0.36279977  0.73106976  1
  Ti  Ti78  1  0.95211990  0.79534506  0.05291556  1
  Ti  Ti79  1  0.90971088  0.75915291  0.49140563  1
  Ti  Ti80  1  0.97381115  0.78597940  0.67767990  1
  Ti  Ti81  1  0.28044956  0.27728012  0.26035301  1
  Ti  Ti82  1  0.22469089  0.26249107  0.59632528  1
  Ti  Ti83  1  0.27235152  0.20954577  0.98629437  1
  Ti  Ti84  1  0.26514558  0.56987999  0.18715969  1
  Ti  Ti85  1  0.19073871  0.61074980  0.64735432  1
  Ti  Ti86  1  0.27800647  0.51188234  0.94840666  1
  Ti  Ti87  1  0.31935751  0.87886353  0.22030136  1
  Ti  Ti88  1  0.29123612  0.96815205  0.53891985  1
  Ti  Ti89  1  0.20085457  0.90058137  0.91684388  1
  Ti  Ti90  1  0.59683426  0.29736918  0.22984541  1
  Ti  Ti91  1  0.56644213  0.30619983  0.56367159  1
  Ti  Ti92  1  0.68734404  0.21468142  0.90612442  1
  Ti  Ti93  1  0.58542309  0.63085356  0.25718191  1
  Ti  Ti94  1  0.51254609  0.57373294  0.54934366  1
  Ti  Ti95  1  0.58918371  0.60947055  0.91212511  1
  Ti  Ti96  1  0.57925920  0.98163034  0.21276621  1
  Ti  Ti97  1  0.57882473  0.89586003  0.57546952  1
  Ti  Ti98  1  0.54217159  0.94226440  0.87959649  1
  Ti  Ti99  1  0.94898525  0.27970365  0.30280115  1
  Ti  Ti100  1  0.87096055  0.22700700  0.58972418  1
  Ti  Ti101  1  0.86068415  0.31487563  0.92620215  1
  Ti  Ti102  1  0.96213129  0.53812499  0.25398157  1
  Ti  Ti103  1  0.83788223  0.57219232  0.56193688  1
  Ti  Ti104  1  0.90714122  0.50278968  0.91788350  1
  Ti  Ti105  1  0.87228732  0.88120951  0.19987809  1
  Ti  Ti106  1  0.97095905  0.93916175  0.53061921  1
  Ti  Ti107  1  0.97587287  0.93282930  0.90012805  1
  Co  Co108  1  0.76147965  0.35090925  0.78897689  1
  Co  Co109  1  0.17211871  0.86682680  0.29165219  1
  Co  Co110  1  0.53911226  0.16366308  0.62160282  1
  Co  Co111  1  0.28204591  0.63242914  0.33264941  1
  Co  Co112  1  0.90118844  0.70585050  0.20161116  1
  Co  Co113  1  0.85275833  0.93206464  0.02990331  1
  Co  Co114  1  0.20452323  0.62642781  0.84805085  1
  Co  Co115  1  0.21338462  0.74861565  0.18245386  1
  Co  Co116  1  0.66211833  0.15240240  0.20220511  1
  Co  Co117  1  0.02944708  0.43323061  0.83665533  1
  Co  Co118  1  0.82545995  0.77065404  0.33323209  1
  Co  Co119  1  0.56411221  0.45838585  0.83514090  1
  Co  Co120  1  0.33922155  0.68605151  0.78000319  1
  Co  Co121  1  0.29610827  0.77021017  0.90351096  1
  Co  Co122  1  0.29452985  0.84320177  0.05719928  1
  Co  Co123  1  0.84338770  0.88216366  0.63741359  1
  Co  Co124  1  0.11499314  0.88266140  0.62974644  1
  Co  Co125  1  0.09943324  0.54138920  -0.04407184  1
  Co  Co126  1  0.86719248  0.60445899  0.38903619  1
  Co  Co127  1  0.05207566  0.42514474  0.39999152  1
  Co  Co128  1  0.48213269  0.42362019  0.63099379  1
  Co  Co129  1  0.09524298  0.06072702  0.41582269  1
  Co  Co130  1  -0.02028892  0.10541708  0.59639249  1
  Co  Co131  1  -0.01879900  -0.03716379  0.69544028  1
  Co  Co132  1  0.62790121  0.71165133  0.03140416  1
  Co  Co133  1  0.71133484  -0.05359521  -0.08745618  1
  Co  Co134  1  0.45021620  0.73994271  0.48550114  1
  Co  Co135  1  0.52071034  0.20681502  0.91527349  1
  Co  Co136  1  0.57711723  0.34757135  -0.04079884  1
  Co  Co137  1  0.84647401  -0.04079946  0.79378979  1
  Co  Co138  1  0.29304115  0.36809068  0.03202346  1
  Co  Co139  1  0.46871751  0.47321847  -0.03669021  1
  Co  Co140  1  0.79848448  0.44688430  0.65784257  1
  Co  Co141  1  0.22354324  0.30935003  0.43331696  1
  Co  Co142  1  0.10480946  0.01987241  -0.02366912  1
  Co  Co143  1  0.58940281  0.21952627  0.06193176  1
  Co  Co144  1  0.14971024  0.11608733  0.09978995  1
  Co  Co145  1  0.83941209  0.25787651  0.43285686  1
  Co  Co146  1  0.49312592  0.11053526  0.14113529  1
  Co  Co147  1  0.25124773  0.27205284  0.79374242  1
  Co  Co148  1  0.59899674  0.87099737  0.01298216  1
  Co  Co149  1  0.33317248  0.14133772  0.56382548  1
  Co  Co150  1  0.17890039  0.28117123  0.11374151  1
  Co  Co151  1  0.76236800  0.70735413  0.46467315  1
  Co  Co152  1  0.60770342  0.47592824  0.26803743  1
  Co  Co153  1  0.26577539  0.05393028  0.89408267  1
  Co  Co154  1  0.78886006  0.07084329  0.47377237  1
  Co  Co155  1  0.37814062  0.72852597  0.14443130  1
  Co  Co156  1  0.42198553  0.58625894  0.22861868  1
  Co  Co157  1  -0.03570301  0.51760450  0.07834073  1
  Co  Co158  1  0.83594064  0.20418655  0.79713568  1
  Co  Co159  1  0.64714168  0.48172944  0.55754221  1
  Co  Co160  1  0.40835821  0.05510507  0.43924009  1
  Co  Co161  1  0.40303847  0.61382109  -0.08890701  1
  Ni  Ni162  1  0.32392305  0.16518376  0.14075539  1
  Ni  Ni163  1  -0.08319476  0.18340156  0.17025054  1
  Ni  Ni164  1  0.05647892  0.82735839  0.80831967  1
  Ni  Ni165  1  0.37213968  -0.07678242  -0.07049259  1
  Ni  Ni166  1  0.90774275  0.03280661  0.25266216  1
  Ni  Ni167  1  0.02899480  0.26936609  0.61454417  1
  Ni  Ni168  1  0.03934207  0.48017696  0.67785304  1
  Ni  Ni169  1  0.37337510  0.32639476  0.54031855  1
  Ni  Ni170  1  -0.01915782  0.72136278  0.34925688  1
  Ni  Ni171  1  0.11195146  0.15109787  0.70131105  1
  Ni  Ni172  1  0.64441654  0.04114572  0.64340426  1
  Ni  Ni173  1  -0.03445667  0.65072700  -0.03682302  1
  Ni  Ni174  1  0.00336074  0.63180346  0.61830733  1
  Ni  Ni175  1  0.62415090  0.79492592  0.86007167  1
  Ni  Ni176  1  -0.13808506  -0.06459950  0.37936297  1
  Ni  Ni177  1  0.54576715  0.12073358  0.31857058  1
  Ni  Ni178  1  0.39978300  0.01783378  0.79735875  1
  Ni  Ni179  1  0.41243029  0.85926723  0.59462534  1
  Ni  Ni180  1  0.78705402  0.29556219  0.23800312  1
  Ni  Ni181  1  0.70416496  0.18069158  0.54710741  1
  Ni  Ni182  1  0.25410792  0.79779119  0.58822803  1
  Ni  Ni183  1  0.32846472  0.38464176  0.69714272  1
  Ni  Ni184  1  0.71115148  0.91869569  0.11507305  1
  Ni  Ni185  1  0.79095878  0.46029709  0.04961542  1
  Ni  Ni186  1  0.64106507  0.39989048  0.69310606  1
  Ni  Ni187  1  0.22296666  0.04668569  0.23624294  1
  Ni  Ni188  1  0.76556452  0.62090693  0.26283037  1
  Ni  Ni189  1  0.38621909  0.36248425  0.38105521  1
  Ni  Ni190  1  0.61197452  0.92127039  0.40272911  1
  Ni  Ni191  1  -0.05529760  0.40580002  0.55353159  1
  Ni  Ni192  1  0.72465714  -0.11536823  0.28232570  1
  Ni  Ni193  1  0.13522702  0.21351736  0.32241330  1
  Ni  Ni194  1  0.81828099  0.15708110  0.30442320  1
  Ni  Ni195  1  0.71657329  0.07276013  0.79656759  1
  Ni  Ni196  1  0.38521837  0.47511157  0.10221352  1
  Ni  Ni197  1  0.37734649  0.18033552  0.84225595  1
  Ni  Ni198  1  0.44152515  0.23842870  0.25005683  1
  Ni  Ni199  1  0.58075520  0.80584013  0.29362551  1
  Ni  Ni200  1  0.17418942  0.57249620  0.46386873  1
  Ni  Ni201  1  0.00377601  0.26111758  0.87718591  1
  Ni  Ni202  1  0.27541174  -0.06918753  0.70093247  1
  Ni  Ni203  1  0.12556608  0.54183488  0.28929072  1
  Ni  Ni204  1  0.49847238  0.70479519  0.80655858  1
  Ni  Ni205  1  0.31212526  0.64394920  0.49644156  1
  Ni  Ni206  1  0.15020996  0.89954518  0.45672893  1
  Ni  Ni207  1  0.32667283  0.53176297  0.77050848  1
  Ni  Ni208  1  0.67435766  0.58186281  0.11870063  1
  Ni  Ni209  1  0.84651860  0.19145703  0.02813294  1
  Ni  Ni210  1  0.28105806  -0.03572967  0.36960424  1
  Ni  Ni211  1  0.03885626  0.79635754  0.20748977  1
  Ni  Ni212  1  0.01190067  0.38675728  -0.00867105  1
  Ni  Ni213  1  0.71476092  0.38058820  0.36150450  1
  Ni  Ni214  1  0.66408897  0.63882553  0.56946137  1
