# generated using pymatgen
data_Ti108Co54Ni53
_symmetry_space_group_name_H-M   'P 1'
_cell_length_a   14.61052294
_cell_length_b   14.60032935
_cell_length_c   14.58867853
_cell_angle_alpha   89.82634737
_cell_angle_beta   89.82430729
_cell_angle_gamma   89.73917312
_symmetry_Int_Tables_number   1
_chemical_formula_structural   Ti108Co54Ni53
_chemical_formula_sum   'Ti108 Co54 Ni53'
_cell_volume   3111.97320703
_cell_formula_units_Z   1
loop_
 _symmetry_equiv_pos_site_id
 _symmetry_equiv_pos_as_xyz
  1  'x, y, z'
loop_
 _atom_site_type_symbol
 _atom_site_label
 _atom_site_symmetry_multiplicity
 _atom_site_fract_x
 _atom_site_fract_y
 _atom_site_fract_z
 _atom_site_occupancy
  Ti  Ti0  1  0.09700191  0.05863093  0.29523454  1
  Ti  Ti1  1  0.00245507  0.07552416  0.59386898  1
  Ti  Ti2  1  0.11240987  0.07703215  0.87900003  1
  Ti  Ti3  1  0.00847610  0.41960905  0.26332969  1
  Ti  Ti4  1  0.15629490  0.42632503  0.53313013  1
  Ti  Ti5  1  0.10363014  0.45473705  0.88508363  1
  Ti  Ti6  1  0.01364279  0.72060784  0.25145252  1
  Ti  Ti7  1  0.12066226  0.74306824  0.65881941  1
  Ti  Ti8  1  0.12118718  0.70630681  0.87434624  1
  Ti  Ti9  1  0.30618032  0.12758867  0.21638235  1
  Ti  Ti10  1  0.45914106  0.02239114  0.65038502  1
  Ti  Ti11  1  0.41287179  0.08144587  0.90881402  1
  Ti  Ti12  1  0.46564165  0.33244169  0.23072358  1
  Ti  Ti13  1  0.37041473  0.46693981  0.57309752  1
  Ti  Ti14  1  0.40311653  0.43037077  0.92606192  1
  Ti  Ti15  1  0.40132812  0.84704088  0.26451014  1
  Ti  Ti16  1  0.45483556  0.78761535  0.50292195  1
  Ti  Ti17  1  0.37086008  0.79687863  0.97818734  1
  Ti  Ti18  1  0.82558172  0.05177403  0.22115338  1
  Ti  Ti19  1  0.81862401  0.00942323  0.62351690  1
  Ti  Ti20  1  0.83691706  0.09811055  0.89096480  1
  Ti  Ti21  1  0.75405835  0.49732871  0.26200210  1
  Ti  Ti22  1  0.80916983  0.43348585  0.64171397  1
  Ti  Ti23  1  0.72352754  0.36663753  0.97234869  1
  Ti  Ti24  1  0.76852469  0.83373539  0.27007321  1
  Ti  Ti25  1  0.78475670  0.72718834  0.63004087  1
  Ti  Ti26  1  0.73702977  0.72017293  0.82969287  1
  Ti  Ti27  1  0.09788167  0.32796569  0.11883850  1
  Ti  Ti28  1  0.05780133  0.24944746  0.36504451  1
  Ti  Ti29  1  0.05794524  0.33359111  0.68217511  1
  Ti  Ti30  1  0.10707209  0.57192408  0.11411319  1
  Ti  Ti31  1  0.09852485  0.58005957  0.36447334  1
  Ti  Ti32  1  0.11274660  0.55182789  0.72730334  1
  Ti  Ti33  1  0.06859207  0.96308712  0.06073414  1
  Ti  Ti34  1  0.10247168  0.95697587  0.45958138  1
  Ti  Ti35  1  0.06886823  0.89211443  0.80810349  1
  Ti  Ti36  1  0.44831877  0.16361484  0.08761880  1
  Ti  Ti37  1  0.37538691  0.23300674  0.38740657  1
  Ti  Ti38  1  0.38768476  0.24334507  0.83056892  1
  Ti  Ti39  1  0.42682051  0.50557859  0.12651299  1
  Ti  Ti40  1  0.41144165  0.59368235  0.43458492  1
  Ti  Ti41  1  0.41709193  0.56669265  0.75586938  1
  Ti  Ti42  1  0.32296416  0.93677917  0.10436868  1
  Ti  Ti43  1  0.28065178  0.89434469  0.41756070  1
  Ti  Ti44  1  0.44802986  0.88535775  0.81355139  1
  Ti  Ti45  1  0.75032932  0.25520816  0.15179711  1
  Ti  Ti46  1  0.73747023  0.33847552  0.36846074  1
  Ti  Ti47  1  0.73803729  0.29186148  0.78639838  1
  Ti  Ti48  1  0.72475883  0.61749705  0.10964252  1
  Ti  Ti49  1  0.78827494  0.55489923  0.45091967  1
  Ti  Ti50  1  0.68492680  0.55072146  0.73712307  1
  Ti  Ti51  1  0.75206971  0.94401813  0.07796042  1
  Ti  Ti52  1  0.76684464  0.88528426  0.48345522  1
  Ti  Ti53  1  0.64609325  0.88766342  0.70796567  1
  Ti  Ti54  1  0.25355079  0.09579250  0.02304524  1
  Ti  Ti55  1  0.28351435  0.09125800  0.52060617  1
  Ti  Ti56  1  0.29109106  0.10906012  0.72515567  1
  Ti  Ti57  1  0.29781472  0.38090732  0.09965321  1
  Ti  Ti58  1  0.30653442  0.41102262  0.41476538  1
  Ti  Ti59  1  0.37792333  0.37291727  0.72366853  1
  Ti  Ti60  1  0.19865712  0.73621705  0.04740399  1
  Ti  Ti61  1  0.27468917  0.71669345  0.35422729  1
  Ti  Ti62  1  0.34361988  0.76777738  0.69651597  1
  Ti  Ti63  1  0.57085316  0.01910074  0.06593473  1
  Ti  Ti64  1  0.47555919  0.05130718  0.36981537  1
  Ti  Ti65  1  0.65544025  0.12873891  0.79430213  1
  Ti  Ti66  1  0.62386402  0.40409138  0.13730700  1
  Ti  Ti67  1  0.50953615  0.39748401  0.43027576  1
  Ti  Ti68  1  0.58458185  0.42705522  0.83409590  1
  Ti  Ti69  1  0.54988553  0.73768079  0.16311664  1
  Ti  Ti70  1  0.62700465  0.78321224  0.37588909  1
  Ti  Ti71  1  0.56306216  0.70313478  0.68361373  1
  Ti  Ti72  1  0.98797277  0.15514302  0.02690453  1
  Ti  Ti73  1  0.92804651  0.10281742  0.40891813  1
  Ti  Ti74  1  0.97810940  0.14392983  0.76278878  1
  Ti  Ti75  1  0.90420692  0.36009444  0.07750434  1
  Ti  Ti76  1  0.98571005  0.42027852  0.47536468  1
  Ti  Ti77  1  0.92802980  0.46669808  0.78772768  1
  Ti  Ti78  1  0.85223997  0.75607760  0.02365217  1
  Ti  Ti79  1  0.91400188  0.79055165  0.40580166  1
  Ti  Ti80  1  0.93284696  0.73534812  0.81948144  1
  Ti  Ti81  1  0.20959869  0.28481011  0.27065501  1
  Ti  Ti82  1  0.25755021  0.27349396  0.60743157  1
  Ti  Ti83  1  0.22262242  0.31855118  0.93434441  1
  Ti  Ti84  1  0.27933489  0.55183628  0.27081392  1
  Ti  Ti85  1  0.26340856  0.61256648  0.60725929  1
  Ti  Ti86  1  0.31163790  0.61154384  0.93462332  1
  Ti  Ti87  1  0.17644183  0.86032097  0.22494557  1
  Ti  Ti88  1  0.22886661  0.90063513  0.59815487  1
  Ti  Ti89  1  0.26890095  0.95851909  0.87487856  1
  Ti  Ti90  1  0.61451955  0.22216543  0.28589427  1
  Ti  Ti91  1  0.54564638  0.28665195  0.59330433  1
  Ti  Ti92  1  0.54823783  0.27214346  0.93178763  1
  Ti  Ti93  1  0.57763798  0.58742598  0.29709175  1
  Ti  Ti94  1  0.55285500  0.52306071  0.57652399  1
  Ti  Ti95  1  0.53939801  0.61937064  0.92725151  1
  Ti  Ti96  1  0.60081363  0.92551298  0.22977185  1
  Ti  Ti97  1  0.58750396  0.95064435  0.51394450  1
  Ti  Ti98  1  0.56864308  0.83697772  0.98361958  1
  Ti  Ti99  1  0.93960857  0.20965971  0.22033979  1
  Ti  Ti100  1  0.87750453  0.23435568  0.57246535  1
  Ti  Ti101  1  0.89272071  0.28188484  0.89830515  1
  Ti  Ti102  1  0.91311445  0.55574281  0.16361265  1
  Ti  Ti103  1  0.96858721  0.64400611  0.51914051  1
  Ti  Ti104  1  0.85331308  0.56912863  0.95996484  1
  Ti  Ti105  1  0.92965708  0.88360815  0.17835989  1
  Ti  Ti106  1  0.93813025  0.82654888  0.63346888  1
  Ti  Ti107  1  0.85813365  0.90786235  0.88680895  1
  Co  Co108  1  0.30197969  0.75027067  0.52991702  1
  Co  Co109  1  0.58250350  0.77640823  0.83190950  1
  Co  Co110  1  -0.06533952  -0.01340159  0.74886908  1
  Co  Co111  1  0.28006191  0.59557940  0.11204066  1
  Co  Co112  1  0.66937353  -0.02870267  0.36448783  1
  Co  Co113  1  0.76143401  0.72099150  0.45662757  1
  Co  Co114  1  0.67398043  0.69572936  -0.02147203  1
  Co  Co115  1  -0.01459850  0.64686959  0.69451085  1
  Co  Co116  1  0.85006569  0.35731962  0.23216743  1
  Co  Co117  1  -0.01847517  0.00679917  -0.08282354  1
  Co  Co118  1  0.36102776  0.25160213  -0.01167676  1
  Co  Co119  1  0.26633007  0.79214733  0.85224123  1
  Co  Co120  1  0.50203128  0.89435119  0.37616396  1
  Co  Co121  1  0.84679640  0.95091618  0.34606552  1
  Co  Co122  1  0.10407784  0.57389341  0.56144065  1
  Co  Co123  1  -0.00039377  0.58864699  0.86530807  1
  Co  Co124  1  0.83744119  0.59725067  0.78352787  1
  Co  Co125  1  -0.09548869  0.27801310  0.38633572  1
  Co  Co126  1  0.85405581  0.58047723  0.62087210  1
  Co  Co127  1  0.32108672  -0.06223634  0.72219599  1
  Co  Co128  1  0.17114067  0.45283953  0.20180849  1
  Co  Co129  1  0.14506318  0.41808220  0.36510854  1
  Co  Co130  1  0.77988007  0.45786268  0.09775683  1
  Co  Co131  1  0.42117160  0.64021350  0.22073210  1
  Co  Co132  1  0.43268486  0.64700037  0.59583367  1
  Co  Co133  1  0.44209268  0.13725592  0.51475169  1
  Co  Co134  1  0.71485875  0.20775617  0.94496300  1
  Co  Co135  1  0.49120071  0.85585584  0.64361898  1
  Co  Co136  1  0.03256626  0.25542728  0.53672571  1
  Co  Co137  1  0.43231984  -0.05079102  -0.02161976  1
  Co  Co138  1  0.42849340  0.65835012  0.04890145  1
  Co  Co139  1  0.57182516  0.11903558  -0.05371594  1
  Co  Co140  1  -0.01026851  0.48247436  0.62825580  1
  Co  Co141  1  0.24514525  0.23261765  0.10802755  1
  Co  Co142  1  0.45295155  0.01544432  0.20095594  1
  Co  Co143  1  0.47598826  0.87426384  0.11744275  1
  Co  Co144  1  0.32462128  0.39504025  0.25917202  1
  Co  Co145  1  0.71969766  0.84723923  -0.06430382  1
  Co  Co146  1  0.04793936  0.81611794  0.51587727  1
  Co  Co147  1  0.24138514  0.56251562  0.45079139  1
  Co  Co148  1  0.88007585  0.45214870  0.35519524  1
  Co  Co149  1  0.63717190  0.78879482  0.55649600  1
  Co  Co150  1  0.13297011  0.20067283  -0.00132584  1
  Co  Co151  1  0.60131502  0.22877629  0.09481450  1
  Co  Co152  1  0.54625891  0.28006518  0.75745303  1
  Co  Co153  1  0.82154640  0.14719438  0.71620366  1
  Co  Co154  1  0.39637427  0.30516622  0.53085379  1
  Co  Co155  1  0.24692372  0.16387963  0.87118447  1
  Co  Co156  1  0.70578900  0.01550402  -0.05743991  1
  Co  Co157  1  0.44651822  0.48984417  0.30722172  1
  Co  Co158  1  0.51124709  0.44445022  0.69936427  1
  Co  Co159  1  0.75406508  0.00233349  0.77668096  1
  Co  Co160  1  0.41168347  0.20378045  0.65977693  1
  Co  Co161  1  0.17433924  0.69250367  0.22117262  1
  Ni  Ni162  1  0.10215744  0.16076207  0.16439113  1
  Ni  Ni163  1  0.26889923  0.47415579  0.83300882  1
  Ni  Ni164  1  0.07855870  0.24830962  0.84466437  1
  Ni  Ni165  1  0.15623516  0.70320308  0.48441996  1
  Ni  Ni166  1  0.03186477  0.33490914  -0.02877586  1
  Ni  Ni167  1  0.47270916  0.34353395  0.06573258  1
  Ni  Ni168  1  0.78482293  0.18220680  0.31539334  1
  Ni  Ni169  1  0.05552502  0.78803261  0.10774303  1
  Ni  Ni170  1  0.56099917  0.46163588  -0.00680347  1
  Ni  Ni171  1  0.23259907  0.12865780  0.36717926  1
  Ni  Ni172  1  0.22251780  0.48822463  -0.00017278  1
  Ni  Ni173  1  0.13429212  0.16931873  0.65368019  1
  Ni  Ni174  1  0.56792335  0.58117636  0.11563989  1
  Ni  Ni175  1  0.81302018  0.85904019  0.73302505  1
  Ni  Ni176  1  0.66954563  0.42570018  0.51118753  1
  Ni  Ni177  1  0.89962787  0.30144817  0.73095684  1
  Ni  Ni178  1  -0.00352397  0.66345915  0.01298134  1
  Ni  Ni179  1  0.20075542  0.27311584  0.45046803  1
  Ni  Ni180  1  0.69503293  0.60500489  0.57642053  1
  Ni  Ni181  1  -0.00504076  0.49125950  0.01437491  1
  Ni  Ni182  1  0.93129728  -0.05602289  0.49327927  1
  Ni  Ni183  1  0.29972672  -0.01907387  0.28311226  1
  Ni  Ni184  1  0.60485657  0.41470397  0.30191475  1
  Ni  Ni185  1  0.47567751  0.72290654  0.34718440  1
  Ni  Ni186  1  0.16250983  0.87205016  -0.03816528  1
  Ni  Ni187  1  0.85197882  0.71261581  0.18746539  1
  Ni  Ni188  1  0.06316310  0.92689521  0.63582153  1
  Ni  Ni189  1  0.42415595  0.71291386  0.83789375  1
  Ni  Ni190  1  0.74465551  0.66137109  0.29974262  1
  Ni  Ni191  1  0.90033030  0.00930387  0.06004795  1
  Ni  Ni192  1  -0.00030919  0.82977773  0.95778902  1
  Ni  Ni193  1  0.23024375  0.44209714  0.67654867  1
  Ni  Ni194  1  0.40568778  -0.03626749  0.50296109  1
  Ni  Ni195  1  0.82950249  0.16011375  0.05353076  1
  Ni  Ni196  1  0.82691024  0.37801423  0.49398167  1
  Ni  Ni197  1  0.69716345  0.54038985  0.91291465  1
  Ni  Ni198  1  0.65106698  0.04228403  0.64315285  1
  Ni  Ni199  1  0.49590022  0.11848222  0.77540516  1
  Ni  Ni200  1  0.00406667  -0.08026270  0.32416095  1
  Ni  Ni201  1  0.25034531  0.64531888  0.77755047  1
  Ni  Ni202  1  0.18536625  0.01631187  0.16225372  1
  Ni  Ni203  1  0.10976594  0.12714545  0.47420767  1
  Ni  Ni204  1  0.70377181  0.79129997  0.11640455  1
  Ni  Ni205  1  0.32766953  0.75678870  0.14930241  1
  Ni  Ni206  1  0.57558890  -0.02314996  0.85579421  1
  Ni  Ni207  1  0.46515420  0.16895506  0.25429314  1
  Ni  Ni208  1  -0.08354196  0.61204105  0.34209008  1
  Ni  Ni209  1  0.66269232  0.08666587  0.19983196  1
  Ni  Ni210  1  0.15348916  0.02051588  0.72827355  1
  Ni  Ni211  1  0.11573797  0.80117024  0.36359117  1
  Ni  Ni212  1  0.65604624  0.38377935  0.67717210  1
  Ni  Ni213  1  0.21178968  0.30601182  0.76754157  1
  Ni  Ni214  1  0.57719522  0.65154008  0.46870850  1
