# generated using pymatgen
data_Ti108Co54Ni53
_symmetry_space_group_name_H-M   'P 1'
_cell_length_a   14.67241131
_cell_length_b   14.61796266
_cell_length_c   14.63759237
_cell_angle_alpha   90.19170488
_cell_angle_beta   89.65376090
_cell_angle_gamma   90.13709310
_symmetry_Int_Tables_number   1
_chemical_formula_structural   Ti108Co54Ni53
_chemical_formula_sum   'Ti108 Co54 Ni53'
_cell_volume   3139.39821398
_cell_formula_units_Z   1
loop_
 _symmetry_equiv_pos_site_id
 _symmetry_equiv_pos_as_xyz
  1  'x, y, z'
loop_
 _atom_site_type_symbol
 _atom_site_label
 _atom_site_symmetry_multiplicity
 _atom_site_fract_x
 _atom_site_fract_y
 _atom_site_fract_z
 _atom_site_occupancy
  Ti  Ti0  1  0.01394826  0.01249444  0.25799610  1
  Ti  Ti1  1  0.07115451  0.12469693  0.53833185  1
  Ti  Ti2  1  0.12855648  0.03311812  0.95422469  1
  Ti  Ti3  1  0.07821291  0.41017741  0.31380614  1
  Ti  Ti4  1  0.04697370  0.33607638  0.52248968  1
  Ti  Ti5  1  0.06315253  0.41957524  0.94843897  1
  Ti  Ti6  1  0.13314357  0.73954393  0.29199653  1
  Ti  Ti7  1  0.11086577  0.70343219  0.61072269  1
  Ti  Ti8  1  0.06990025  0.82234159  0.94871981  1
  Ti  Ti9  1  0.38049717  0.13608695  0.23549372  1
  Ti  Ti10  1  0.36486246  0.03029936  0.62669367  1
  Ti  Ti11  1  0.42025736  0.14564242  0.86241989  1
  Ti  Ti12  1  0.39157436  0.36886631  0.19009969  1
  Ti  Ti13  1  0.34576859  0.32288846  0.49783406  1
  Ti  Ti14  1  0.48199380  0.41225194  0.96192453  1
  Ti  Ti15  1  0.44868715  0.75443635  0.32249012  1
  Ti  Ti16  1  0.47642118  0.77687886  0.60072317  1
  Ti  Ti17  1  0.50451148  0.71408880  0.93616492  1
  Ti  Ti18  1  0.79517508  0.08671595  0.25972099  1
  Ti  Ti19  1  0.69097286  0.08071450  0.61362038  1
  Ti  Ti20  1  0.81956171  0.06269806  0.91827637  1
  Ti  Ti21  1  0.77702792  0.39116961  0.22267414  1
  Ti  Ti22  1  0.70236159  0.36962662  0.50109051  1
  Ti  Ti23  1  0.66915576  0.39094224  0.94966801  1
  Ti  Ti24  1  0.80733335  0.75985632  0.27044500  1
  Ti  Ti25  1  0.72970454  0.75552540  0.54041366  1
  Ti  Ti26  1  0.73310557  0.73348776  0.84115798  1
  Ti  Ti27  1  0.07682175  0.31611143  0.11595193  1
  Ti  Ti28  1  0.04515277  0.21019943  0.35424703  1
  Ti  Ti29  1  0.09603059  0.19045256  0.76797128  1
  Ti  Ti30  1  0.04282411  0.60312182  0.02032641  1
  Ti  Ti31  1  0.09065139  0.59874429  0.42086478  1
  Ti  Ti32  1  0.04398079  0.60559484  0.81144483  1
  Ti  Ti33  1  0.04454433  0.92958173  0.09233484  1
  Ti  Ti34  1  0.14373072  0.94752636  0.42043310  1
  Ti  Ti35  1  0.08271692  0.88117301  0.69512830  1
  Ti  Ti36  1  0.44871523  0.23102096  0.05446248  1
  Ti  Ti37  1  0.46550573  0.19914867  0.39074804  1
  Ti  Ti38  1  0.41690332  0.24393750  0.67443772  1
  Ti  Ti39  1  0.41228421  0.55031499  0.06761877  1
  Ti  Ti40  1  0.38931558  0.53294715  0.30304360  1
  Ti  Ti41  1  0.34328437  0.52249006  0.73546426  1
  Ti  Ti42  1  0.40797448  0.89708923  0.04188435  1
  Ti  Ti43  1  0.41930659  0.91851997  0.46229402  1
  Ti  Ti44  1  0.44430120  0.95807637  0.77958679  1
  Ti  Ti45  1  0.78468245  0.26761571  0.04791160  1
  Ti  Ti46  1  0.80995678  0.25405442  0.37962010  1
  Ti  Ti47  1  0.74768378  0.32086690  0.79640137  1
  Ti  Ti48  1  0.72402926  0.67022852  0.13562646  1
  Ti  Ti49  1  0.68667927  0.56365825  0.47724835  1
  Ti  Ti50  1  0.74853215  0.58835213  0.67696136  1
  Ti  Ti51  1  0.73043775  0.92348028  0.12611920  1
  Ti  Ti52  1  0.76570035  0.95651054  0.45267233  1
  Ti  Ti53  1  0.76426156  0.93707662  0.77938689  1
  Ti  Ti54  1  0.31253516  0.08389539  0.04743178  1
  Ti  Ti55  1  0.23916966  0.15841604  0.40395457  1
  Ti  Ti56  1  0.25882703  0.08532243  0.79564963  1
  Ti  Ti57  1  0.25456298  0.38879430  0.03797987  1
  Ti  Ti58  1  0.25041576  0.44964181  0.37515335  1
  Ti  Ti59  1  0.22003705  0.37592306  0.82809966  1
  Ti  Ti60  1  0.21828139  0.78746619  0.08754297  1
  Ti  Ti61  1  0.28129728  0.84967427  0.34298537  1
  Ti  Ti62  1  0.38384323  0.72104203  0.77087635  1
  Ti  Ti63  1  0.62279156  0.11289747  0.11118063  1
  Ti  Ti64  1  0.62465686  0.06767682  0.40257323  1
  Ti  Ti65  1  0.61501930  0.07636696  0.82115704  1
  Ti  Ti66  1  0.58818285  0.41024252  0.15050313  1
  Ti  Ti67  1  0.51377013  0.45723044  0.44958086  1
  Ti  Ti68  1  0.56824164  0.44876936  0.76322495  1
  Ti  Ti69  1  0.54971941  0.77192258  0.11653511  1
  Ti  Ti70  1  0.58012267  0.72347422  0.43585985  1
  Ti  Ti71  1  0.57368622  0.64717302  0.76043682  1
  Ti  Ti72  1  0.94949912  0.12344892  0.04735112  1
  Ti  Ti73  1  0.93325595  0.04581856  0.42261292  1
  Ti  Ti74  1  0.89111336  0.11917876  0.73739759  1
  Ti  Ti75  1  0.90824470  0.46857536  0.07874781  1
  Ti  Ti76  1  0.84827069  0.49119976  0.38071414  1
  Ti  Ti77  1  0.88998385  0.43322787  0.70945439  1
  Ti  Ti78  1  0.87728772  0.81078278  0.04523417  1
  Ti  Ti79  1  0.89752037  0.81097864  0.45973186  1
  Ti  Ti80  1  0.84359078  0.77761592  0.67720954  1
  Ti  Ti81  1  0.19176332  0.18792482  0.21593754  1
  Ti  Ti82  1  0.22321189  0.21470871  0.61170394  1
  Ti  Ti83  1  0.22407100  0.21627524  0.94427227  1
  Ti  Ti84  1  0.30331900  0.66958879  0.20671199  1
  Ti  Ti85  1  0.25609036  0.60511952  0.52833397  1
  Ti  Ti86  1  0.31374487  0.64363594  0.93144996  1
  Ti  Ti87  1  0.30043472  0.95689957  0.19456537  1
  Ti  Ti88  1  0.25083456  0.85354187  0.57273452  1
  Ti  Ti89  1  0.24316202  0.84745405  0.86381393  1
  Ti  Ti90  1  0.62767243  0.27329052  0.32972891  1
  Ti  Ti91  1  0.60635402  0.27724024  0.65447779  1
  Ti  Ti92  1  0.55908463  0.26962812  0.85055356  1
  Ti  Ti93  1  0.56423257  0.57246121  0.28558294  1
  Ti  Ti94  1  0.46194591  0.57820850  0.60600486  1
  Ti  Ti95  1  0.61782889  0.56746953  0.93184598  1
  Ti  Ti96  1  0.50683127  0.93878928  0.24021665  1
  Ti  Ti97  1  0.58719542  0.92057813  0.56216614  1
  Ti  Ti98  1  0.60176735  0.88478463  0.90530482  1
  Ti  Ti99  1  0.90727040  0.26234215  0.20716012  1
  Ti  Ti100  1  0.80150093  0.24193459  0.60598542  1
  Ti  Ti101  1  0.92199936  0.26477037  0.86706517  1
  Ti  Ti102  1  1.01222840  0.60042045  0.21740708  1
  Ti  Ti103  1  0.92766903  0.63437365  0.55323727  1
  Ti  Ti104  1  0.79929215  0.59413700  0.96567081  1
  Ti  Ti105  1  0.96693911  0.81443235  0.22224740  1
  Ti  Ti106  1  0.91529355  0.94423367  0.60670022  1
  Ti  Ti107  1  0.92274104  0.81378970  0.83825337  1
  Co  Co108  1  0.38339614  0.72843867  0.05138291  1
  Co  Co109  1  0.50678816  0.38896706  0.30315321  1
  Co  Co110  1  0.87801033  0.36277130  0.53762256  1
  Co  Co111  1  0.67329995  0.02445013  -0.02370541  1
  Co  Co112  1  -0.06020038  0.34972539  0.37506770  1
  Co  Co113  1  0.02250333  0.05092831  0.67039532  1
  Co  Co114  1  -0.05690846  0.31135452  0.02676221  1
  Co  Co115  1  0.89771085  0.66390182  0.11106726  1
  Co  Co116  1  0.26089308  -0.06971542  0.72626637  1
  Co  Co117  1  0.07040237  0.25439451  0.93131334  1
  Co  Co118  1  0.64958202  0.20711351  0.49856883  1
  Co  Co119  1  0.46480150  0.65150444  0.18222880  1
  Co  Co120  1  0.60582940  0.27914316  0.05040008  1
  Co  Co121  1  0.10080137  0.47384432  0.12994823  1
  Co  Co122  1  -0.06370802  0.21898121  0.47828423  1
  Co  Co123  1  0.46170938  0.05021500  0.11728352  1
  Co  Co124  1  0.22696650  0.93130064  0.02508202  1
  Co  Co125  1  0.09521118  0.75815089  0.80001827  1
  Co  Co126  1  0.78663844  0.09845335  0.09049554  1
  Co  Co127  1  0.52555658  0.25286534  0.20526642  1
  Co  Co128  1  0.72306649  0.22836416  0.20079390  1
  Co  Co129  1  0.28767206  0.24268668  0.77484421  1
  Co  Co130  1  0.18015605  0.05905999  0.65822380  1
  Co  Co131  1  0.13702928  0.88964121  0.23526715  1
  Co  Co132  1  0.17070480  0.55552194  0.27523085  1
  Co  Co133  1  0.60984535  -0.05327406  0.71905081  1
  Co  Co134  1  0.16628860  0.63298783  0.12588354  1
  Co  Co135  1  0.38323417  0.81518618  0.18999432  1
  Co  Co136  1  0.89213228  -0.02557467  0.13803159  1
  Co  Co137  1  0.17586578  0.75837625  0.45704336  1
  Co  Co138  1  0.70238324  0.53136525  0.21579604  1
  Co  Co139  1  0.84835997  0.59426271  0.25184095  1
  Co  Co140  1  0.41747442  0.38007355  0.78499261  1
  Co  Co141  1  0.33306408  0.69310197  0.62442300  1
  Co  Co142  1  0.72195501  0.81327231  0.39217178  1
  Co  Co143  1  -0.02022527  0.70914811  0.70071256  1
  Co  Co144  1  -0.05478246  -0.04515838  -0.03901867  1
  Co  Co145  1  0.69777177  0.64789650  0.32658368  1
  Co  Co146  1  0.70949493  0.19912160  0.92916143  1
  Co  Co147  1  0.20708056  0.03546521  0.30070753  1
  Co  Co148  1  0.41134027  0.83882616  0.89159171  1
  Co  Co149  1  0.22711125  0.76875319  0.71362652  1
  Co  Co150  1  0.89633593  0.10296120  0.57675921  1
  Co  Co151  1  0.45178386  0.40559193  0.62672576  1
  Co  Co152  1  0.57450318  0.93302473  0.07316383  1
  Co  Co153  1  0.05578483  0.75038697  0.10831333  1
  Co  Co154  1  0.55662049  0.14640254  -0.03676076  1
  Co  Co155  1  0.19829083  0.53094144  -0.00463247  1
  Co  Co156  1  0.29494018  0.24950548  0.11130425  1
  Co  Co157  1  0.49242618  0.00465963  0.94593936  1
  Co  Co158  1  0.73646241  0.41045262  0.66155816  1
  Co  Co159  1  0.78131783  0.12027610  0.46234373  1
  Co  Co160  1  0.66591699  0.72863289  -0.01142451  1
  Co  Co161  1  0.82839203  0.50975091  0.55521379  1
  Ni  Ni162  1  0.11939335  0.15979733  0.05843063  1
  Ni  Ni163  1  -0.06625566  0.51706384  0.89571337  1
  Ni  Ni164  1  0.16028324  0.03288391  0.14367804  1
  Ni  Ni165  1  0.94089225  -0.03319088  0.78889655  1
  Ni  Ni166  1  0.74850607  0.50121247  0.82066943  1
  Ni  Ni167  1  0.50530942  0.06945316  0.51930247  1
  Ni  Ni168  1  0.35812362  0.48291211  0.51124255  1
  Ni  Ni169  1  0.51942336  0.09852349  0.68583219  1
  Ni  Ni170  1  0.74687665  0.91176304  0.61664479  1
  Ni  Ni171  1  0.62768921  0.78833869  0.25945971  1
  Ni  Ni172  1  0.82001403  0.66039622  0.42480428  1
  Ni  Ni173  1  0.15904829  0.68195546  0.92836396  1
  Ni  Ni174  1  0.36518916  0.30154869  -0.08149715  1
  Ni  Ni175  1  0.60060883  0.47591714  0.60175263  1
  Ni  Ni176  1  0.60746676  0.65422786  0.59801179  1
  Ni  Ni177  1  0.85738892  0.93115279  0.30390392  1
  Ni  Ni178  1  0.31745645  0.28549824  0.31804547  1
  Ni  Ni179  1  -0.02953658  0.25484273  0.65739483  1
  Ni  Ni180  1  0.54813254  0.10242081  0.26482788  1
  Ni  Ni181  1  0.73666458  0.16233112  0.76176559  1
  Ni  Ni182  1  0.36425855  0.15465966  0.51912497  1
  Ni  Ni183  1  0.46047327  0.56276472  0.86227509  1
  Ni  Ni184  1  0.57164263  0.89039575  0.39034275  1
  Ni  Ni185  1  0.27269393  0.65026328  0.37075112  1
  Ni  Ni186  1  0.27512771  0.50625005  0.15711735  1
  Ni  Ni187  1  0.35219015  0.75965166  0.47115638  1
  Ni  Ni188  1  0.66406159  0.78306701  0.69152699  1
  Ni  Ni189  1  0.67170753  0.44017275  0.35001831  1
  Ni  Ni190  1  -0.06960534  0.68579256  -0.06154513  1
  Ni  Ni191  1  0.58845457  0.57487542  0.09217281  1
  Ni  Ni192  1  0.83524492  0.39703413  0.93096280  1
  Ni  Ni193  1  0.02806841  0.15636058  0.19297803  1
  Ni  Ni194  1  0.68851396  -0.05154694  0.28680275  1
  Ni  Ni195  1  -0.03530126  0.68807123  0.35692840  1
  Ni  Ni196  1  0.11022754  0.00131419  0.79891493  1
  Ni  Ni197  1  0.29259848  0.37262202  0.66498383  1
  Ni  Ni198  1  0.18030353  0.30816022  0.42800765  1
  Ni  Ni199  1  0.77076118  0.88293048  -0.05883752  1
  Ni  Ni200  1  0.52200443  0.30429254  0.51214353  1
  Ni  Ni201  1  0.21359517  0.36651251  0.21465252  1
  Ni  Ni202  1  0.33160708  0.47214210  0.90712953  1
  Ni  Ni203  1  0.73831398  0.47733753  0.06857351  1
  Ni  Ni204  1  0.00926389  -0.12057376  0.36685619  1
  Ni  Ni205  1  -0.01505363  0.48335213  0.47932005  1
  Ni  Ni206  1  0.32985963  -0.00979341  -0.09086902  1
  Ni  Ni207  1  0.43531657  0.62109779  0.44164372  1
  Ni  Ni208  1  -0.00810711  0.10214457  0.87924010  1
  Ni  Ni209  1  0.04936511  0.84226875  0.53009644  1
  Ni  Ni210  1  0.35838600  0.03904423  0.37743825  1
  Ni  Ni211  1  0.94155065  0.44078306  0.23414272  1
  Ni  Ni212  1  0.24439415  0.03645486  0.51355325  1
  Ni  Ni213  1  0.86542050  0.62659106  0.79184659  1
  Ni  Ni214  1  0.52494767  0.81166689  0.76814553  1
