# generated using pymatgen
data_Ti108Co54Ni53
_symmetry_space_group_name_H-M   'P 1'
_cell_length_a   14.63991431
_cell_length_b   14.77385708
_cell_length_c   14.70895553
_cell_angle_alpha   89.96000817
_cell_angle_beta   90.20341545
_cell_angle_gamma   90.00634649
_symmetry_Int_Tables_number   1
_chemical_formula_structural   Ti108Co54Ni53
_chemical_formula_sum   'Ti108 Co54 Ni53'
_cell_volume   3181.34975474
_cell_formula_units_Z   1
loop_
 _symmetry_equiv_pos_site_id
 _symmetry_equiv_pos_as_xyz
  1  'x, y, z'
loop_
 _atom_site_type_symbol
 _atom_site_label
 _atom_site_symmetry_multiplicity
 _atom_site_fract_x
 _atom_site_fract_y
 _atom_site_fract_z
 _atom_site_occupancy
  Ti  Ti0  1  0.04802898  0.06846881  0.26767833  1
  Ti  Ti1  1  0.07813782  0.04003348  0.56903696  1
  Ti  Ti2  1  0.11567441  0.04690647  0.98559515  1
  Ti  Ti3  1  0.12096696  0.39346064  0.26462251  1
  Ti  Ti4  1  0.05079648  0.36446244  0.57595932  1
  Ti  Ti5  1  0.15263568  0.39204295  0.94742733  1
  Ti  Ti6  1  0.14335266  0.73212908  0.23932272  1
  Ti  Ti7  1  0.08692087  0.83353412  0.54784798  1
  Ti  Ti8  1  0.02447052  0.78561938  0.96931495  1
  Ti  Ti9  1  0.44188789  0.05817663  0.25404367  1
  Ti  Ti10  1  0.40176050  0.10968401  0.57684974  1
  Ti  Ti11  1  0.40842185  0.06628067  0.92362365  1
  Ti  Ti12  1  0.44314976  0.38143156  0.23807829  1
  Ti  Ti13  1  0.48279033  0.44412798  0.56503097  1
  Ti  Ti14  1  0.35600402  0.41390565  0.92706451  1
  Ti  Ti15  1  0.36352814  0.74464627  0.21539241  1
  Ti  Ti16  1  0.42216927  0.79515026  0.60852329  1
  Ti  Ti17  1  0.45556044  0.79159891  0.84909581  1
  Ti  Ti18  1  0.73032374  0.12670252  0.19134476  1
  Ti  Ti19  1  0.84841532  0.14229541  0.57126435  1
  Ti  Ti20  1  0.67480080  0.02547545  0.89003831  1
  Ti  Ti21  1  0.76961901  0.40858539  0.22203080  1
  Ti  Ti22  1  0.70795629  0.38845458  0.54570652  1
  Ti  Ti23  1  0.68118001  0.43970860  0.91708560  1
  Ti  Ti24  1  0.80147310  0.69107250  0.30227723  1
  Ti  Ti25  1  0.75668964  0.80837365  0.47532301  1
  Ti  Ti26  1  0.69406548  0.80568629  0.87270880  1
  Ti  Ti27  1  0.08931799  0.20224237  0.11962397  1
  Ti  Ti28  1  0.17443802  0.20237441  0.51243507  1
  Ti  Ti29  1  0.07681799  0.24717648  0.79310355  1
  Ti  Ti30  1  0.07850177  0.53839531  0.12268002  1
  Ti  Ti31  1  0.11014943  0.62413436  0.45182759  1
  Ti  Ti32  1  0.17872215  0.60169775  0.73786265  1
  Ti  Ti33  1  -0.01180472  0.95299807  0.08811330  1
  Ti  Ti34  1  0.16255095  0.93837621  0.37514092  1
  Ti  Ti35  1  0.16596887  0.92564413  0.70791331  1
  Ti  Ti36  1  0.42434624  0.23407011  0.08471545  1
  Ti  Ti37  1  0.39158530  0.27470698  0.44688945  1
  Ti  Ti38  1  0.40756668  0.29976108  0.77048497  1
  Ti  Ti39  1  0.38598944  0.56704148  0.07144030  1
  Ti  Ti40  1  0.41214411  0.65792584  0.39868673  1
  Ti  Ti41  1  0.44979902  0.60528157  0.75912614  1
  Ti  Ti42  1  0.36539604  0.84871064  0.04575406  1
  Ti  Ti43  1  0.43075372  0.86163176  0.41704890  1
  Ti  Ti44  1  0.36964488  0.96240174  0.72705616  1
  Ti  Ti45  1  0.72780006  0.29345723  0.06104025  1
  Ti  Ti46  1  0.76978253  0.25850116  0.38442183  1
  Ti  Ti47  1  0.75766617  0.15633651  0.76483177  1
  Ti  Ti48  1  0.69679811  0.59904484  0.14444310  1
  Ti  Ti49  1  0.69885510  0.55859431  0.45928800  1
  Ti  Ti50  1  0.75419368  0.63928065  0.76206874  1
  Ti  Ti51  1  0.76234533  0.84784988  0.16845174  1
  Ti  Ti52  1  0.71996168  0.97040116  0.33848522  1
  Ti  Ti53  1  0.85411347  0.93179249  0.79367917  1
  Ti  Ti54  1  0.27664575  0.11841994  0.09869290  1
  Ti  Ti55  1  0.24876789  0.11389211  0.30885659  1
  Ti  Ti56  1  0.23081418  0.06251020  0.83006736  1
  Ti  Ti57  1  0.25415913  0.44445776  0.11369775  1
  Ti  Ti58  1  0.19570074  0.46315029  0.44510422  1
  Ti  Ti59  1  0.25725827  0.41654801  0.66968157  1
  Ti  Ti60  1  0.21534522  0.72140942  0.05042402  1
  Ti  Ti61  1  0.27704294  0.73751372  0.50573281  1
  Ti  Ti62  1  0.27544496  0.78095059  0.75625360  1
  Ti  Ti63  1  0.58415595  0.12516391  0.02130610  1
  Ti  Ti64  1  0.55048317  0.04579112  0.44655595  1
  Ti  Ti65  1  0.56190784  0.04770648  0.69632764  1
  Ti  Ti66  1  0.58612626  0.45110025  0.11160607  1
  Ti  Ti67  1  0.56179440  0.38057753  0.40221068  1
  Ti  Ti68  1  0.60429240  0.35073046  0.71132021  1
  Ti  Ti69  1  0.56605956  0.78277448  0.14134381  1
  Ti  Ti70  1  0.57917473  0.72353157  0.48974584  1
  Ti  Ti71  1  0.59624661  0.74124705  0.69350894  1
  Ti  Ti72  1  0.91219407  0.12949708  0.02658579  1
  Ti  Ti73  1  0.92460701  -0.00205246  0.43761746  1
  Ti  Ti74  1  0.94980354  0.09401500  0.73638894  1
  Ti  Ti75  1  0.92402836  0.35421743  0.09991329  1
  Ti  Ti76  1  0.88121786  0.40801419  0.41591559  1
  Ti  Ti77  1  0.85613289  0.41611655  0.67862450  1
  Ti  Ti78  1  0.95991583  0.79104878  0.18816515  1
  Ti  Ti79  1  0.97113668  0.72816066  0.39077496  1
  Ti  Ti80  1  0.92879652  0.77005408  0.69696768  1
  Ti  Ti81  1  0.27509024  0.27994052  0.21164382  1
  Ti  Ti82  1  0.25856803  0.21563459  0.68687878  1
  Ti  Ti83  1  0.29340172  0.21855598  0.90864927  1
  Ti  Ti84  1  0.29828311  0.49142299  0.29670673  1
  Ti  Ti85  1  0.31294909  0.55193233  0.55580601  1
  Ti  Ti86  1  0.31587018  0.64446206  0.89773569  1
  Ti  Ti87  1  0.25942067  0.91916051  0.19747925  1
  Ti  Ti88  1  0.28440171  0.92764897  0.53697872  1
  Ti  Ti89  1  0.18376981  0.87417556  0.90568962  1
  Ti  Ti90  1  0.61598032  0.27871965  0.24501550  1
  Ti  Ti91  1  0.65184532  0.16861884  0.56502159  1
  Ti  Ti92  1  0.63807214  0.24823951  0.88218220  1
  Ti  Ti93  1  0.58605343  0.62809924  0.30137636  1
  Ti  Ti94  1  0.61507497  0.55210503  0.65041810  1
  Ti  Ti95  1  0.58556241  0.61821917  0.98083501  1
  Ti  Ti96  1  0.60068400  0.97694740  0.17328420  1
  Ti  Ti97  1  0.63465410  0.89970924  0.59253249  1
  Ti  Ti98  1  0.51757102  0.93787939  0.99901720  1
  Ti  Ti99  1  0.96449509  0.27462551  0.27692649  1
  Ti  Ti100  1  0.98002832  0.20116615  0.44799500  1
  Ti  Ti101  1  0.86362725  0.25684623  0.89520735  1
  Ti  Ti102  1  0.88368854  0.54347427  0.15949678  1
  Ti  Ti103  1  0.94044123  0.54917189  0.54555951  1
  Ti  Ti104  1  0.82579132  0.63904541  0.98062672  1
  Ti  Ti105  1  0.88915897  0.97839162  0.24659264  1
  Ti  Ti106  1  0.84116119  0.93667126  0.61182180  1
  Ti  Ti107  1  0.82307488  0.92043179  0.97517789  1
  Co  Co108  1  0.52016974  -0.03612881  0.84579979  1
  Co  Co109  1  0.12288557  0.11788846  0.70317285  1
  Co  Co110  1  0.76612959  0.80192598  0.70675942  1
  Co  Co111  1  0.24538879  0.33967654  0.53283447  1
  Co  Co112  1  0.16784033  0.67974536  0.59789590  1
  Co  Co113  1  0.38417082  0.12323459  0.76241323  1
  Co  Co114  1  0.01558652  0.20472706  0.61593299  1
  Co  Co115  1  0.71312287  0.69610089  0.59252349  1
  Co  Co116  1  -0.00076020  0.69581055  0.57140851  1
  Co  Co117  1  0.07646178  0.00362583  0.81418911  1
  Co  Co118  1  0.09862320  0.08752595  0.41578085  1
  Co  Co119  1  0.54545781  0.12698802  0.83279001  1
  Co  Co120  1  0.60718842  0.09352425  0.29207595  1
  Co  Co121  1  0.34721809  0.91218767  0.88180122  1
  Co  Co122  1  0.53591249  0.56362339  0.46943199  1
  Co  Co123  1  0.01418958  0.85251234  0.82265576  1
  Co  Co124  1  0.77567746  0.54250017  0.61058436  1
  Co  Co125  1  -0.00771780  0.63985496  0.23709874  1
  Co  Co126  1  0.29184822  0.81138480  0.34456794  1
  Co  Co127  1  0.73465702  0.04289997  0.66524964  1
  Co  Co128  1  0.71767402  0.40782117  0.37909591  1
  Co  Co129  1  0.38975528  0.31560106  0.60866979  1
  Co  Co130  1  0.41170203  0.39276131  0.08129612  1
  Co  Co131  1  0.90386471  0.25696902  0.72186031  1
  Co  Co132  1  0.00218078  0.13715471  0.88992494  1
  Co  Co133  1  0.42725688  0.03653341  0.09472210  1
  Co  Co134  1  0.39879202  0.59527907  0.23164660  1
  Co  Co135  1  0.14456835  0.19977100  -0.05112858  1
  Co  Co136  1  -0.02114140  0.65946945  0.07591990  1
  Co  Co137  1  0.59979782  0.67084741  0.83334852  1
  Co  Co138  1  0.54423496  0.15982987  0.16461365  1
  Co  Co139  1  0.84579925  0.07552745  0.88160820  1
  Co  Co140  1  0.36412400  0.43151014  0.43784353  1
  Co  Co141  1  0.00821679  -0.11655558  0.36282168  1
  Co  Co142  1  0.12363807  0.55191146  0.28850947  1
  Co  Co143  1  0.42546382  0.70959000  0.01784338  1
  Co  Co144  1  -0.02804633  -0.02761090  -0.07219406  1
  Co  Co145  1  0.74965422  0.14999741  -0.00866505  1
  Co  Co146  1  0.59195334  0.51555165  0.80868298  1
  Co  Co147  1  0.15054972  0.03129527  0.14734680  1
  Co  Co148  1  0.45540043  0.44923847  0.72098773  1
  Co  Co149  1  0.75030888  0.54459697  0.30385128  1
  Co  Co150  1  0.47016453  -0.04867418  0.56353304  1
  Co  Co151  1  0.25721717  0.05739103  0.64164988  1
  Co  Co152  1  0.66963639  -0.09162711  0.03742411  1
  Co  Co153  1  0.32275986  0.66130212  0.67517770  1
  Co  Co154  1  0.25353376  0.06629311  0.47191830  1
  Co  Co155  1  0.87952876  0.79138699  0.03253656  1
  Co  Co156  1  0.14633306  0.86712583  0.07344741  1
  Co  Co157  1  0.52405773  0.63293467  0.14075288  1
  Co  Co158  1  0.83152403  0.69315705  0.14400979  1
  Co  Co159  1  0.56282964  0.21203024  0.39616808  1
  Co  Co160  1  0.61170730  0.46407721  0.26582900  1
  Co  Co161  1  0.52602715  0.37342468  0.85419282  1
  Ni  Ni162  1  0.56514736  0.78426250  -0.02579047  1
  Ni  Ni163  1  0.60118104  0.88547657  0.42892829  1
  Ni  Ni164  1  0.32950131  -0.02936393  0.35431169  1
  Ni  Ni165  1  0.81632075  0.25711167  0.20968169  1
  Ni  Ni166  1  0.10401985  0.76466875  0.71796641  1
  Ni  Ni167  1  -0.07693113  0.83563923  0.50986576  1
  Ni  Ni168  1  0.12445078  0.22042223  0.30314391  1
  Ni  Ni169  1  0.86109956  0.76621547  0.86045172  1
  Ni  Ni170  1  0.71340958  0.74706503  0.03960226  1
  Ni  Ni171  1  0.08443343  0.90258250  0.22296242  1
  Ni  Ni172  1  0.39711996  0.11646818  0.40707765  1
  Ni  Ni173  1  -0.03341422  0.44928003  0.26512040  1
  Ni  Ni174  1  0.75723456  0.27355980  0.64862852  1
  Ni  Ni175  1  0.56292733  0.31906948  0.01924572  1
  Ni  Ni176  1  0.79207163  0.00698648  0.10897243  1
  Ni  Ni177  1  0.09027654  0.32656870  0.42016689  1
  Ni  Ni178  1  0.14433876  0.77758739  0.40326999  1
  Ni  Ni179  1  0.46783248  0.50730336  0.34037680  1
  Ni  Ni180  1  0.23657440  0.60239935  0.17029594  1
  Ni  Ni181  1  0.88507314  0.30641647  0.55175128  1
  Ni  Ni182  1  0.46476796  0.63748111  0.59084544  1
  Ni  Ni183  1  0.51010595  0.20394818  0.68133232  1
  Ni  Ni184  1  0.77477074  0.46235615  0.05552916  1
  Ni  Ni185  1  0.24881275  0.31785249  0.36628826  1
  Ni  Ni186  1  0.21123244  0.55565490  -0.00593137  1
  Ni  Ni187  1  0.44261012  0.89665302  0.19943866  1
  Ni  Ni188  1  0.54179475  0.28593179  0.54345179  1
  Ni  Ni189  1  0.76335371  0.34355080  0.79844115  1
  Ni  Ni190  1  0.24965152  0.64826237  0.34824484  1
  Ni  Ni191  1  0.84713616  0.84954337  0.34042001  1
  Ni  Ni192  1  0.51901602  0.78250133  0.30748293  1
  Ni  Ni193  1  0.31223474  0.50407946  0.79699192  1
  Ni  Ni194  1  0.42529904  0.22165067  0.27853150  1
  Ni  Ni195  1  0.12248987  0.51840768  0.59275516  1
  Ni  Ni196  1  0.70865510  0.12087841  0.41310888  1
  Ni  Ni197  1  0.22879983  0.33644871  0.81193259  1
  Ni  Ni198  1  0.67130356  0.92384161  0.75818732  1
  Ni  Ni199  1  0.73268316  -0.00364126  0.50355322  1
  Ni  Ni200  1  0.46320657  0.23417351  -0.07836383  1
  Ni  Ni201  1  0.51438892  0.88251022  0.71130904  1
  Ni  Ni202  1  0.50609202  0.47867085  -0.03230107  1
  Ni  Ni203  1  0.90717357  0.56849695  0.36411159  1
  Ni  Ni204  1  0.86386854  0.12462051  0.33679948  1
  Ni  Ni205  1  0.83405098  0.65915269  0.48538498  1
  Ni  Ni206  1  0.01085088  0.28668998  -0.02634443  1
  Ni  Ni207  1  0.15897946  0.70997686  0.87355082  1
  Ni  Ni208  1  0.67945372  0.80425936  0.30896310  1
  Ni  Ni209  1  -0.07499534  0.13535877  0.18376511  1
  Ni  Ni210  1  0.03254707  0.47737071  0.41989413  1
  Ni  Ni211  1  0.24627052  0.28970612  0.04968982  1
  Ni  Ni212  1  0.27122249  -0.02153766  0.01736205  1
  Ni  Ni213  1  0.09470816  0.36493338  0.10134770  1
  Ni  Ni214  1  -0.00247516  -0.07070526  0.67571072  1
