# generated using pymatgen
data_Ti108Co54Ni53
_symmetry_space_group_name_H-M   'P 1'
_cell_length_a   14.62973506
_cell_length_b   14.65414994
_cell_length_c   14.61693425
_cell_angle_alpha   89.79658199
_cell_angle_beta   89.91465064
_cell_angle_gamma   89.66783159
_symmetry_Int_Tables_number   1
_chemical_formula_structural   Ti108Co54Ni53
_chemical_formula_sum   'Ti108 Co54 Ni53'
_cell_volume   3133.59511454
_cell_formula_units_Z   1
loop_
 _symmetry_equiv_pos_site_id
 _symmetry_equiv_pos_as_xyz
  1  'x, y, z'
loop_
 _atom_site_type_symbol
 _atom_site_label
 _atom_site_symmetry_multiplicity
 _atom_site_fract_x
 _atom_site_fract_y
 _atom_site_fract_z
 _atom_site_occupancy
  Ti  Ti0  1  0.07074004  0.12387349  0.28653830  1
  Ti  Ti1  1  0.10934952  0.03346847  0.61698124  1
  Ti  Ti2  1  0.10226488  0.11679410  0.91546460  1
  Ti  Ti3  1  0.07139824  0.38449818  0.26046389  1
  Ti  Ti4  1  0.10103808  0.40906575  0.59848137  1
  Ti  Ti5  1  0.03588096  0.40545337  0.79403908  1
  Ti  Ti6  1  0.12472069  0.69784430  0.32071901  1
  Ti  Ti7  1  0.07996637  0.70468229  0.56474342  1
  Ti  Ti8  1  0.13938335  0.69922440  0.96636789  1
  Ti  Ti9  1  0.37614393  0.13052989  0.27873925  1
  Ti  Ti10  1  0.28691161  0.11162851  0.59319845  1
  Ti  Ti11  1  0.44273639  0.08077053  0.87408465  1
  Ti  Ti12  1  0.39785327  0.44362284  0.26549436  1
  Ti  Ti13  1  0.50594392  0.43786708  0.60638690  1
  Ti  Ti14  1  0.44215305  0.44726721  0.95789709  1
  Ti  Ti15  1  0.43662146  0.78133520  0.20246774  1
  Ti  Ti16  1  0.34722864  0.70957157  0.55629151  1
  Ti  Ti17  1  0.37260928  0.77138049  0.92081016  1
  Ti  Ti18  1  0.71124628  0.10031813  0.25677127  1
  Ti  Ti19  1  0.78675776  0.11574049  0.57179409  1
  Ti  Ti20  1  0.70917891  0.15445458  0.94870791  1
  Ti  Ti21  1  0.69919541  0.39759709  0.27016150  1
  Ti  Ti22  1  0.79622020  0.41643247  0.58650967  1
  Ti  Ti23  1  0.74043247  0.34414102  0.93047221  1
  Ti  Ti24  1  0.76951828  0.70843305  0.30725247  1
  Ti  Ti25  1  0.75387223  0.74660729  0.54517642  1
  Ti  Ti26  1  0.71125190  0.70151666  0.84896904  1
  Ti  Ti27  1  0.08974199  0.28080175  0.05033159  1
  Ti  Ti28  1  0.08537374  0.21272517  0.49405186  1
  Ti  Ti29  1  0.19159975  0.27849550  0.77626352  1
  Ti  Ti30  1  0.05845504  0.61077138  0.15229370  1
  Ti  Ti31  1  0.06486786  0.55844286  0.45126000  1
  Ti  Ti32  1  0.12620276  0.63455379  0.78387979  1
  Ti  Ti33  1  0.08915870  0.94330581  0.18901237  1
  Ti  Ti34  1  0.10244386  0.98009772  0.41120393  1
  Ti  Ti35  1  0.07341422  0.85562405  0.70047918  1
  Ti  Ti36  1  0.44030705  0.27521332  0.04419543  1
  Ti  Ti37  1  0.47852697  0.25050404  0.40489232  1
  Ti  Ti38  1  0.48868511  0.25968528  0.71570984  1
  Ti  Ti39  1  0.48455162  0.62283549  0.05726132  1
  Ti  Ti40  1  0.38781913  0.57858913  0.41032987  1
  Ti  Ti41  1  0.41267547  0.57874389  0.69073659  1
  Ti  Ti42  1  0.48224745  0.94818202  0.05529548  1
  Ti  Ti43  1  0.43999046  0.92243303  0.34693092  1
  Ti  Ti44  1  0.47037813  0.89776076  0.74070202  1
  Ti  Ti45  1  0.76103135  0.26467376  0.13675572  1
  Ti  Ti46  1  0.80855346  0.23771215  0.35625584  1
  Ti  Ti47  1  0.69163164  0.22945046  0.74367325  1
  Ti  Ti48  1  0.75986265  0.57055114  0.00174284  1
  Ti  Ti49  1  0.74052837  0.57290548  0.46395670  1
  Ti  Ti50  1  0.75380419  0.58686596  0.69820830  1
  Ti  Ti51  1  0.69583562  0.99857561  0.07969805  1
  Ti  Ti52  1  0.73745377  0.87726687  0.40651194  1
  Ti  Ti53  1  0.66177331  0.88488294  0.63986334  1
  Ti  Ti54  1  0.23635131  -0.00495581  0.09017746  1
  Ti  Ti55  1  0.22719098  0.12728626  0.40033438  1
  Ti  Ti56  1  0.23344077  0.07570727  0.78013379  1
  Ti  Ti57  1  0.18620350  0.44136675  0.09159744  1
  Ti  Ti58  1  0.23557557  0.43694717  0.41165352  1
  Ti  Ti59  1  0.33327805  0.39461074  0.70266943  1
  Ti  Ti60  1  0.20098968  0.76423072  0.13939985  1
  Ti  Ti61  1  0.21495229  0.80952953  0.44552053  1
  Ti  Ti62  1  0.23157047  0.78208134  0.79101348  1
  Ti  Ti63  1  0.50448807  0.11276889  0.14312953  1
  Ti  Ti64  1  0.59077029  0.01555739  0.41046709  1
  Ti  Ti65  1  0.57010827  0.06811354  0.69545583  1
  Ti  Ti66  1  0.54990884  0.46145114  0.13725624  1
  Ti  Ti67  1  0.61820134  0.39714689  0.45699521  1
  Ti  Ti68  1  0.63519957  0.42027251  0.75749729  1
  Ti  Ti69  1  0.63678939  0.77290588  0.15450775  1
  Ti  Ti70  1  0.48394476  0.73960682  0.40476653  1
  Ti  Ti71  1  0.51938930  0.72963705  0.80266084  1
  Ti  Ti72  1  0.98461891  0.08905062  0.11125605  1
  Ti  Ti73  1  0.93768550  0.09042452  0.43477237  1
  Ti  Ti74  1  0.97945883  0.18663444  0.75548396  1
  Ti  Ti75  1  0.87427800  0.40055116  0.04789756  1
  Ti  Ti76  1  0.92043305  0.44337697  0.36505489  1
  Ti  Ti77  1  0.83990698  0.36474295  0.77486262  1
  Ti  Ti78  1  0.85726617  0.71786765  0.11438193  1
  Ti  Ti79  1  0.94085267  0.75231517  0.42859897  1
  Ti  Ti80  1  0.95259924  0.70181420  0.75422557  1
  Ti  Ti81  1  0.26929549  0.24804043  0.14669470  1
  Ti  Ti82  1  0.24493379  0.30260548  0.56146317  1
  Ti  Ti83  1  0.27183127  0.19621705  0.94910481  1
  Ti  Ti84  1  0.26478135  0.58613843  0.24142344  1
  Ti  Ti85  1  0.21886772  0.56872921  0.60594175  1
  Ti  Ti86  1  0.29139157  0.58096999  0.94648273  1
  Ti  Ti87  1  0.25583508  0.88100450  0.26312059  1
  Ti  Ti88  1  0.28278953  0.90624037  0.64473733  1
  Ti  Ti89  1  0.20766721  0.89136686  0.94070521  1
  Ti  Ti90  1  0.57085548  0.27407980  0.21712387  1
  Ti  Ti91  1  0.59598943  0.20098680  0.55224343  1
  Ti  Ti92  1  0.55654579  0.30434026  0.89183586  1
  Ti  Ti93  1  0.58782142  0.61685732  0.28359112  1
  Ti  Ti94  1  0.56249182  0.66135703  0.57495197  1
  Ti  Ti95  1  0.57965521  0.56518178  0.88878331  1
  Ti  Ti96  1  0.57436595  0.95524601  0.22395621  1
  Ti  Ti97  1  0.46301480  0.98159588  0.55815672  1
  Ti  Ti98  1  0.63786115  0.83923725  0.96873226  1
  Ti  Ti99  1  0.94547638  0.25409720  0.18177701  1
  Ti  Ti100  1  0.91215605  0.29036544  0.50152785  1
  Ti  Ti101  1  0.90317551  0.22503656  0.97574751  1
  Ti  Ti102  1  0.87311677  0.55084613  0.19214911  1
  Ti  Ti103  1  0.90261644  0.62391941  0.57880975  1
  Ti  Ti104  1  0.96231189  0.58416043  0.98274681  1
  Ti  Ti105  1  0.89773373  0.85244690  0.26171844  1
  Ti  Ti106  1  0.91133247  0.83186367  0.59890851  1
  Ti  Ti107  1  0.94086433  0.90165558  1.05928813  1
  Co  Co108  1  0.60047889  0.01185502  -0.05852807  1
  Co  Co109  1  0.57470675  0.57502004  0.72676501  1
  Co  Co110  1  0.14702757  0.13069608  0.08862699  1
  Co  Co111  1  0.64247367  0.73275328  0.69402102  1
  Co  Co112  1  0.44501014  0.15220781  0.59051671  1
  Co  Co113  1  0.82236713  0.12698023  0.09054448  1
  Co  Co114  1  0.33077265  0.30551624  0.34195208  1
  Co  Co115  1  0.09658313  0.84249070  0.03956057  1
  Co  Co116  1  0.07747779  -0.00362233  0.00948106  1
  Co  Co117  1  0.12966603  0.52373232  0.30680193  1
  Co  Co118  1  0.87643410  0.46299930  -0.10275060  1
  Co  Co119  1  0.43415702  0.61776559  0.23306460  1
  Co  Co120  1  0.55155720  0.45671421  0.30948948  1
  Co  Co121  1  0.29366800  -0.01155105  0.36115074  1
  Co  Co122  1  0.48645918  -0.10663801  0.89972816  1
  Co  Co123  1  0.84803115  0.61723349  0.84570350  1
  Co  Co124  1  0.22754406  0.07594103  0.22880514  1
  Co  Co125  1  -0.01008195  0.25487101  0.34980638  1
  Co  Co126  1  0.33524169  0.21121974  0.46669078  1
  Co  Co127  1  0.64107553  0.27200842  0.36097085  1
  Co  Co128  1  0.49195803  0.78241990  0.03670368  1
  Co  Co129  1  -0.03096469  -0.00574599  0.28858969  1
  Co  Co130  1  0.92083123  0.91238989  0.42673124  1
  Co  Co131  1  0.65060553  0.02450547  0.55491032  1
  Co  Co132  1  0.54052975  0.15728550  -0.01010770  1
  Co  Co133  1  0.72882511  0.50600467  0.85126990  1
  Co  Co134  1  0.42108845  0.07790416  0.43475315  1
  Co  Co135  1  0.68563268  0.14534400  0.43358983  1
  Co  Co136  1  0.23690580  0.39336193  0.24174393  1
  Co  Co137  1  0.82907493  0.24810487  0.65572803  1
  Co  Co138  1  0.47102851  0.43759890  0.78844023  1
  Co  Co139  1  0.58626471  0.14765921  0.83461774  1
  Co  Co140  1  0.59297092  0.82012111  0.31292874  1
  Co  Co141  1  0.37433979  0.75059797  0.71964872  1
  Co  Co142  1  0.33739767  0.69283818  0.06921701  1
  Co  Co143  1  0.78162627  0.38845890  0.42112639  1
  Co  Co144  1  0.54465541  0.12896842  0.31001716  1
  Co  Co145  1  0.63611078  0.67725970  0.01296572  1
  Co  Co146  1  0.06627240  0.38384113  0.44071292  1
  Co  Co147  1  0.20651561  0.60196336  0.08817378  1
  Co  Co148  1  0.88882039  0.59683705  0.40451791  1
  Co  Co149  1  0.12673383  0.24205730  0.21118430  1
  Co  Co150  1  0.06699545  0.79532358  0.85535453  1
  Co  Co151  1  0.28352886  0.60858378  0.77588912  1
  Co  Co152  1  -0.00307718  0.55114146  0.82649799  1
  Co  Co153  1  0.22492285  0.62505382  0.43816743  1
  Co  Co154  1  0.38537587  -0.02236838  0.19603327  1
  Co  Co155  1  0.42529835  0.59548217  0.85632638  1
  Co  Co156  1  0.64942916  0.71213495  0.42459429  1
  Co  Co157  1  0.21035413  0.75519956  0.63429585  1
  Co  Co158  1  0.65379099  0.14935639  0.10826437  1
  Co  Co159  1  0.88174540  0.12802715  0.26363970  1
  Co  Co160  1  0.23980946  -0.02526857  0.50766641  1
  Co  Co161  1  0.80356581  0.74889871  0.70636676  1
  Ni  Ni162  1  0.75713410  0.53621565  0.30791213  1
  Ni  Ni163  1  0.55552253  0.55978832  0.44484149  1
  Ni  Ni164  1  0.44355528  0.41926043  0.43355639  1
  Ni  Ni165  1  0.72973018  0.88766775  0.23852855  1
  Ni  Ni166  1  0.58100457  0.85932944  0.48464773  1
  Ni  Ni167  1  0.33716673  0.47187044  0.54814267  1
  Ni  Ni168  1  0.86143134  0.38595727  0.22221728  1
  Ni  Ni169  1  0.18146028  0.46877792  0.74493702  1
  Ni  Ni170  1  -0.05114316  0.46571764  0.53244354  1
  Ni  Ni171  1  0.41441818  0.29419384  0.20702007  1
  Ni  Ni172  1  -0.03945183  -0.01039906  0.57173977  1
  Ni  Ni173  1  0.64986433  0.51034596  0.58885708  1
  Ni  Ni174  1  0.07539068  0.86855607  0.52756095  1
  Ni  Ni175  1  0.61415894  0.30301160  0.05441887  1
  Ni  Ni176  1  0.01672820  0.41166862  -0.03433263  1
  Ni  Ni177  1  0.30270485  0.36239611  0.00335762  1
  Ni  Ni178  1  0.72731880  0.44835010  0.11792981  1
  Ni  Ni179  1  0.04947252  0.56134112  0.65352249  1
  Ni  Ni180  1  0.79156899  0.03406846  0.40090363  1
  Ni  Ni181  1  0.03748076  0.26741269  0.88791207  1
  Ni  Ni182  1  0.83032783  0.20066245  0.82800449  1
  Ni  Ni183  1  0.65663959  0.33818042  0.61858271  1
  Ni  Ni184  1  0.62612708  0.86532722  0.80520901  1
  Ni  Ni185  1  0.33805007  0.85670500  0.08082654  1
  Ni  Ni186  1  0.41704343  0.31159501  0.56363727  1
  Ni  Ni187  1  0.30305869  0.44480572  0.85454941  1
  Ni  Ni188  1  0.31780919  0.72762831  0.32727836  1
  Ni  Ni189  1  -0.03733704  0.15465256  0.59723255  1
  Ni  Ni190  1  -0.02643763  0.32454134  0.65262367  1
  Ni  Ni191  1  0.17326265  0.28367074  0.36753841  1
  Ni  Ni192  1  0.00568962  0.45286051  0.12773465  1
  Ni  Ni193  1  0.12669283  0.19555998  0.65367049  1
  Ni  Ni194  1  0.34154581  0.20306146  0.76703200  1
  Ni  Ni195  1  0.91087193  0.49171148  0.69534354  1
  Ni  Ni196  1  0.02229933  0.77842941  0.16713924  1
  Ni  Ni197  1  -0.02632989  0.74823530  -0.00815415  1
  Ni  Ni198  1  0.71088671  0.61720729  0.16187100  1
  Ni  Ni199  1  -0.05194998  0.68069586  0.27295325  1
  Ni  Ni200  1  0.48338490  0.80270985  0.60497829  1
  Ni  Ni201  1  0.35175277  0.11333276  0.07744616  1
  Ni  Ni202  1  0.39345365  0.04726175  0.70992500  1
  Ni  Ni203  1  0.12577235  0.52902766  -0.05217923  1
  Ni  Ni204  1  0.05834844  0.84535452  0.32810259  1
  Ni  Ni205  1  0.62508840  0.44819801  -0.01280617  1
  Ni  Ni206  1  0.84499841  -0.01067959  0.17547688  1
  Ni  Ni207  1  0.79974614  -0.05536901  0.54721711  1
  Ni  Ni208  1  0.35855740  0.51543053  0.10517427  1
  Ni  Ni209  1  0.16809061  0.36398773  0.91620163  1
  Ni  Ni210  1  0.32127412  0.93021143  0.81143867  1
  Ni  Ni211  1  0.34582556  -0.01409382  -0.03785035  1
  Ni  Ni212  1  0.37233235  0.86011595  0.48532717  1
  Ni  Ni213  1  0.77872563  0.85638681  0.08277423  1
  Ni  Ni214  1  0.12817723  -0.04386373  0.81332105  1
