# generated using pymatgen
data_Ti108Co54Ni53
_symmetry_space_group_name_H-M   'P 1'
_cell_length_a   14.58120066
_cell_length_b   14.59528523
_cell_length_c   14.64004540
_cell_angle_alpha   89.66593567
_cell_angle_beta   89.80302241
_cell_angle_gamma   89.23546497
_symmetry_Int_Tables_number   1
_chemical_formula_structural   Ti108Co54Ni53
_chemical_formula_sum   'Ti108 Co54 Ni53'
_cell_volume   3115.29944701
_cell_formula_units_Z   1
loop_
 _symmetry_equiv_pos_site_id
 _symmetry_equiv_pos_as_xyz
  1  'x, y, z'
loop_
 _atom_site_type_symbol
 _atom_site_label
 _atom_site_symmetry_multiplicity
 _atom_site_fract_x
 _atom_site_fract_y
 _atom_site_fract_z
 _atom_site_occupancy
  Ti  Ti0  1  0.13715025  0.11396620  0.21686837  1
  Ti  Ti1  1  0.09541282  0.09406956  0.55887774  1
  Ti  Ti2  1  0.09249452  0.04096039  0.89827615  1
  Ti  Ti3  1  0.06862011  0.36077713  0.16736862  1
  Ti  Ti4  1  0.08240116  0.39596675  0.63204526  1
  Ti  Ti5  1  0.10676287  0.42969839  0.95862673  1
  Ti  Ti6  1  0.04831520  0.80056852  0.26726945  1
  Ti  Ti7  1  0.02319823  0.75132842  0.63210499  1
  Ti  Ti8  1  0.09742758  0.73425888  0.93053852  1
  Ti  Ti9  1  0.38662726  0.14552906  0.27363359  1
  Ti  Ti10  1  0.40621542  0.06376107  0.64614760  1
  Ti  Ti11  1  0.39585328  0.03149661  0.88468013  1
  Ti  Ti12  1  0.49637767  0.39645964  0.23034555  1
  Ti  Ti13  1  0.48151283  0.40470694  0.59255524  1
  Ti  Ti14  1  0.44075162  0.49543563  0.86523281  1
  Ti  Ti15  1  0.42389856  0.68355080  0.17669018  1
  Ti  Ti16  1  0.35848359  0.73686604  0.56404058  1
  Ti  Ti17  1  0.43512912  0.68167008  0.97190861  1
  Ti  Ti18  1  0.71808439  -0.01406768  0.27942452  1
  Ti  Ti19  1  0.74474233  0.13281061  0.60214460  1
  Ti  Ti20  1  0.74001241  0.06159156  0.92846593  1
  Ti  Ti21  1  0.84421384  0.39508870  0.25271844  1
  Ti  Ti22  1  0.71244562  0.48613205  0.52782095  1
  Ti  Ti23  1  0.77253013  0.41436073  0.92912781  1
  Ti  Ti24  1  0.80381282  0.74735768  0.27559681  1
  Ti  Ti25  1  0.82585057  0.73733650  0.59476170  1
  Ti  Ti26  1  0.73586472  0.73727188  0.94870396  1
  Ti  Ti27  1  0.00493897  0.20181915  0.05898464  1
  Ti  Ti28  1  0.13883428  0.35535356  0.41198351  1
  Ti  Ti29  1  0.12502794  0.22088930  0.82665817  1
  Ti  Ti30  1  0.13587669  0.56046228  0.10892242  1
  Ti  Ti31  1  0.08634341  0.55368000  0.37785867  1
  Ti  Ti32  1  0.09821798  0.56506224  0.79671935  1
  Ti  Ti33  1  0.05618221  0.86544686  0.06190329  1
  Ti  Ti34  1  -0.01132469  0.94290492  0.41655505  1
  Ti  Ti35  1  0.10229845  0.88838425  0.74517376  1
  Ti  Ti36  1  0.46641035  0.33994062  0.04212462  1
  Ti  Ti37  1  0.43378489  0.19029202  0.47978199  1
  Ti  Ti38  1  0.43931375  0.19393757  0.78505716  1
  Ti  Ti39  1  0.41211053  0.51533375  0.09695420  1
  Ti  Ti40  1  0.41590111  0.65449407  0.41417490  1
  Ti  Ti41  1  0.43226224  0.69135117  0.76329801  1
  Ti  Ti42  1  0.39136212  0.93375612  0.04865824  1
  Ti  Ti43  1  0.43199414  1.01212661  0.42261930  1
  Ti  Ti44  1  0.50292659  0.89321511  0.79943818  1
  Ti  Ti45  1  0.71028554  0.21600444  0.06945384  1
  Ti  Ti46  1  0.74534428  0.18649307  0.39526251  1
  Ti  Ti47  1  0.78551288  0.30128746  0.74896481  1
  Ti  Ti48  1  0.70731477  0.56980680  0.03471391  1
  Ti  Ti49  1  0.74951388  0.54621690  0.36311130  1
  Ti  Ti50  1  0.77354115  0.57993526  0.70472674  1
  Ti  Ti51  1  0.77608908  0.90233453  0.09760793  1
  Ti  Ti52  1  0.75943669  0.85783734  0.43941379  1
  Ti  Ti53  1  0.71967295  0.92191702  0.69695572  1
  Ti  Ti54  1  0.30476000  0.11700261  0.09532284  1
  Ti  Ti55  1  0.23918272  0.06963639  0.40894024  1
  Ti  Ti56  1  0.22338312  0.08149219  0.72953186  1
  Ti  Ti57  1  0.25384702  0.41311584  0.09438943  1
  Ti  Ti58  1  0.32642077  0.40974929  0.39886585  1
  Ti  Ti59  1  0.21253914  0.39044070  0.79208569  1
  Ti  Ti60  1  0.21238243  0.73938150  0.15795499  1
  Ti  Ti61  1  0.27398780  0.86905326  0.35510573  1
  Ti  Ti62  1  0.27873357  0.81356576  0.71122719  1
  Ti  Ti63  1  0.52054498  0.08658889  0.11424002  1
  Ti  Ti64  1  0.56361768  0.10870500  0.31173982  1
  Ti  Ti65  1  0.58965263  0.05536200  0.76690349  1
  Ti  Ti66  1  0.64779284  0.40454992  0.09446963  1
  Ti  Ti67  1  0.56904027  0.41708209  0.40698548  1
  Ti  Ti68  1  0.56695395  0.35350826  0.76906102  1
  Ti  Ti69  1  0.63496578  0.73920472  0.17108290  1
  Ti  Ti70  1  0.56638486  0.76461924  0.48059519  1
  Ti  Ti71  1  0.60820015  0.74638418  0.70455791  1
  Ti  Ti72  1  0.92662186  0.01904320  0.01441662  1
  Ti  Ti73  1  0.92219850  0.14536648  0.46837458  1
  Ti  Ti74  1  0.96105342  -0.00311449  0.76470124  1
  Ti  Ti75  1  0.91364541  0.39864908  0.06555198  1
  Ti  Ti76  1  0.88522084  0.36652929  0.44152794  1
  Ti  Ti77  1  0.92000874  0.45436968  0.75979875  1
  Ti  Ti78  1  0.97215375  0.67498036  0.10797181  1
  Ti  Ti79  1  0.95365904  0.71297866  0.42340042  1
  Ti  Ti80  1  0.79849679  0.75174804  0.77274693  1
  Ti  Ti81  1  0.24017711  0.27535463  0.26498856  1
  Ti  Ti82  1  0.27098719  0.32601717  0.58859509  1
  Ti  Ti83  1  0.28069495  0.26463061  0.95312098  1
  Ti  Ti84  1  0.26508451  0.57490297  0.25281254  1
  Ti  Ti85  1  0.32061535  0.53605012  0.57656974  1
  Ti  Ti86  1  0.26915800  0.68491381  0.86846447  1
  Ti  Ti87  1  0.20381360  0.93001584  0.15539880  1
  Ti  Ti88  1  0.32120605  0.92919130  0.54637094  1
  Ti  Ti89  1  0.24192391  0.90797264  0.87302121  1
  Ti  Ti90  1  0.66748916  0.28944260  0.24937373  1
  Ti  Ti91  1  0.60011057  0.25699571  0.55939914  1
  Ti  Ti92  1  0.58466603  0.19568933  0.91860915  1
  Ti  Ti93  1  0.55804318  0.58624146  0.30282039  1
  Ti  Ti94  1  0.58713461  0.54053414  0.67263610  1
  Ti  Ti95  1  0.61580640  0.59132853  0.85413575  1
  Ti  Ti96  1  0.47838566  0.92077720  0.25602842  1
  Ti  Ti97  1  0.54090148  0.94014361  0.56955788  1
  Ti  Ti98  1  0.60007641  0.88437044  0.99437341  1
  Ti  Ti99  1  0.97603186  0.24226913  0.29896524  1
  Ti  Ti100  1  0.92624359  0.28402972  0.61243507  1
  Ti  Ti101  1  0.91067594  0.16012143  0.85510047  1
  Ti  Ti102  1  0.81294935  0.56856516  0.18648669  1
  Ti  Ti103  1  0.91175871  0.55834616  0.55645096  1
  Ti  Ti104  1  0.91427120  0.64485052  0.88725083  1
  Ti  Ti105  1  0.97137596  0.97349382  0.20811165  1
  Ti  Ti106  1  0.87421252  0.99226092  0.58688897  1
  Ti  Ti107  1  0.85262336  0.89504621  0.87838402  1
  Co  Co108  1  0.42685942  0.28620361  0.32426318  1
  Co  Co109  1  0.61354591  0.10203786  0.46688623  1
  Co  Co110  1  0.18363736  0.47720320  0.50697168  1
  Co  Co111  1  0.07978067  0.03360934  0.08331663  1
  Co  Co112  1  0.02511221  -0.10579431  -0.09485518  1
  Co  Co113  1  0.53784193  0.23729441  0.16350086  1
  Co  Co114  1  0.60283158  -0.08127148  0.15394756  1
  Co  Co115  1  0.77830119  0.57306137  0.87159626  1
  Co  Co116  1  0.65041131  0.84398315  0.29715302  1
  Co  Co117  1  0.42532203  0.84561511  0.43000892  1
  Co  Co118  1  0.71633030  0.45036507  0.77864167  1
  Co  Co119  1  0.15174004  -0.05459317  0.47314695  1
  Co  Co120  1  0.26837167  0.11712100  0.88324849  1
  Co  Co121  1  0.41193956  0.52923221  0.29548305  1
  Co  Co122  1  0.49768974  0.65750431  0.59299394  1
  Co  Co123  1  0.05094426  0.11952553  0.72261928  1
  Co  Co124  1  0.33361832  0.40632007  0.23000385  1
  Co  Co125  1  -0.03555356  0.12613185  0.18366889  1
  Co  Co126  1  0.38371821  0.82136315  0.88592900  1
  Co  Co127  1  0.80174434  0.66611066  0.45090272  1
  Co  Co128  1  0.19614689  0.96438466  0.63011786  1
  Co  Co129  1  0.81876524  0.06699874  0.13034998  1
  Co  Co130  1  0.69571958  -0.01413522  0.54278404  1
  Co  Co131  1  0.45199168  0.83502416  0.65399636  1
  Co  Co132  1  0.74976380  0.24868140  0.90979825  1
  Co  Co133  1  0.68484203  0.82307586  0.58005590  1
  Co  Co134  1  0.19346280  0.50045203  0.66995839  1
  Co  Co135  1  0.33262998  0.72929156  0.30320280  1
  Co  Co136  1  -0.06396173  0.65184992  0.27900978  1
  Co  Co137  1  0.90224597  0.86477595  0.69226596  1
  Co  Co138  1  0.85685694  0.17890266  0.01013374  1
  Co  Co139  1  0.09445682  0.64622290  0.24155393  1
  Co  Co140  1  0.20374069  0.55516866  -0.06411021  1
  Co  Co141  1  0.03704391  -0.06162901  0.59911080  1
  Co  Co142  1  0.34721441  0.84635111  0.18733086  1
  Co  Co143  1  0.35109714  -0.05089989  0.74293596  1
  Co  Co144  1  0.16320873  0.44657767  0.26570377  1
  Co  Co145  1  0.55691976  0.11069713  0.61945955  1
  Co  Co146  1  0.59025692  -0.05139515  0.40380311  1
  Co  Co147  1  0.66966664  0.04137493  0.07166297  1
  Co  Co148  1  0.43014969  0.25145088  0.63325020  1
  Co  Co149  1  0.01429690  0.44308148  0.49461098  1
  Co  Co150  1  0.29348396  0.52829787  0.79790531  1
  Co  Co151  1  0.80614261  0.02793979  0.43612331  1
  Co  Co152  1  0.28950828  0.23922395  0.42192755  1
  Co  Co153  1  0.27455427  0.64654677  0.69404786  1
  Co  Co154  1  0.58662633  0.58003329  0.47046842  1
  Co  Co155  1  0.86933659  0.56089998  0.03003462  1
  Co  Co156  1  0.66090004  0.38390713  0.64061372  1
  Co  Co157  1  0.79232044  0.71524571  0.09869674  1
  Co  Co158  1  0.14147176  0.24115677  0.65504050  1
  Co  Co159  1  0.36576755  0.26143108  0.14239182  1
  Co  Co160  1  0.68937523  0.13245117  0.21218745  1
  Co  Co161  1  0.08201117  0.28689211  0.96159159  1
  Ni  Ni162  1  0.67770882  0.65559882  0.57695869  1
  Ni  Ni163  1  -0.05191637  0.47380446  0.91397935  1
  Ni  Ni164  1  0.18771903  0.26117794  0.10484398  1
  Ni  Ni165  1  -0.08621615  0.31348854  -0.08521322  1
  Ni  Ni166  1  0.88905280  0.14382151  0.68646503  1
  Ni  Ni167  1  0.42945890  0.17783367  -0.01005412  1
  Ni  Ni168  1  0.12935389  0.95833590  0.30531542  1
  Ni  Ni169  1  0.56158866  0.75285675  0.87372202  1
  Ni  Ni170  1  0.56927563  0.56200469  0.14247447  1
  Ni  Ni171  1  -0.08914208  0.82165386  0.15920138  1
  Ni  Ni172  1  0.67999262  0.87192561  0.84735266  1
  Ni  Ni173  1  0.12811367  0.18953299  0.38391098  1
  Ni  Ni174  1  0.86434912  0.89641519  0.30798139  1
  Ni  Ni175  1  0.04001032  0.58442258  -0.02130825  1
  Ni  Ni176  1  0.16176545  0.14778920  0.00103379  1
  Ni  Ni177  1  0.85194138  0.09932958  0.29661031  1
  Ni  Ni178  1  0.00247271  0.41212589  0.32164481  1
  Ni  Ni179  1  0.04473348  0.26223327  0.50629745  1
  Ni  Ni180  1  0.91239256  0.53503094  0.38831787  1
  Ni  Ni181  1  0.79974244  0.03346060  0.77093632  1
  Ni  Ni182  1  0.29095680  0.62768365  0.05558515  1
  Ni  Ni183  1  0.57648979  0.25322792  0.39272292  1
  Ni  Ni184  1  -0.01596221  0.51558564  0.19208630  1
  Ni  Ni185  1  0.30815703  0.00397360  0.25575190  1
  Ni  Ni186  1  0.13794116  0.72112276  0.75808999  1
  Ni  Ni187  1  0.30994194  0.42968424  -0.06047594  1
  Ni  Ni188  1  0.43697002  0.32390559  0.88307061  1
  Ni  Ni189  1  0.66218200  0.69632838  0.36163315  1
  Ni  Ni190  1  0.85260347  0.25432581  0.16476762  1
  Ni  Ni191  1  0.50852013  0.76078166  0.30675758  1
  Ni  Ni192  1  0.23702155  0.81861755  0.01265637  1
  Ni  Ni193  1  0.48834913  0.80958584  0.09734865  1
  Ni  Ni194  1  0.58681422  0.68711686  0.02381599  1
  Ni  Ni195  1  0.61056428  0.35925695  -0.06600382  1
  Ni  Ni196  1  0.44329087  0.50310094  0.46204249  1
  Ni  Ni197  1  -0.01757220  0.77073226  0.80271472  1
  Ni  Ni198  1  0.55028517  0.03220746  0.94147127  1
  Ni  Ni199  1  -0.05679448  0.62939623  0.71571722  1
  Ni  Ni200  1  0.54825843  0.51209396  -0.00944456  1
  Ni  Ni201  1  0.66973078  0.46301800  0.24724006  1
  Ni  Ni202  1  0.91317621  0.79458595  -0.00795717  1
  Ni  Ni203  1  -0.01656290  0.28834079  0.76286759  1
  Ni  Ni204  1  0.28587099  0.24114585  0.74980771  1
  Ni  Ni205  1  0.82660641  0.42453088  0.62788000  1
  Ni  Ni206  1  0.72620615  0.36442951  0.38860944  1
  Ni  Ni207  1  0.01970888  0.08210219  0.34039340  1
  Ni  Ni208  1  0.27489742  0.14133586  0.56714418  1
  Ni  Ni209  1  0.42546049  0.53897672  0.70041453  1
  Ni  Ni210  1  0.22857081  -0.00298598  0.00512604  1
  Ni  Ni211  1  -0.07186545  0.84256963  0.52716764  1
  Ni  Ni212  1  0.76782259  0.29369984  0.54068715  1
  Ni  Ni213  1  0.38098502  0.38038916  0.73072471  1
  Ni  Ni214  1  0.70488657  0.16549270  0.78072540  1
