# generated using pymatgen
data_Ti108Co54Ni53
_symmetry_space_group_name_H-M   'P 1'
_cell_length_a   14.67709733
_cell_length_b   14.62602549
_cell_length_c   14.68742933
_cell_angle_alpha   89.92694342
_cell_angle_beta   89.65944236
_cell_angle_gamma   90.17530804
_symmetry_Int_Tables_number   1
_chemical_formula_structural   Ti108Co54Ni53
_chemical_formula_sum   'Ti108 Co54 Ni53'
_cell_volume   3152.84211135
_cell_formula_units_Z   1
loop_
 _symmetry_equiv_pos_site_id
 _symmetry_equiv_pos_as_xyz
  1  'x, y, z'
loop_
 _atom_site_type_symbol
 _atom_site_label
 _atom_site_symmetry_multiplicity
 _atom_site_fract_x
 _atom_site_fract_y
 _atom_site_fract_z
 _atom_site_occupancy
  Ti  Ti0  1  0.16270469  0.07758478  0.27919944  1
  Ti  Ti1  1  0.03462015  0.05461963  0.57626681  1
  Ti  Ti2  1  0.16617808  0.07265669  0.88538503  1
  Ti  Ti3  1  0.08338009  0.46938196  0.32448518  1
  Ti  Ti4  1  0.10006455  0.35885567  0.67693186  1
  Ti  Ti5  1  0.16145691  0.43663314  0.93658181  1
  Ti  Ti6  1  0.06273936  0.80330048  0.24255563  1
  Ti  Ti7  1  0.10663298  0.83053359  0.56307638  1
  Ti  Ti8  1  0.01883283  0.76727900  0.87954973  1
  Ti  Ti9  1  0.36256718  0.10139290  0.22143759  1
  Ti  Ti10  1  0.43808288  0.13479430  0.50782039  1
  Ti  Ti11  1  0.51575537  0.13515433  0.89918687  1
  Ti  Ti12  1  0.42511278  0.45091847  0.24586376  1
  Ti  Ti13  1  0.43693310  0.42528846  0.59368074  1
  Ti  Ti14  1  0.33931350  0.45344605  1.03959121  1
  Ti  Ti15  1  0.37677851  0.77469622  0.25957559  1
  Ti  Ti16  1  0.41955487  0.72947750  0.54264431  1
  Ti  Ti17  1  0.40477502  0.78040197  0.84728117  1
  Ti  Ti18  1  0.73813294  0.01820917  0.21924235  1
  Ti  Ti19  1  0.73945123  0.01564341  0.56950495  1
  Ti  Ti20  1  0.73773838  0.03152334  0.88723518  1
  Ti  Ti21  1  0.73254533  0.47806921  0.30521521  1
  Ti  Ti22  1  0.78564277  0.34790155  0.56935823  1
  Ti  Ti23  1  0.76961431  0.44744431  0.82339649  1
  Ti  Ti24  1  0.85097184  0.74183402  0.26463423  1
  Ti  Ti25  1  0.79070802  0.81684208  0.56935952  1
  Ti  Ti26  1  0.76441337  0.80525304  0.92112590  1
  Ti  Ti27  1  0.09830430  0.23279906  0.02188947  1
  Ti  Ti28  1  0.11772784  0.18444896  0.42446404  1
  Ti  Ti29  1  0.11318806  0.15701515  0.73057005  1
  Ti  Ti30  1  0.05707702  0.61738151  0.00073989  1
  Ti  Ti31  1  0.03998202  0.57694963  0.47017228  1
  Ti  Ti32  1  0.03670270  0.61414287  0.69560916  1
  Ti  Ti33  1  0.12872581  0.87236592  0.04052066  1
  Ti  Ti34  1  0.03900361  0.95106067  0.39550064  1
  Ti  Ti35  1  0.15029264  0.95014704  0.70471723  1
  Ti  Ti36  1  0.38703672  0.26227884  0.07002312  1
  Ti  Ti37  1  0.39823365  0.31200986  0.43903843  1
  Ti  Ti38  1  0.44828075  0.31251208  0.77017342  1
  Ti  Ti39  1  0.45233707  0.62155079  0.13018867  1
  Ti  Ti40  1  0.36592922  0.52517269  0.43667663  1
  Ti  Ti41  1  0.43901074  0.53734805  0.78739219  1
  Ti  Ti42  1  0.45132933  0.95667118  -0.00245812  1
  Ti  Ti43  1  0.48916658  0.94645763  0.46844779  1
  Ti  Ti44  1  0.46391072  0.96003566  0.80130610  1
  Ti  Ti45  1  0.66533460  0.25201753  0.15039578  1
  Ti  Ti46  1  0.71776408  0.28323907  0.34339653  1
  Ti  Ti47  1  0.71554093  0.16905579  0.67318701  1
  Ti  Ti48  1  0.80446428  0.46211845  0.10571001  1
  Ti  Ti49  1  0.64343458  0.62366779  0.41001368  1
  Ti  Ti50  1  0.69862285  0.62729426  0.82015005  1
  Ti  Ti51  1  0.69031279  0.93054345  0.06108292  1
  Ti  Ti52  1  0.78614405  0.91221160  0.39462588  1
  Ti  Ti53  1  0.73061838  0.90927840  0.74307580  1
  Ti  Ti54  1  0.23599009  0.03042509  0.07853912  1
  Ti  Ti55  1  0.31620072  0.01346510  0.38469136  1
  Ti  Ti56  1  0.30607062  0.06375729  0.73471419  1
  Ti  Ti57  1  0.16313664  0.45257174  0.14000689  1
  Ti  Ti58  1  0.22878061  0.34680969  0.38869980  1
  Ti  Ti59  1  0.27841051  0.40572180  0.71822437  1
  Ti  Ti60  1  0.28406099  0.71451900  0.08919098  1
  Ti  Ti61  1  0.24152877  0.70755920  0.42485237  1
  Ti  Ti62  1  0.18308687  0.74553247  0.74913243  1
  Ti  Ti63  1  0.53701128  0.10296648  0.13398649  1
  Ti  Ti64  1  0.61928207  0.10891411  0.43294735  1
  Ti  Ti65  1  0.48393286  0.13261334  0.70138502  1
  Ti  Ti66  1  0.54106981  0.43606997  0.04106032  1
  Ti  Ti67  1  0.57833434  0.44203912  0.45632092  1
  Ti  Ti68  1  0.58778173  0.43128294  0.71852600  1
  Ti  Ti69  1  0.67787444  0.75276819  0.12261311  1
  Ti  Ti70  1  0.57724571  0.80643137  0.36451289  1
  Ti  Ti71  1  0.52966631  0.70913355  0.70502693  1
  Ti  Ti72  1  0.92175911  0.05106522  0.12010741  1
  Ti  Ti73  1  0.81565584  0.11057052  0.38441878  1
  Ti  Ti74  1  0.89894996  0.11555803  0.74923860  1
  Ti  Ti75  1  0.97853187  0.38179294  0.17698679  1
  Ti  Ti76  1  0.89182632  0.41543771  0.39243785  1
  Ti  Ti77  1  0.92191553  0.41994373  0.70943454  1
  Ti  Ti78  1  0.90779053  0.74739529  0.06738797  1
  Ti  Ti79  1  0.92016298  0.73072975  0.44355760  1
  Ti  Ti80  1  0.86474303  0.75018183  0.74203354  1
  Ti  Ti81  1  0.14152438  0.27979597  0.23303127  1
  Ti  Ti82  1  0.22030942  0.25690093  0.57638347  1
  Ti  Ti83  1  0.29698167  0.28003569  0.89369167  1
  Ti  Ti84  1  0.17566276  0.63085450  0.25133710  1
  Ti  Ti85  1  0.27382482  0.58527069  0.60797975  1
  Ti  Ti86  1  0.29307577  0.61765576  0.90123234  1
  Ti  Ti87  1  0.24095781  0.89855710  0.22081887  1
  Ti  Ti88  1  0.29577782  0.93955663  0.56520685  1
  Ti  Ti89  1  0.27774709  0.91392502  0.89742745  1
  Ti  Ti90  1  0.49288236  0.23017143  0.29604123  1
  Ti  Ti91  1  0.57100936  0.27294508  0.59519379  1
  Ti  Ti92  1  0.62781559  0.32876389  0.89439160  1
  Ti  Ti93  1  0.61745036  0.56543712  0.19246208  1
  Ti  Ti94  1  0.62780510  0.57568314  0.60955570  1
  Ti  Ti95  1  0.59813910  0.61740227  0.99765105  1
  Ti  Ti96  1  0.54930513  0.91536917  0.20193047  1
  Ti  Ti97  1  0.57430000  0.90950886  0.65401411  1
  Ti  Ti98  1  0.56552365  0.80788002  0.96565837  1
  Ti  Ti99  1  0.94277486  0.22467878  0.27972506  1
  Ti  Ti100  1  0.98448953  0.25587705  0.56653609  1
  Ti  Ti101  1  0.98818023  0.33709295  0.89222510  1
  Ti  Ti102  1  0.91230607  0.55089056  0.24491224  1
  Ti  Ti103  1  0.87465916  0.56397634  0.57948434  1
  Ti  Ti104  1  0.95042086  0.53741768  0.86842185  1
  Ti  Ti105  1  0.91082529  0.91864905  0.25406505  1
  Ti  Ti106  1  0.91819855  0.93121702  0.66312631  1
  Ti  Ti107  1  0.99356159  0.97568357  0.92433369  1
  Co  Co108  1  0.27432627  0.19692714  0.32500210  1
  Co  Co109  1  0.85314626  0.26994019  0.70125269  1
  Co  Co110  1  0.42014192  -0.08073118  0.30829284  1
  Co  Co111  1  0.28912597  0.87773336  0.74119875  1
  Co  Co112  1  0.59557243  0.22634420  0.77436984  1
  Co  Co113  1  0.44630862  0.54322547  -0.04617848  1
  Co  Co114  1  0.14284194  0.29340369  0.83769322  1
  Co  Co115  1  0.43287522  -0.00391143  0.62533180  1
  Co  Co116  1  0.12593763  -0.11034088  0.85707155  1
  Co  Co117  1  0.62855017  0.05117596  0.75460059  1
  Co  Co118  1  0.58186373  0.06737164  0.58428603  1
  Co  Co119  1  0.52430392  0.66226238  0.86180505  1
  Co  Co120  1  0.06077325  0.15271533  0.16520176  1
  Co  Co121  1  -0.14801979  0.58590163  0.74586843  1
  Co  Co122  1  0.24822940  0.16845069  -0.00596944  1
  Co  Co123  1  -0.02247925  0.89639360  0.08409263  1
  Co  Co124  1  0.75217563  0.75816052  0.40948956  1
  Co  Co125  1  0.51587769  0.55973479  0.32319936  1
  Co  Co126  1  0.70855853  0.33076552  0.72239267  1
  Co  Co127  1  0.19859727  0.53775892  0.43710164  1
  Co  Co128  1  0.82258186  -0.13349176  0.13452652  1
  Co  Co129  1  0.11475800  0.36952566  0.49646131  1
  Co  Co130  1  0.44977608  0.70262607  0.38597112  1
  Co  Co131  1  0.72398632  0.20436916  0.50314931  1
  Co  Co132  1  0.53698369  0.71675034  0.23514317  1
  Co  Co133  1  0.63617519  -0.02981567  0.34934894  1
  Co  Co134  1  0.03135773  0.32292998  0.37266808  1
  Co  Co135  1  0.13713685  0.66817357  0.56587728  1
  Co  Co136  1  0.59705537  0.03774388  0.00058611  1
  Co  Co137  1  0.96709156  0.73021097  0.60673336  1
  Co  Co138  1  0.60685451  -0.06388318  0.87253675  1
  Co  Co139  1  0.39429709  0.10422936  0.05138831  1
  Co  Co140  1  0.23962203  0.18236880  0.15308995  1
  Co  Co141  1  -0.02759855  0.13025514  0.44117239  1
  Co  Co142  1  0.02783558  0.82937496  0.73067016  1
  Co  Co143  1  0.04750327  0.56697343  0.16323274  1
  Co  Co144  1  0.23008291  0.32315804  0.06502126  1
  Co  Co145  1  0.86182776  0.14640901  0.57948319  1
  Co  Co146  1  0.81918615  0.35250456  0.23121505  1
  Co  Co147  1  0.28467604  0.15391833  0.47271839  1
  Co  Co148  1  0.87401385  0.26084135  0.44475999  1
  Co  Co149  1  0.07647953  0.06141514  0.03231141  1
  Co  Co150  1  0.39535456  -0.03848481  0.15342474  1
  Co  Co151  1  0.42595191  0.70261002  -0.01199540  1
  Co  Co152  1  0.64110161  0.13367267  0.27094588  1
  Co  Co153  1  -0.00529810  0.25767363  0.75765986  1
  Co  Co154  1  0.02430394  0.15077109  0.88389001  1
  Co  Co155  1  0.58434983  0.49731364  0.86664491  1
  Co  Co156  1  0.20165291  0.58363149  0.03672052  1
  Co  Co157  1  0.71068944  0.85701853  0.25118680  1
  Co  Co158  1  0.74983197  0.48824487  0.66055496  1
  Co  Co159  1  0.45792528  0.36246579  0.92310570  1
  Co  Co160  1  0.44286806  0.57763165  0.63276946  1
  Co  Co161  1  0.01906829  0.01007466  0.76874540  1
  Ni  Ni162  1  0.73975933  0.49048344  0.48372300  1
  Ni  Ni163  1  0.69872418  0.47598237  -0.02022486  1
  Ni  Ni164  1  0.35311131  0.07331497  0.89452133  1
  Ni  Ni165  1  0.34581615  0.61305746  0.30132306  1
  Ni  Ni166  1  -0.02458448  0.43007195  0.55105875  1
  Ni  Ni167  1  0.08681024  0.46377161  0.79468363  1
  Ni  Ni168  1  0.42117334  0.83614222  0.67013309  1
  Ni  Ni169  1  0.32684215  0.44876384  0.86983010  1
  Ni  Ni170  1  0.57501400  0.39817657  0.29872343  1
  Ni  Ni171  1  0.69866246  0.73116561  0.67566232  1
  Ni  Ni172  1  0.66006301  0.41021185  0.15633289  1
  Ni  Ni173  1  0.27105821  0.41860026  0.54395080  1
  Ni  Ni174  1  0.78706424  0.62425792  0.15826093  1
  Ni  Ni175  1  0.46337008  0.80388938  0.10882222  1
  Ni  Ni176  1  0.88627683  0.00518278  0.49885860  1
  Ni  Ni177  1  0.79789389  0.17571544  0.21860564  1
  Ni  Ni178  1  -0.04454527  0.86902011  0.51355055  1
  Ni  Ni179  1  0.30318333  0.55702629  0.15996158  1
  Ni  Ni180  1  -0.01420866  0.06658113  0.28576483  1
  Ni  Ni181  1  0.86028530  0.42223907  -0.04326321  1
  Ni  Ni182  1  0.87146453  -0.07979897  0.82644639  1
  Ni  Ni183  1  0.69579033  0.68977462  0.27592103  1
  Ni  Ni184  1  0.54991215  0.24808395  0.02138297  1
  Ni  Ni185  1  0.84476551  0.93700707  -0.00955749  1
  Ni  Ni186  1  0.87604701  0.68062076  0.89804710  1
  Ni  Ni187  1  0.26640272  0.77420865  0.60013474  1
  Ni  Ni188  1  0.11676429  0.72091998  0.11013143  1
  Ni  Ni189  1  0.18290433  0.74332310  -0.05853482  1
  Ni  Ni190  1  0.83406391  0.59543370  0.39376508  1
  Ni  Ni191  1  0.34660404  0.83798442  0.43437644  1
  Ni  Ni192  1  0.64802120  0.88507923  0.49952762  1
  Ni  Ni193  1  0.17103982  0.00808635  0.46823484  1
  Ni  Ni194  1  0.25525894  0.46998546  0.28769999  1
  Ni  Ni195  1  0.33445359  0.31196534  0.22695234  1
  Ni  Ni196  1  -0.09453463  0.57632810  0.04886351  1
  Ni  Ni197  1  0.62737684  0.78858726  0.81139957  1
  Ni  Ni198  1  0.08241252  -0.02983637  0.18281712  1
  Ni  Ni199  1  0.31310056  0.86678197  0.05189948  1
  Ni  Ni200  1  0.20192237  0.08934770  0.60222822  1
  Ni  Ni201  1  0.12121967  0.61700854  0.84651428  1
  Ni  Ni202  1  0.50536056  0.59207806  0.49076255  1
  Ni  Ni203  1  0.57180365  0.27817577  0.43234522  1
  Ni  Ni204  1  0.50623323  0.32450487  0.16465912  1
  Ni  Ni205  1  0.38474516  0.26374371  0.61343175  1
  Ni  Ni206  1  0.27357007  0.23193019  0.73675266  1
  Ni  Ni207  1  0.34626726  0.68776797  0.72116632  1
  Ni  Ni208  1  0.75478100  0.65755716  0.53561279  1
  Ni  Ni209  1  0.49520855  0.06151675  0.32397438  1
  Ni  Ni210  1  0.12895611  0.50210153  0.59669871  1
  Ni  Ni211  1  0.75879588  0.64455402  0.00033425  1
  Ni  Ni212  1  0.01146227  0.44887696  0.02924098  1
  Ni  Ni213  1  0.01570773  0.65567940  0.31834103  1
  Ni  Ni214  1  0.18934245  0.87244878  0.37666620  1
