# generated using pymatgen
data_Ti108Co54Ni53
_symmetry_space_group_name_H-M   'P 1'
_cell_length_a   14.64340711
_cell_length_b   14.63853049
_cell_length_c   14.68746882
_cell_angle_alpha   90.25694699
_cell_angle_beta   89.99433195
_cell_angle_gamma   90.06479961
_symmetry_Int_Tables_number   1
_chemical_formula_structural   Ti108Co54Ni53
_chemical_formula_sum   'Ti108 Co54 Ni53'
_cell_volume   3148.34218865
_cell_formula_units_Z   1
loop_
 _symmetry_equiv_pos_site_id
 _symmetry_equiv_pos_as_xyz
  1  'x, y, z'
loop_
 _atom_site_type_symbol
 _atom_site_label
 _atom_site_symmetry_multiplicity
 _atom_site_fract_x
 _atom_site_fract_y
 _atom_site_fract_z
 _atom_site_occupancy
  Ti  Ti0  1  0.18398844  0.06249043  0.26287990  1
  Ti  Ti1  1  0.07708097  0.05838886  0.62585691  1
  Ti  Ti2  1  0.13849113  0.06089179  0.95068943  1
  Ti  Ti3  1  0.10321774  0.48381226  0.28031347  1
  Ti  Ti4  1  0.03300219  0.45817867  0.56247456  1
  Ti  Ti5  1  0.04960401  0.38337244  0.99168626  1
  Ti  Ti6  1  0.09884091  0.72597846  0.17772262  1
  Ti  Ti7  1  0.06430829  0.68522643  0.61565411  1
  Ti  Ti8  1  0.12413138  0.77832681  0.90052280  1
  Ti  Ti9  1  0.50351485  0.09053714  0.21645461  1
  Ti  Ti10  1  0.53689167  0.07961671  0.55947194  1
  Ti  Ti11  1  0.44480847  0.09051000  0.85509275  1
  Ti  Ti12  1  0.43727255  0.42162040  0.20798889  1
  Ti  Ti13  1  0.39643418  0.43992778  0.54811254  1
  Ti  Ti14  1  0.38684575  0.39906547  0.89861084  1
  Ti  Ti15  1  0.49971668  0.77275978  0.23229990  1
  Ti  Ti16  1  0.45705599  0.82986581  0.55240245  1
  Ti  Ti17  1  0.41662459  0.67024437  0.98036203  1
  Ti  Ti18  1  0.71452885  0.08576301  0.18292444  1
  Ti  Ti19  1  0.73948347  0.11901934  0.60119181  1
  Ti  Ti20  1  0.67892413  0.09419240  0.87264558  1
  Ti  Ti21  1  0.77876327  0.46328137  0.23269387  1
  Ti  Ti22  1  0.71488892  0.31794866  0.60623727  1
  Ti  Ti23  1  0.70385803  0.43772638  0.80873670  1
  Ti  Ti24  1  0.76965612  0.75495220  0.32235402  1
  Ti  Ti25  1  0.76590591  0.72386319  0.52471696  1
  Ti  Ti26  1  0.68585052  0.74822309  0.87396123  1
  Ti  Ti27  1  0.14388193  0.20707271  0.10834428  1
  Ti  Ti28  1  0.10976397  0.18445347  0.41571994  1
  Ti  Ti29  1  0.07074950  0.22021866  0.82445897  1
  Ti  Ti30  1  0.11012199  0.54160148  0.10101649  1
  Ti  Ti31  1  0.04580031  0.63289698  0.43633454  1
  Ti  Ti32  1  0.08681290  0.50766756  0.72891239  1
  Ti  Ti33  1  0.06622889  0.89413951  0.04396853  1
  Ti  Ti34  1  0.07654384  0.91147801  0.34711785  1
  Ti  Ti35  1  0.12447505  0.93233777  0.77049779  1
  Ti  Ti36  1  0.41145502  0.23765096  0.14000686  1
  Ti  Ti37  1  0.42301262  0.25924049  0.41178268  1
  Ti  Ti38  1  0.47008279  0.27569806  0.79572139  1
  Ti  Ti39  1  0.43646965  0.60227886  0.15587619  1
  Ti  Ti40  1  0.38797124  0.67038447  0.46490600  1
  Ti  Ti41  1  0.39188996  0.65802994  0.77963589  1
  Ti  Ti42  1  0.41900940  0.92977167  0.11269453  1
  Ti  Ti43  1  0.39064611  0.97659224  0.44518586  1
  Ti  Ti44  1  0.42006315  0.86414867  0.75451788  1
  Ti  Ti45  1  0.72688682  0.23047766  0.01528570  1
  Ti  Ti46  1  0.80655026  0.22504417  0.46065027  1
  Ti  Ti47  1  0.77758576  0.25487177  0.78405766  1
  Ti  Ti48  1  0.77091139  0.64332921  0.15813411  1
  Ti  Ti49  1  0.70232650  0.56004813  0.43082456  1
  Ti  Ti50  1  0.77476884  0.61432626  0.73723729  1
  Ti  Ti51  1  0.72995207  0.89273592  0.07008207  1
  Ti  Ti52  1  0.73250691  0.89477145  0.44633532  1
  Ti  Ti53  1  0.78511588  0.88932644  0.77467160  1
  Ti  Ti54  1  0.29966180  0.09637448  0.07377945  1
  Ti  Ti55  1  0.23216171  0.06760813  0.46825543  1
  Ti  Ti56  1  0.28407984  0.21951793  0.76992833  1
  Ti  Ti57  1  0.24110343  0.37130872  0.14251040  1
  Ti  Ti58  1  0.24504595  0.37276417  0.42483808  1
  Ti  Ti59  1  0.26259978  0.44351483  0.76913505  1
  Ti  Ti60  1  0.24361952  0.78716105  0.04851445  1
  Ti  Ti61  1  0.21275632  0.71772858  0.35889958  1
  Ti  Ti62  1  0.22528055  0.77209839  0.72498241  1
  Ti  Ti63  1  0.60218583  0.04854626  0.03966082  1
  Ti  Ti64  1  0.66266794  0.06259954  0.39879165  1
  Ti  Ti65  1  0.60191389  0.17290014  0.71484339  1
  Ti  Ti66  1  0.53717909  0.43133244  0.04572996  1
  Ti  Ti67  1  0.60537025  0.41012068  0.32302732  1
  Ti  Ti68  1  0.46997330  0.47588649  0.73542593  1
  Ti  Ti69  1  0.56104694  0.79168010  0.04330679  1
  Ti  Ti70  1  0.58442753  0.75690557  0.39746643  1
  Ti  Ti71  1  0.56289357  0.72051988  0.69492115  1
  Ti  Ti72  1  0.91614330  0.09777920  0.11539365  1
  Ti  Ti73  1  0.96011554  0.08405673  0.41960533  1
  Ti  Ti74  1  0.87395621  0.09066583  0.74971031  1
  Ti  Ti75  1  0.91102209  0.31099776  0.11652015  1
  Ti  Ti76  1  0.96720068  0.32520031  0.41738294  1
  Ti  Ti77  1  0.89088755  0.44878986  0.71872471  1
  Ti  Ti78  1  0.91306174  0.76109146  0.07088974  1
  Ti  Ti79  1  0.92985542  0.77661610  0.43307045  1
  Ti  Ti80  1  0.89558312  0.77721984  0.64674465  1
  Ti  Ti81  1  0.14659908  0.29448091  0.28421656  1
  Ti  Ti82  1  0.26883672  0.25005516  0.56910943  1
  Ti  Ti83  1  0.22582942  0.27103325  0.95180155  1
  Ti  Ti84  1  0.29827268  0.53281895  0.30582093  1
  Ti  Ti85  1  0.26511187  0.57975943  0.63986374  1
  Ti  Ti86  1  0.14619297  0.57090137  0.91262234  1
  Ti  Ti87  1  0.28797221  0.85040760  0.23513017  1
  Ti  Ti88  1  0.25596255  0.91764937  0.60260874  1
  Ti  Ti89  1  0.27273286  0.91031793  0.88767326  1
  Ti  Ti90  1  0.65332832  0.22478568  0.31322357  1
  Ti  Ti91  1  0.47976514  0.27064179  0.60413249  1
  Ti  Ti92  1  0.53755918  0.24827318  0.98074680  1
  Ti  Ti93  1  0.50511277  0.57290549  0.34104449  1
  Ti  Ti94  1  0.58700142  0.48439345  0.57506414  1
  Ti  Ti95  1  0.62305164  0.58475092  0.98614236  1
  Ti  Ti96  1  0.52987672  0.93705307  0.31887022  1
  Ti  Ti97  1  0.63375586  0.92333906  0.62913199  1
  Ti  Ti98  1  0.52929862  0.92556150  0.90748706  1
  Ti  Ti99  1  0.87331500  0.20546723  0.27914112  1
  Ti  Ti100  1  0.91842315  0.27024287  0.64399701  1
  Ti  Ti101  1  0.89387593  0.17797157  0.92687937  1
  Ti  Ti102  1  0.94593054  0.58604701  0.25727867  1
  Ti  Ti103  1  0.88270266  0.57267182  0.55800008  1
  Ti  Ti104  1  0.96379727  0.66038431  0.88604200  1
  Ti  Ti105  1  0.85606105  0.92113895  0.21431478  1
  Ti  Ti106  1  0.95986185  0.92528027  0.53309318  1
  Ti  Ti107  1  0.95912363  0.89026283  0.88019907  1
  Co  Co108  1  0.26921889  0.20305246  0.38233882  1
  Co  Co109  1  0.71988848  0.72868690  0.03775247  1
  Co  Co110  1  0.46263844  0.10893423  0.04413276  1
  Co  Co111  1  0.78309032  0.33120929  0.32396705  1
  Co  Co112  1  -0.01789631  0.48930757  0.40610329  1
  Co  Co113  1  0.38874021  0.50924062  0.03031392  1
  Co  Co114  1  0.39870522  0.83020626  -0.04323072  1
  Co  Co115  1  0.55295675  0.63868399  0.50013594  1
  Co  Co116  1  0.61067494  0.87061995  0.78011934  1
  Co  Co117  1  0.42284093  0.97822612  0.62259616  1
  Co  Co118  1  0.30116037  0.53475831  0.47017199  1
  Co  Co119  1  -0.01826791  0.04237550  -0.02083465  1
  Co  Co120  1  0.42429389  0.13647484  0.68981877  1
  Co  Co121  1  0.59295852  0.20118337  0.13473091  1
  Co  Co122  1  0.37269554  0.68979251  0.29354157  1
  Co  Co123  1  0.27975130  0.51913511  0.14407564  1
  Co  Co124  1  0.06936266  0.69601381  0.02321394  1
  Co  Co125  1  0.37054457  0.35204262  0.04626279  1
  Co  Co126  1  -0.04854764  0.61436653  0.72465262  1
  Co  Co127  1  0.24711610  0.66991750  0.19228882  1
  Co  Co128  1  0.38351764  0.75817657  0.12111192  1
  Co  Co129  1  0.35231674  0.34776752  0.68044141  1
  Co  Co130  1  0.50256068  0.26912478  0.27371599  1
  Co  Co131  1  0.70734117  0.38472454  0.46107029  1
  Co  Co132  1  0.69545460  -0.06661653  -0.08267381  1
  Co  Co133  1  0.85357838  0.73951789  0.80014762  1
  Co  Co134  1  0.27489336  0.18928109  0.22125272  1
  Co  Co135  1  0.06357455  0.36210850  0.15791135  1
  Co  Co136  1  0.89376811  -0.06929931  0.05093925  1
  Co  Co137  1  0.37643892  -0.00942031  -0.02960195  1
  Co  Co138  1  0.84781932  0.00731396  0.88328117  1
  Co  Co139  1  0.63722093  0.26714230  0.85518214  1
  Co  Co140  1  0.83028479  0.46489041  0.39228429  1
  Co  Co141  1  0.42341173  0.43186678  0.37866031  1
  Co  Co142  1  0.53741589  0.01776058  0.74140203  1
  Co  Co143  1  0.28984048  0.80960400  0.49273723  1
  Co  Co144  1  0.04522164  0.74780197  0.32307966  1
  Co  Co145  1  0.55812818  0.40994135  0.87356716  1
  Co  Co146  1  0.70923018  0.03117409  0.73307422  1
  Co  Co147  1  0.56210310  -0.06760527  0.47745716  1
  Co  Co148  1  0.11991184  -0.03880417  0.49679563  1
  Co  Co149  1  0.25186881  0.62838342  0.02798456  1
  Co  Co150  1  0.86744972  0.39239532  0.54112047  1
  Co  Co151  1  0.32432000  0.33317325  0.28630015  1
  Co  Co152  1  0.02840959  0.21253544  0.00709663  1
  Co  Co153  1  0.62189203  0.78097716  0.55386136  1
  Co  Co154  1  0.27769973  0.72459076  0.88296583  1
  Co  Co155  1  0.37871061  0.22002194  0.94173885  1
  Co  Co156  1  0.59860951  0.50384414  0.18544545  1
  Co  Co157  1  0.27767955  0.10502654  -0.11124990  1
  Co  Co158  1  0.40950680  0.82644316  0.37695574  1
  Co  Co159  1  0.59174543  0.65431212  0.12885409  1
  Co  Co160  1  -0.04335870  0.48229254  0.13094129  1
  Co  Co161  1  0.11041544  0.79839051  0.47044732  1
  Ni  Ni162  1  0.74983219  0.48307427  0.61897265  1
  Ni  Ni163  1  0.20387701  0.66608670  0.51811505  1
  Ni  Ni164  1  -0.01842424  0.03702700  0.26195388  1
  Ni  Ni165  1  0.23150339  0.44494757  -0.01497457  1
  Ni  Ni166  1  0.01701192  0.05370523  0.81967415  1
  Ni  Ni167  1  -0.04251892  -0.05987784  0.70563181  1
  Ni  Ni168  1  0.62658786  0.21322889  0.48749278  1
  Ni  Ni169  1  0.24344681  0.91490945  0.38005404  1
  Ni  Ni170  1  0.13271979  0.21100757  0.65768576  1
  Ni  Ni171  1  -0.01043773  0.48749770  0.85926410  1
  Ni  Ni172  1  0.49908643  0.10980517  0.38564212  1
  Ni  Ni173  1  0.44842435  0.59748795  0.62140968  1
  Ni  Ni174  1  0.77693958  0.05890603  0.01934427  1
  Ni  Ni175  1  0.68482646  0.38451301  -0.03256838  1
  Ni  Ni176  1  0.08594095  0.04670929  0.12470114  1
  Ni  Ni177  1  0.86024724  0.62560196  0.39923895  1
  Ni  Ni178  1  0.82357423  0.82006582  -0.05774403  1
  Ni  Ni179  1  0.54435099  0.36051111  0.47446909  1
  Ni  Ni180  1  0.22349361  0.95258191  0.07875395  1
  Ni  Ni181  1  0.65632995  0.62999079  0.28180918  1
  Ni  Ni182  1  0.90792933  0.07906735  0.59429036  1
  Ni  Ni183  1  0.51768012  0.75035258  0.86274256  1
  Ni  Ni184  1  0.59536051  0.35718733  0.71350274  1
  Ni  Ni185  1  0.48651617  0.55110278  0.88872243  1
  Ni  Ni186  1  0.01200866  0.87799607  0.19724652  1
  Ni  Ni187  1  0.74933602  0.26529305  0.17488019  1
  Ni  Ni188  1  0.08611637  0.85782393  0.62515126  1
  Ni  Ni189  1  0.10892289  0.31739096  0.53084123  1
  Ni  Ni190  1  0.05615571  0.34806411  0.70458914  1
  Ni  Ni191  1  0.66666575  0.78636559  0.19822548  1
  Ni  Ni192  1  0.66985663  0.62533819  0.61129521  1
  Ni  Ni193  1  0.90705195  0.74830411  0.23515327  1
  Ni  Ni194  1  0.35191917  0.73401609  0.63190673  1
  Ni  Ni195  1  0.21434300  0.42679604  0.59576695  1
  Ni  Ni196  1  0.17142036  0.09291401  0.76648270  1
  Ni  Ni197  1  0.80905522  0.93855514  0.61498970  1
  Ni  Ni198  1  0.81421466  0.05679850  0.31232394  1
  Ni  Ni199  1  -0.06441282  0.39770113  0.26809424  1
  Ni  Ni200  1  0.35394433  0.00568501  0.27352166  1
  Ni  Ni201  1  0.13171318  0.38507828  0.85099204  1
  Ni  Ni202  1  0.81080531  0.03620367  0.47505290  1
  Ni  Ni203  1  0.01798183  0.78443845  0.75997975  1
  Ni  Ni204  1  0.12073661  0.65878855  0.77512860  1
  Ni  Ni205  1  0.38065477  0.12993649  0.52390261  1
  Ni  Ni206  1  0.58367581  -0.07038416  0.15754960  1
  Ni  Ni207  1  0.93495623  0.32005672  0.82286700  1
  Ni  Ni208  1  0.69927347  -0.06889232  0.27776105  1
  Ni  Ni209  1  0.00670395  0.19208620  0.54177645  1
  Ni  Ni210  1  0.14792859  0.50658650  0.44732802  1
  Ni  Ni211  1  0.31512224  0.00519136  0.75006796  1
  Ni  Ni212  1  0.31537680  0.55686635  0.88685471  1
  Ni  Ni213  1  0.89719448  0.92802182  0.37215378  1
  Ni  Ni214  1  0.02632577  0.19247073  0.21975633  1
