# generated using pymatgen
data_Ti108Co54Ni53
_symmetry_space_group_name_H-M   'P 1'
_cell_length_a   14.56965873
_cell_length_b   14.54020659
_cell_length_c   14.53545321
_cell_angle_alpha   90.05954466
_cell_angle_beta   89.63416821
_cell_angle_gamma   90.10789728
_symmetry_Int_Tables_number   1
_chemical_formula_structural   Ti108Co54Ni53
_chemical_formula_sum   'Ti108 Co54 Ni53'
_cell_volume   3079.20555662
_cell_formula_units_Z   1
loop_
 _symmetry_equiv_pos_site_id
 _symmetry_equiv_pos_as_xyz
  1  'x, y, z'
loop_
 _atom_site_type_symbol
 _atom_site_label
 _atom_site_symmetry_multiplicity
 _atom_site_fract_x
 _atom_site_fract_y
 _atom_site_fract_z
 _atom_site_occupancy
  Ti  Ti0  1  0.05088441  0.02727373  0.21894355  1
  Ti  Ti1  1  0.03094046  0.05114848  0.52611901  1
  Ti  Ti2  1  0.18390179  0.08975342  0.97215284  1
  Ti  Ti3  1  0.13381480  0.46487447  0.24583793  1
  Ti  Ti4  1  0.08273179  0.35341578  0.59977482  1
  Ti  Ti5  1  0.15354254  0.43207538  0.86409035  1
  Ti  Ti6  1  0.19130040  0.64997560  0.23663661  1
  Ti  Ti7  1  0.05090715  0.71380584  0.56464672  1
  Ti  Ti8  1  0.00204612  0.74890344  0.89055812  1
  Ti  Ti9  1  0.41469981  0.08114049  0.32268407  1
  Ti  Ti10  1  0.35602276  0.11350171  0.55500939  1
  Ti  Ti11  1  0.38067496  0.07539670  0.96981355  1
  Ti  Ti12  1  0.45253274  0.40551462  0.25636261  1
  Ti  Ti13  1  0.35682853  0.45855749  0.59042554  1
  Ti  Ti14  1  0.48325847  0.37844099  0.96177359  1
  Ti  Ti15  1  0.42124286  0.71325007  0.23373070  1
  Ti  Ti16  1  0.38069708  0.75017856  0.55023019  1
  Ti  Ti17  1  0.43866455  0.81560322  0.94887245  1
  Ti  Ti18  1  0.70559635  0.09018639  0.27549040  1
  Ti  Ti19  1  0.72523581  0.10059668  0.60022052  1
  Ti  Ti20  1  0.73625566  0.07753093  0.89538391  1
  Ti  Ti21  1  0.69012753  0.36955015  0.23978724  1
  Ti  Ti22  1  0.70510273  0.41568372  0.52592989  1
  Ti  Ti23  1  0.74499549  0.33403135  0.89579642  1
  Ti  Ti24  1  0.78186357  0.71774151  0.27096996  1
  Ti  Ti25  1  0.74009832  0.77019321  0.57036124  1
  Ti  Ti26  1  0.79392647  0.75484055  0.84656536  1
  Ti  Ti27  1  0.11291779  0.31446843  0.12765598  1
  Ti  Ti28  1  0.07739151  0.33057381  0.39588984  1
  Ti  Ti29  1  0.11051350  0.19415787  0.80825906  1
  Ti  Ti30  1  0.04400285  0.60675928  0.10423626  1
  Ti  Ti31  1  0.08600024  0.54507963  0.43255176  1
  Ti  Ti32  1  0.08022664  0.59360766  0.76437937  1
  Ti  Ti33  1  0.08969758  0.94617835  0.02317567  1
  Ti  Ti34  1  0.12700724  0.90195357  0.46039996  1
  Ti  Ti35  1  0.11883856  1.00610628  0.70588473  1
  Ti  Ti36  1  0.36353661  0.27796297  0.10078014  1
  Ti  Ti37  1  0.41904465  0.25080426  0.44360671  1
  Ti  Ti38  1  0.40012383  0.25452208  0.75043806  1
  Ti  Ti39  1  0.37993014  0.62380464  0.04675528  1
  Ti  Ti40  1  0.43646650  0.58077429  0.39892445  1
  Ti  Ti41  1  0.41149850  0.58927409  0.75991716  1
  Ti  Ti42  1  0.48205255  0.97937763  0.09989593  1
  Ti  Ti43  1  0.35293847  0.95163900  0.46385127  1
  Ti  Ti44  1  0.43548293  0.88043718  0.72295667  1
  Ti  Ti45  1  0.79135804  0.29056611  0.08448645  1
  Ti  Ti46  1  0.82512705  0.25303449  0.45672689  1
  Ti  Ti47  1  0.76840345  0.20785003  0.76581375  1
  Ti  Ti48  1  0.74553572  0.63420926  0.09883978  1
  Ti  Ti49  1  0.73900485  0.52170414  0.37516097  1
  Ti  Ti50  1  0.78031602  0.51511962  0.80209252  1
  Ti  Ti51  1  0.72142666  0.89788848  -0.02780094  1
  Ti  Ti52  1  0.77524978  0.96237935  0.41499934  1
  Ti  Ti53  1  0.65813577  0.86867184  0.73964672  1
  Ti  Ti54  1  0.24379880  0.10515727  0.14410116  1
  Ti  Ti55  1  0.22670823  0.00670466  0.31883258  1
  Ti  Ti56  1  0.25117175  0.14236676  0.69406068  1
  Ti  Ti57  1  0.27123568  0.43952863  0.03618035  1
  Ti  Ti58  1  0.31343488  0.39951700  0.39591736  1
  Ti  Ti59  1  0.32300567  0.43597318  0.76903254  1
  Ti  Ti60  1  0.25448491  0.75670887  0.09024745  1
  Ti  Ti61  1  0.13162999  0.73234154  0.37573463  1
  Ti  Ti62  1  0.18812767  0.81044266  0.82186469  1
  Ti  Ti63  1  0.54466287  0.17603834  0.05377836  1
  Ti  Ti64  1  0.52992508  0.07950967  0.51004553  1
  Ti  Ti65  1  0.49857731  0.07102383  0.69301671  1
  Ti  Ti66  1  0.63200729  0.46772743  0.07594518  1
  Ti  Ti67  1  0.55802512  0.38424286  0.40156752  1
  Ti  Ti68  1  0.64042313  0.37456343  0.72126003  1
  Ti  Ti69  1  0.55789656  0.70785728  0.07669563  1
  Ti  Ti70  1  0.55934689  0.72444928  0.47266080  1
  Ti  Ti71  1  0.53156720  0.71484618  0.73868198  1
  Ti  Ti72  1  0.95199174  0.08745666  0.04613560  1
  Ti  Ti73  1  0.91813431  0.12365771  0.35284804  1
  Ti  Ti74  1  0.93757765  0.10246825  0.81961019  1
  Ti  Ti75  1  0.92757009  0.43350124  0.01724804  1
  Ti  Ti76  1  0.90454666  0.46381112  0.49092642  1
  Ti  Ti77  1  0.95464003  0.46301144  0.70524069  1
  Ti  Ti78  1  0.99513010  0.80757656  0.07998260  1
  Ti  Ti79  1  0.90729985  0.65172713  0.43198197  1
  Ti  Ti80  1  0.90908559  0.82430254  0.71750742  1
  Ti  Ti81  1  0.20145348  0.23170675  0.28840952  1
  Ti  Ti82  1  0.18582415  0.21089978  0.50853991  1
  Ti  Ti83  1  0.20278000  0.26828350  0.97304397  1
  Ti  Ti84  1  0.33606601  0.54017754  0.23020605  1
  Ti  Ti85  1  0.23441803  0.62945323  0.64807598  1
  Ti  Ti86  1  0.18103934  0.62134820  0.95076793  1
  Ti  Ti87  1  0.27916197  0.83826379  0.26548759  1
  Ti  Ti88  1  0.22454001  0.84571024  0.62102131  1
  Ti  Ti89  1  0.28107486  0.91795667  1.00770192  1
  Ti  Ti90  1  0.52779409  0.23458797  0.24998965  1
  Ti  Ti91  1  0.61687056  0.24806757  0.52653527  1
  Ti  Ti92  1  0.56744004  0.20338734  0.85968726  1
  Ti  Ti93  1  0.60163730  0.68234110  0.28255519  1
  Ti  Ti94  1  0.64324094  0.58297401  0.62786995  1
  Ti  Ti95  1  0.63410528  0.61529382  0.89591274  1
  Ti  Ti96  1  0.57617943  0.86956489  0.24449832  1
  Ti  Ti97  1  0.63295271  0.93619830  0.54753086  1
  Ti  Ti98  1  0.53267191  0.97044048  0.87282583  1
  Ti  Ti99  1  0.92998729  0.31717208  0.23841665  1
  Ti  Ti100  1  0.91648251  0.17485145  0.63018252  1
  Ti  Ti101  1  0.93985263  0.29931256  0.88434787  1
  Ti  Ti102  1  0.88934987  0.54474806  0.24293215  1
  Ti  Ti103  1  0.87433614  0.63724416  0.64693408  1
  Ti  Ti104  1  0.86324429  0.61807963  0.96106145  1
  Ti  Ti105  1  0.93959085  0.83450538  0.26281082  1
  Ti  Ti106  1  0.91997907  0.88105013  0.52905204  1
  Ti  Ti107  1  0.91532847  0.92678351  0.91693621  1
  Co  Co108  1  0.10450415  0.45762992  0.02494767  1
  Co  Co109  1  0.69631027  0.73718138  -0.01108501  1
  Co  Co110  1  0.30860339  0.58181485  0.50064005  1
  Co  Co111  1  0.08167180  0.16839116  0.64277857  1
  Co  Co112  1  -0.01103774  0.79356185  0.40851093  1
  Co  Co113  1  -0.00817418  0.45103695  0.85866462  1
  Co  Co114  1  0.44242808  0.78145986  0.37899879  1
  Co  Co115  1  0.79339484  -0.07460528  0.81000235  1
  Co  Co116  1  0.21229291  0.56953036  0.10367129  1
  Co  Co117  1  0.86809416  0.06566258  0.50079516  1
  Co  Co118  1  0.29444919  0.30309612  0.59764231  1
  Co  Co119  1  0.46897001  0.66566166  0.89587761  1
  Co  Co120  1  0.63849261  0.30304443  0.00415830  1
  Co  Co121  1  0.45876660  -0.05761684  0.57779135  1
  Co  Co122  1  0.20357465  0.03634721  0.53061174  1
  Co  Co123  1  0.09360608  0.15527610  0.10458242  1
  Co  Co124  1  0.30564831  0.72305430  -0.08677784  1
  Co  Co125  1  0.75179858  0.28148420  0.61850366  1
  Co  Co126  1  0.27478136  0.82953213  0.42960318  1
  Co  Co127  1  0.32507056  0.34778601  -0.09776712  1
  Co  Co128  1  0.09477111  0.88845641  0.29938195  1
  Co  Co129  1  -0.00133487  0.21442177  0.48555645  1
  Co  Co130  1  0.06958982  0.74806396  0.72329085  1
  Co  Co131  1  -0.00646327  0.44215008  0.16088733  1
  Co  Co132  1  0.66462738  0.21424515  0.16056452  1
  Co  Co133  1  0.03454371  0.89557942  0.79795642  1
  Co  Co134  1  0.24724784  0.58928240  0.80605768  1
  Co  Co135  1  0.92132150  0.62625891  0.80466483  1
  Co  Co136  1  0.51587231  0.54479491  -0.01025664  1
  Co  Co137  1  0.06112461  0.03003893  -0.11757976  1
  Co  Co138  1  0.11041304  0.78154748  0.17968861  1
  Co  Co139  1  0.71163494  0.11321061  0.44003941  1
  Co  Co140  1  -0.03895712  0.26502650  0.07375097  1
  Co  Co141  1  0.23291909  0.54089613  0.36915088  1
  Co  Co142  1  0.57947282  0.86609176  0.03914996  1
  Co  Co143  1  0.28057145  0.13496961  0.40143346  1
  Co  Co144  1  0.21055692  0.71114731  0.51209363  1
  Co  Co145  1  0.35723720  0.52317930  0.91608943  1
  Co  Co146  1  0.41570631  0.22505132  -0.05613602  1
  Co  Co147  1  0.02434063  0.55090275  0.58169043  1
  Co  Co148  1  0.68837837  0.79469674  0.14673471  1
  Co  Co149  1  0.03940477  0.18770778  0.95486770  1
  Co  Co150  1  0.80851191  0.44979191  0.14008550  1
  Co  Co151  1  0.81287341  0.05652212  0.73041079  1
  Co  Co152  1  0.81822204  0.37884357  0.35563373  1
  Co  Co153  1  0.77556348  0.58418366  0.52887201  1
  Co  Co154  1  0.33245463  -0.02422206  0.16804514  1
  Co  Co155  1  0.79612544  0.47284148  0.64233976  1
  Co  Co156  1  0.62276849  0.44244388  0.89078290  1
  Co  Co157  1  0.83005513  0.35946955  0.74907950  1
  Co  Co158  1  0.17713510  -0.06881077  0.15774227  1
  Co  Co159  1  0.14138133  0.79058403  -0.01582693  1
  Co  Co160  1  0.30943918  0.68410100  0.36215550  1
  Co  Co161  1  0.05527555  0.87830844  0.62272059  1
  Ni  Ni162  1  0.49223223  0.37897202  0.54757064  1
  Ni  Ni163  1  0.55191532  0.05884073  0.22390872  1
  Ni  Ni164  1  0.89859244  0.68978536  0.14214186  1
  Ni  Ni165  1  0.41183147  0.13025025  0.15932812  1
  Ni  Ni166  1  0.61186483  0.19987658  0.69437550  1
  Ni  Ni167  1  0.84832544  0.18478343  -0.04070354  1
  Ni  Ni168  1  0.46622137  0.60589118  0.57631088  1
  Ni  Ni169  1  0.68095312  0.26928958  0.36803880  1
  Ni  Ni170  1  0.46820633  0.22736051  0.60502875  1
  Ni  Ni171  1  0.19885193  0.43514596  0.50942267  1
  Ni  Ni172  1  0.65878909  0.83525987  0.38879674  1
  Ni  Ni173  1  0.09947972  0.10168941  0.38030051  1
  Ni  Ni174  1  0.51695931  0.48219006  0.67109903  1
  Ni  Ni175  1  0.42281714  0.45564801  0.10052810  1
  Ni  Ni176  1  0.76513991  0.48030434  -0.02113396  1
  Ni  Ni177  1  0.27452553  0.37775862  0.21395529  1
  Ni  Ni178  1  0.84813701  0.78427794  0.00886903  1
  Ni  Ni179  1  0.17726302  0.46663553  0.68198050  1
  Ni  Ni180  1  0.00721999  0.67151181  0.27103147  1
  Ni  Ni181  1  0.69775451  0.68710943  0.73941653  1
  Ni  Ni182  1  0.78822856  0.93354362  0.62169502  1
  Ni  Ni183  1  0.36142606  0.25162242  0.28316726  1
  Ni  Ni184  1  0.48779251  0.38774532  0.80037928  1
  Ni  Ni185  1  -0.05181204  -0.00812712  0.67748426  1
  Ni  Ni186  1  -0.03456264  -0.03629710  0.37903617  1
  Ni  Ni187  1  0.04321242  0.19696963  0.25665343  1
  Ni  Ni188  1  0.56746332  0.15334291  0.37517156  1
  Ni  Ni189  1  0.38398032  0.04974938  0.80446284  1
  Ni  Ni190  1  0.59364673  0.79366774  0.87890689  1
  Ni  Ni191  1  0.57070155  0.51356293  0.30672549  1
  Ni  Ni192  1  0.82491260  0.80508505  0.40819372  1
  Ni  Ni193  1  0.54183741  0.33967388  0.12772809  1
  Ni  Ni194  1  0.65003922  0.03951033  0.75594532  1
  Ni  Ni195  1  0.71419384  0.68269800  0.42459644  1
  Ni  Ni196  1  0.42527974  -0.07915246  0.29066683  1
  Ni  Ni197  1  0.28604797  0.17794842  0.85416589  1
  Ni  Ni198  1  0.51231656  0.57608884  0.16892529  1
  Ni  Ni199  1  0.33439508  0.74423151  0.74608015  1
  Ni  Ni200  1  0.55035170  0.80785014  0.60971595  1
  Ni  Ni201  1  0.90271401  0.33776874  0.59306999  1
  Ni  Ni202  1  0.59608559  -0.00991740  0.37707283  1
  Ni  Ni203  1  0.30867974  -0.01566555  0.66172470  1
  Ni  Ni204  1  0.60925083  0.03746273  -0.00308684  1
  Ni  Ni205  1  -0.01010612  0.28860294  0.73071176  1
  Ni  Ni206  1  0.69962923  0.54640716  0.22048500  1
  Ni  Ni207  1  0.59481772  0.55126118  0.46936241  1
  Ni  Ni208  1  0.41535412  0.83012576  0.12009656  1
  Ni  Ni209  1  -0.02227933  0.45094706  0.33889369  1
  Ni  Ni210  1  0.79903992  0.22590745  0.26231830  1
  Ni  Ni211  1  0.22230856  0.30581072  0.75415310  1
  Ni  Ni212  1  0.22457831  0.01448653  0.83030307  1
  Ni  Ni213  1  0.33171419  0.89275216  0.84737923  1
  Ni  Ni214  1  0.02279264  0.58166898  -0.06451152  1
