# generated using pymatgen
data_Ti108Co54Ni53
_symmetry_space_group_name_H-M   'P 1'
_cell_length_a   14.55058500
_cell_length_b   14.51073276
_cell_length_c   14.62527434
_cell_angle_alpha   90.12395956
_cell_angle_beta   89.95794530
_cell_angle_gamma   90.14601930
_symmetry_Int_Tables_number   1
_chemical_formula_structural   Ti108Co54Ni53
_chemical_formula_sum   'Ti108 Co54 Ni53'
_cell_volume   3087.95723804
_cell_formula_units_Z   1
loop_
 _symmetry_equiv_pos_site_id
 _symmetry_equiv_pos_as_xyz
  1  'x, y, z'
loop_
 _atom_site_type_symbol
 _atom_site_label
 _atom_site_symmetry_multiplicity
 _atom_site_fract_x
 _atom_site_fract_y
 _atom_site_fract_z
 _atom_site_occupancy
  Ti  Ti0  1  0.01894390  0.03868091  0.19714659  1
  Ti  Ti1  1  0.12571814  0.14687926  0.62729202  1
  Ti  Ti2  1  0.03922203  0.14187934  0.93961904  1
  Ti  Ti3  1  0.03443014  0.38231126  0.27594525  1
  Ti  Ti4  1  0.03187227  0.30806839  0.57140638  1
  Ti  Ti5  1  0.07549296  0.40394215  0.92706068  1
  Ti  Ti6  1  0.11073803  0.75979346  0.32803592  1
  Ti  Ti7  1  0.12932924  0.76983699  0.56677636  1
  Ti  Ti8  1  0.10307810  0.79594126  0.86841276  1
  Ti  Ti9  1  0.39324804  0.04521705  0.24883714  1
  Ti  Ti10  1  0.38590709  0.12620924  0.63675806  1
  Ti  Ti11  1  0.35663236  0.14864606  0.95224176  1
  Ti  Ti12  1  0.39432749  0.32935552  0.24718271  1
  Ti  Ti13  1  0.48941544  0.40670231  0.57050392  1
  Ti  Ti14  1  0.43512606  0.36678254  0.96782247  1
  Ti  Ti15  1  0.43839504  0.70313941  0.12142055  1
  Ti  Ti16  1  0.44401390  0.74558875  0.64284012  1
  Ti  Ti17  1  0.41205301  0.79955577  0.84660548  1
  Ti  Ti18  1  0.82072628  0.02089852  0.25016079  1
  Ti  Ti19  1  0.83877306  0.00273259  0.57127350  1
  Ti  Ti20  1  0.66821759  0.07411838  0.91225322  1
  Ti  Ti21  1  0.80577406  0.44314148  0.21266432  1
  Ti  Ti22  1  0.67424403  0.39222362  0.55451372  1
  Ti  Ti23  1  0.78773636  0.35484783  0.96303397  1
  Ti  Ti24  1  0.76306658  0.74113454  0.19730675  1
  Ti  Ti25  1  0.83620498  0.65090508  0.60601492  1
  Ti  Ti26  1  0.70962685  0.82316409  0.92446623  1
  Ti  Ti27  1  0.04480125  0.25182463  0.10267208  1
  Ti  Ti28  1  0.13589209  0.23129924  0.41293769  1
  Ti  Ti29  1  0.14089835  0.34565720  0.74291979  1
  Ti  Ti30  1  0.09681670  0.57636756  0.06248215  1
  Ti  Ti31  1  0.07935060  0.59504244  0.47906446  1
  Ti  Ti32  1  0.11579582  0.62685060  0.72993306  1
  Ti  Ti33  1  0.07569543  0.89645786  0.05295530  1
  Ti  Ti34  1  0.18392065  0.89392385  0.43237669  1
  Ti  Ti35  1  0.12166971  0.98070357  0.76083924  1
  Ti  Ti36  1  0.44787057  0.19323804  0.10953905  1
  Ti  Ti37  1  0.39634974  0.26894641  0.43470682  1
  Ti  Ti38  1  0.39058458  0.34327622  0.76607079  1
  Ti  Ti39  1  0.36896562  0.55361470  0.02895594  1
  Ti  Ti40  1  0.37321551  0.54455657  0.38372488  1
  Ti  Ti41  1  0.49362602  0.51267123  0.82951145  1
  Ti  Ti42  1  0.39891414  0.86325390  0.04464830  1
  Ti  Ti43  1  0.40481978  0.80912025  0.36911538  1
  Ti  Ti44  1  0.35530233  0.97668093  0.77187296  1
  Ti  Ti45  1  0.74166338  0.25522574  0.13285926  1
  Ti  Ti46  1  0.80418044  0.37743633  0.42744466  1
  Ti  Ti47  1  0.78838234  0.30338946  0.69597831  1
  Ti  Ti48  1  0.69927219  0.55903212  0.10847384  1
  Ti  Ti49  1  0.73693569  0.62856676  0.42949688  1
  Ti  Ti50  1  0.66678471  0.54734995  0.70412889  1
  Ti  Ti51  1  0.76370607  0.96826206  0.05965315  1
  Ti  Ti52  1  0.70978511  0.94355072  0.45278016  1
  Ti  Ti53  1  0.79056346  0.96346104  0.78802783  1
  Ti  Ti54  1  0.29384046  0.01399356  0.07136422  1
  Ti  Ti55  1  0.18615205  0.08141702  0.30695063  1
  Ti  Ti56  1  0.19336428  0.18465162  0.83814752  1
  Ti  Ti57  1  0.26856558  0.43265366  0.12531309  1
  Ti  Ti58  1  0.25171901  0.38772620  0.34531674  1
  Ti  Ti59  1  0.29337591  0.47129704  0.68100302  1
  Ti  Ti60  1  0.24366469  0.72925451  0.13403137  1
  Ti  Ti61  1  0.25287692  0.68997268  0.42788037  1
  Ti  Ti62  1  0.26776886  0.77198519  0.71037016  1
  Ti  Ti63  1  0.61284768  0.09058403  0.14613120  1
  Ti  Ti64  1  0.60506710  0.11554450  0.37294217  1
  Ti  Ti65  1  0.61395869  0.10782330  0.72089994  1
  Ti  Ti66  1  0.61323852  0.39401794  0.06430308  1
  Ti  Ti67  1  0.64398258  0.45985208  0.37728860  1
  Ti  Ti68  1  0.59958250  0.36457816  0.73170183  1
  Ti  Ti69  1  0.59731716  0.67542715  0.01502796  1
  Ti  Ti70  1  0.59770541  0.78773567  0.39009860  1
  Ti  Ti71  1  0.57330179  0.70698961  0.79526835  1
  Ti  Ti72  1  0.87428045  0.15580280  0.04877617  1
  Ti  Ti73  1  0.97653866  0.10513815  0.37804061  1
  Ti  Ti74  1  0.95485399  0.06291205  0.71916254  1
  Ti  Ti75  1  0.94944026  0.45169936  0.07285445  1
  Ti  Ti76  1  0.95819217  0.46465175  0.45255274  1
  Ti  Ti77  1  0.94839371  0.38203811  0.73802431  1
  Ti  Ti78  1  0.95892864  0.73949457  0.14193035  1
  Ti  Ti79  1  0.86753141  0.80289915  0.47806944  1
  Ti  Ti80  1  0.85473671  0.76822161  0.78197065  1
  Ti  Ti81  1  0.19978562  0.26591512  0.20414052  1
  Ti  Ti82  1  0.22438197  0.33827171  0.55038100  1
  Ti  Ti83  1  0.25873534  0.34638992  0.92256390  1
  Ti  Ti84  1  0.17086508  0.55111525  0.27797645  1
  Ti  Ti85  1  0.36485779  0.59439984  0.56704508  1
  Ti  Ti86  1  0.25950460  0.64104013  0.87037569  1
  Ti  Ti87  1  0.21361832  0.92584374  0.20642192  1
  Ti  Ti88  1  0.24035038  0.94932843  0.60435404  1
  Ti  Ti89  1  0.21447970  1.00675187  0.91116442  1
  Ti  Ti90  1  0.57251372  0.27720527  0.22280806  1
  Ti  Ti91  1  0.54468357  0.21061419  0.53783461  1
  Ti  Ti92  1  0.53254697  0.22650176  0.87588192  1
  Ti  Ti93  1  0.53333617  0.60599251  0.30854676  1
  Ti  Ti94  1  0.58682711  0.65574566  0.56452345  1
  Ti  Ti95  1  0.68309852  0.53409914  0.89635199  1
  Ti  Ti96  1  0.56593260  0.89794452  0.17625901  1
  Ti  Ti97  1  0.60876858  0.85854575  0.60576752  1
  Ti  Ti98  1  0.56854259  0.93395478  0.83794950  1
  Ti  Ti99  1  0.86561097  0.26053915  0.30208083  1
  Ti  Ti100  1  0.84859092  0.19884533  0.52273289  1
  Ti  Ti101  1  0.87243040  0.21031117  0.84073348  1
  Ti  Ti102  1  0.93841686  0.65224328  0.31041505  1
  Ti  Ti103  1  0.86380651  0.55835123  0.77442692  1
  Ti  Ti104  1  0.92071835  0.62467850  0.94033529  1
  Ti  Ti105  1  0.92722642  0.85659550  0.31141173  1
  Ti  Ti106  1  0.95937017  0.85694446  0.63402857  1
  Ti  Ti107  1  0.91053090  0.87109991  0.95015900  1
  Co  Co108  1  0.32057242  0.72691909  -0.01278769  1
  Co  Co109  1  0.34310492  0.48898478  0.86344399  1
  Co  Co110  1  0.75992448  0.66224580  -0.01220638  1
  Co  Co111  1  0.88007072  -0.02652062  0.41131171  1
  Co  Co112  1  0.47279167  0.42156848  0.35880993  1
  Co  Co113  1  0.01023449  0.91066349  0.47745436  1
  Co  Co114  1  0.09448628  0.60508506  0.90075290  1
  Co  Co115  1  0.25950476  0.85418399  0.85794336  1
  Co  Co116  1  0.56447924  0.29799712  0.39938399  1
  Co  Co117  1  0.25397115  0.24717006  0.68614109  1
  Co  Co118  1  0.27571089  0.13427457  0.15942123  1
  Co  Co119  1  -0.03521654  0.52894567  0.62014471  1
  Co  Co120  1  0.26314890  0.79843850  0.28921909  1
  Co  Co121  1  0.69150778  -0.01837104  0.65822709  1
  Co  Co122  1  0.69181173  0.24660516  0.81990490  1
  Co  Co123  1  0.10658426  0.82303434  0.71298553  1
  Co  Co124  1  0.45600850  0.01431449  0.10093023  1
  Co  Co125  1  0.06738337  -0.03690383  0.33922349  1
  Co  Co126  1  0.38832270  0.87513048  0.20841029  1
  Co  Co127  1  0.48418357  0.07734242  0.81333170  1
  Co  Co128  1  -0.09508431  0.15478363  0.19906888  1
  Co  Co129  1  0.37794571  0.28941851  0.59973249  1
  Co  Co130  1  0.80898891  0.50786574  -0.00004196  1
  Co  Co131  1  0.01695550  0.75036523  0.45188327  1
  Co  Co132  1  0.91064844  0.62205808  0.46855965  1
  Co  Co133  1  0.19003614  0.48361062  0.81199561  1
  Co  Co134  1  0.21526214  0.50332876  -0.02532251  1
  Co  Co135  1  0.79424197  0.85029268  0.63216465  1
  Co  Co136  1  -0.06854574  0.21509339  0.66280386  1
  Co  Co137  1  0.88167866  0.35787854  0.56634932  1
  Co  Co138  1  -0.02775916  0.29412181  0.41972623  1
  Co  Co139  1  0.67269346  0.81305180  0.08111509  1
  Co  Co140  1  0.08050440  -0.03357548  0.60581059  1
  Co  Co141  1  0.05133910  0.20940254  0.26940185  1
  Co  Co142  1  0.53164193  0.51336791  -0.01052572  1
  Co  Co143  1  0.66958315  0.23150643  0.63046850  1
  Co  Co144  1  0.53135949  0.81245961  -0.03492422  1
  Co  Co145  1  -0.05140072  0.29730232  -0.02947709  1
  Co  Co146  1  0.52023681  0.09825785  -0.01987625  1
  Co  Co147  1  0.50037551  0.23489785  0.70128574  1
  Co  Co148  1  0.89330002  0.31653261  0.13687073  1
  Co  Co149  1  0.91815890  0.44562521  0.89384784  1
  Co  Co150  1  0.32081562  0.28509939  0.07320382  1
  Co  Co151  1  0.45398838  0.40416842  0.11975125  1
  Co  Co152  1  0.24773619  0.08225646  0.72229210  1
  Co  Co153  1  0.29867338  0.20028320  0.32387547  1
  Co  Co154  1  0.00146860  0.53367956  0.22106564  1
  Co  Co155  1  0.60300301  0.23212348  0.03641015  1
  Co  Co156  1  0.35223661  0.42006416  0.49375047  1
  Co  Co157  1  0.19795879  0.18973331  0.01007170  1
  Co  Co158  1  0.83378350  0.78042074  0.04749594  1
  Co  Co159  1  0.03081227  0.50630431  0.78871183  1
  Co  Co160  1  0.76537106  0.41880695  0.81150250  1
  Co  Co161  1  0.73398010  0.67142361  0.82464684  1
  Ni  Ni162  1  0.89222837  -0.10279654  0.15062192  1
  Ni  Ni163  1  0.86931141  0.60219443  0.12111132  1
  Ni  Ni164  1  0.38416592  0.51238196  0.22155180  1
  Ni  Ni165  1  0.52448250  0.56505181  0.14017534  1
  Ni  Ni166  1  0.46860328  0.17909742  0.30696387  1
  Ni  Ni167  1  0.11787265  0.46505273  0.62380748  1
  Ni  Ni168  1  0.31073959  0.79130532  0.54487785  1
  Ni  Ni169  1  0.05748475  0.86222828  0.20860442  1
  Ni  Ni170  1  0.69894053  0.71259700  0.66930915  1
  Ni  Ni171  1  0.26190970  0.16871362  0.51864048  1
  Ni  Ni172  1  0.59498762  -0.04554215  0.01725408  1
  Ni  Ni173  1  0.03164589  0.73419131  -0.00080367  1
  Ni  Ni174  1  0.10741763  0.41868330  0.12838951  1
  Ni  Ni175  1  -0.01075962  0.09740374  0.54237292  1
  Ni  Ni176  1  0.75710333  0.80887207  0.34946926  1
  Ni  Ni177  1  0.77606480  0.09593280  0.40513049  1
  Ni  Ni178  1  0.49375560  0.54737586  0.66724516  1
  Ni  Ni179  1  0.20401304  0.61526214  0.59238921  1
  Ni  Ni180  1  0.45487319  0.68655298  0.46217929  1
  Ni  Ni181  1  -0.02240569  0.69466535  0.68930744  1
  Ni  Ni182  1  0.09688926  0.67473790  0.19221046  1
  Ni  Ni183  1  0.79152380  0.12340894  0.70716336  1
  Ni  Ni184  1  0.35239384  0.66742590  0.26283300  1
  Ni  Ni185  1  0.68375463  0.83805959  0.76109272  1
  Ni  Ni186  1  0.80342392  0.47155630  0.64591232  1
  Ni  Ni187  1  0.53308813  0.53476770  0.47566976  1
  Ni  Ni188  1  0.22562601  0.85748745  0.01522246  1
  Ni  Ni189  1  0.60358877  0.38137297  0.89744075  1
  Ni  Ni190  1  0.69485594  0.59764286  0.26795217  1
  Ni  Ni191  1  0.03765995  0.20891892  0.78135230  1
  Ni  Ni192  1  0.04019078  -0.01684662  0.91318610  1
  Ni  Ni193  1  0.36245847  0.18313256  0.79459124  1
  Ni  Ni194  1  0.22588739  0.51742905  0.46118867  1
  Ni  Ni195  1  0.59558672  0.44638175  0.22385832  1
  Ni  Ni196  1  0.13721436  0.05421490  0.47279624  1
  Ni  Ni197  1  0.38730794  0.63643327  0.76031313  1
  Ni  Ni198  1  0.66409507  -0.02206698  0.28723771  1
  Ni  Ni199  1  0.41862294  -0.02480897  -0.07064941  1
  Ni  Ni200  1  -0.03682782  0.90532018  0.79597423  1
  Ni  Ni201  1  -0.05633580  0.01100920  0.04694794  1
  Ni  Ni202  1  0.72208964  0.15534728  0.26120838  1
  Ni  Ni203  1  0.87100371  0.05046368  0.90172110  1
  Ni  Ni204  1  0.74727157  0.19547873  -0.03505601  1
  Ni  Ni205  1  0.83680131  0.52788882  0.34696767  1
  Ni  Ni206  1  0.31435062  -0.05139408  0.35387791  1
  Ni  Ni207  1  0.10899440  0.40427127  0.43242906  1
  Ni  Ni208  1  0.51912481  0.76215584  0.24720800  1
  Ni  Ni209  1  0.12550605  0.06293426  0.07333440  1
  Ni  Ni210  1  0.45593659  0.65653353  0.92391813  1
  Ni  Ni211  1  0.48405795  0.89191114  0.70751763  1
  Ni  Ni212  1  0.70695346  0.32169939  0.29919492  1
  Ni  Ni213  1  0.70314311  0.23668839  0.45627941  1
  Ni  Ni214  1  0.71192422  0.76901941  0.51191547  1
