# generated using pymatgen
data_Ti108Co54Ni53
_symmetry_space_group_name_H-M   'P 1'
_cell_length_a   14.64962076
_cell_length_b   14.73679170
_cell_length_c   14.64998409
_cell_angle_alpha   89.83644117
_cell_angle_beta   90.07608915
_cell_angle_gamma   89.80089288
_symmetry_Int_Tables_number   1
_chemical_formula_structural   Ti108Co54Ni53
_chemical_formula_sum   'Ti108 Co54 Ni53'
_cell_volume   3162.72695157
_cell_formula_units_Z   1
loop_
 _symmetry_equiv_pos_site_id
 _symmetry_equiv_pos_as_xyz
  1  'x, y, z'
loop_
 _atom_site_type_symbol
 _atom_site_label
 _atom_site_symmetry_multiplicity
 _atom_site_fract_x
 _atom_site_fract_y
 _atom_site_fract_z
 _atom_site_occupancy
  Ti  Ti0  1  0.08216706  0.12461736  0.23137443  1
  Ti  Ti1  1  0.05046363  0.13513635  0.59066000  1
  Ti  Ti2  1  0.09508821  0.11392887  1.01666579  1
  Ti  Ti3  1  0.18427644  0.43808967  0.22169781  1
  Ti  Ti4  1  0.07439509  0.41061310  0.49213907  1
  Ti  Ti5  1  0.11767044  0.42808073  0.86954881  1
  Ti  Ti6  1  0.09171166  0.79455363  0.21255743  1
  Ti  Ti7  1  0.07076939  0.69553493  0.64397071  1
  Ti  Ti8  1  0.14933673  0.79608429  0.94193180  1
  Ti  Ti9  1  0.40058740  0.14110581  0.28894945  1
  Ti  Ti10  1  0.42208550  0.02617668  0.61922194  1
  Ti  Ti11  1  0.35524508  0.06923604  0.94572067  1
  Ti  Ti12  1  0.47680781  0.39292378  0.28781118  1
  Ti  Ti13  1  0.46221555  0.42620988  0.47212976  1
  Ti  Ti14  1  0.37259029  0.40387867  0.86837689  1
  Ti  Ti15  1  0.43723013  0.71708090  0.27707977  1
  Ti  Ti16  1  0.42947129  0.75315132  0.56499828  1
  Ti  Ti17  1  0.34494918  0.77190386  0.94008644  1
  Ti  Ti18  1  0.73811404  0.06487667  0.23788412  1
  Ti  Ti19  1  0.80741414  0.07116124  0.58547340  1
  Ti  Ti20  1  0.74772388  0.09269572  0.85816082  1
  Ti  Ti21  1  0.80628468  0.41942814  0.25496837  1
  Ti  Ti22  1  0.71190609  0.37706815  0.62586310  1
  Ti  Ti23  1  0.83177182  0.43924832  0.91525451  1
  Ti  Ti24  1  0.80511825  0.73237132  0.29866977  1
  Ti  Ti25  1  0.76793027  0.79484987  0.52560168  1
  Ti  Ti26  1  0.74264952  0.78022324  0.91824740  1
  Ti  Ti27  1  0.11766599  0.31489887  0.07868927  1
  Ti  Ti28  1  0.06627769  0.22086709  0.41071100  1
  Ti  Ti29  1  0.05738423  0.23546471  0.77254049  1
  Ti  Ti30  1  0.07502532  0.63558355  0.10108641  1
  Ti  Ti31  1  0.03402563  0.55136535  0.34899213  1
  Ti  Ti32  1  0.02733513  0.49630409  0.67627193  1
  Ti  Ti33  1  0.04204627  0.96310645  0.12860614  1
  Ti  Ti34  1  0.14472231  0.85260534  0.37931318  1
  Ti  Ti35  1  0.05084441  0.91394417  0.79507109  1
  Ti  Ti36  1  0.40222747  0.29104764  0.02777654  1
  Ti  Ti37  1  0.33091447  0.28050362  0.41205103  1
  Ti  Ti38  1  0.36752698  0.27693869  0.72580903  1
  Ti  Ti39  1  0.46967649  0.50031439  0.10713526  1
  Ti  Ti40  1  0.35822516  0.59145116  0.41703853  1
  Ti  Ti41  1  0.36314082  0.49227883  0.68326715  1
  Ti  Ti42  1  0.43675084  0.97691912  0.10376146  1
  Ti  Ti43  1  0.44989188  0.97926314  0.41069538  1
  Ti  Ti44  1  0.39906821  0.92673416  0.80297705  1
  Ti  Ti45  1  0.76079047  0.35084155  0.06082115  1
  Ti  Ti46  1  0.77550293  0.29481089  0.42147554  1
  Ti  Ti47  1  0.74156905  0.29112602  0.82645141  1
  Ti  Ti48  1  0.70805568  0.64455428  0.14081950  1
  Ti  Ti49  1  0.70826014  0.63763988  0.45389903  1
  Ti  Ti50  1  0.81989310  0.54689116  0.72985827  1
  Ti  Ti51  1  0.68186436  0.93344932  0.11162112  1
  Ti  Ti52  1  0.75284275  0.97572225  0.45172463  1
  Ti  Ti53  1  0.79137935  0.93183708  0.76508763  1
  Ti  Ti54  1  0.24569882  0.04463046  0.13329843  1
  Ti  Ti55  1  0.26419302  0.07335725  0.42623504  1
  Ti  Ti56  1  0.23684823  0.00238720  0.71031403  1
  Ti  Ti57  1  0.29356548  0.48904495  0.03747630  1
  Ti  Ti58  1  0.26533638  0.45055482  0.51375220  1
  Ti  Ti59  1  0.19890112  0.37397639  0.70640428  1
  Ti  Ti60  1  0.24977744  0.72398939  0.10851840  1
  Ti  Ti61  1  0.22354376  0.77650034  0.54268188  1
  Ti  Ti62  1  0.24685363  0.68725923  0.74370779  1
  Ti  Ti63  1  0.56347066  0.12552701  0.12389174  1
  Ti  Ti64  1  0.60011705  0.11132086  0.44453959  1
  Ti  Ti65  1  0.61462987  0.05716345  0.68927615  1
  Ti  Ti66  1  0.58912427  0.34125529  0.12501164  1
  Ti  Ti67  1  0.64373712  0.46795363  0.42646168  1
  Ti  Ti68  1  0.55347904  0.35008378  0.79451472  1
  Ti  Ti69  1  0.56753555  0.78642212  0.06433359  1
  Ti  Ti70  1  0.62487492  0.79900971  0.39217639  1
  Ti  Ti71  1  0.60331403  0.88512212  0.79269832  1
  Ti  Ti72  1  0.87435027  0.04333716  0.02820226  1
  Ti  Ti73  1  0.91117082  0.03834966  0.35708951  1
  Ti  Ti74  1  0.92429170  0.06905279  0.73234510  1
  Ti  Ti75  1  0.94292641  0.35375370  0.13812423  1
  Ti  Ti76  1  0.86311511  0.48148584  0.43562276  1
  Ti  Ti77  1  0.91304676  0.36858336  0.76257908  1
  Ti  Ti78  1  0.87472803  0.68499653  0.03732774  1
  Ti  Ti79  1  0.94198150  0.83677008  0.40763759  1
  Ti  Ti80  1  0.89454604  0.77251462  0.72295133  1
  Ti  Ti81  1  0.27050733  0.26113843  0.19906311  1
  Ti  Ti82  1  0.19669197  0.25973107  0.55444379  1
  Ti  Ti83  1  0.25414062  0.21178773  0.86582641  1
  Ti  Ti84  1  0.31699791  0.57583927  0.22079780  1
  Ti  Ti85  1  0.16080373  0.59832596  0.50599577  1
  Ti  Ti86  1  0.19618772  0.61530475  0.94304036  1
  Ti  Ti87  1  0.28951748  0.86298940  0.22302065  1
  Ti  Ti88  1  0.15906582  0.95794339  0.53553617  1
  Ti  Ti89  1  0.20098772  0.97919266  0.91087599  1
  Ti  Ti90  1  0.61528113  0.21374306  0.28815130  1
  Ti  Ti91  1  0.49335371  0.24284892  0.55546648  1
  Ti  Ti92  1  0.60534787  0.24064337  0.96283012  1
  Ti  Ti93  1  0.63212948  0.50358545  0.22778583  1
  Ti  Ti94  1  0.59191972  0.56937546  0.59141016  1
  Ti  Ti95  1  0.70526327  0.57059205  0.93424161  1
  Ti  Ti96  1  0.50931927  0.88220691  0.24483857  1
  Ti  Ti97  1  0.57903517  0.92466101  0.53464485  1
  Ti  Ti98  1  0.58007343  1.00187378  0.94916121  1
  Ti  Ti99  1  0.91761596  0.22419124  0.29485224  1
  Ti  Ti100  1  0.87880697  0.25199439  0.61345508  1
  Ti  Ti101  1  0.93572852  0.23397788  0.95254862  1
  Ti  Ti102  1  0.90242698  0.58683112  0.21502061  1
  Ti  Ti103  1  0.88891431  0.65832468  0.57391034  1
  Ti  Ti104  1  0.95957992  0.52130593  1.02088971  1
  Ti  Ti105  1  0.87368982  0.90192447  0.19666644  1
  Ti  Ti106  1  0.89888567  0.90057565  0.59671932  1
  Ti  Ti107  1  0.93984558  0.79553638  0.89697529  1
  Co  Co108  1  0.32127364  -0.11851653  0.63506278  1
  Co  Co109  1  0.88749274  0.64829671  0.41080751  1
  Co  Co110  1  0.65763893  0.36256433  0.30482297  1
  Co  Co111  1  0.76553247  0.56879954  0.31115203  1
  Co  Co112  1  -0.03353214  0.50454190  0.84505686  1
  Co  Co113  1  0.35348052  -0.00836508  0.28108073  1
  Co  Co114  1  0.34899403  0.40044542  0.16729027  1
  Co  Co115  1  0.15818527  0.84266039  0.67811388  1
  Co  Co116  1  0.87585297  0.87985441  0.02556705  1
  Co  Co117  1  0.92510501  0.75295078  0.17229998  1
  Co  Co118  1  0.08386236  0.29233547  0.24350855  1
  Co  Co119  1  0.43681561  0.56018541  0.55953037  1
  Co  Co120  1  0.34757218  0.10110992  0.77486360  1
  Co  Co121  1  0.32815087  0.74541390  0.41980013  1
  Co  Co122  1  0.20585488  0.17969309  0.32291656  1
  Co  Co123  1  0.10798041  0.25027496  0.92528025  1
  Co  Co124  1  0.70731008  0.07170463  0.03333694  1
  Co  Co125  1  0.48916492  0.12977472  -0.01605052  1
  Co  Co126  1  0.02275921  0.65825536  -0.06813768  1
  Co  Co127  1  0.04335308  0.83627211  0.55346295  1
  Co  Co128  1  0.41974444  0.12804157  0.46514982  1
  Co  Co129  1  0.70882310  0.44798313  0.78942238  1
  Co  Co130  1  0.61721264  0.31340920  0.46593571  1
  Co  Co131  1  0.62128652  -0.04020267  0.35805802  1
  Co  Co132  1  0.41218017  0.80547656  0.11213889  1
  Co  Co133  1  0.08521703  0.75158036  0.79777820  1
  Co  Co134  1  0.17003337  0.88509974  0.07735467  1
  Co  Co135  1  0.48243894  0.16585157  0.70489978  1
  Co  Co136  1  0.31229912  -0.09179224  0.01974533  1
  Co  Co137  1  0.66028575  0.40125344  -0.06333926  1
  Co  Co138  1  0.02768086  -0.05565042  0.28914365  1
  Co  Co139  1  -0.00281007  0.70712503  0.30532232  1
  Co  Co140  1  0.49265437  0.25423026  0.38106435  1
  Co  Co141  1  0.89955732  0.42450945  0.59715057  1
  Co  Co142  1  0.25023892  0.71711972  0.28772606  1
  Co  Co143  1  0.50558347  0.40191685  -0.02991643  1
  Co  Co144  1  -0.03728006  0.63773466  0.75818737  1
  Co  Co145  1  0.76103146  0.13775024  0.38245956  1
  Co  Co146  1  0.49751731  0.88248142  0.66711864  1
  Co  Co147  1  0.29873027  0.63587182  0.58408035  1
  Co  Co148  1  0.32857847  0.43118128  0.33349229  1
  Co  Co149  1  0.52698921  0.65108400  0.44638956  1
  Co  Co150  1  0.50084953  0.05342466  0.81889293  1
  Co  Co151  1  0.24549632  0.84929954  0.80864071  1
  Co  Co152  1  0.60695047  0.17764091  0.81130938  1
  Co  Co153  1  0.62802529  0.50183472  0.06128675  1
  Co  Co154  1  0.69909503  0.20456010  0.11538448  1
  Co  Co155  1  0.88358123  0.20545472  0.80118926  1
  Co  Co156  1  -0.10062687  0.16434732  0.46929338  1
  Co  Co157  1  0.18445910  -0.00366920  0.27611904  1
  Co  Co158  1  0.12714910  0.47617180  0.03976417  1
  Co  Co159  1  0.47081102  0.81681609  0.41807417  1
  Co  Co160  1  0.14208630  0.61656081  0.24022568  1
  Co  Co161  1  0.44690167  0.23249169  0.86412717  1
  Ni  Ni162  1  0.73900141  0.93996801  0.93413358  1
  Ni  Ni163  1  -0.03091824  0.39195044  0.31552273  1
  Ni  Ni164  1  -0.00441824  0.55623850  0.51659051  1
  Ni  Ni165  1  0.76789114  0.89086685  0.31897704  1
  Ni  Ni166  1  -0.00412548  0.37884592  -0.04010643  1
  Ni  Ni167  1  0.60257614  0.75445768  0.56855905  1
  Ni  Ni168  1  0.96759774  0.01581935  0.50844685  1
  Ni  Ni169  1  0.78299328  0.20193826  -0.02341703  1
  Ni  Ni170  1  0.23822353  0.35396384  -0.03796108  1
  Ni  Ni171  1  0.20919978  0.18544929  0.70417642  1
  Ni  Ni172  1  0.46782375  0.88110561  -0.03785207  1
  Ni  Ni173  1  0.76545225  0.79263710  0.10414577  1
  Ni  Ni174  1  0.30304152  0.90236381  0.45108775  1
  Ni  Ni175  1  0.35528501  0.33910615  0.57967360  1
  Ni  Ni176  1  0.37891991  0.14431478  0.11331214  1
  Ni  Ni177  1  0.18248389  0.34563605  0.37452614  1
  Ni  Ni178  1  0.79988441  0.51151108  0.08912092  1
  Ni  Ni179  1  0.04041216  -0.05693566  -0.03591530  1
  Ni  Ni180  1  0.74931468  0.17250464  0.70413536  1
  Ni  Ni181  1  0.04381251  -0.02720631  0.64720862  1
  Ni  Ni182  1  0.03263966  0.48374160  0.18473159  1
  Ni  Ni183  1  0.62084560  0.65544377  0.30267212  1
  Ni  Ni184  1  0.33216786  0.16550590  0.59840966  1
  Ni  Ni185  1  0.53598680  0.64682946  0.15475327  1
  Ni  Ni186  1  0.00027917  0.09297631  0.88395664  1
  Ni  Ni187  1  0.91672199  0.06818896  0.19376853  1
  Ni  Ni188  1  0.65052966  0.79587960  0.22015567  1
  Ni  Ni189  1  0.25952052  0.51476263  0.82282092  1
  Ni  Ni190  1  -0.02113776  0.19293122  0.11367629  1
  Ni  Ni191  1  0.45570657  0.26520278  0.19169083  1
  Ni  Ni192  1  0.61314710  0.25737477  0.66696419  1
  Ni  Ni193  1  0.76184989  0.51720656  0.56265090  1
  Ni  Ni194  1  0.09111112  0.05357011  0.40256706  1
  Ni  Ni195  1  0.11191599  0.58864684  0.80031700  1
  Ni  Ni196  1  0.72699864  0.78154763  0.73398176  1
  Ni  Ni197  1  0.39002763  0.64824829  0.06521373  1
  Ni  Ni198  1  0.02285419  0.79740478  0.05087181  1
  Ni  Ni199  1  0.19323705  0.53865340  0.66443216  1
  Ni  Ni200  1  0.10045235  0.07660021  0.75891667  1
  Ni  Ni201  1  0.20169652  0.52211189  0.36605198  1
  Ni  Ni202  1  0.53124831  0.04313593  0.25834001  1
  Ni  Ni203  1  0.72995926  0.66170578  0.63158568  1
  Ni  Ni204  1  0.85439825  0.63447113  0.88017235  1
  Ni  Ni205  1  0.48413109  0.55734298  0.30357166  1
  Ni  Ni206  1  0.89889179  -0.03473292  0.87961408  1
  Ni  Ni207  1  0.04358868  0.70845928  0.46155839  1
  Ni  Ni208  1  0.03309856  0.32141460  0.62650602  1
  Ni  Ni209  1  0.71097436  -0.08380258  0.62582141  1
  Ni  Ni210  1  0.23909250  0.19668982  0.03549836  1
  Ni  Ni211  1  0.71019551  0.19859363  0.54242840  1
  Ni  Ni212  1  0.77215336  0.25942388  0.23944849  1
  Ni  Ni213  1  0.51032700  0.40954962  0.63535199  1
  Ni  Ni214  1  0.93916689  0.32094316  0.46643395  1
