# generated using pymatgen
data_Ti108Co54Ni53
_symmetry_space_group_name_H-M   'P 1'
_cell_length_a   14.58405103
_cell_length_b   14.59000741
_cell_length_c   14.58376357
_cell_angle_alpha   89.92824978
_cell_angle_beta   89.96605705
_cell_angle_gamma   90.14240097
_symmetry_Int_Tables_number   1
_chemical_formula_structural   Ti108Co54Ni53
_chemical_formula_sum   'Ti108 Co54 Ni53'
_cell_volume   3103.14124599
_cell_formula_units_Z   1
loop_
 _symmetry_equiv_pos_site_id
 _symmetry_equiv_pos_as_xyz
  1  'x, y, z'
loop_
 _atom_site_type_symbol
 _atom_site_label
 _atom_site_symmetry_multiplicity
 _atom_site_fract_x
 _atom_site_fract_y
 _atom_site_fract_z
 _atom_site_occupancy
  Ti  Ti0  1  0.08264793  0.09776598  0.28238744  1
  Ti  Ti1  1  0.04456673  0.14506742  0.61158244  1
  Ti  Ti2  1  0.14173397  0.05953625  0.90251476  1
  Ti  Ti3  1  0.11838320  0.30863672  0.27079731  1
  Ti  Ti4  1  0.08565565  0.47750906  0.62577432  1
  Ti  Ti5  1  0.09616896  0.39066383  0.96501878  1
  Ti  Ti6  1  0.05368606  0.72369590  0.26691690  1
  Ti  Ti7  1  -0.02525071  0.72586137  0.63823176  1
  Ti  Ti8  1  0.13544825  0.75907764  0.94900967  1
  Ti  Ti9  1  0.39020212  0.07314461  0.19734167  1
  Ti  Ti10  1  0.42695998  0.16197025  0.60529980  1
  Ti  Ti11  1  0.49209314  0.11998522  0.90950121  1
  Ti  Ti12  1  0.43119820  0.51476646  0.25395960  1
  Ti  Ti13  1  0.40475281  0.43540383  0.48105755  1
  Ti  Ti14  1  0.39671502  0.37111242  0.91300420  1
  Ti  Ti15  1  0.38183000  0.76413597  0.27842168  1
  Ti  Ti16  1  0.41839749  0.76538415  0.59697432  1
  Ti  Ti17  1  0.32636243  0.79931246  0.90425222  1
  Ti  Ti18  1  0.66389610  0.11706521  0.35588744  1
  Ti  Ti19  1  0.74423766  0.05472362  0.69224051  1
  Ti  Ti20  1  0.75493703  0.02124600  0.89622164  1
  Ti  Ti21  1  0.80624725  0.38342668  0.18535722  1
  Ti  Ti22  1  0.78901626  0.43637164  0.48163786  1
  Ti  Ti23  1  0.77315153  0.36986681  0.96884166  1
  Ti  Ti24  1  0.74667482  0.72859157  0.19493948  1
  Ti  Ti25  1  0.74994329  0.78441240  0.51074093  1
  Ti  Ti26  1  0.77966295  0.76822684  0.94833697  1
  Ti  Ti27  1  0.04917853  0.20606990  0.12705869  1
  Ti  Ti28  1  0.11473778  0.25392007  0.45316512  1
  Ti  Ti29  1  0.02764317  0.28405936  0.78674677  1
  Ti  Ti30  1  0.05485511  0.59805066  0.07028904  1
  Ti  Ti31  1  0.08801911  0.58417492  0.42471245  1
  Ti  Ti32  1  0.09367424  0.63677148  0.76537918  1
  Ti  Ti33  1  0.04241154  0.91588997  0.04864221  1
  Ti  Ti34  1  0.06077055  0.92439757  0.38096307  1
  Ti  Ti35  1  0.07960564  0.94975787  0.71486918  1
  Ti  Ti36  1  0.42842438  0.24940119  0.04666811  1
  Ti  Ti37  1  0.37652450  0.25330613  0.44559999  1
  Ti  Ti38  1  0.38589268  0.24048196  0.77157814  1
  Ti  Ti39  1  0.32323537  0.61461597  0.15151820  1
  Ti  Ti40  1  0.38787073  0.62585736  0.45945705  1
  Ti  Ti41  1  0.36972767  0.62938049  0.71609407  1
  Ti  Ti42  1  0.45810735  0.93292950  0.02481086  1
  Ti  Ti43  1  0.40617693  0.92347952  0.47316780  1
  Ti  Ti44  1  0.47438086  0.85586227  0.79647166  1
  Ti  Ti45  1  0.76613387  0.22291686  0.09438288  1
  Ti  Ti46  1  0.70212878  0.27855706  0.45215543  1
  Ti  Ti47  1  0.70814564  0.25663157  0.75426584  1
  Ti  Ti48  1  0.82590666  0.61603154  0.02463429  1
  Ti  Ti49  1  0.77228304  0.62894660  0.40119023  1
  Ti  Ti50  1  0.75701153  0.62932865  0.73153075  1
  Ti  Ti51  1  0.75379072  0.90125609  0.09316652  1
  Ti  Ti52  1  0.78158113  0.95443092  0.38793264  1
  Ti  Ti53  1  0.70978223  0.86158387  0.79924864  1
  Ti  Ti54  1  0.22860131  0.15158756  0.05934685  1
  Ti  Ti55  1  0.23517507  0.07344439  0.41045430  1
  Ti  Ti56  1  0.26310615  0.06229808  0.71961222  1
  Ti  Ti57  1  0.24731742  0.48200944  0.04347532  1
  Ti  Ti58  1  0.25333868  0.38670946  0.37160934  1
  Ti  Ti59  1  0.23004077  0.36769347  0.71060150  1
  Ti  Ti60  1  0.31406581  0.79657254  0.09282492  1
  Ti  Ti61  1  0.14684242  0.75861568  0.47034068  1
  Ti  Ti62  1  0.24361608  0.77699403  0.74060565  1
  Ti  Ti63  1  0.67428352  0.07074489  0.16456587  1
  Ti  Ti64  1  0.46202916  0.09509049  0.40992675  1
  Ti  Ti65  1  0.50941628  0.05732335  0.73356323  1
  Ti  Ti66  1  0.56044418  0.42135342  0.00949462  1
  Ti  Ti67  1  0.54539609  0.35370251  0.36849836  1
  Ti  Ti68  1  0.52919883  0.37611942  0.70742504  1
  Ti  Ti69  1  0.56606811  0.77853311  0.17431970  1
  Ti  Ti70  1  0.58072194  0.67243179  0.46467733  1
  Ti  Ti71  1  0.60717283  0.75455341  0.67433439  1
  Ti  Ti72  1  0.86076306  0.05728618  0.06294549  1
  Ti  Ti73  1  0.86921436  0.15883499  0.43611030  1
  Ti  Ti74  1  0.87555305  0.15013914  0.78171692  1
  Ti  Ti75  1  1.01477027  0.41549822  0.14388794  1
  Ti  Ti76  1  0.97794008  0.42510916  0.34467750  1
  Ti  Ti77  1  0.90053853  0.41333050  0.70298624  1
  Ti  Ti78  1  0.93620497  0.75840466  0.10503884  1
  Ti  Ti79  1  0.93918848  0.75528522  0.44142512  1
  Ti  Ti80  1  0.91152376  0.78130667  0.80558904  1
  Ti  Ti81  1  0.30604674  0.27972674  0.19356369  1
  Ti  Ti82  1  0.24629062  0.21051295  0.57478599  1
  Ti  Ti83  1  0.21149499  0.25236280  0.86419343  1
  Ti  Ti84  1  0.23588038  0.62881826  0.30476052  1
  Ti  Ti85  1  0.26525733  0.53557934  0.59907595  1
  Ti  Ti86  1  0.36691498  0.54862694  0.88452038  1
  Ti  Ti87  1  0.23496549  0.93238434  0.22653314  1
  Ti  Ti88  1  0.25240647  0.89261634  0.58562238  1
  Ti  Ti89  1  0.31928522  0.98916625  0.90620967  1
  Ti  Ti90  1  0.57307206  0.24340925  0.20315565  1
  Ti  Ti91  1  0.61538379  0.17241683  0.58749615  1
  Ti  Ti92  1  0.62048973  0.22887666  0.98975716  1
  Ti  Ti93  1  0.59529065  0.55871502  0.16026035  1
  Ti  Ti94  1  0.60690426  0.48384908  0.54811205  1
  Ti  Ti95  1  0.53983173  0.61451182  0.95692996  1
  Ti  Ti96  1  0.52243411  0.91464003  0.30296473  1
  Ti  Ti97  1  0.68849172  0.94560635  0.56144711  1
  Ti  Ti98  1  0.61197130  0.84708210  0.97910334  1
  Ti  Ti99  1  0.89671431  0.18515862  0.22990954  1
  Ti  Ti100  1  0.94512201  0.33083267  0.51296223  1
  Ti  Ti101  1  0.93439217  0.21178327  0.95118214  1
  Ti  Ti102  1  0.86421720  0.56809114  0.19699488  1
  Ti  Ti103  1  0.93961988  0.53883915  0.53643605  1
  Ti  Ti104  1  0.96886711  0.53404517  0.89537264  1
  Ti  Ti105  1  0.90256353  0.88425633  0.24219771  1
  Ti  Ti106  1  0.89712834  0.89351067  0.61116273  1
  Ti  Ti107  1  0.95305937  1.01633724  0.88685187  1
  Co  Co108  1  0.43650939  0.21163798  0.28523034  1
  Co  Co109  1  0.28163475  0.44826638  0.20663013  1
  Co  Co110  1  0.06533422  0.88858266  0.21553484  1
  Co  Co111  1  0.54663364  0.21544380  0.73469943  1
  Co  Co112  1  0.16219676  0.34411467  0.11892898  1
  Co  Co113  1  0.23820063  0.37583415  0.54015370  1
  Co  Co114  1  0.32281225  0.15223523  0.89671813  1
  Co  Co115  1  0.77490205  0.18331038  -0.07212985  1
  Co  Co116  1  -0.06399622  0.03229568  0.34156904  1
  Co  Co117  1  -0.00925048  0.23443304  0.35039910  1
  Co  Co118  1  0.39650821  0.36502249  0.30550530  1
  Co  Co119  1  0.40850926  0.89795090  0.18419273  1
  Co  Co120  1  0.41757363  -0.05204318  0.64016056  1
  Co  Co121  1  0.53980559  0.07249811  0.26078123  1
  Co  Co122  1  0.35465278  -0.02801916  0.32651363  1
  Co  Co123  1  0.32420916  0.05329459  0.54533089  1
  Co  Co124  1  0.78856716  0.50172407  0.62709237  1
  Co  Co125  1  0.22263569  0.53232417  0.75728885  1
  Co  Co126  1  0.26204330  0.70059227  0.58006246  1
  Co  Co127  1  0.23874605  0.42396607  0.87407678  1
  Co  Co128  1  0.42762418  0.51030971  0.05636093  1
  Co  Co129  1  0.60223587  -0.02051316  0.42240363  1
  Co  Co130  1  0.23624657  0.11750067  0.22780421  1
  Co  Co131  1  0.91389523  0.30141388  0.08150199  1
  Co  Co132  1  0.74281943  0.22014982  0.26554400  1
  Co  Co133  1  0.10170837  0.22925231  -0.02486199  1
  Co  Co134  1  0.79011511  0.79629152  0.34805586  1
  Co  Co135  1  0.02723569  0.08408086  0.02337935  1
  Co  Co136  1  0.18668416  -0.09459940  0.84712333  1
  Co  Co137  1  0.57073412  -0.05522584  0.13620606  1
  Co  Co138  1  0.53374101  0.29481289  0.87285801  1
  Co  Co139  1  -0.02409445  0.02742629  0.17376010  1
  Co  Co140  1  0.89511951  0.70981423  0.26835607  1
  Co  Co141  1  0.64898221  0.36238499  0.12891866  1
  Co  Co142  1  0.46903932  0.37418760  0.15700790  1
  Co  Co143  1  0.24539060  0.22097918  0.34820346  1
  Co  Co144  1  0.72324227  0.09616295  0.50330204  1
  Co  Co145  1  0.54772058  0.85658694  0.54879085  1
  Co  Co146  1  0.32337518  0.91553811  0.75791713  1
  Co  Co147  1  0.47304800  0.76536998  -0.03958270  1
  Co  Co148  1  0.09774748  0.63497252  0.58160062  1
  Co  Co149  1  0.69185808  0.36596174  0.30685348  1
  Co  Co150  1  0.52817069  0.03002206  0.55622401  1
  Co  Co151  1  0.09862978  0.42117149  0.46337678  1
  Co  Co152  1  0.64558640  0.13325221  0.83881268  1
  Co  Co153  1  0.84603332  0.30986390  0.81762281  1
  Co  Co154  1  0.52905020  0.62878697  0.62923781  1
  Co  Co155  1  0.21960201  0.91466358  0.42467726  1
  Co  Co156  1  0.04941289  0.11211533  0.78133401  1
  Co  Co157  1  0.63884482  0.81541913  0.39077065  1
  Co  Co158  1  0.63324888  0.64964136  0.29636321  1
  Co  Co159  1  -0.06014326  0.57403960  0.71586295  1
  Co  Co160  1  0.66569833  0.50560282  0.38830223  1
  Co  Co161  1  -0.05724959  0.37701455  -0.07912330  1
  Ni  Ni162  1  0.24231823  0.65933068  0.85763358  1
  Ni  Ni163  1  0.26828426  0.31165109  0.00710965  1
  Ni  Ni164  1  0.13940911  0.02739124  0.12758105  1
  Ni  Ni165  1  -0.06718812  0.58990287  0.37071415  1
  Ni  Ni166  1  0.53488575  0.31417715  0.53802745  1
  Ni  Ni167  1  0.14478372  0.48170418  0.29842037  1
  Ni  Ni168  1  0.02600456  0.56326344  0.23410491  1
  Ni  Ni169  1  0.72245156  0.49867051  0.07444570  1
  Ni  Ni170  1  0.69326774  0.90511321  0.25079981  1
  Ni  Ni171  1  0.03142061  0.87487010  0.86598724  1
  Ni  Ni172  1  0.81432780  0.47890403  0.32469344  1
  Ni  Ni173  1  0.07791353  0.31466020  0.62090383  1
  Ni  Ni174  1  0.48763140  0.69009501  0.80721468  1
  Ni  Ni175  1  0.47137123  0.67221239  0.10018308  1
  Ni  Ni176  1  0.51477778  0.53184201  0.39051198  1
  Ni  Ni177  1  0.66003038  0.68871304  0.04912419  1
  Ni  Ni178  1  0.15611339  0.02521824  0.55717665  1
  Ni  Ni179  1  0.33713006  0.65536817  -0.00338968  1
  Ni  Ni180  1  0.21191757  0.90517406  0.01577745  1
  Ni  Ni181  1  0.84550161  0.31525314  0.36020148  1
  Ni  Ni182  1  0.38271069  0.33432259  0.62004350  1
  Ni  Ni183  1  0.17420721  0.69573720  0.14382198  1
  Ni  Ni184  1  0.89257628  0.88133855  -0.02885815  1
  Ni  Ni185  1  0.84302303  0.65829174  0.57805787  1
  Ni  Ni186  1  0.59583262  -0.07188320  0.69747126  1
  Ni  Ni187  1  0.58154335  -0.02721752  0.86524957  1
  Ni  Ni188  1  0.04304974  0.09223684  0.44965400  1
  Ni  Ni189  1  0.68937541  0.62735409  0.57484426  1
  Ni  Ni190  1  0.04939341  0.89011352  0.54136966  1
  Ni  Ni191  1  0.64223018  0.03928140  0.00545810  1
  Ni  Ni192  1  0.78869061  0.78825783  0.67588741  1
  Ni  Ni193  1  0.37049361  0.43748684  0.75642455  1
  Ni  Ni194  1  -0.02782015  0.70915978  -0.04940669  1
  Ni  Ni195  1  0.89973984  0.24840898  0.65152789  1
  Ni  Ni196  1  0.52508499  0.11338991  0.08980569  1
  Ni  Ni197  1  0.12283925  0.78763888  0.64050513  1
  Ni  Ni198  1  0.31103391  0.77416584  0.43374355  1
  Ni  Ni199  1  0.81502783  0.03101422  0.23150162  1
  Ni  Ni200  1  0.19650522  0.79603142  0.30505959  1
  Ni  Ni201  1  0.85195180  0.63525356  0.85711510  1
  Ni  Ni202  1  0.37607947  0.08211851  0.03236443  1
  Ni  Ni203  1  0.17095476  0.20210674  0.71682382  1
  Ni  Ni204  1  0.69324350  0.34956873  0.60999496  1
  Ni  Ni205  1  0.13541097  0.55787330  -0.07775172  1
  Ni  Ni206  1  0.89156592  0.46749140  0.04736131  1
  Ni  Ni207  1  0.24522792  0.53091905  0.43953211  1
  Ni  Ni208  1  0.44016364  0.50036021  0.62363940  1
  Ni  Ni209  1  -0.06733373  0.04553990  0.67037820  1
  Ni  Ni210  1  0.86435730  0.01805595  0.52045990  1
  Ni  Ni211  1  0.85660520  -0.05851811  0.77412931  1
  Ni  Ni212  1  0.64293538  0.71476514  0.85630929  1
  Ni  Ni213  1  0.47470575  0.78016882  0.41623755  1
  Ni  Ni214  1  0.07605092  0.44996115  0.79342535  1
