# generated using pymatgen
data_Ti108Co54Ni53
_symmetry_space_group_name_H-M   'P 1'
_cell_length_a   14.67360094
_cell_length_b   14.67318766
_cell_length_c   14.67943218
_cell_angle_alpha   90.29288276
_cell_angle_beta   89.67047065
_cell_angle_gamma   90.39495662
_symmetry_Int_Tables_number   1
_chemical_formula_structural   Ti108Co54Ni53
_chemical_formula_sum   'Ti108 Co54 Ni53'
_cell_volume   3160.43850736
_cell_formula_units_Z   1
loop_
 _symmetry_equiv_pos_site_id
 _symmetry_equiv_pos_as_xyz
  1  'x, y, z'
loop_
 _atom_site_type_symbol
 _atom_site_label
 _atom_site_symmetry_multiplicity
 _atom_site_fract_x
 _atom_site_fract_y
 _atom_site_fract_z
 _atom_site_occupancy
  Ti  Ti0  1  0.02953103  0.10358653  0.31195358  1
  Ti  Ti1  1  0.07254402  0.06723688  0.61226031  1
  Ti  Ti2  1  0.09500746  0.08120977  0.83605630  1
  Ti  Ti3  1  0.16478734  0.43250546  0.23591597  1
  Ti  Ti4  1  0.11249566  0.41603650  0.53740465  1
  Ti  Ti5  1  0.05502777  0.42472368  0.92272158  1
  Ti  Ti6  1  0.03607848  0.74861559  0.26223115  1
  Ti  Ti7  1  0.07429069  0.76625400  0.62744704  1
  Ti  Ti8  1  0.04321645  0.77590408  0.91440888  1
  Ti  Ti9  1  0.39107537  0.07259062  0.30783339  1
  Ti  Ti10  1  0.44941668  0.13562496  0.58653390  1
  Ti  Ti11  1  0.37587302  0.07467115  0.89026420  1
  Ti  Ti12  1  0.45215169  0.42575854  0.23275812  1
  Ti  Ti13  1  0.47124759  0.43869721  0.62595262  1
  Ti  Ti14  1  0.34817968  0.42497454  0.92749824  1
  Ti  Ti15  1  0.43433620  0.71255651  0.21355827  1
  Ti  Ti16  1  0.40844108  0.73043086  0.57227961  1
  Ti  Ti17  1  0.41572600  0.80118617  0.90113357  1
  Ti  Ti18  1  0.79864198  0.11151935  0.28872815  1
  Ti  Ti19  1  0.78889860  0.14545018  0.55543829  1
  Ti  Ti20  1  0.75822017  0.08020486  0.95022960  1
  Ti  Ti21  1  0.68645154  0.50527998  0.28963845  1
  Ti  Ti22  1  0.78168435  0.43368210  0.55790715  1
  Ti  Ti23  1  0.86299692  0.38368703  0.93207976  1
  Ti  Ti24  1  0.78995819  0.75327288  0.18187976  1
  Ti  Ti25  1  0.75587247  0.74284378  0.64094926  1
  Ti  Ti26  1  0.71985676  0.79577263  0.95636718  1
  Ti  Ti27  1  0.07288784  0.34818885  0.09993769  1
  Ti  Ti28  1  0.04047340  0.27996880  0.40734535  1
  Ti  Ti29  1  0.10427425  0.24411498  0.72030050  1
  Ti  Ti30  1  0.04534378  0.54991998  0.12263509  1
  Ti  Ti31  1  0.06084457  0.64128208  0.45690392  1
  Ti  Ti32  1  0.07390504  0.58407271  0.78150264  1
  Ti  Ti33  1  0.10133854  0.89886297  0.07535109  1
  Ti  Ti34  1  0.09184961  0.94821365  0.44648894  1
  Ti  Ti35  1  0.13566125  0.89385159  0.79048808  1
  Ti  Ti36  1  0.36299662  0.28865822  0.06255042  1
  Ti  Ti37  1  0.38570493  0.29437935  0.37805225  1
  Ti  Ti38  1  0.34269879  0.33062140  0.74205395  1
  Ti  Ti39  1  0.43513268  0.58234739  0.04851976  1
  Ti  Ti40  1  0.37898796  0.61440266  0.41084671  1
  Ti  Ti41  1  0.45026296  0.61739158  0.76069538  1
  Ti  Ti42  1  0.44000845  0.88886079  0.09911101  1
  Ti  Ti43  1  0.43946021  0.87822719  0.37790285  1
  Ti  Ti44  1  0.45385120  0.84657287  0.72761758  1
  Ti  Ti45  1  0.71277175  0.23754349  0.09427855  1
  Ti  Ti46  1  0.66563638  0.22303025  0.37422946  1
  Ti  Ti47  1  0.73658578  0.14251835  0.76329384  1
  Ti  Ti48  1  0.76269014  0.51643644  -0.00307661  1
  Ti  Ti49  1  0.69868895  0.61660658  0.46340473  1
  Ti  Ti50  1  0.77775509  0.56421639  0.71367855  1
  Ti  Ti51  1  0.86551558  0.92097217  0.02775201  1
  Ti  Ti52  1  0.75945223  0.89953573  0.39187676  1
  Ti  Ti53  1  0.76004047  0.95987408  0.68284387  1
  Ti  Ti54  1  0.24419181  0.11344946  0.07447156  1
  Ti  Ti55  1  0.26401054  0.03533533  0.53486732  1
  Ti  Ti56  1  0.24682797  0.06503959  0.73079623  1
  Ti  Ti57  1  0.21793411  0.56958015  0.04765067  1
  Ti  Ti58  1  0.26575748  0.44182347  0.39249740  1
  Ti  Ti59  1  0.19634940  0.45135919  0.70306796  1
  Ti  Ti60  1  0.25001839  0.75897559  0.16543135  1
  Ti  Ti61  1  0.27726032  0.84365353  0.45624107  1
  Ti  Ti62  1  0.26501307  0.75405509  0.75337000  1
  Ti  Ti63  1  0.59214653  0.04117948  0.10088230  1
  Ti  Ti64  1  0.58645773  0.03021095  0.37649407  1
  Ti  Ti65  1  0.53515660  0.12281524  0.77879424  1
  Ti  Ti66  1  0.62782360  0.41995517  0.11078561  1
  Ti  Ti67  1  0.56005774  0.40874481  0.42662715  1
  Ti  Ti68  1  0.63874979  0.39240448  0.72419901  1
  Ti  Ti69  1  0.56558397  0.75356858  0.07348434  1
  Ti  Ti70  1  0.60437143  0.78871407  0.46672765  1
  Ti  Ti71  1  0.60824528  0.74901814  0.79278843  1
  Ti  Ti72  1  0.97044613  0.04420579  0.14777140  1
  Ti  Ti73  1  0.90412803  0.03901605  0.43267252  1
  Ti  Ti74  1  0.91601801  0.05424984  0.77459367  1
  Ti  Ti75  1  0.87821416  0.40260494  0.11399609  1
  Ti  Ti76  1  0.88261306  0.37680035  0.34118797  1
  Ti  Ti77  1  0.85832418  0.36740650  0.74437950  1
  Ti  Ti78  1  0.94915731  0.72019478  0.06828875  1
  Ti  Ti79  1  0.87489989  0.65756686  0.36265662  1
  Ti  Ti80  1  0.91660226  0.81913708  0.75358244  1
  Ti  Ti81  1  0.20630208  0.19307902  0.28636354  1
  Ti  Ti82  1  0.26806225  0.22877028  0.59185995  1
  Ti  Ti83  1  0.24371032  0.22011082  0.88305940  1
  Ti  Ti84  1  0.30854504  0.57054146  0.23368223  1
  Ti  Ti85  1  0.24004614  0.56767825  0.54571967  1
  Ti  Ti86  1  0.32230791  0.63240186  0.89611165  1
  Ti  Ti87  1  0.17995504  0.90044403  0.27883377  1
  Ti  Ti88  1  0.29221740  0.89206825  0.64106404  1
  Ti  Ti89  1  0.23510925  0.81733192  0.96130887  1
  Ti  Ti90  1  0.50800734  0.21553904  0.23304957  1
  Ti  Ti91  1  0.60586171  0.27384965  0.56650341  1
  Ti  Ti92  1  0.53608668  0.30841973  0.89811756  1
  Ti  Ti93  1  0.61916085  0.66510694  0.24235445  1
  Ti  Ti94  1  0.58382003  0.62841865  0.62839885  1
  Ti  Ti95  1  0.57575481  0.49728271  0.91718829  1
  Ti  Ti96  1  0.59901552  0.84481431  0.26064617  1
  Ti  Ti97  1  0.57217215  0.97090941  0.59149917  1
  Ti  Ti98  1  0.63687557  0.95561304  0.83074288  1
  Ti  Ti99  1  0.91674288  0.24022548  0.20122482  1
  Ti  Ti100  1  0.93554410  0.31390498  0.57229278  1
  Ti  Ti101  1  0.86345193  0.21829863  0.87872500  1
  Ti  Ti102  1  0.87097015  0.57107330  0.18989069  1
  Ti  Ti103  1  0.88848576  0.59496730  0.55000046  1
  Ti  Ti104  1  0.87747387  0.64786550  0.87690600  1
  Ti  Ti105  1  0.83923116  0.93869066  0.22585299  1
  Ti  Ti106  1  0.90494505  0.89381033  0.55147894  1
  Ti  Ti107  1  0.96339444  1.08790380  0.96170801  1
  Co  Co108  1  0.49426161  0.18557246  0.40942194  1
  Co  Co109  1  0.71735059  0.29440526  0.82628420  1
  Co  Co110  1  0.93748948  0.47509279  0.64754296  1
  Co  Co111  1  0.11426779  0.49870816  0.38352657  1
  Co  Co112  1  0.40099417  0.56977126  0.58262180  1
  Co  Co113  1  0.81669191  -0.04518278  0.86070930  1
  Co  Co114  1  0.88191339  0.80718019  -0.08157644  1
  Co  Co115  1  -0.07667873  0.50366682  0.82527769  1
  Co  Co116  1  0.00793125  0.58073011  0.29415453  1
  Co  Co117  1  0.06448791  0.28722426  0.25498392  1
  Co  Co118  1  0.43683665  0.02959212  0.46429614  1
  Co  Co119  1  0.55886835  0.85291212  -0.05579392  1
  Co  Co120  1  0.68840994  0.35368817  -0.03026333  1
  Co  Co121  1  0.65186724  0.14896412  0.22060876  1
  Co  Co122  1  0.18035606  0.35604978  0.83476321  1
  Co  Co123  1  0.89648785  0.04253207  0.61577253  1
  Co  Co124  1  -0.03359288  0.85822535  0.16126261  1
  Co  Co125  1  0.43679208  0.89102248  0.55196908  1
  Co  Co126  1  0.75941803  0.81262722  0.79707255  1
  Co  Co127  1  0.71906136  0.56919804  0.14893821  1
  Co  Co128  1  0.92421059  0.53482366  0.00566329  1
  Co  Co129  1  0.21548388  0.27774635  0.13512612  1
  Co  Co130  1  0.29402879  0.61943786  0.69282184  1
  Co  Co131  1  0.60826595  0.55833330  0.77168990  1
  Co  Co132  1  0.31540188  0.75096514  0.32006438  1
  Co  Co133  1  0.47546235  -0.04410291  0.84958869  1
  Co  Co134  1  0.72668994  0.01657118  0.49770736  1
  Co  Co135  1  0.88705997  0.20633966  0.39076451  1
  Co  Co136  1  0.92032012  0.74005275  0.59131139  1
  Co  Co137  1  -0.00856923  0.93736564  0.87675219  1
  Co  Co138  1  0.72096905  0.74179541  0.34297187  1
  Co  Co139  1  0.30727889  0.34870107  0.24705543  1
  Co  Co140  1  0.10142784  0.05339880  0.02928392  1
  Co  Co141  1  0.41372105  0.45765138  0.45743192  1
  Co  Co142  1  0.21120177  0.37662837  -0.00316541  1
  Co  Co143  1  0.53997597  0.55225319  0.15841177  1
  Co  Co144  1  0.01198343  -0.06054938  0.70002971  1
  Co  Co145  1  0.68182331  -0.04949435  -0.00784165  1
  Co  Co146  1  0.88065702  0.80867836  0.31503493  1
  Co  Co147  1  0.17159541  0.69116500  0.86619703  1
  Co  Co148  1  0.60361913  0.12351157  0.50314560  1
  Co  Co149  1  -0.02283993  0.78772821  0.44292878  1
  Co  Co150  1  -0.02733900  0.15958105  0.52306474  1
  Co  Co151  1  0.48568509  0.43118914  0.79518895  1
  Co  Co152  1  0.32089511  0.15363482  0.44293849  1
  Co  Co153  1  0.80454788  0.75891736  0.47909352  1
  Co  Co154  1  0.08272339  0.17257426  0.14850599  1
  Co  Co155  1  0.26975528  -0.00415231  0.37785974  1
  Co  Co156  1  0.15503467  0.62354990  0.22384642  1
  Co  Co157  1  -0.00548129  0.43047363  0.23387355  1
  Co  Co158  1  0.14175019  -0.08730017  0.59769854  1
  Co  Co159  1  0.63626662  0.10666467  0.65284116  1
  Co  Co160  1  0.71304228  0.87249514  0.55577259  1
  Co  Co161  1  -0.01275351  -0.06509050  0.32118224  1
  Ni  Ni162  1  0.63517541  0.17533918  0.91121807  1
  Ni  Ni163  1  0.76031946  0.04643887  0.11907247  1
  Ni  Ni164  1  0.13553513  0.78380343  0.40098671  1
  Ni  Ni165  1  0.29531878  0.39496407  0.56457516  1
  Ni  Ni166  1  0.74287672  0.46681072  0.83933697  1
  Ni  Ni167  1  0.78443589  0.28950158  0.48840194  1
  Ni  Ni168  1  0.31647513  0.44702335  0.11123412  1
  Ni  Ni169  1  0.71842413  0.38223127  0.38267155  1
  Ni  Ni170  1  0.03241176  0.39137152  0.75475617  1
  Ni  Ni171  1  0.51491074  0.55170968  0.32157680  1
  Ni  Ni172  1  0.49959260  0.71664399  0.36883198  1
  Ni  Ni173  1  0.11618148  0.71340160  0.07709856  1
  Ni  Ni174  1  0.47446977  0.41765727  0.04678883  1
  Ni  Ni175  1  0.21711901  0.01771849  0.91860162  1
  Ni  Ni176  1  0.62727132  0.61213709  0.02875440  1
  Ni  Ni177  1  0.34591473  -0.05877871  -0.01880202  1
  Ni  Ni178  1  0.60479919  0.34187374  0.26443780  1
  Ni  Ni179  1  0.41339491  0.01123672  0.70166334  1
  Ni  Ni180  1  0.10551506  0.24679046  0.55884200  1
  Ni  Ni181  1  0.62758483  0.47733573  0.57063418  1
  Ni  Ni182  1  -0.03784288  0.26794834  0.01526339  1
  Ni  Ni183  1  0.22292812  0.73001526  0.56727236  1
  Ni  Ni184  1  0.76030852  0.35714865  0.21613988  1
  Ni  Ni185  1  0.43161398  0.29675127  0.54132593  1
  Ni  Ni186  1  0.85674063  0.16140567  0.06572928  1
  Ni  Ni187  1  -0.06257928  0.64024103  0.71385994  1
  Ni  Ni188  1  0.21517959  0.28511230  0.43816916  1
  Ni  Ni189  1  0.07191747  0.57120631  0.61122392  1
  Ni  Ni190  1  0.69958620  0.87824033  0.12807791  1
  Ni  Ni191  1  0.52783711  0.67081562  0.91580247  1
  Ni  Ni192  1  0.75188148  0.27872656  0.65500719  1
  Ni  Ni193  1  0.34981943  0.89653205  0.24220164  1
  Ni  Ni194  1  0.19553627  0.51689467  -0.11363203  1
  Ni  Ni195  1  -0.02934637  0.46760548  0.46797066  1
  Ni  Ni196  1  0.34661888  0.19137234  0.19588907  1
  Ni  Ni197  1  0.50122959  0.27849358  0.70812884  1
  Ni  Ni198  1  0.31001716  0.92125933  0.81388826  1
  Ni  Ni199  1  0.06462035  0.60522053  -0.04229051  1
  Ni  Ni200  1  0.57635111  0.79826524  0.63054429  1
  Ni  Ni201  1  0.70863671  0.63648582  0.87785149  1
  Ni  Ni202  1  0.14405566  0.03115417  0.19052683  1
  Ni  Ni203  1  0.53244643  0.58387592  0.47959681  1
  Ni  Ni204  1  0.33395608  0.49608500  0.78282287  1
  Ni  Ni205  1  0.81822394  0.51295085  0.41092101  1
  Ni  Ni206  1  0.79393135  0.67209755  0.03457305  1
  Ni  Ni207  1  0.37230479  0.17190591  0.74871720  1
  Ni  Ni208  1  0.21388423  0.63610514  0.38406833  1
  Ni  Ni209  1  0.13998982  0.12431769  0.44480166  1
  Ni  Ni210  1  0.03081937  0.24868699  0.86551746  1
  Ni  Ni211  1  0.12734437  0.21985025  -0.00433706  1
  Ni  Ni212  1  0.36809484  0.73366901  0.04829380  1
  Ni  Ni213  1  0.67741385  -0.01022702  0.24820216  1
  Ni  Ni214  1  0.50521348  -0.02073594  0.22987848  1
