# generated using pymatgen
data_Ti108Co54Ni53
_symmetry_space_group_name_H-M   'P 1'
_cell_length_a   14.63812753
_cell_length_b   14.64605551
_cell_length_c   14.64766201
_cell_angle_alpha   90.11754897
_cell_angle_beta   90.02354048
_cell_angle_gamma   89.98270731
_symmetry_Int_Tables_number   1
_chemical_formula_structural   Ti108Co54Ni53
_chemical_formula_sum   'Ti108 Co54 Ni53'
_cell_volume   3140.31737553
_cell_formula_units_Z   1
loop_
 _symmetry_equiv_pos_site_id
 _symmetry_equiv_pos_as_xyz
  1  'x, y, z'
loop_
 _atom_site_type_symbol
 _atom_site_label
 _atom_site_symmetry_multiplicity
 _atom_site_fract_x
 _atom_site_fract_y
 _atom_site_fract_z
 _atom_site_occupancy
  Ti  Ti0  1  0.09409633  0.00600091  0.19051275  1
  Ti  Ti1  1  0.09837987  0.02423576  0.54279167  1
  Ti  Ti2  1  0.12332204  0.12245443  0.85271398  1
  Ti  Ti3  1  0.02623987  0.36347834  0.23295897  1
  Ti  Ti4  1  0.21360570  0.42894136  0.58204454  1
  Ti  Ti5  1  0.12950154  0.39666130  0.96033846  1
  Ti  Ti6  1  0.06767569  0.73425172  0.18024183  1
  Ti  Ti7  1  0.06090217  0.76030441  0.62522066  1
  Ti  Ti8  1  0.07270442  0.81987739  0.83243578  1
  Ti  Ti9  1  0.45484631  0.11729964  0.20463564  1
  Ti  Ti10  1  0.42229143  0.10499076  0.58845857  1
  Ti  Ti11  1  0.41176578  0.11431391  1.00381242  1
  Ti  Ti12  1  0.35973480  0.45703873  0.23685193  1
  Ti  Ti13  1  0.42123080  0.43134167  0.64125503  1
  Ti  Ti14  1  0.42457514  0.49214277  0.89374648  1
  Ti  Ti15  1  0.42812925  0.77505517  0.26511127  1
  Ti  Ti16  1  0.41866561  0.73018370  0.56770029  1
  Ti  Ti17  1  0.38607848  0.77637772  0.99093576  1
  Ti  Ti18  1  0.79404025  0.12372050  0.20053517  1
  Ti  Ti19  1  0.76455903  0.04886750  0.54550171  1
  Ti  Ti20  1  0.82775874  0.09134346  0.88203739  1
  Ti  Ti21  1  0.82435833  0.39832208  0.20901838  1
  Ti  Ti22  1  0.72327662  0.34704053  0.60140100  1
  Ti  Ti23  1  0.70387638  0.45587311  0.96470505  1
  Ti  Ti24  1  0.68124918  0.80584980  0.25814835  1
  Ti  Ti25  1  0.74417509  0.73737924  0.65814568  1
  Ti  Ti26  1  0.72886832  0.65957482  0.96581103  1
  Ti  Ti27  1  0.16524770  0.18855277  0.16349670  1
  Ti  Ti28  1  0.09319424  0.35371459  0.44464133  1
  Ti  Ti29  1  0.09841841  0.31322428  0.77929492  1
  Ti  Ti30  1  0.06428197  0.59866298  0.00656525  1
  Ti  Ti31  1  0.08392843  0.56652402  0.48843001  1
  Ti  Ti32  1  0.04405912  0.62157776  0.80852377  1
  Ti  Ti33  1  0.07346013  0.94743964  -0.01726592  1
  Ti  Ti34  1  0.04410313  0.96175536  0.37522359  1
  Ti  Ti35  1  0.19485588  0.90048333  0.67292965  1
  Ti  Ti36  1  0.42177446  0.31738485  -0.00744161  1
  Ti  Ti37  1  0.41643174  0.20988893  0.41554408  1
  Ti  Ti38  1  0.42536238  0.31520146  0.78539051  1
  Ti  Ti39  1  0.46912557  0.59744385  0.15709777  1
  Ti  Ti40  1  0.39779852  0.51780062  0.46278246  1
  Ti  Ti41  1  0.45924523  0.60831164  0.74469596  1
  Ti  Ti42  1  0.46472710  0.92574736  0.09517630  1
  Ti  Ti43  1  0.41119798  1.01028978  0.39015389  1
  Ti  Ti44  1  0.48456899  0.86173626  0.78991714  1
  Ti  Ti45  1  0.71691015  0.23103983  0.04696123  1
  Ti  Ti46  1  0.69074265  0.23328272  0.44156616  1
  Ti  Ti47  1  0.69079889  0.19672480  0.75051695  1
  Ti  Ti48  1  0.76178490  0.63940806  0.17121975  1
  Ti  Ti49  1  0.75237922  0.49849176  0.45371038  1
  Ti  Ti50  1  0.74701233  0.57517740  0.77978191  1
  Ti  Ti51  1  0.78886647  0.92213913  0.13086289  1
  Ti  Ti52  1  0.69596953  0.93554517  0.41493363  1
  Ti  Ti53  1  0.68250774  0.89862672  0.74876374  1
  Ti  Ti54  1  0.28185901  0.02574701  0.11532781  1
  Ti  Ti55  1  0.17119798  0.10775666  0.37260069  1
  Ti  Ti56  1  0.29892403  0.07458888  0.74075728  1
  Ti  Ti57  1  0.24964815  0.36858243  0.10854307  1
  Ti  Ti58  1  0.23308100  0.47814113  0.38766376  1
  Ti  Ti59  1  0.26563679  0.44572970  0.76576402  1
  Ti  Ti60  1  0.22140442  0.71415012  0.05917086  1
  Ti  Ti61  1  0.27259756  0.73447044  0.39997744  1
  Ti  Ti62  1  0.31528612  0.75658598  0.72915397  1
  Ti  Ti63  1  0.59108721  0.05563509  0.01044701  1
  Ti  Ti64  1  0.57272856  0.07421789  0.46071032  1
  Ti  Ti65  1  0.49525808  0.04542607  0.82279715  1
  Ti  Ti66  1  0.52377662  0.40074679  0.15365660  1
  Ti  Ti67  1  0.53861896  0.38050348  0.37998175  1
  Ti  Ti68  1  0.60257730  0.47227216  0.69837614  1
  Ti  Ti69  1  0.57867050  0.74870235  0.11245304  1
  Ti  Ti70  1  0.58138572  0.78390726  0.45855591  1
  Ti  Ti71  1  0.61084447  0.72293399  0.81219015  1
  Ti  Ti72  1  0.92717996  0.03062775  0.08848607  1
  Ti  Ti73  1  0.87417182  0.11619717  0.40170408  1
  Ti  Ti74  1  0.92054974  0.06345420  0.69112412  1
  Ti  Ti75  1  0.94678829  0.42572171  0.04432761  1
  Ti  Ti76  1  0.93803698  0.46388321  0.39573274  1
  Ti  Ti77  1  0.91608678  0.46986913  0.70330120  1
  Ti  Ti78  1  0.90986882  0.71665246  0.06679262  1
  Ti  Ti79  1  0.96123117  0.74275418  0.41310960  1
  Ti  Ti80  1  0.90587308  0.81881637  0.74574785  1
  Ti  Ti81  1  0.29534687  0.24898452  0.28011951  1
  Ti  Ti82  1  0.19183124  0.20588137  0.58100572  1
  Ti  Ti83  1  0.23718054  0.22029902  0.97841010  1
  Ti  Ti84  1  0.19465292  0.57306410  0.20926842  1
  Ti  Ti85  1  0.18868809  0.61348101  0.67871382  1
  Ti  Ti86  1  0.27504694  0.61938225  0.88157683  1
  Ti  Ti87  1  0.25193134  0.90534405  0.29587446  1
  Ti  Ti88  1  0.32003853  0.92859363  0.53311220  1
  Ti  Ti89  1  0.25020095  0.90594239  0.97586400  1
  Ti  Ti90  1  0.64879908  0.27408862  0.22855336  1
  Ti  Ti91  1  0.52482797  0.28086123  0.57184854  1
  Ti  Ti92  1  0.56555723  0.21552883  0.89585369  1
  Ti  Ti93  1  0.64147907  0.52661131  0.26215183  1
  Ti  Ti94  1  0.59552854  0.59153672  0.45100902  1
  Ti  Ti95  1  0.52619502  0.64459683  0.96740326  1
  Ti  Ti96  1  0.60693666  0.98992503  0.23786995  1
  Ti  Ti97  1  0.58390490  1.01405989  0.64917004  1
  Ti  Ti98  1  0.69806868  0.89137963  0.93901239  1
  Ti  Ti99  1  0.98206940  0.17425680  0.24769631  1
  Ti  Ti100  1  0.92944857  0.28193756  0.55112170  1
  Ti  Ti101  1  0.98408471  0.25270612  0.95281276  1
  Ti  Ti102  1  0.96795844  0.55999211  0.19418548  1
  Ti  Ti103  1  0.88562766  0.61517257  0.55308854  1
  Ti  Ti104  1  0.88751649  0.55451664  0.91291463  1
  Ti  Ti105  1  0.92425142  0.85826957  0.25730569  1
  Ti  Ti106  1  0.85424562  0.83625248  0.53512487  1
  Ti  Ti107  1  0.89893680  0.87808865  0.94875228  1
  Co  Co108  1  0.82033469  -0.05691669  0.81855537  1
  Co  Co109  1  0.29083067  0.40775992  -0.07220077  1
  Co  Co110  1  0.02477176  0.15674494  0.08456952  1
  Co  Co111  1  0.74715946  0.04530133  0.03133455  1
  Co  Co112  1  0.01533228  0.87051082  0.51301328  1
  Co  Co113  1  0.08374662  0.49079133  0.31764570  1
  Co  Co114  1  0.38072485  0.46369024  0.06619149  1
  Co  Co115  1  0.69247165  0.42082511  0.12412685  1
  Co  Co116  1  0.48597034  0.53277274  0.31620788  1
  Co  Co117  1  0.82191262  0.92638565  0.65414932  1
  Co  Co118  1  0.80682568  0.25010538  0.30181248  1
  Co  Co119  1  0.53901623  0.90097079  0.35227651  1
  Co  Co120  1  0.82398237  0.53219300  0.06691226  1
  Co  Co121  1  0.33411528  0.61016343  0.30291926  1
  Co  Co122  1  0.57041779  0.68484263  0.28285710  1
  Co  Co123  1  0.37050878  0.37009836  0.36594431  1
  Co  Co124  1  -0.07068971  0.02217557  0.26529196  1
  Co  Co125  1  0.62953737  0.90222544  0.09129109  1
  Co  Co126  1  0.78242049  -0.03596496  0.28687436  1
  Co  Co127  1  0.51025668  -0.06912485  0.51921752  1
  Co  Co128  1  0.11205235  0.24647911  0.32383377  1
  Co  Co129  1  0.88720491  -0.05666697  0.41700889  1
  Co  Co130  1  0.60064273  0.33136174  0.01654599  1
  Co  Co131  1  0.41055088  -0.05230193  0.24377126  1
  Co  Co132  1  0.58534413  0.31421477  0.72189173  1
  Co  Co133  1  0.63920991  0.57533332  0.08558356  1
  Co  Co134  1  0.09433975  0.46833733  0.70761987  1
  Co  Co135  1  0.15328765  0.07994191  0.02636919  1
  Co  Co136  1  0.09688437  0.46952973  0.12389939  1
  Co  Co137  1  0.42748164  0.72331096  0.84900071  1
  Co  Co138  1  0.63515452  0.12530803  0.16038995  1
  Co  Co139  1  0.07913071  0.30698239  0.08740794  1
  Co  Co140  1  -0.01782466  0.86832042  0.10486535  1
  Co  Co141  1  -0.01038199  0.45185584  0.55814125  1
  Co  Co142  1  0.23988394  0.73910805  0.23538759  1
  Co  Co143  1  0.58139540  0.43347189  0.53121372  1
  Co  Co144  1  0.86215529  0.16639759  0.02421614  1
  Co  Co145  1  0.23617870  0.27977012  0.43490190  1
  Co  Co146  1  0.63363365  0.16613167  0.59696440  1
  Co  Co147  1  0.75175858  0.05884390  0.71147530  1
  Co  Co148  1  0.15338943  0.51691595  0.85726611  1
  Co  Co149  1  0.45709387  0.28429232  0.24635713  1
  Co  Co150  1  0.07207898  0.77068732  -0.00430963  1
  Co  Co151  1  -0.01797206  0.08519676  -0.06008327  1
  Co  Co152  1  0.34522498  0.21566694  0.11886180  1
  Co  Co153  1  0.36601507  0.61759024  0.02962213  1
  Co  Co154  1  0.51901282  0.21597087  0.08786334  1
  Co  Co155  1  0.33672710  0.57377786  0.64434885  1
  Co  Co156  1  0.66003613  0.04307889  0.85142474  1
  Co  Co157  1  -0.01288216  0.97652933  0.82666663  1
  Co  Co158  1  0.40507729  0.83911641  0.42098547  1
  Co  Co159  1  0.19237067  0.37918105  0.26364632  1
  Co  Co160  1  0.70572763  0.10697926  0.34140066  1
  Co  Co161  1  0.53770279  0.47936891  0.00961124  1
  Ni  Ni162  1  0.54423474  0.82667421  -0.05209427  1
  Ni  Ni163  1  0.31848262  0.84908579  0.13754360  1
  Ni  Ni164  1  0.11980951  0.72640445  0.46967844  1
  Ni  Ni165  1  0.41936668  -0.04835062  0.93834963  1
  Ni  Ni166  1  0.24986215  0.60500707  0.51107097  1
  Ni  Ni167  1  0.61245180  0.64392174  0.66097012  1
  Ni  Ni168  1  0.60083031  0.54917171  0.85639566  1
  Ni  Ni169  1  0.72183750  0.65915996  0.34355224  1
  Ni  Ni170  1  0.13079122  0.06570253  0.69610743  1
  Ni  Ni171  1  -0.02238619  0.17795389  0.79712337  1
  Ni  Ni172  1  0.41325670  -0.04707675  0.66977040  1
  Ni  Ni173  1  0.32078175  0.91256775  0.80637223  1
  Ni  Ni174  1  -0.04843104  0.28365086  0.37666752  1
  Ni  Ni175  1  0.06291613  0.64800579  0.32351523  1
  Ni  Ni176  1  0.80310962  0.80181792  0.37232227  1
  Ni  Ni177  1  0.38545908  0.17556473  0.85477456  1
  Ni  Ni178  1  0.74504064  0.77849378  0.07616070  1
  Ni  Ni179  1  0.70702590  0.38837051  0.33407839  1
  Ni  Ni180  1  0.81615033  0.34222982  0.44745363  1
  Ni  Ni181  1  0.89407718  0.69244223  0.26399176  1
  Ni  Ni182  1  0.29139472  0.10398940  0.48262109  1
  Ni  Ni183  1  0.50029899  0.17406484  0.71870132  1
  Ni  Ni184  1  0.74183879  0.68626850  0.50057487  1
  Ni  Ni185  1  0.03478942  0.16750713  0.46332895  1
  Ni  Ni186  1  0.22297840  0.53206796  0.02898907  1
  Ni  Ni187  1  0.55556247  0.17259429  0.32336102  1
  Ni  Ni188  1  0.01814579  0.59621925  0.64348574  1
  Ni  Ni189  1  0.77704481  0.75860775  0.83576791  1
  Ni  Ni190  1  0.22712047  0.77793384  0.87430064  1
  Ni  Ni191  1  0.67767134  0.88519517  0.57261392  1
  Ni  Ni192  1  0.55334797  0.80715411  0.64511069  1
  Ni  Ni193  1  0.02349571  -0.07447459  0.67352829  1
  Ni  Ni194  1  0.00065569  0.44047501  0.85977136  1
  Ni  Ni195  1  0.07568449  0.32496126  0.61959671  1
  Ni  Ni196  1  0.11225286  0.81187124  0.32491202  1
  Ni  Ni197  1  0.36256805  0.33490829  0.52174163  1
  Ni  Ni198  1  -0.06513189  0.71731742  -0.10125889  1
  Ni  Ni199  1  0.27919283  0.05637057  -0.08882227  1
  Ni  Ni200  1  0.88824932  0.64813920  0.74290147  1
  Ni  Ni201  1  0.24168311  0.76234752  0.57713718  1
  Ni  Ni202  1  0.15608981  -0.13156360  0.12701493  1
  Ni  Ni203  1  0.55973401  0.38735309  0.86785990  1
  Ni  Ni204  1  0.17525130  -0.11575138  0.47008720  1
  Ni  Ni205  1  0.79783346  0.19668888  0.61170463  1
  Ni  Ni206  1  0.25462654  0.27812150  0.82674114  1
  Ni  Ni207  1  0.29650795  0.30052696  0.66981908  1
  Ni  Ni208  1  0.90565423  0.27586746  0.12988165  1
  Ni  Ni209  1  0.16318509  -0.03803470  0.82570644  1
  Ni  Ni210  1  0.82328022  0.53872236  0.30001581  1
  Ni  Ni211  1  0.49353880  0.57275633  0.58109569  1
  Ni  Ni212  1  0.45228056  0.67545223  0.40783094  1
  Ni  Ni213  1  0.74341746  0.54313538  0.61567778  1
  Ni  Ni214  1  0.29504341  0.07552198  0.26911097  1
