# generated using pymatgen
data_Ti108Co54Ni53
_symmetry_space_group_name_H-M   'P 1'
_cell_length_a   14.68498157
_cell_length_b   14.70084008
_cell_length_c   14.60368367
_cell_angle_alpha   89.72230465
_cell_angle_beta   90.31944577
_cell_angle_gamma   89.73777469
_symmetry_Int_Tables_number   1
_chemical_formula_structural   Ti108Co54Ni53
_chemical_formula_sum   'Ti108 Co54 Ni53'
_cell_volume   3152.54665710
_cell_formula_units_Z   1
loop_
 _symmetry_equiv_pos_site_id
 _symmetry_equiv_pos_as_xyz
  1  'x, y, z'
loop_
 _atom_site_type_symbol
 _atom_site_label
 _atom_site_symmetry_multiplicity
 _atom_site_fract_x
 _atom_site_fract_y
 _atom_site_fract_z
 _atom_site_occupancy
  Ti  Ti0  1  -0.00952399  0.08433879  0.26555618  1
  Ti  Ti1  1  0.09304868  0.10750311  0.55817062  1
  Ti  Ti2  1  0.11810772  0.09748163  0.86965936  1
  Ti  Ti3  1  0.12279427  0.38765348  0.28824153  1
  Ti  Ti4  1  0.05185161  0.41418416  0.64799241  1
  Ti  Ti5  1  0.09178769  0.40643135  0.95661487  1
  Ti  Ti6  1  0.11517067  0.82775617  0.30044802  1
  Ti  Ti7  1  0.00226374  0.76589924  0.58853278  1
  Ti  Ti8  1  0.10105080  0.64548847  0.89931412  1
  Ti  Ti9  1  0.36783485  0.11795144  0.21873085  1
  Ti  Ti10  1  0.45027403  0.18284128  0.54573970  1
  Ti  Ti11  1  0.39320589  0.11747924  0.87709218  1
  Ti  Ti12  1  0.40056507  0.37865780  0.18370001  1
  Ti  Ti13  1  0.42483721  0.38082346  0.57396935  1
  Ti  Ti14  1  0.43259533  0.45860150  0.91084265  1
  Ti  Ti15  1  0.38900705  0.76451347  0.16911542  1
  Ti  Ti16  1  0.42132779  0.74035527  0.62172801  1
  Ti  Ti17  1  0.36310557  0.79504023  0.96245385  1
  Ti  Ti18  1  0.76375040  0.11901725  0.19985922  1
  Ti  Ti19  1  0.86012946  0.10588142  0.62918880  1
  Ti  Ti20  1  0.67581389  0.03549831  0.96583800  1
  Ti  Ti21  1  0.72817236  0.38372401  0.26079464  1
  Ti  Ti22  1  0.78771310  0.47286975  0.51933094  1
  Ti  Ti23  1  0.84215970  0.34612909  0.87955703  1
  Ti  Ti24  1  0.81125768  0.73967862  0.20501419  1
  Ti  Ti25  1  0.75663187  0.73954663  0.69923954  1
  Ti  Ti26  1  0.76096601  0.74185907  0.90666544  1
  Ti  Ti27  1  0.09769623  0.19817698  0.05558023  1
  Ti  Ti28  1  0.16839056  0.27032878  0.43536422  1
  Ti  Ti29  1  -0.00059696  0.20685543  0.72934291  1
  Ti  Ti30  1  0.04870553  0.63232296  0.08151979  1
  Ti  Ti31  1  0.04234815  0.66213597  0.39535574  1
  Ti  Ti32  1  0.06272481  0.61390496  0.69934566  1
  Ti  Ti33  1  0.10717182  0.92332140  0.10111945  1
  Ti  Ti34  1  0.06762940  0.98099779  0.41961276  1
  Ti  Ti35  1  0.11480532  0.90958378  0.73159810  1
  Ti  Ti36  1  0.47613662  0.21800187  0.11084752  1
  Ti  Ti37  1  0.45198403  0.29555791  0.36962897  1
  Ti  Ti38  1  0.44044058  0.28488574  0.77393423  1
  Ti  Ti39  1  0.42412873  0.56727349  0.18035691  1
  Ti  Ti40  1  0.39287557  0.60532502  0.47283113  1
  Ti  Ti41  1  0.39897980  0.59635577  0.76251517  1
  Ti  Ti42  1  0.42463505  0.95278118  0.10305765  1
  Ti  Ti43  1  0.38355962  0.90460113  0.44591647  1
  Ti  Ti44  1  0.33711659  0.86621155  0.78076984  1
  Ti  Ti45  1  0.79066323  0.27100405  0.07572045  1
  Ti  Ti46  1  0.78071622  0.18995312  0.47157948  1
  Ti  Ti47  1  0.66895686  0.27539086  0.78762040  1
  Ti  Ti48  1  0.77888397  0.53863805  0.15925428  1
  Ti  Ti49  1  0.76487745  0.60613192  0.36614298  1
  Ti  Ti50  1  0.72245224  0.48842862  0.80313957  1
  Ti  Ti51  1  0.74846323  0.93656251  0.12571578  1
  Ti  Ti52  1  0.74922663  0.99191488  0.40326840  1
  Ti  Ti53  1  0.75693736  0.94275138  0.72558715  1
  Ti  Ti54  1  0.24216850  0.04189479  0.10525022  1
  Ti  Ti55  1  0.34160732  0.12288009  0.41039491  1
  Ti  Ti56  1  0.30473290  0.09058254  0.66564195  1
  Ti  Ti57  1  0.21766093  0.36341121  0.10880573  1
  Ti  Ti58  1  0.29186792  0.44261255  0.39949942  1
  Ti  Ti59  1  0.29099753  0.41563452  0.74463040  1
  Ti  Ti60  1  0.23301479  0.69575414  0.11023325  1
  Ti  Ti61  1  0.25351486  0.70809130  0.35611551  1
  Ti  Ti62  1  0.19883453  0.74187009  0.66749114  1
  Ti  Ti63  1  0.57230460  0.06168549  0.16207942  1
  Ti  Ti64  1  0.60912981  0.15152536  0.43628403  1
  Ti  Ti65  1  0.58607553  0.08492351  0.81354600  1
  Ti  Ti66  1  0.60589650  0.37364117  0.09117369  1
  Ti  Ti67  1  0.58497335  0.46320876  0.43811405  1
  Ti  Ti68  1  0.61924073  0.42623206  0.63832004  1
  Ti  Ti69  1  0.57174734  0.65916746  0.07182689  1
  Ti  Ti70  1  0.56058116  0.65646850  0.36796131  1
  Ti  Ti71  1  0.51892436  0.77055890  0.79708468  1
  Ti  Ti72  1  0.93406596  0.02439471  0.09576995  1
  Ti  Ti73  1  0.97810786  0.20238154  0.43539579  1
  Ti  Ti74  1  0.95046882  0.02135453  0.78715804  1
  Ti  Ti75  1  0.94191291  0.47324651  0.05497361  1
  Ti  Ti76  1  0.97647085  0.39868726  0.42043698  1
  Ti  Ti77  1  0.89005180  0.48528894  0.70017226  1
  Ti  Ti78  1  0.97970650  0.80626246  0.01075888  1
  Ti  Ti79  1  0.87259929  0.77213090  0.39416435  1
  Ti  Ti80  1  0.94568830  0.74208891  0.80406477  1
  Ti  Ti81  1  0.18951006  0.18457744  0.23569330  1
  Ti  Ti82  1  0.17348532  0.24840296  0.67822911  1
  Ti  Ti83  1  0.25873582  0.28156140  0.92792419  1
  Ti  Ti84  1  0.25234817  0.52937003  0.21833380  1
  Ti  Ti85  1  0.17979589  0.59826011  0.51955142  1
  Ti  Ti86  1  0.29299201  0.61973935  0.93066399  1
  Ti  Ti87  1  0.29058556  0.89578064  0.25345709  1
  Ti  Ti88  1  0.26828697  0.90385076  0.59939659  1
  Ti  Ti89  1  0.19036448  0.91834796  0.92456946  1
  Ti  Ti90  1  0.62153433  0.22544107  0.24789649  1
  Ti  Ti91  1  0.63769044  0.20685744  0.62119256  1
  Ti  Ti92  1  0.54385441  0.25240101  0.93845968  1
  Ti  Ti93  1  0.59545072  0.52502171  0.22632091  1
  Ti  Ti94  1  0.59294473  0.61342198  0.68685747  1
  Ti  Ti95  1  0.63630298  0.52368958  0.95930938  1
  Ti  Ti96  1  0.57131936  0.87650721  0.24009136  1
  Ti  Ti97  1  0.55840015  1.01263647  0.61525657  1
  Ti  Ti98  1  0.51397062  0.92538295  0.91105003  1
  Ti  Ti99  1  0.87776675  0.26402995  0.27614688  1
  Ti  Ti100  1  0.88650009  0.30700265  0.59971732  1
  Ti  Ti101  1  0.91829922  0.15862879  0.92336236  1
  Ti  Ti102  1  0.96992248  0.54332470  0.25312798  1
  Ti  Ti103  1  0.95530464  0.56652682  0.52429257  1
  Ti  Ti104  1  0.94371092  0.52538117  0.87025007  1
  Ti  Ti105  1  0.95156715  0.87396844  0.22476035  1
  Ti  Ti106  1  0.88235380  0.91040097  0.54760503  1
  Ti  Ti107  1  0.84937629  0.93012833  0.92386643  1
  Co  Co108  1  -0.00520426  0.00150058  0.63084629  1
  Co  Co109  1  0.46780195  0.54783200  0.60310820  1
  Co  Co110  1  0.84077284  -0.01214321  0.24548165  1
  Co  Co111  1  0.15253477  0.34879999  0.80051864  1
  Co  Co112  1  0.29949557  0.75029357  0.51414917  1
  Co  Co113  1  0.67784289  0.66047308  0.23140365  1
  Co  Co114  1  0.24631930  0.10871995  -0.04247489  1
  Co  Co115  1  0.44398433  0.88967634  0.64360802  1
  Co  Co116  1  -0.03128387  0.70624727  0.25124679  1
  Co  Co117  1  0.14312407  0.75610492  0.49685716  1
  Co  Co118  1  0.65567007  0.31420956  0.38594601  1
  Co  Co119  1  0.26621435  0.01358563  0.80828810  1
  Co  Co120  1  0.27211541  0.87476963  0.07898969  1
  Co  Co121  1  0.26406435  0.19118660  0.79914501  1
  Co  Co122  1  0.39837503  0.02105694  0.56152000  1
  Co  Co123  1  0.81427967  0.62210613  0.80561286  1
  Co  Co124  1  0.64132980  0.66138964  0.83492589  1
  Co  Co125  1  0.50234161  0.80570400  0.05663022  1
  Co  Co126  1  0.68321692  0.35636336  -0.05734727  1
  Co  Co127  1  -0.08085242  0.66675394  -0.05265955  1
  Co  Co128  1  0.32636650  0.28371424  0.47404332  1
  Co  Co129  1  0.71475282  0.32914548  0.54050593  1
  Co  Co130  1  0.09064939  0.49351300  0.80351246  1
  Co  Co131  1  0.30093383  0.62587713  0.63787310  1
  Co  Co132  1  0.25381098  0.02570077  0.32248492  1
  Co  Co133  1  0.15671777  0.77162129  -0.00642376  1
  Co  Co134  1  0.01558793  0.82832239  0.43454381  1
  Co  Co135  1  0.75018743  0.56541406  0.65247249  1
  Co  Co136  1  0.50241102  0.49364352  0.05700752  1
  Co  Co137  1  0.92409592  0.05887426  0.48533216  1
  Co  Co138  1  0.13353231  0.12570557  0.37662202  1
  Co  Co139  1  0.40515098  0.64819712  0.04129519  1
  Co  Co140  1  0.22098203  0.59874484  0.78292310  1
  Co  Co141  1  0.33791767  0.25602259  0.65483717  1
  Co  Co142  1  0.05051441  0.33480003  0.13758278  1
  Co  Co143  1  0.89410853  0.64138273  0.10249041  1
  Co  Co144  1  0.79603649  0.06127823  0.84762207  1
  Co  Co145  1  0.84289123  0.21224199  0.77140791  1
  Co  Co146  1  0.18389453  0.50052385  0.66136310  1
  Co  Co147  1  0.49752622  0.03984380  0.43909935  1
  Co  Co148  1  0.10828985  0.90221381  0.56108200  1
  Co  Co149  1  0.49432553  0.14531764  0.30934054  1
  Co  Co150  1  0.59007339  -0.06577183  0.06508568  1
  Co  Co151  1  0.05540555  0.28372537  0.55609149  1
  Co  Co152  1  0.76934029  0.36605167  0.69370253  1
  Co  Co153  1  0.62267935  0.03268133  0.31086051  1
  Co  Co154  1  -0.08917192  -0.06216875  0.37651776  1
  Co  Co155  1  0.53297940  0.71764612  0.22050937  1
  Co  Co156  1  0.66025675  0.79742779  0.13013002  1
  Co  Co157  1  0.78029105  0.42172519  0.05158852  1
  Co  Co158  1  -0.02279002  0.35618152  0.79035403  1
  Co  Co159  1  0.07853917  0.77536873  0.14622308  1
  Co  Co160  1  0.22096538  0.87713087  0.42402286  1
  Co  Co161  1  0.12244678  0.00193696  0.23822846  1
  Ni  Ni162  1  0.15099556  0.53985852  0.35609673  1
  Ni  Ni163  1  0.55768055  0.31029424  0.51383477  1
  Ni  Ni164  1  0.02076369  0.87698742  0.86244108  1
  Ni  Ni165  1  0.20559877  0.76600745  0.83677921  1
  Ni  Ni166  1  -0.06082990  0.19402427  0.12703054  1
  Ni  Ni167  1  0.46556597  0.44819889  0.72829215  1
  Ni  Ni168  1  -0.10218223  0.65083031  0.66684605  1
  Ni  Ni169  1  0.44836189  0.49569435  0.34268388  1
  Ni  Ni170  1  0.13862058  0.07090177  0.70981263  1
  Ni  Ni171  1  0.34894510  -0.02864351  -0.04868713  1
  Ni  Ni172  1  0.22189882  0.35894372  0.57334636  1
  Ni  Ni173  1  0.64396878  0.18520266  0.06300989  1
  Ni  Ni174  1  0.44173077  -0.01802686  0.29333553  1
  Ni  Ni175  1  0.49255558  0.63171989  0.90363333  1
  Ni  Ni176  1  0.55016237  0.37613176  0.26741868  1
  Ni  Ni177  1  0.04303366  0.24526747  0.28128313  1
  Ni  Ni178  1  0.13009053  0.65270034  0.24239256  1
  Ni  Ni179  1  0.82085736  0.67294204  0.52420598  1
  Ni  Ni180  1  0.82247146  0.80935939  0.05041014  1
  Ni  Ni181  1  0.01824813  0.00122127  -0.03898214  1
  Ni  Ni182  1  0.09984587  0.49242327  0.16043857  1
  Ni  Ni183  1  0.47812867  0.14462549  0.70199137  1
  Ni  Ni184  1  0.71518443  0.10438203  0.71869431  1
  Ni  Ni185  1  0.84796695  0.47185111  0.33536130  1
  Ni  Ni186  1  0.80524446  0.10108301  0.03485430  1
  Ni  Ni187  1  0.23132669  0.03119565  0.49483844  1
  Ni  Ni188  1  0.57264727  0.40174428  0.83494634  1
  Ni  Ni189  1  0.39738486  0.33124854  0.01497096  1
  Ni  Ni190  1  0.66218749  0.85501250  0.82840182  1
  Ni  Ni191  1  0.06577072  0.24925730  0.89131048  1
  Ni  Ni192  1  0.29120003  0.21160889  0.08794951  1
  Ni  Ni193  1  0.53856608  0.67358209  0.53135154  1
  Ni  Ni194  1  0.82373780  0.33658348  0.42089980  1
  Ni  Ni195  1  0.31141368  0.48941039  0.56384325  1
  Ni  Ni196  1  -0.04401814  0.30921709  0.00100449  1
  Ni  Ni197  1  0.73529661  0.66785756  0.05883606  1
  Ni  Ni198  1  0.51264466  0.08081705  -0.00430620  1
  Ni  Ni199  1  0.73916181  0.19957220  0.91803232  1
  Ni  Ni200  1  0.91402895  0.87388573  0.71420606  1
  Ni  Ni201  1  0.84960518  0.11115715  0.34829027  1
  Ni  Ni202  1  0.80367952  0.55381171  -0.03705265  1
  Ni  Ni203  1  0.33335644  0.48434310  0.05237869  1
  Ni  Ni204  1  0.43961336  -0.00188430  0.76220155  1
  Ni  Ni205  1  0.67252187  0.59264462  0.50875879  1
  Ni  Ni206  1  0.39866904  0.65376916  0.31180851  1
  Ni  Ni207  1  0.44038221  0.81000936  0.32629667  1
  Ni  Ni208  1  0.88962272  0.39875394  0.18833839  1
  Ni  Ni209  1  0.24607395  0.45804258  0.89967144  1
  Ni  Ni210  1  0.74100774  0.86668372  0.28973431  1
  Ni  Ni211  1  0.11592658  0.44514530  0.48501338  1
  Ni  Ni212  1  0.28468514  0.31273964  0.28987248  1
  Ni  Ni213  1  0.18011926  0.53775697  0.02893985  1
  Ni  Ni214  1  0.71744775  0.04683601  0.56196799  1
