# generated using pymatgen
data_Ti108Co54Ni53
_symmetry_space_group_name_H-M   'P 1'
_cell_length_a   14.58874712
_cell_length_b   14.62563975
_cell_length_c   14.58652086
_cell_angle_alpha   89.97309400
_cell_angle_beta   89.80388402
_cell_angle_gamma   90.02957712
_symmetry_Int_Tables_number   1
_chemical_formula_structural   Ti108Co54Ni53
_chemical_formula_sum   'Ti108 Co54 Ni53'
_cell_volume   3112.30346110
_cell_formula_units_Z   1
loop_
 _symmetry_equiv_pos_site_id
 _symmetry_equiv_pos_as_xyz
  1  'x, y, z'
loop_
 _atom_site_type_symbol
 _atom_site_label
 _atom_site_symmetry_multiplicity
 _atom_site_fract_x
 _atom_site_fract_y
 _atom_site_fract_z
 _atom_site_occupancy
  Ti  Ti0  1  0.01214402  0.04724961  0.25391872  1
  Ti  Ti1  1  0.07556272  0.04688219  0.59953070  1
  Ti  Ti2  1  0.12083636  0.13025180  0.98779783  1
  Ti  Ti3  1  0.09730821  0.40726680  0.29641167  1
  Ti  Ti4  1  0.09156458  0.50641419  0.61106211  1
  Ti  Ti5  1  0.10311734  0.40630704  0.97408846  1
  Ti  Ti6  1  0.05070575  0.77839152  0.27049140  1
  Ti  Ti7  1  0.06587240  0.75265400  0.60822239  1
  Ti  Ti8  1  0.11142878  0.79392973  0.92617614  1
  Ti  Ti9  1  0.43112581  0.04257185  0.25055790  1
  Ti  Ti10  1  0.40439020  0.06334902  0.56954648  1
  Ti  Ti11  1  0.44283306  0.06387471  0.88661242  1
  Ti  Ti12  1  0.49134558  0.41638186  0.25962699  1
  Ti  Ti13  1  0.40909059  0.38281837  0.59431885  1
  Ti  Ti14  1  0.43476046  0.42176834  0.83697956  1
  Ti  Ti15  1  0.38797844  0.73417333  0.24080674  1
  Ti  Ti16  1  0.51169370  0.70147303  0.58180208  1
  Ti  Ti17  1  0.45573228  0.78307349  0.88516803  1
  Ti  Ti18  1  0.76364088  0.03680426  0.24926431  1
  Ti  Ti19  1  0.66149820  0.04249462  0.55986497  1
  Ti  Ti20  1  0.75205333  0.09365649  0.94539494  1
  Ti  Ti21  1  0.70146127  0.40965051  0.30672002  1
  Ti  Ti22  1  0.74766579  0.40339568  0.57456414  1
  Ti  Ti23  1  0.77336252  0.49412324  0.93331814  1
  Ti  Ti24  1  0.72322675  0.74887109  0.25420750  1
  Ti  Ti25  1  0.82707370  0.86283862  0.62066826  1
  Ti  Ti26  1  0.81295086  0.70819633  0.93803140  1
  Ti  Ti27  1  0.00872779  0.32628659  0.13270805  1
  Ti  Ti28  1  0.14210628  0.23816338  0.41570410  1
  Ti  Ti29  1  0.12932041  0.28019508  0.81428049  1
  Ti  Ti30  1  0.05621213  0.59870031  0.04679462  1
  Ti  Ti31  1  0.01890651  0.51308353  0.44143027  1
  Ti  Ti32  1  0.00884982  0.59912651  0.73915379  1
  Ti  Ti33  1  -0.00335098  0.98580134  0.05100760  1
  Ti  Ti34  1  0.13760361  0.93714976  0.37031567  1
  Ti  Ti35  1  0.15186527  0.88845273  0.74280413  1
  Ti  Ti36  1  0.39819980  0.29761703  0.11676952  1
  Ti  Ti37  1  0.33723431  0.17724747  0.38026515  1
  Ti  Ti38  1  0.47979121  0.22478574  0.77391035  1
  Ti  Ti39  1  0.38089898  0.58945831  0.10893698  1
  Ti  Ti40  1  0.41874034  0.64269904  0.42273745  1
  Ti  Ti41  1  0.38921693  0.57143383  0.69941514  1
  Ti  Ti42  1  0.49030560  0.92491998  0.11034121  1
  Ti  Ti43  1  0.34558969  0.95234277  0.41061739  1
  Ti  Ti44  1  0.34460929  0.93311044  0.77857105  1
  Ti  Ti45  1  0.72273319  0.32175359  0.09245990  1
  Ti  Ti46  1  0.79290479  0.28403111  0.41822442  1
  Ti  Ti47  1  0.73179594  0.37149853  0.76707293  1
  Ti  Ti48  1  0.71321302  0.62201199  0.10269994  1
  Ti  Ti49  1  0.84449766  0.58870591  0.38230165  1
  Ti  Ti50  1  0.69077038  0.61876634  0.79732948  1
  Ti  Ti51  1  0.68308551  0.89616338  0.14899991  1
  Ti  Ti52  1  0.80114319  0.85883135  0.40688272  1
  Ti  Ti53  1  0.75827120  0.84319441  0.80388160  1
  Ti  Ti54  1  0.31099107  0.05535065  0.09364093  1
  Ti  Ti55  1  0.21839567  0.06920777  0.48500667  1
  Ti  Ti56  1  0.18481964  0.07125190  0.78152721  1
  Ti  Ti57  1  0.29596747  0.44296282  0.00153492  1
  Ti  Ti58  1  0.28026352  0.37554035  0.42217930  1
  Ti  Ti59  1  0.23988848  0.42488796  0.70608770  1
  Ti  Ti60  1  0.23795139  0.74214386  0.07962760  1
  Ti  Ti61  1  0.25734666  0.76148778  0.44368212  1
  Ti  Ti62  1  0.28737180  0.72148308  0.78875824  1
  Ti  Ti63  1  0.53439665  0.14593258  0.10291533  1
  Ti  Ti64  1  0.53414724  0.11738722  0.39545654  1
  Ti  Ti65  1  0.63943979  0.04644331  0.76765709  1
  Ti  Ti66  1  0.59700724  0.45849951  0.01526248  1
  Ti  Ti67  1  0.56728458  0.43272989  0.46988162  1
  Ti  Ti68  1  0.57024558  0.45877062  0.68589368  1
  Ti  Ti69  1  0.59170500  0.76378191  0.04589352  1
  Ti  Ti70  1  0.56308933  0.77565114  0.40156465  1
  Ti  Ti71  1  0.59587104  0.77151994  0.73246127  1
  Ti  Ti72  1  0.89226769  0.16632628  0.12213683  1
  Ti  Ti73  1  0.88470974  0.06511952  0.41161195  1
  Ti  Ti74  1  0.95838197  0.01857851  0.76353874  1
  Ti  Ti75  1  0.82448709  0.47783289  0.14269698  1
  Ti  Ti76  1  0.90422520  0.41336667  0.29355945  1
  Ti  Ti77  1  0.93090827  0.40934800  0.72664507  1
  Ti  Ti78  1  0.97658156  0.77351768  0.08161225  1
  Ti  Ti79  1  0.96006829  0.71340702  0.45427640  1
  Ti  Ti80  1  0.95459730  0.79902904  0.78280675  1
  Ti  Ti81  1  0.21172406  0.29167126  0.20513582  1
  Ti  Ti82  1  0.23932940  0.23255315  0.60324027  1
  Ti  Ti83  1  0.28560892  0.19051359  0.88837423  1
  Ti  Ti84  1  0.21618834  0.55196559  0.22832731  1
  Ti  Ti85  1  0.28260383  0.53898273  0.53705832  1
  Ti  Ti86  1  0.15833200  0.57834684  0.87233811  1
  Ti  Ti87  1  0.24169809  0.89573831  0.21208026  1
  Ti  Ti88  1  0.32348558  0.87398730  0.59787760  1
  Ti  Ti89  1  0.23492754  0.97357215  0.94162035  1
  Ti  Ti90  1  0.65925044  0.21627659  0.25306240  1
  Ti  Ti91  1  0.59229762  0.24106721  0.52753528  1
  Ti  Ti92  1  0.54128620  0.27391718  0.96664130  1
  Ti  Ti93  1  0.56996146  0.60756618  0.28056026  1
  Ti  Ti94  1  0.67408124  0.59292329  0.58643006  1
  Ti  Ti95  1  0.47223035  0.59674198  0.93851573  1
  Ti  Ti96  1  0.60756818  0.93023585  0.31474760  1
  Ti  Ti97  1  0.51570350  0.90376200  0.60399760  1
  Ti  Ti98  1  0.60252650  0.92835417  0.92011857  1
  Ti  Ti99  1  0.98589877  0.22800818  0.30149210  1
  Ti  Ti100  1  1.00275764  0.23569022  0.55143749  1
  Ti  Ti101  1  0.97920794  0.25438529  0.94193745  1
  Ti  Ti102  1  0.99568993  0.58489706  0.25073094  1
  Ti  Ti103  1  0.87391173  0.56134108  0.58325812  1
  Ti  Ti104  1  0.95565254  0.49653629  0.90187745  1
  Ti  Ti105  1  0.87995527  0.89144526  0.20101160  1
  Ti  Ti106  1  0.98147243  0.91417839  0.49937171  1
  Ti  Ti107  1  0.79132093  0.89659867  0.99724774  1
  Co  Co108  1  0.82410429  0.02027706  0.09335136  1
  Co  Co109  1  0.28397657  0.82402159  0.91913005  1
  Co  Co110  1  0.27767209  0.61167827  0.36561214  1
  Co  Co111  1  -0.00707104  0.48184583  0.12925935  1
  Co  Co112  1  0.15214579  0.88795982  0.05163416  1
  Co  Co113  1  0.42139336  0.81572899  0.47172715  1
  Co  Co114  1  0.59815990  0.05928336  0.21890675  1
  Co  Co115  1  0.09813839  0.79281085  0.43583806  1
  Co  Co116  1  0.15978621  0.42957497  0.12320486  1
  Co  Co117  1  -0.07000906  0.08855789  -0.05332674  1
  Co  Co118  1  0.57036283  0.59824778  0.45448924  1
  Co  Co119  1  0.20380587  0.59366183  0.69973398  1
  Co  Co120  1  0.42737002  0.74812389  0.05811175  1
  Co  Co121  1  0.08968379  0.45028692  0.79746285  1
  Co  Co122  1  0.41152042  0.46790179  0.41549825  1
  Co  Co123  1  0.85269814  0.43654579  0.45087931  1
  Co  Co124  1  0.17567549  0.50055341  0.40716788  1
  Co  Co125  1  0.38177423  0.30977649  -0.06401719  1
  Co  Co126  1  0.48676237  0.21414744  0.26664534  1
  Co  Co127  1  0.57760469  0.34062923  0.82314888  1
  Co  Co128  1  0.71550076  -0.00222418  0.41409411  1
  Co  Co129  1  0.45007750  0.44265365  0.05255130  1
  Co  Co130  1  -0.03477346  -0.09985955  0.34320665  1
  Co  Co131  1  0.05883919  0.90713727  0.18775871  1
  Co  Co132  1  0.78276057  0.51468090  0.71091019  1
  Co  Co133  1  0.24886367  0.01580294  0.64102646  1
  Co  Co134  1  -0.10218987  0.38901016  0.02506185  1
  Co  Co135  1  0.56567019  0.32357752  0.14384421  1
  Co  Co136  1  0.69604714  0.15255714  0.41021499  1
  Co  Co137  1  0.04224374  0.13797120  0.83451267  1
  Co  Co138  1  0.66629724  -0.09377675  0.67543985  1
  Co  Co139  1  0.46426974  0.53557700  0.56041128  1
  Co  Co140  1  0.72530009  0.15508509  0.11273289  1
  Co  Co141  1  0.33496702  0.17291425  0.20589983  1
  Co  Co142  1  0.79378799  0.77087150  0.09623587  1
  Co  Co143  1  0.78648956  1.00962168  0.70132807  1
  Co  Co144  1  0.42312627  -0.07601436  -0.04842909  1
  Co  Co145  1  -0.04481506  0.40094170  0.56984623  1
  Co  Co146  1  0.82358812  0.30322966  0.21498428  1
  Co  Co147  1  0.82129558  -0.00086529  0.54150162  1
  Co  Co148  1  0.63905166  0.76382006  0.89028154  1
  Co  Co149  1  0.24754269  0.37608913  0.86321871  1
  Co  Co150  1  0.53681308  0.61876051  0.11600161  1
  Co  Co151  1  0.00302243  -0.10053478  0.65953334  1
  Co  Co152  1  0.71257301  0.51394989  0.44365550  1
  Co  Co153  1  0.22552818  0.75376523  0.28515798  1
  Co  Co154  1  0.59735271  0.29847796  0.37506706  1
  Co  Co155  1  0.10270611  0.17814522  0.68086306  1
  Co  Co156  1  0.35005724  0.68468079  0.58079970  1
  Co  Co157  1  0.40450822  0.56275579  0.26901125  1
  Co  Co158  1  0.36155486  0.32149096  0.29123423  1
  Co  Co159  1  0.12289330  0.67425324  0.17182140  1
  Co  Co160  1  0.32724119  0.43681019  0.17647582  1
  Co  Co161  1  0.58723164  0.12111719  0.92040535  1
  Ni  Ni162  1  0.88739819  0.74961934  0.30812371  1
  Ni  Ni163  1  0.55631199  0.78104411  0.21522437  1
  Ni  Ni164  1  0.60548399  0.49230799  0.85337474  1
  Ni  Ni165  1  0.32560839  0.28470843  0.74270458  1
  Ni  Ni166  1  0.79934581  0.71725709  0.51718443  1
  Ni  Ni167  1  0.66317293  0.87102030  0.50866580  1
  Ni  Ni168  1  0.15151976  0.03371345  0.13843458  1
  Ni  Ni169  1  0.34954199  0.11458235  0.73125254  1
  Ni  Ni170  1  0.82884383  0.17152007  0.29701461  1
  Ni  Ni171  1  0.51806893  0.62460897  0.77948932  1
  Ni  Ni172  1  0.15876125  -0.09957003  0.55182657  1
  Ni  Ni173  1  0.11350422  0.64573867  0.35233543  1
  Ni  Ni174  1  -0.01110478  0.33971464  0.42184694  1
  Ni  Ni175  1  0.21920612  0.75321631  0.63894576  1
  Ni  Ni176  1  0.82160542  0.23470301  -0.01593100  1
  Ni  Ni177  1  -0.05919328  0.85899743  0.93362393  1
  Ni  Ni178  1  0.51091965  -0.07832447  0.77690219  1
  Ni  Ni179  1  0.83172294  -0.02267275  0.85511204  1
  Ni  Ni180  1  0.86080297  0.64140836  0.79024965  1
  Ni  Ni181  1  0.73554349  0.57098105  0.26698850  1
  Ni  Ni182  1  0.21394273  0.57694242  0.04272474  1
  Ni  Ni183  1  -0.08644112  0.71352015  0.63655928  1
  Ni  Ni184  1  0.86471714  0.65161604  0.18250640  1
  Ni  Ni185  1  0.88793801  0.59175197  0.02980924  1
  Ni  Ni186  1  0.44413868  0.87872689  0.29923560  1
  Ni  Ni187  1  0.39531665  0.16615394  0.01203958  1
  Ni  Ni188  1  0.22116688  0.27952534  0.02553038  1
  Ni  Ni189  1  0.12983205  0.37655008  0.51268632  1
  Ni  Ni190  1  0.61212946  0.29225511  0.67425052  1
  Ni  Ni191  1  0.44365446  0.29412377  0.44241947  1
  Ni  Ni192  1  0.86034018  0.35155017  0.87091653  1
  Ni  Ni193  1  0.70067616  0.33551024  -0.07154233  1
  Ni  Ni194  1  0.15412962  0.15009837  0.27925517  1
  Ni  Ni195  1  0.75525427  0.71557770  0.67724340  1
  Ni  Ni196  1  0.64403904  0.02097868  0.05530485  1
  Ni  Ni197  1  0.32861791  0.88297851  0.07326303  1
  Ni  Ni198  1  -0.01619283  0.67896493  -0.09238131  1
  Ni  Ni199  1  0.54093926  0.12345199  0.65087594  1
  Ni  Ni200  1  0.08308949  0.34092321  0.66547929  1
  Ni  Ni201  1  0.05070317  0.09346448  0.43135701  1
  Ni  Ni202  1  0.32040556  0.66626254  -0.05173379  1
  Ni  Ni203  1  0.06665172  -0.02616875  0.89422477  1
  Ni  Ni204  1  0.11565898  0.71867802  0.77675700  1
  Ni  Ni205  1  0.63419692  0.48216682  0.17141447  1
  Ni  Ni206  1  0.42459062  0.77483994  0.71143905  1
  Ni  Ni207  1  0.06568793  0.17274968  0.13990320  1
  Ni  Ni208  1  0.63890101  0.61664323  -0.03943595  1
  Ni  Ni209  1  0.14389812  0.63773104  0.51201899  1
  Ni  Ni210  1  0.31179062  0.54069404  0.83988600  1
  Ni  Ni211  1  0.51484828  -0.04150803  0.44931444  1
  Ni  Ni212  1  0.41999543  0.22279547  0.60218027  1
  Ni  Ni213  1  0.26413711  0.04123462  0.28924762  1
  Ni  Ni214  1  0.69912757  0.67668437  0.40139089  1
