# generated using pymatgen
data_Ti108Co54Ni53
_symmetry_space_group_name_H-M   'P 1'
_cell_length_a   14.65406533
_cell_length_b   14.63713595
_cell_length_c   14.58146659
_cell_angle_alpha   89.97934829
_cell_angle_beta   89.80321917
_cell_angle_gamma   90.05399659
_symmetry_Int_Tables_number   1
_chemical_formula_structural   Ti108Co54Ni53
_chemical_formula_sum   'Ti108 Co54 Ni53'
_cell_volume   3127.61043987
_cell_formula_units_Z   1
loop_
 _symmetry_equiv_pos_site_id
 _symmetry_equiv_pos_as_xyz
  1  'x, y, z'
loop_
 _atom_site_type_symbol
 _atom_site_label
 _atom_site_symmetry_multiplicity
 _atom_site_fract_x
 _atom_site_fract_y
 _atom_site_fract_z
 _atom_site_occupancy
  Ti  Ti0  1  0.16126409  0.15105980  0.24714303  1
  Ti  Ti1  1  0.01285753  0.12028453  0.64009672  1
  Ti  Ti2  1  0.10286059  0.05663548  0.95408556  1
  Ti  Ti3  1  0.01757595  0.46626099  0.27541999  1
  Ti  Ti4  1  0.08063390  0.31258467  0.65007370  1
  Ti  Ti5  1  0.15138541  0.45520033  0.90526198  1
  Ti  Ti6  1  0.15758584  0.75335625  0.29809906  1
  Ti  Ti7  1  0.06911278  0.68351081  0.65025075  1
  Ti  Ti8  1  0.16197928  0.73818763  0.94153604  1
  Ti  Ti9  1  0.37412022  0.16993718  0.25682296  1
  Ti  Ti10  1  0.46495697  0.08222850  0.55838744  1
  Ti  Ti11  1  0.46596918  0.16989745  0.89677589  1
  Ti  Ti12  1  0.52278561  0.34135564  0.27057697  1
  Ti  Ti13  1  0.41956584  0.38633535  0.59055446  1
  Ti  Ti14  1  0.49988374  0.40222182  0.92604420  1
  Ti  Ti15  1  0.37266386  0.79832238  0.25943159  1
  Ti  Ti16  1  0.39923758  0.73825647  0.58392165  1
  Ti  Ti17  1  0.35979889  0.79562755  0.87593125  1
  Ti  Ti18  1  0.74395608  0.07451026  0.25175374  1
  Ti  Ti19  1  0.71011077  0.04397682  0.59413890  1
  Ti  Ti20  1  0.73518514  0.03097908  0.84222686  1
  Ti  Ti21  1  0.81307917  0.42951672  0.30539173  1
  Ti  Ti22  1  0.77502748  0.41355858  0.51263474  1
  Ti  Ti23  1  0.70816466  0.42723445  0.86673052  1
  Ti  Ti24  1  0.81627865  0.76837042  0.18786769  1
  Ti  Ti25  1  0.72914351  0.71486330  0.62029659  1
  Ti  Ti26  1  0.68174958  0.75160116  0.86775760  1
  Ti  Ti27  1  0.06679211  0.32740037  0.11139175  1
  Ti  Ti28  1  0.08718735  0.20650323  0.43082683  1
  Ti  Ti29  1  0.15516913  0.16935507  0.76579066  1
  Ti  Ti30  1  0.06122306  0.57767466  0.03207073  1
  Ti  Ti31  1  0.06080761  0.54042853  0.47240096  1
  Ti  Ti32  1  0.06543171  0.50082462  0.70270098  1
  Ti  Ti33  1  0.13438776  0.88641093  0.06144589  1
  Ti  Ti34  1  0.12107699  0.89761080  0.45319269  1
  Ti  Ti35  1  0.06664723  0.89326539  0.69907864  1
  Ti  Ti36  1  0.44898248  0.28627292  0.09102512  1
  Ti  Ti37  1  0.37261469  0.32202574  0.38794041  1
  Ti  Ti38  1  0.40624090  0.34001820  0.78001720  1
  Ti  Ti39  1  0.40308276  0.60165463  0.13835905  1
  Ti  Ti40  1  0.39003743  0.62178352  0.41103084  1
  Ti  Ti41  1  0.43960658  0.54285681  0.77615648  1
  Ti  Ti42  1  0.34424219  0.88414451  0.04165912  1
  Ti  Ti43  1  0.42760259  0.98688988  0.35003843  1
  Ti  Ti44  1  0.46557914  0.96835833  0.80724184  1
  Ti  Ti45  1  0.75325719  0.27847653  0.20126936  1
  Ti  Ti46  1  0.66194051  0.23891559  0.38099081  1
  Ti  Ti47  1  0.76072830  0.25413606  0.78489815  1
  Ti  Ti48  1  0.73973216  0.57437577  0.15920508  1
  Ti  Ti49  1  0.69879916  0.56477646  0.40567027  1
  Ti  Ti50  1  0.76560344  0.58278648  0.78123732  1
  Ti  Ti51  1  0.82599491  0.93196132  0.05664425  1
  Ti  Ti52  1  0.74695736  0.94298802  0.39843792  1
  Ti  Ti53  1  0.74228500  0.88060886  0.70626745  1
  Ti  Ti54  1  0.25904942  0.05447293  0.10040662  1
  Ti  Ti55  1  0.28047647  0.10606529  0.43348850  1
  Ti  Ti56  1  0.33579513  0.09702737  0.70569744  1
  Ti  Ti57  1  0.29527042  0.43512267  0.05835711  1
  Ti  Ti58  1  0.21622947  0.44063767  0.34584969  1
  Ti  Ti59  1  0.26614013  0.46285560  0.70318577  1
  Ti  Ti60  1  0.24899033  0.72747722  0.12176225  1
  Ti  Ti61  1  0.28204736  0.77224032  0.43861400  1
  Ti  Ti62  1  0.22774644  0.78831052  0.74307459  1
  Ti  Ti63  1  0.58061778  0.00851822  0.09292653  1
  Ti  Ti64  1  0.60044974  0.07476384  0.42884999  1
  Ti  Ti65  1  0.58750071  0.12251546  0.73580676  1
  Ti  Ti66  1  0.60778537  0.49077784  0.04834362  1
  Ti  Ti67  1  0.49978838  0.47702956  0.43746483  1
  Ti  Ti68  1  0.58367816  0.45152828  0.70729092  1
  Ti  Ti69  1  0.63971707  0.74306343  0.09523489  1
  Ti  Ti70  1  0.65828973  0.76500776  0.43511819  1
  Ti  Ti71  1  0.56468976  0.79368712  0.69902341  1
  Ti  Ti72  1  0.93421170  0.02753140  0.19898970  1
  Ti  Ti73  1  0.92433335  0.02466976  0.42178297  1
  Ti  Ti74  1  0.89838358  -0.02494350  0.72717405  1
  Ti  Ti75  1  0.89726365  0.45616588  0.09592601  1
  Ti  Ti76  1  0.95005813  0.35239118  0.41709536  1
  Ti  Ti77  1  0.87721568  0.41282085  0.73466904  1
  Ti  Ti78  1  0.95187381  0.76821449  0.03167762  1
  Ti  Ti79  1  0.94762888  0.70395479  0.46372786  1
  Ti  Ti80  1  0.88858921  0.77273013  0.79366018  1
  Ti  Ti81  1  0.25762101  0.25435118  0.12918180  1
  Ti  Ti82  1  0.23630415  0.31107870  0.52078812  1
  Ti  Ti83  1  0.20287065  0.26025741  0.94672173  1
  Ti  Ti84  1  0.15851149  0.57631759  0.20230341  1
  Ti  Ti85  1  0.23991415  0.61420803  0.56666018  1
  Ti  Ti86  1  0.28421503  0.60284733  0.87081908  1
  Ti  Ti87  1  0.12701932  0.93896484  0.25253555  1
  Ti  Ti88  1  0.22172674  0.98459123  0.61159614  1
  Ti  Ti89  1  0.29249550  1.04611436  0.90338414  1
  Ti  Ti90  1  0.55862985  0.16084320  0.21806393  1
  Ti  Ti91  1  0.58637071  0.26762113  0.59989649  1
  Ti  Ti92  1  0.66298752  0.28551165  0.97936521  1
  Ti  Ti93  1  0.55588699  0.53550005  0.25966703  1
  Ti  Ti94  1  0.56098747  0.60931077  0.56150846  1
  Ti  Ti95  1  0.51224209  0.66031291  0.96306289  1
  Ti  Ti96  1  0.55875300  0.84808803  0.24732970  1
  Ti  Ti97  1  0.50305953  0.89271573  0.53316780  1
  Ti  Ti98  1  0.52670390  0.85949262  0.96311399  1
  Ti  Ti99  1  0.89895182  0.19294912  0.31304057  1
  Ti  Ti100  1  0.88072599  0.26844486  0.60473790  1
  Ti  Ti101  1  1.00972901  0.24314626  0.91164836  1
  Ti  Ti102  1  0.86824836  0.62198356  0.30554270  1
  Ti  Ti103  1  0.88828120  0.56613507  0.60446234  1
  Ti  Ti104  1  0.94078642  0.51934697  0.88695718  1
  Ti  Ti105  1  0.96279143  0.84803401  0.33901251  1
  Ti  Ti106  1  0.85875675  0.87013562  0.54270241  1
  Ti  Ti107  1  1.01104544  0.89730681  0.88699674  1
  Co  Co108  1  0.20103687  0.89692936  -0.08952407  1
  Co  Co109  1  0.22998488  0.58112602  0.03288387  1
  Co  Co110  1  0.74520923  0.39774966  0.07159677  1
  Co  Co111  1  0.31555745  0.43838463  0.87283173  1
  Co  Co112  1  -0.05674332  0.61702750  0.75442311  1
  Co  Co113  1  0.77965925  0.77264498  0.01152688  1
  Co  Co114  1  0.01301000  0.18294167  0.19670725  1
  Co  Co115  1  0.48442061  0.69732529  0.80730690  1
  Co  Co116  1  0.07434692  0.31044627  0.28978738  1
  Co  Co117  1  0.11577963  0.17825656  0.06099820  1
  Co  Co118  1  0.69200319  0.62664623  -0.01574073  1
  Co  Co119  1  0.46618354  0.16325016  0.39426793  1
  Co  Co120  1  0.55297253  0.15883948  0.03242662  1
  Co  Co121  1  0.88888683  0.73459074  0.63304147  1
  Co  Co122  1  0.22775208  0.27110962  0.33413773  1
  Co  Co123  1  0.29924497  0.93625694  0.77663323  1
  Co  Co124  1  0.86957588  0.35655959  0.88885014  1
  Co  Co125  1  0.08112589  0.03947139  0.13291755  1
  Co  Co126  1  0.40745975  0.81716295  0.72321159  1
  Co  Co127  1  0.39496695  -0.04658272  0.64322298  1
  Co  Co128  1  0.35024876  0.34808357  0.22407384  1
  Co  Co129  1  0.58550263  -0.09087747  0.39859291  1
  Co  Co130  1  0.68047487  -0.09969505  -0.01620797  1
  Co  Co131  1  0.77211561  0.11085129  0.43283796  1
  Co  Co132  1  0.68706615  0.68557471  0.26805116  1
  Co  Co133  1  0.26775599  0.89406387  0.18391002  1
  Co  Co134  1  0.25872419  0.90176255  0.34873651  1
  Co  Co135  1  0.01334215  0.40072748  -0.02178969  1
  Co  Co136  1  0.64075801  0.16891780  0.87999015  1
  Co  Co137  1  0.34644187  0.69365929  -0.00087207  1
  Co  Co138  1  -0.00274858  0.68205583  -0.08933158  1
  Co  Co139  1  0.62944799  0.90333182  0.82261375  1
  Co  Co140  1  0.83774369  0.66081592  0.90282847  1
  Co  Co141  1  0.90006475  0.52037985  0.42705512  1
  Co  Co142  1  0.60288923  0.30832317  0.12568890  1
  Co  Co143  1  0.68952884  0.16000894  0.11409622  1
  Co  Co144  1  0.46686283  0.44819119  0.12940901  1
  Co  Co145  1  -0.01480618  -0.04583064  0.03603373  1
  Co  Co146  1  0.67321147  0.88242405  0.55416596  1
  Co  Co147  1  0.40186332  0.12954479  0.09331539  1
  Co  Co148  1  0.79637143  0.50723119  -0.03189137  1
  Co  Co149  1  0.81588247  -0.10789134  0.88095133  1
  Co  Co150  1  0.86406504  0.06141058  0.57196979  1
  Co  Co151  1  0.06931285  0.76154949  0.79724551  1
  Co  Co152  1  0.10551018  0.37288888  0.44273188  1
  Co  Co153  1  -0.05233304  0.23880673  0.75960277  1
  Co  Co154  1  0.43038208  -0.01985296  0.18000201  1
  Co  Co155  1  0.80497719  0.27786197  0.42226316  1
  Co  Co156  1  0.79895914  0.65405833  0.49009673  1
  Co  Co157  1  -0.06698760  0.18215024  0.48136727  1
  Co  Co158  1  0.83265360  -0.08314181  0.25625432  1
  Co  Co159  1  0.43036926  0.01113632  -0.00969553  1
  Co  Co160  1  0.28977034  0.03426156  0.26734224  1
  Co  Co161  1  0.60868222  0.42906106  0.54622461  1
  Ni  Ni162  1  0.64842707  0.40653475  0.37678283  1
  Ni  Ni163  1  0.58005334  0.02686302  0.92043436  1
  Ni  Ni164  1  0.36415956  0.29938559  -0.04579557  1
  Ni  Ni165  1  0.46030787  0.78884230  0.40671983  1
  Ni  Ni166  1  0.33205270  0.92949773  0.49305225  1
  Ni  Ni167  1  0.40309370  0.55681398  0.59653860  1
  Ni  Ni168  1  -0.02120698  0.60403849  0.17749576  1
  Ni  Ni169  1  0.81205525  0.77608040  0.36609888  1
  Ni  Ni170  1  0.55339035  0.65115535  0.38492620  1
  Ni  Ni171  1  0.69541091  0.89970766  0.15990292  1
  Ni  Ni172  1  0.04627114  0.06223480  0.32599170  1
  Ni  Ni173  1  0.15316309  0.00521854  0.79079916  1
  Ni  Ni174  1  0.59681527  0.00638666  0.26926513  1
  Ni  Ni175  1  0.11690932  0.71164687  0.47067539  1
  Ni  Ni176  1  0.08264738  0.73036358  0.13741043  1
  Ni  Ni177  1  0.31928539  0.47585223  0.47713432  1
  Ni  Ni178  1  0.00825175  0.07593192  0.80766466  1
  Ni  Ni179  1  -0.02410360  0.86064954  0.17342866  1
  Ni  Ni180  1  0.61209239  0.62935402  0.72007326  1
  Ni  Ni181  1  0.11419939  0.05824348  0.48869469  1
  Ni  Ni182  1  0.52380108  0.68866782  0.22278577  1
  Ni  Ni183  1  0.40896155  0.53266253  -0.02142225  1
  Ni  Ni184  1  0.19492296  0.33675049  0.79307140  1
  Ni  Ni185  1  0.39407977  0.48695476  0.29741769  1
  Ni  Ni186  1  -0.00055600  -0.02883545  0.56663023  1
  Ni  Ni187  1  0.18575487  0.16144093  0.59516789  1
  Ni  Ni188  1  0.57382490  -0.03312090  0.67071551  1
  Ni  Ni189  1  0.31132545  0.20867238  0.82750646  1
  Ni  Ni190  1  0.20712626  0.60252552  0.39357155  1
  Ni  Ni191  1  0.45428537  0.21369990  0.69099690  1
  Ni  Ni192  1  0.19875085  0.80606146  0.58243479  1
  Ni  Ni193  1  0.11682825  0.60566171  0.82206007  1
  Ni  Ni194  1  0.72286376  0.37102645  0.67112438  1
  Ni  Ni195  1  0.73465012  0.20927215  0.56948690  1
  Ni  Ni196  1  0.02382965  0.81349769  0.56137948  1
  Ni  Ni197  1  -0.02407734  0.42195424  0.56937124  1
  Ni  Ni198  1  0.52432824  0.30952230  0.45454024  1
  Ni  Ni199  1  0.38593808  0.22450190  0.53480743  1
  Ni  Ni200  1  0.29042808  0.27046937  0.67109720  1
  Ni  Ni201  1  0.04206198  0.63477457  0.33082508  1
  Ni  Ni202  1  0.67165344  0.42949806  0.21335494  1
  Ni  Ni203  1  0.82829230  0.12528619  0.71598289  1
  Ni  Ni204  1  0.71608401  0.54024641  0.61403742  1
  Ni  Ni205  1  0.58310032  0.30038923  0.79065279  1
  Ni  Ni206  1  0.16624082  0.45720941  0.56868032  1
  Ni  Ni207  1  0.59348321  0.55236745  0.86296744  1
  Ni  Ni208  1  0.86257356  0.62914233  0.06354512  1
  Ni  Ni209  1  0.30190713  0.63998127  0.26808856  1
  Ni  Ni210  1  0.02791545  0.37568258  0.81021139  1
  Ni  Ni211  1  0.46075419  0.76868518  0.09607162  1
  Ni  Ni212  1  0.33184795  0.65675677  0.71513152  1
  Ni  Ni213  1  0.18796244  0.40625965  0.18942108  1
  Ni  Ni214  1  0.92753543  0.33026650  0.21616040  1
