# generated using pymatgen
data_Ti108Co54Ni53
_symmetry_space_group_name_H-M   'P 1'
_cell_length_a   14.68013427
_cell_length_b   14.62614717
_cell_length_c   14.66738258
_cell_angle_alpha   90.05558520
_cell_angle_beta   89.99039561
_cell_angle_gamma   90.19828966
_symmetry_Int_Tables_number   1
_chemical_formula_structural   Ti108Co54Ni53
_chemical_formula_sum   'Ti108 Co54 Ni53'
_cell_volume   3149.26912799
_cell_formula_units_Z   1
loop_
 _symmetry_equiv_pos_site_id
 _symmetry_equiv_pos_as_xyz
  1  'x, y, z'
loop_
 _atom_site_type_symbol
 _atom_site_label
 _atom_site_symmetry_multiplicity
 _atom_site_fract_x
 _atom_site_fract_y
 _atom_site_fract_z
 _atom_site_occupancy
  Ti  Ti0  1  0.13444489  0.04535575  0.28508349  1
  Ti  Ti1  1  0.11488247  0.11733358  0.60402798  1
  Ti  Ti2  1  0.04046781  0.11386802  0.86312716  1
  Ti  Ti3  1  0.06611470  0.35944882  0.20353736  1
  Ti  Ti4  1  0.03843613  0.41426306  0.56200926  1
  Ti  Ti5  1  0.12672177  0.46769528  0.85968547  1
  Ti  Ti6  1  0.10426469  0.77352787  0.15501506  1
  Ti  Ti7  1  0.09428905  0.74847032  0.66696500  1
  Ti  Ti8  1  0.13048988  0.70970218  0.97410294  1
  Ti  Ti9  1  0.34517787  0.08426867  0.28183032  1
  Ti  Ti10  1  0.36924794  -0.03246462  0.56434308  1
  Ti  Ti11  1  0.37724004  0.15825736  0.97753645  1
  Ti  Ti12  1  0.34659879  0.40934470  0.33435334  1
  Ti  Ti13  1  0.49895304  0.40418053  0.60843460  1
  Ti  Ti14  1  0.41490889  0.39575901  0.96606893  1
  Ti  Ti15  1  0.37106827  0.79162146  0.26992227  1
  Ti  Ti16  1  0.37973571  0.71504903  0.56266708  1
  Ti  Ti17  1  0.44628983  0.71544631  0.95216995  1
  Ti  Ti18  1  0.73640174  0.07177195  0.35545948  1
  Ti  Ti19  1  0.80118953  0.10200510  0.54962380  1
  Ti  Ti20  1  0.74041536  0.19103224  0.89079015  1
  Ti  Ti21  1  0.71937136  0.37324906  0.21762939  1
  Ti  Ti22  1  0.80669409  0.39941768  0.54473841  1
  Ti  Ti23  1  0.80208662  0.37571150  0.92329530  1
  Ti  Ti24  1  0.76020963  0.68823140  0.28939744  1
  Ti  Ti25  1  0.72791177  0.82858903  0.57602360  1
  Ti  Ti26  1  0.80436023  0.76505644  0.90556805  1
  Ti  Ti27  1  0.04955351  0.22651243  0.03158503  1
  Ti  Ti28  1  0.02154649  0.23663183  0.46244867  1
  Ti  Ti29  1  0.17949379  0.31165419  0.68860618  1
  Ti  Ti30  1  0.10381514  0.57634608  0.18580686  1
  Ti  Ti31  1  0.09263293  0.55708738  0.39902377  1
  Ti  Ti32  1  0.03102451  0.56018426  0.70483139  1
  Ti  Ti33  1  0.02626418  0.87510741  -0.00051885  1
  Ti  Ti34  1  0.11731896  0.88442710  0.45136509  1
  Ti  Ti35  1  0.12441801  0.94076300  0.75197605  1
  Ti  Ti36  1  0.39317652  0.26713909  0.13349491  1
  Ti  Ti37  1  0.36320294  0.28239113  0.49650226  1
  Ti  Ti38  1  0.44680769  0.24482511  0.81241906  1
  Ti  Ti39  1  0.39076115  0.56685793  0.06353485  1
  Ti  Ti40  1  0.43785962  0.61447108  0.37177392  1
  Ti  Ti41  1  0.39893531  0.55065000  0.68174383  1
  Ti  Ti42  1  0.42992870  0.93986952  0.03209227  1
  Ti  Ti43  1  0.44456826  0.94032095  0.38080981  1
  Ti  Ti44  1  0.35448691  0.92089793  0.76066320  1
  Ti  Ti45  1  0.84575271  0.25868056  0.09188621  1
  Ti  Ti46  1  0.70742618  0.26756736  0.40204411  1
  Ti  Ti47  1  0.71675014  0.24188769  0.63004397  1
  Ti  Ti48  1  0.77960267  0.58861328  0.11914560  1
  Ti  Ti49  1  0.78667508  0.57724194  0.44246293  1
  Ti  Ti50  1  0.72742987  0.63369911  0.76251478  1
  Ti  Ti51  1  0.76984349  0.86862257  0.15873220  1
  Ti  Ti52  1  0.72578888  0.88589579  0.36106777  1
  Ti  Ti53  1  0.74545222  0.96906325  0.72933014  1
  Ti  Ti54  1  0.17071311  0.06429929  0.06302568  1
  Ti  Ti55  1  0.21550940  0.15286364  0.42743998  1
  Ti  Ti56  1  0.29108359  0.08220869  0.82383263  1
  Ti  Ti57  1  0.23387933  0.42646128  0.11770991  1
  Ti  Ti58  1  0.23438541  0.42567702  0.51977224  1
  Ti  Ti59  1  0.30614881  0.42901969  0.79223203  1
  Ti  Ti60  1  0.30611658  0.75334347  0.08139326  1
  Ti  Ti61  1  0.24484887  0.71323802  0.39604819  1
  Ti  Ti62  1  0.39465466  0.72245088  0.77420369  1
  Ti  Ti63  1  0.51030786  0.11202035  0.17102515  1
  Ti  Ti64  1  0.52375412  0.12289263  0.37959593  1
  Ti  Ti65  1  0.58280927  0.09523186  0.78340994  1
  Ti  Ti66  1  0.55279615  0.41061833  0.10403710  1
  Ti  Ti67  1  0.54034284  0.43868509  0.42361654  1
  Ti  Ti68  1  0.67177517  0.41878486  0.70938746  1
  Ti  Ti69  1  0.59285447  0.67662728  0.05334108  1
  Ti  Ti70  1  0.63292402  0.72315659  0.42457828  1
  Ti  Ti71  1  0.57964716  0.72981210  0.69766232  1
  Ti  Ti72  1  0.95430167  0.04060341  0.13631203  1
  Ti  Ti73  1  0.93735534  0.06043908  0.36840001  1
  Ti  Ti74  1  0.92749253  0.04478763  0.69961460  1
  Ti  Ti75  1  0.96708596  0.42741471  0.03580111  1
  Ti  Ti76  1  0.89922934  0.37907126  0.37133141  1
  Ti  Ti77  1  0.87137863  0.43366893  0.73650817  1
  Ti  Ti78  1  0.95488613  0.68229592  0.05103584  1
  Ti  Ti79  1  0.95907190  0.71074333  0.42396059  1
  Ti  Ti80  1  0.94031725  0.75727895  0.76461614  1
  Ti  Ti81  1  0.23519813  0.24117459  0.24022195  1
  Ti  Ti82  1  0.31244713  0.15999623  0.62937723  1
  Ti  Ti83  1  0.25332213  0.31088055  0.94724708  1
  Ti  Ti84  1  0.30386934  0.57754831  0.23858254  1
  Ti  Ti85  1  0.20303377  0.60565895  0.56296648  1
  Ti  Ti86  1  0.27119455  0.63128240  0.89138178  1
  Ti  Ti87  1  0.27229367  0.92931256  0.18158514  1
  Ti  Ti88  1  0.23695116  0.83905606  0.60473674  1
  Ti  Ti89  1  0.25999123  0.84514847  0.90526399  1
  Ti  Ti90  1  0.51710551  0.30536923  0.27749654  1
  Ti  Ti91  1  0.52164389  0.20947067  0.61903368  1
  Ti  Ti92  1  0.59644556  0.36839285  0.90355933  1
  Ti  Ti93  1  0.62360133  0.56371161  0.21805507  1
  Ti  Ti94  1  0.53351627  0.60415114  0.53975023  1
  Ti  Ti95  1  0.54761398  0.58893214  0.83793800  1
  Ti  Ti96  1  0.56177937  0.81960489  0.26414758  1
  Ti  Ti97  1  0.56789685  0.93332428  0.61234158  1
  Ti  Ti98  1  0.56966647  0.89271088  0.81405854  1
  Ti  Ti99  1  0.94113197  0.21356629  0.25352298  1
  Ti  Ti100  1  0.94458808  0.24665078  0.66828239  1
  Ti  Ti101  1  0.96989004  0.31023246  0.87374698  1
  Ti  Ti102  1  0.93396809  0.68116419  0.23475184  1
  Ti  Ti103  1  0.86999242  0.68459971  0.60350757  1
  Ti  Ti104  1  0.84512002  0.56039552  0.94148480  1
  Ti  Ti105  1  1.00757701  0.88844633  0.29750684  1
  Ti  Ti106  1  0.89380576  0.91764819  0.49495153  1
  Ti  Ti107  1  0.93623475  0.92587885  0.84316210  1
  Co  Co108  1  0.22118598  0.31759790  0.38883084  1
  Co  Co109  1  0.52970095  0.53139772  -0.01571753  1
  Co  Co110  1  0.18102620  0.48196725  0.68047388  1
  Co  Co111  1  0.11978556  0.73197942  0.49401015  1
  Co  Co112  1  0.17725737  0.86122689  0.29245833  1
  Co  Co113  1  -0.03598751  0.48059864  0.86531011  1
  Co  Co114  1  0.58834922  0.25571531  0.13942966  1
  Co  Co115  1  0.25345237  0.48657588  -0.03512463  1
  Co  Co116  1  0.80397246  0.75047679  0.45504213  1
  Co  Co117  1  0.28558330  0.24572112  0.80329102  1
  Co  Co118  1  -0.02030272  0.79587248  0.56327717  1
  Co  Co119  1  0.03032493  0.61879018  0.55574496  1
  Co  Co120  1  0.85208057  0.19753968  0.38808396  1
  Co  Co121  1  0.46908111  0.76747811  0.40782119  1
  Co  Co122  1  0.58226936  0.54874108  0.68427919  1
  Co  Co123  1  0.37831683  0.23221500  0.34025999  1
  Co  Co124  1  0.11729248  0.37832234  0.01359576  1
  Co  Co125  1  0.89401181  0.17739487  -0.02940922  1
  Co  Co126  1  0.54652793  0.77731027  0.54888876  1
  Co  Co127  1  0.81139877  0.42946521  0.08619894  1
  Co  Co128  1  0.27100391  0.55119308  0.40676118  1
  Co  Co129  1  0.67804611  0.48821289  0.02915813  1
  Co  Co130  1  0.07379678  0.38932700  0.40189698  1
  Co  Co131  1  0.17168051  0.27032937  0.53520230  1
  Co  Co132  1  0.21332474  0.23674932  0.08336799  1
  Co  Co133  1  0.80389134  0.73860800  0.06700555  1
  Co  Co134  1  0.23214487  0.71731911  0.22485670  1
  Co  Co135  1  0.58450635  0.89491481  0.44075858  1
  Co  Co136  1  0.22116326  0.61281659  0.07992172  1
  Co  Co137  1  0.21182182  0.00495287  0.52849780  1
  Co  Co138  1  0.32937125  0.83380293  0.45619784  1
  Co  Co139  1  -0.03203293  0.03175275  -0.02100588  1
  Co  Co140  1  0.12530373  -0.01953557  0.91128740  1
  Co  Co141  1  0.63578124  0.34192175  0.53750596  1
  Co  Co142  1  0.12381294  0.28691882  0.85158630  1
  Co  Co143  1  0.29075657  0.00238271  -0.03306267  1
  Co  Co144  1  0.69268331  0.66757723  0.58518831  1
  Co  Co145  1  0.22579270  0.78454536  0.76621650  1
  Co  Co146  1  0.76709122  0.12533190  0.73373369  1
  Co  Co147  1  0.61331480  0.74735120  0.86557926  1
  Co  Co148  1  0.09232922  0.23361717  0.32202886  1
  Co  Co149  1  0.80360236  0.51668006  0.27150531  1
  Co  Co150  1  0.66638637  0.73918951  0.17259502  1
  Co  Co151  1  0.50417668  0.25987819  0.00387935  1
  Co  Co152  1  0.87176093  0.26120697  0.52717773  1
  Co  Co153  1  0.55846874  0.83474676  -0.01048291  1
  Co  Co154  1  0.07338808  0.81484687  0.84955290  1
  Co  Co155  1  0.63821065  0.15715903  0.49274410  1
  Co  Co156  1  0.19175268  0.15414358  -0.07119302  1
  Co  Co157  1  0.62561209  0.56920191  0.37539819  1
  Co  Co158  1  0.39963964  0.54131023  0.87611536  1
  Co  Co159  1  0.43370197  0.86274154  0.88905558  1
  Co  Co160  1  0.89949156  0.37588044  0.20975494  1
  Co  Co161  1  0.24855530  0.01639451  0.67847751  1
  Ni  Ni162  1  0.36879210  0.31902367  0.67287841  1
  Ni  Ni163  1  0.44741139  -0.05075145  0.20458006  1
  Ni  Ni164  1  0.79887654  0.54212152  0.63139191  1
  Ni  Ni165  1  0.43442660  0.06672453  0.70523661  1
  Ni  Ni166  1  0.85146412  -0.02266734  0.25651976  1
  Ni  Ni167  1  -0.01524680  0.65171495  -0.10840229  1
  Ni  Ni168  1  0.39246201  0.50621348  0.50931864  1
  Ni  Ni169  1  0.85923527  0.89602874  0.00569395  1
  Ni  Ni170  1  0.08793829  0.71620921  0.31665598  1
  Ni  Ni171  1  0.70195554  0.49247434  0.85704895  1
  Ni  Ni172  1  0.08199037  0.55012400  0.00271462  1
  Ni  Ni173  1  0.74077976  0.80205069  0.74985354  1
  Ni  Ni174  1  0.48328882  0.41688258  0.77825731  1
  Ni  Ni175  1  -0.04055596  0.09791359  0.54364427  1
  Ni  Ni176  1  -0.06335920  0.84000738  0.14619068  1
  Ni  Ni177  1  0.69899017  0.63241151  -0.05732058  1
  Ni  Ni178  1  0.39248700  0.42783026  0.16495779  1
  Ni  Ni179  1  0.69421927  0.31073846  0.03280303  1
  Ni  Ni180  1  0.70591619  -0.01926038  0.50662653  1
  Ni  Ni181  1  0.46786944  0.64813305  0.20454782  1
  Ni  Ni182  1  0.71522062  0.43246532  0.38562068  1
  Ni  Ni183  1  0.87823775  0.88146048  0.66696956  1
  Ni  Ni184  1  0.07800370  0.04739509  0.44681174  1
  Ni  Ni185  1  0.86478966  0.81939350  0.31005201  1
  Ni  Ni186  1  -0.10400086  0.17441789  0.80919384  1
  Ni  Ni187  1  0.03804402  0.38939335  0.73312044  1
  Ni  Ni188  1  0.58976760  -0.00444561  0.28708669  1
  Ni  Ni189  1  0.15702279  0.15058321  0.75420888  1
  Ni  Ni190  1  0.66390914  0.50244536  0.53870827  1
  Ni  Ni191  1  0.61472939  0.26310996  0.77173302  1
  Ni  Ni192  1  0.88114275  0.59908986  0.77519493  1
  Ni  Ni193  1  0.64590639  0.07814953  0.63188966  1
  Ni  Ni194  1  0.64177951  0.17491102  0.26558178  1
  Ni  Ni195  1  0.08621323  -0.05941501  0.15901508  1
  Ni  Ni196  1  0.25648227  0.63516358  0.71244874  1
  Ni  Ni197  1  0.44791731  0.03319002  0.87452583  1
  Ni  Ni198  1  0.19233624  0.88343447  0.04485309  1
  Ni  Ni199  1  0.50291663  0.06614427  0.53894564  1
  Ni  Ni200  1  0.04523912  -0.04779704  0.59543438  1
  Ni  Ni201  1  -0.06072539  0.52967355  0.16168853  1
  Ni  Ni202  1  0.36595452  0.09532541  0.45381658  1
  Ni  Ni203  1  0.49281841  0.48722125  0.27110830  1
  Ni  Ni204  1  0.26895008  -0.03162945  0.38084393  1
  Ni  Ni205  1  0.08461883  0.16374188  0.17859662  1
  Ni  Ni206  1  0.46968742  0.79452555  0.12213321  1
  Ni  Ni207  1  0.18452029  0.45366460  0.28996114  1
  Ni  Ni208  1  0.12424892  0.65692304  0.81037566  1
  Ni  Ni209  1  0.51995784  0.27373734  0.44817227  1
  Ni  Ni210  1  0.79099181  0.29383666  0.76823770  1
  Ni  Ni211  1  0.34443177  0.07798051  0.11770255  1
  Ni  Ni212  1  -0.06855054  0.51472846  0.48889297  1
  Ni  Ni213  1  0.82552606  0.04164587  0.87760003  1
  Ni  Ni214  1  0.44661129  0.83415610  0.66492874  1
