# generated using pymatgen
data_Ti108Co54Ni53
_symmetry_space_group_name_H-M   'P 1'
_cell_length_a   14.66858155
_cell_length_b   14.64304630
_cell_length_c   14.60696846
_cell_angle_alpha   89.88378892
_cell_angle_beta   89.80652254
_cell_angle_gamma   89.99272084
_symmetry_Int_Tables_number   1
_chemical_formula_structural   Ti108Co54Ni53
_chemical_formula_sum   'Ti108 Co54 Ni53'
_cell_volume   3137.44610367
_cell_formula_units_Z   1
loop_
 _symmetry_equiv_pos_site_id
 _symmetry_equiv_pos_as_xyz
  1  'x, y, z'
loop_
 _atom_site_type_symbol
 _atom_site_label
 _atom_site_symmetry_multiplicity
 _atom_site_fract_x
 _atom_site_fract_y
 _atom_site_fract_z
 _atom_site_occupancy
  Ti  Ti0  1  0.13383824  0.07317331  0.27681197  1
  Ti  Ti1  1  0.02178448  0.03438378  0.57634215  1
  Ti  Ti2  1  0.06653873  0.01443663  0.90957213  1
  Ti  Ti3  1  -0.00105468  0.38735416  0.18826611  1
  Ti  Ti4  1  0.12752838  0.47380664  0.62359755  1
  Ti  Ti5  1  0.12372147  0.36693106  0.93668532  1
  Ti  Ti6  1  0.04442206  0.72346462  0.27954884  1
  Ti  Ti7  1  0.08240440  0.69505445  0.63775462  1
  Ti  Ti8  1  0.02571842  0.82832613  0.97573115  1
  Ti  Ti9  1  0.45321766  0.02227571  0.30133409  1
  Ti  Ti10  1  0.38228855  0.14908777  0.55447403  1
  Ti  Ti11  1  0.41915698  0.01742209  0.98797174  1
  Ti  Ti12  1  0.36208282  0.37620875  0.22778604  1
  Ti  Ti13  1  0.46125183  0.47704192  0.54137815  1
  Ti  Ti14  1  0.42324857  0.45620775  0.88014882  1
  Ti  Ti15  1  0.38467327  0.68868741  0.25731657  1
  Ti  Ti16  1  0.45796736  0.69651182  0.57978186  1
  Ti  Ti17  1  0.44125740  0.77015861  0.84364954  1
  Ti  Ti18  1  0.68993126  0.07106017  0.22837375  1
  Ti  Ti19  1  0.69084099  0.10556504  0.63113647  1
  Ti  Ti20  1  0.80015244  0.10621044  0.81155074  1
  Ti  Ti21  1  0.82824290  0.33187987  0.28300537  1
  Ti  Ti22  1  0.76017221  0.44631910  0.57914595  1
  Ti  Ti23  1  0.70939929  0.44283732  0.94003661  1
  Ti  Ti24  1  0.67241619  0.75041869  0.21669935  1
  Ti  Ti25  1  0.75450539  0.79960349  0.64050461  1
  Ti  Ti26  1  0.74343924  0.80510842  0.88883033  1
  Ti  Ti27  1  0.10034934  0.21344048  0.10058899  1
  Ti  Ti28  1  0.06828368  0.32914854  0.36881760  1
  Ti  Ti29  1  0.02520592  0.30178134  0.64076782  1
  Ti  Ti30  1  0.08073064  0.65625327  0.06989529  1
  Ti  Ti31  1  0.05281688  0.52510407  0.31557321  1
  Ti  Ti32  1  0.10800559  0.55368676  0.80125431  1
  Ti  Ti33  1  0.12056076  0.98793421  0.08045463  1
  Ti  Ti34  1  0.11692529  0.88074658  0.37752198  1
  Ti  Ti35  1  0.14239502  0.96425959  0.74264165  1
  Ti  Ti36  1  0.45827454  0.15869457  0.12825122  1
  Ti  Ti37  1  0.42168909  0.22418203  0.34748490  1
  Ti  Ti38  1  0.41880447  0.24692599  0.73216569  1
  Ti  Ti39  1  0.42579025  0.60324753  0.03654671  1
  Ti  Ti40  1  0.37148413  0.51820367  0.35903406  1
  Ti  Ti41  1  0.36466877  0.61665157  0.75713722  1
  Ti  Ti42  1  0.44033048  0.91338325  0.15301147  1
  Ti  Ti43  1  0.39616870  0.85195681  0.36776446  1
  Ti  Ti44  1  0.35423758  0.93558467  0.77101397  1
  Ti  Ti45  1  0.81281645  0.21981068  0.13129555  1
  Ti  Ti46  1  0.75786623  0.19192710  0.45210094  1
  Ti  Ti47  1  0.74415365  0.31084115  0.72133016  1
  Ti  Ti48  1  0.64794676  0.58091194  0.10098193  1
  Ti  Ti49  1  0.77401124  0.55641238  0.39950880  1
  Ti  Ti50  1  0.68873730  0.54673445  0.73261622  1
  Ti  Ti51  1  0.75651330  0.91385259  0.11637706  1
  Ti  Ti52  1  0.78058772  0.86144406  0.42853343  1
  Ti  Ti53  1  0.67470477  0.94188985  0.75301428  1
  Ti  Ti54  1  0.26477949  0.10916588  0.08905262  1
  Ti  Ti55  1  0.28594574  0.09016789  0.40372912  1
  Ti  Ti56  1  0.28763686  0.10046657  0.71322369  1
  Ti  Ti57  1  0.23414392  0.46177062  0.09039697  1
  Ti  Ti58  1  0.18930942  0.48856413  0.43572901  1
  Ti  Ti59  1  0.33122474  0.43572333  0.70084631  1
  Ti  Ti60  1  0.19713683  0.79853417  0.13570464  1
  Ti  Ti61  1  0.21732026  0.76857354  0.50350787  1
  Ti  Ti62  1  0.21945846  0.76195730  0.81785993  1
  Ti  Ti63  1  0.70150466  0.10748693  0.02545815  1
  Ti  Ti64  1  0.61503678  0.06067484  0.42615654  1
  Ti  Ti65  1  0.50299442  0.07037770  0.71124517  1
  Ti  Ti66  1  0.63503867  0.38355145  0.12863558  1
  Ti  Ti67  1  0.53774033  0.40757785  0.33606867  1
  Ti  Ti68  1  0.55935440  0.38781876  0.67582853  1
  Ti  Ti69  1  0.56687224  0.74582314  0.02612318  1
  Ti  Ti70  1  0.54086420  0.74584859  0.40378163  1
  Ti  Ti71  1  0.59776444  0.72773157  0.71542290  1
  Ti  Ti72  1  0.93584692  0.09509922  0.03280004  1
  Ti  Ti73  1  0.95235620  0.08701387  0.39235122  1
  Ti  Ti74  1  0.99730531  0.11594290  0.75382778  1
  Ti  Ti75  1  0.95313665  0.46610336  0.02213768  1
  Ti  Ti76  1  0.90144049  0.41777189  0.43782738  1
  Ti  Ti77  1  0.96679654  0.41171206  0.80691191  1
  Ti  Ti78  1  0.85555664  0.75679900  0.15442772  1
  Ti  Ti79  1  0.98868235  0.75475379  0.46104721  1
  Ti  Ti80  1  0.94106456  0.71877826  0.82181795  1
  Ti  Ti81  1  0.22581930  0.23351820  0.26657917  1
  Ti  Ti82  1  0.22940401  0.28110600  0.64273702  1
  Ti  Ti83  1  0.25452042  0.24876701  0.85176804  1
  Ti  Ti84  1  0.21177314  0.65238910  0.34194599  1
  Ti  Ti85  1  0.29808066  0.59564225  0.54843856  1
  Ti  Ti86  1  0.23999663  0.61702351  0.96006431  1
  Ti  Ti87  1  0.26925906  0.95366474  0.23632666  1
  Ti  Ti88  1  0.23462066  0.96682149  0.56999039  1
  Ti  Ti89  1  0.24862513  1.03863861  0.91082602  1
  Ti  Ti90  1  0.65494923  0.26326352  0.29854882  1
  Ti  Ti91  1  0.54952727  0.27068374  0.49904299  1
  Ti  Ti92  1  0.64613021  0.24262282  0.87566262  1
  Ti  Ti93  1  0.59335096  0.58666902  0.29823954  1
  Ti  Ti94  1  0.63261437  0.61394501  0.54127694  1
  Ti  Ti95  1  0.64244094  0.64364766  0.89371670  1
  Ti  Ti96  1  0.62017349  0.90881307  0.31263711  1
  Ti  Ti97  1  0.54618288  0.91292995  0.55868400  1
  Ti  Ti98  1  0.61155370  0.94779897  0.97362429  1
  Ti  Ti99  1  0.98204237  0.20366392  0.24063647  1
  Ti  Ti100  1  0.87285635  0.15628964  0.61276544  1
  Ti  Ti101  1  0.98406451  0.23050371  0.90728901  1
  Ti  Ti102  1  0.93513072  0.59448785  0.18067678  1
  Ti  Ti103  1  0.93224462  0.58234808  0.55459037  1
  Ti  Ti104  1  0.81300197  0.59105897  0.91672971  1
  Ti  Ti105  1  0.91978007  0.91792883  0.26561133  1
  Ti  Ti106  1  0.92032024  0.87867275  0.60119541  1
  Ti  Ti107  1  0.90397745  0.94155264  0.87159972  1
  Co  Co108  1  0.28832840  0.25463849  0.47119820  1
  Co  Co109  1  0.31787111  0.88436761  0.90800435  1
  Co  Co110  1  0.73469683  0.36139326  0.41933392  1
  Co  Co111  1  0.81876949  -0.01331035  0.68358647  1
  Co  Co112  1  0.26864075  -0.06893013  0.41644419  1
  Co  Co113  1  0.51342761  0.65905407  0.16269796  1
  Co  Co114  1  0.49821065  0.58782259  0.43036508  1
  Co  Co115  1  0.14462935  0.33400196  0.51085562  1
  Co  Co116  1  0.56585281  0.03647354  0.12436155  1
  Co  Co117  1  0.03629841  0.47142427  0.49022321  1
  Co  Co118  1  0.22533357  0.50253668  0.26291905  1
  Co  Co119  1  0.51298654  0.79913559  0.24760172  1
  Co  Co120  1  0.85123009  0.30293564  0.55520772  1
  Co  Co121  1  0.16639566  0.39471640  0.76159656  1
  Co  Co122  1  0.54122333  0.11339813  0.55682634  1
  Co  Co123  1  0.16055318  0.36590896  0.20877089  1
  Co  Co124  1  0.58857839  0.22326621  0.69658702  1
  Co  Co125  1  0.81005570  0.45551703  0.77432878  1
  Co  Co126  1  0.70267186  -0.05269147  0.55971370  1
  Co  Co127  1  0.00375753  0.05593853  0.18964140  1
  Co  Co128  1  0.06397901  0.83182236  0.81307810  1
  Co  Co129  1  0.15281562  0.12271405  0.80284182  1
  Co  Co130  1  0.09735658  0.63317566  0.47324143  1
  Co  Co131  1  0.08897763  0.68562483  0.90582191  1
  Co  Co132  1  0.51625154  0.32429362  0.82669354  1
  Co  Co133  1  0.58614059  0.82768318  0.85553649  1
  Co  Co134  1  0.36413935  0.69274396  0.42969147  1
  Co  Co135  1  0.36325197  0.77094116  0.12300853  1
  Co  Co136  1  0.10985656  0.52074575  -0.02885104  1
  Co  Co137  1  0.51600102  0.49005191  0.18224801  1
  Co  Co138  1  0.50984030  0.30381468  0.20523521  1
  Co  Co139  1  0.63507423  0.09184927  0.81385303  1
  Co  Co140  1  0.62394784  0.20553726  0.13176218  1
  Co  Co141  1  0.08177626  0.88282956  0.54537801  1
  Co  Co142  1  0.24453488  0.80165853  0.30600248  1
  Co  Co143  1  0.68780567  0.29155661  0.56879230  1
  Co  Co144  1  0.40582676  0.31766133  0.58633333  1
  Co  Co145  1  0.45682632  0.85694735  -0.00720560  1
  Co  Co146  1  0.09125709  0.26612190  0.79188851  1
  Co  Co147  1  0.77403829  0.68952995  0.77278413  1
  Co  Co148  1  0.74205182  0.71010442  0.04012086  1
  Co  Co149  1  -0.02080950  -0.04229960  0.73423776  1
  Co  Co150  1  0.55438413  0.51769146  -0.01353915  1
  Co  Co151  1  0.29104407  0.41998832  0.53851207  1
  Co  Co152  1  0.87292047  0.48570508  0.27458618  1
  Co  Co153  1  0.09450750  0.51691363  0.14921878  1
  Co  Co154  1  0.85544996  0.84190755  0.75824144  1
  Co  Co155  1  0.82637861  0.18564946  -0.05047427  1
  Co  Co156  1  0.40235756  0.36388457  0.42312067  1
  Co  Co157  1  0.17886677  0.82973273  -0.03285255  1
  Co  Co158  1  0.32813954  0.10895473  0.23680964  1
  Co  Co159  1  0.14239861  0.16926604  -0.04304901  1
  Co  Co160  1  0.25646213  0.36407616  0.35800934  1
  Co  Co161  1  -0.06487209  0.60521225  0.38656783  1
  Ni  Ni162  1  0.89817460  0.25682513  0.75355067  1
  Ni  Ni163  1  0.55066558  0.14454803  0.27064956  1
  Ni  Ni164  1  0.82368147  0.15814699  0.29698884  1
  Ni  Ni165  1  0.71824365  0.29138591  0.01766263  1
  Ni  Ni166  1  0.77007303  0.61683590  0.23907847  1
  Ni  Ni167  1  0.82480859  0.39082461  0.11932375  1
  Ni  Ni168  1  0.39693666  0.11089372  0.84506349  1
  Ni  Ni169  1  0.23491533  0.63597183  0.15468636  1
  Ni  Ni170  1  0.77783571  0.62264953  0.61717595  1
  Ni  Ni171  1  0.13477417  0.13918298  0.64025840  1
  Ni  Ni172  1  0.82769885  0.71319312  0.49283214  1
  Ni  Ni173  1  0.21722634  0.60631429  0.69377042  1
  Ni  Ni174  1  0.84343976  0.02260149  0.51709777  1
  Ni  Ni175  1  0.58585808  0.46784137  0.82907612  1
  Ni  Ni176  1  0.64919331  0.78233912  0.52018951  1
  Ni  Ni177  1  0.54978582  0.11616967  -0.04217839  1
  Ni  Ni178  1  0.78347505  -0.01944462  -0.03508957  1
  Ni  Ni179  1  0.50853045  -0.02467245  0.84767230  1
  Ni  Ni180  1  0.77802672  0.01283521  0.36480405  1
  Ni  Ni181  1  -0.08875445  0.71716414  0.65293774  1
  Ni  Ni182  1  0.59846079  0.87340086  0.12681249  1
  Ni  Ni183  1  -0.04986133  0.28787028  0.06052558  1
  Ni  Ni184  1  0.62106734  0.46341131  0.47062129  1
  Ni  Ni185  1  0.70489862  0.70772803  0.37822493  1
  Ni  Ni186  1  0.12454025  0.02871602  0.44774159  1
  Ni  Ni187  1  -0.07702979  0.67219031  0.01212442  1
  Ni  Ni188  1  0.25939272  0.48957693  0.85457955  1
  Ni  Ni189  1  0.81468959  0.32843528  0.87874452  1
  Ni  Ni190  1  0.46057129  0.83427078  0.68365407  1
  Ni  Ni191  1  0.84359866  0.04922582  0.17095959  1
  Ni  Ni192  1  0.49635816  0.60744522  0.85136618  1
  Ni  Ni193  1  0.33641818  0.74015655  -0.03208886  1
  Ni  Ni194  1  -0.06170491  -0.06150469  0.08465977  1
  Ni  Ni195  1  0.80745987  0.54890234  0.08556098  1
  Ni  Ni196  1  -0.02740097  0.56349200  0.89016223  1
  Ni  Ni197  1  0.37388785  0.83932030  0.53329427  1
  Ni  Ni198  1  -0.07628127  0.43366851  0.63655566  1
  Ni  Ni199  1  0.14629370  0.18824497  0.41294854  1
  Ni  Ni200  1  0.17449024  0.82667051  0.66638992  1
  Ni  Ni201  1  0.39412722  -0.01760406  0.61655520  1
  Ni  Ni202  1  0.85717753  0.82502734  0.00009367  1
  Ni  Ni203  1  0.31286618  0.74454016  0.66008356  1
  Ni  Ni204  1  0.08509752  -0.08744460  0.22350941  1
  Ni  Ni205  1  -0.04582954  -0.07389886  0.43516768  1
  Ni  Ni206  1  -0.08630584  0.25032833  0.40577550  1
  Ni  Ni207  1  0.43691392  0.00436899  0.46328363  1
  Ni  Ni208  1  0.70651637  0.45779341  0.25924351  1
  Ni  Ni209  1  0.01168037  0.79905424  0.13829320  1
  Ni  Ni210  1  0.28556273  -0.07111408  0.06239126  1
  Ni  Ni211  1  0.86258198  0.74057194  0.32274236  1
  Ni  Ni212  1  0.02354890  0.19794364  0.51541185  1
  Ni  Ni213  1  0.36476357  0.53877347  0.17919267  1
  Ni  Ni214  1  0.51308341  0.55902872  0.68572223  1
