# generated using pymatgen
data_Ti108Co54Ni53
_symmetry_space_group_name_H-M   'P 1'
_cell_length_a   14.55721750
_cell_length_b   14.65034740
_cell_length_c   14.63560953
_cell_angle_alpha   89.68475220
_cell_angle_beta   89.54988388
_cell_angle_gamma   89.92207993
_symmetry_Int_Tables_number   1
_chemical_formula_structural   Ti108Co54Ni53
_chemical_formula_sum   'Ti108 Co54 Ni53'
_cell_volume   3121.16520142
_cell_formula_units_Z   1
loop_
 _symmetry_equiv_pos_site_id
 _symmetry_equiv_pos_as_xyz
  1  'x, y, z'
loop_
 _atom_site_type_symbol
 _atom_site_label
 _atom_site_symmetry_multiplicity
 _atom_site_fract_x
 _atom_site_fract_y
 _atom_site_fract_z
 _atom_site_occupancy
  Ti  Ti0  1  0.07490571  0.08666345  0.33731793  1
  Ti  Ti1  1  0.05166896  0.10220227  0.67840300  1
  Ti  Ti2  1  0.02818387  0.13193774  0.91201630  1
  Ti  Ti3  1  0.10639826  0.36324556  0.27847180  1
  Ti  Ti4  1  0.05122950  0.38114913  0.58967943  1
  Ti  Ti5  1  0.13677621  0.40081755  0.93852254  1
  Ti  Ti6  1  0.08629042  0.80257726  0.31199178  1
  Ti  Ti7  1  0.10191031  0.75376984  0.65817012  1
  Ti  Ti8  1  0.10063316  0.80556882  0.93631376  1
  Ti  Ti9  1  0.41024622  0.12078170  0.21338476  1
  Ti  Ti10  1  0.48846250  0.02715391  0.56808655  1
  Ti  Ti11  1  0.39627224  0.02195241  0.88898215  1
  Ti  Ti12  1  0.40966916  0.37966027  0.21156186  1
  Ti  Ti13  1  0.37305919  0.38856878  0.62498812  1
  Ti  Ti14  1  0.40963408  0.40545263  0.86561042  1
  Ti  Ti15  1  0.38404937  0.78810608  0.31460320  1
  Ti  Ti16  1  0.38946637  0.72306674  0.61756756  1
  Ti  Ti17  1  0.42538601  0.70833911  0.87421705  1
  Ti  Ti18  1  0.71566825  -0.00470671  0.26573723  1
  Ti  Ti19  1  0.70858212  0.04642503  0.55153422  1
  Ti  Ti20  1  0.76032929  0.11845651  0.98116417  1
  Ti  Ti21  1  0.76477949  0.38048690  0.26524991  1
  Ti  Ti22  1  0.72839826  0.38113080  0.57458458  1
  Ti  Ti23  1  0.74484729  0.33159581  0.87985988  1
  Ti  Ti24  1  0.81048190  0.75134763  0.32025208  1
  Ti  Ti25  1  0.81791456  0.79014001  0.52592321  1
  Ti  Ti26  1  0.70210625  0.71989904  0.86955717  1
  Ti  Ti27  1  0.17641056  0.22286593  -0.00260363  1
  Ti  Ti28  1  -0.01513853  0.27384880  0.40385999  1
  Ti  Ti29  1  0.18389519  0.26661639  0.67867700  1
  Ti  Ti30  1  0.10981482  0.52468362  0.09295588  1
  Ti  Ti31  1  0.09015902  0.49751286  0.42539566  1
  Ti  Ti32  1  0.09468245  0.55007806  0.67235012  1
  Ti  Ti33  1  0.04130499  0.96719713  0.02287332  1
  Ti  Ti34  1  0.07853367  0.92167500  0.46189725  1
  Ti  Ti35  1  0.15321507  0.94803103  0.67307852  1
  Ti  Ti36  1  0.47525713  0.28400462  0.01505144  1
  Ti  Ti37  1  0.41476560  0.28942813  0.42461801  1
  Ti  Ti38  1  0.55559626  0.28139209  0.82458664  1
  Ti  Ti39  1  0.47812334  0.62165866  0.08810779  1
  Ti  Ti40  1  0.40324175  0.61431671  0.41215182  1
  Ti  Ti41  1  0.41030758  0.57744098  0.73175635  1
  Ti  Ti42  1  0.37551669  0.89719264  0.14468477  1
  Ti  Ti43  1  0.41241719  0.97528904  0.37599521  1
  Ti  Ti44  1  0.38354276  0.87354685  0.76853653  1
  Ti  Ti45  1  0.70552703  0.30150605  0.09913203  1
  Ti  Ti46  1  0.80675620  0.23225977  0.45936507  1
  Ti  Ti47  1  0.74973801  0.20892282  0.67308532  1
  Ti  Ti48  1  0.67982855  0.65305992  0.09514240  1
  Ti  Ti49  1  0.69610667  0.50979052  0.39668812  1
  Ti  Ti50  1  0.73093344  0.54656530  0.70416573  1
  Ti  Ti51  1  0.75744187  0.86784757  0.07448034  1
  Ti  Ti52  1  0.70600845  0.88469280  0.40671470  1
  Ti  Ti53  1  0.76571609  1.01917843  0.76286558  1
  Ti  Ti54  1  0.27690359  0.06663518  0.08475228  1
  Ti  Ti55  1  0.27219388  0.10402184  0.36713509  1
  Ti  Ti56  1  0.22627376  0.11136063  0.79137906  1
  Ti  Ti57  1  0.24993655  0.37614433  0.12879549  1
  Ti  Ti58  1  0.27299526  0.40589236  0.37495496  1
  Ti  Ti59  1  0.23962980  0.43113324  0.76590023  1
  Ti  Ti60  1  0.23874541  0.73618903  0.09775346  1
  Ti  Ti61  1  0.21271191  0.75631444  0.46558786  1
  Ti  Ti62  1  0.25577029  0.74460676  0.77504322  1
  Ti  Ti63  1  0.61879164  0.11939020  0.12738859  1
  Ti  Ti64  1  0.62787050  0.15408452  0.39621551  1
  Ti  Ti65  1  0.58620138  0.11989435  0.70436467  1
  Ti  Ti66  1  0.57087830  0.42930657  0.10754359  1
  Ti  Ti67  1  0.54167073  0.41047266  0.48144249  1
  Ti  Ti68  1  0.55195140  0.46503731  0.70706435  1
  Ti  Ti69  1  0.56977544  0.82701515  0.08121421  1
  Ti  Ti70  1  0.60392371  0.71027367  0.35726740  1
  Ti  Ti71  1  0.55631925  0.79915098  0.74317619  1
  Ti  Ti72  1  0.92734694  0.14028211  0.08099914  1
  Ti  Ti73  1  0.95876105  0.09268970  0.49075884  1
  Ti  Ti74  1  0.89084316  0.17527824  0.79522653  1
  Ti  Ti75  1  0.91893250  0.40492995  0.10542909  1
  Ti  Ti76  1  0.90004663  0.46555487  0.39323329  1
  Ti  Ti77  1  0.91945426  0.47888859  0.70735912  1
  Ti  Ti78  1  0.93986982  0.79397891  0.05891240  1
  Ti  Ti79  1  0.96717319  0.66901438  0.42613060  1
  Ti  Ti80  1  0.87527428  0.79190335  0.73539856  1
  Ti  Ti81  1  0.19055170  0.18989291  0.20330527  1
  Ti  Ti82  1  0.25333151  0.24177257  0.50896440  1
  Ti  Ti83  1  0.35448788  0.19883673  0.90915707  1
  Ti  Ti84  1  0.21909651  0.53916192  0.25801592  1
  Ti  Ti85  1  0.27144267  0.57804319  0.58900600  1
  Ti  Ti86  1  0.18739377  0.61728390  0.92999602  1
  Ti  Ti87  1  0.12875552  0.96912678  0.20523566  1
  Ti  Ti88  1  0.28932650  0.96858529  0.53319258  1
  Ti  Ti89  1  0.21982095  0.92244538  0.85152117  1
  Ti  Ti90  1  0.57569097  0.32180358  0.29348552  1
  Ti  Ti91  1  0.53303847  0.29159575  0.63996926  1
  Ti  Ti92  1  0.56239243  0.09838978  0.91383798  1
  Ti  Ti93  1  0.57580274  0.53755748  0.25310070  1
  Ti  Ti94  1  0.58568208  0.66213206  0.62043338  1
  Ti  Ti95  1  0.53220945  0.54642669  0.92060757  1
  Ti  Ti96  1  0.54921579  0.89174405  0.26669251  1
  Ti  Ti97  1  0.61895388  0.84941414  0.56243279  1
  Ti  Ti98  1  0.57601861  0.90032147  0.89173994  1
  Ti  Ti99  1  0.88991430  0.13358214  0.27603492  1
  Ti  Ti100  1  0.93974607  0.24112892  0.62225181  1
  Ti  Ti101  1  0.95397113  0.34115547  0.87436774  1
  Ti  Ti102  1  0.96526383  0.65982472  0.22030007  1
  Ti  Ti103  1  0.88653858  0.64693329  0.61182862  1
  Ti  Ti104  1  0.96081915  0.65769878  0.90749781  1
  Ti  Ti105  1  0.90701234  0.90696633  0.21100719  1
  Ti  Ti106  1  0.95331501  0.92546944  0.61333788  1
  Ti  Ti107  1  0.88547822  0.87654720  0.89772345  1
  Co  Co108  1  -0.02823431  0.52494234  0.53894550  1
  Co  Co109  1  0.02026895  0.22596585  0.22213540  1
  Co  Co110  1  0.34201402  0.63929701  0.01070333  1
  Co  Co111  1  0.49638482  -0.00996224  0.76226068  1
  Co  Co112  1  0.33713609  0.01673239  0.70344806  1
  Co  Co113  1  0.18637482  0.89650075  0.05891063  1
  Co  Co114  1  0.85140781  0.27398777  0.00082293  1
  Co  Co115  1  0.55817682  0.05905628  0.27084856  1
  Co  Co116  1  0.08579338  0.20256111  0.53592311  1
  Co  Co117  1  0.10391031  0.69524754  0.81061245  1
  Co  Co118  1  0.43974430  0.14358940  0.77463696  1
  Co  Co119  1  -0.02244142  0.64034953  0.74391880  1
  Co  Co120  1  0.86423741  0.07975437  0.62596104  1
  Co  Co121  1  0.68904109  0.69803617  0.49270649  1
  Co  Co122  1  0.77496794  0.90907873  0.63028189  1
  Co  Co123  1  0.26391438  0.49178364  0.00614447  1
  Co  Co124  1  0.49712464  0.71799694  0.49385769  1
  Co  Co125  1  0.63580362  0.23336083  -0.02741538  1
  Co  Co126  1  0.22214745  0.10875659  0.62251007  1
  Co  Co127  1  0.65734359  0.22813046  0.54541073  1
  Co  Co128  1  0.33657922  0.23111941  0.10756563  1
  Co  Co129  1  0.38041912  0.29648375  0.75957482  1
  Co  Co130  1  0.21931377  0.28608822  0.84177232  1
  Co  Co131  1  0.36080595  0.46530200  0.48399595  1
  Co  Co132  1  0.30331666  0.27065197  0.28626082  1
  Co  Co133  1  0.36073370  0.82365023  0.47157237  1
  Co  Co134  1  0.81351344  0.72237678  -0.02025494  1
  Co  Co135  1  0.72387725  0.62101754  0.25716217  1
  Co  Co136  1  0.06615890  0.22755698  0.79399966  1
  Co  Co137  1  0.62511067  -0.04048261  0.68181506  1
  Co  Co138  1  0.01353103  0.27082838  0.01171220  1
  Co  Co139  1  0.02935489  0.50607742  0.24244589  1
  Co  Co140  1  0.28603800  -0.00216978  0.24529693  1
  Co  Co141  1  0.14481498  0.06007206  0.49374361  1
  Co  Co142  1  0.09862514  0.63725349  0.34818009  1
  Co  Co143  1  0.30433257  0.33964572  -0.02283877  1
  Co  Co144  1  0.22428094  0.91235472  0.37887034  1
  Co  Co145  1  0.51624853  0.85700774  0.42595778  1
  Co  Co146  1  -0.11950874  -0.03187142  0.04348437  1
  Co  Co147  1  0.89237282  0.37365385  0.53732355  1
  Co  Co148  1  0.42664529  0.45490385  0.02844644  1
  Co  Co149  1  0.56474685  0.71730974  -0.04455545  1
  Co  Co150  1  0.36017593  0.11222521  0.50067761  1
  Co  Co151  1  0.58967100  -0.00332587  0.42413770  1
  Co  Co152  1  0.23560722  0.84478854  0.22144314  1
  Co  Co153  1  0.58411268  0.39166261  0.94782148  1
  Co  Co154  1  0.43669938  0.11068086  0.04133266  1
  Co  Co155  1  0.68812025  0.33266864  0.40756967  1
  Co  Co156  1  0.65854335  0.48094285  0.83533389  1
  Co  Co157  1  0.80912901  0.51891401  0.54592938  1
  Co  Co158  1  0.67698587  0.35854379  0.72929384  1
  Co  Co159  1  0.72739622  0.72880477  0.68248190  1
  Co  Co160  1  -0.06518750  0.36771412  0.26425055  1
  Co  Co161  1  0.15427800  0.21946948  0.36430310  1
  Ni  Ni162  1  0.13295492  0.34362133  0.45429794  1
  Ni  Ni163  1  0.07709304  0.00021437  0.83010765  1
  Ni  Ni164  1  0.63767801  0.52776514  0.55102944  1
  Ni  Ni165  1  0.44197276  0.83402490  -0.02378809  1
  Ni  Ni166  1  0.51677524  -0.01240556  0.12334596  1
  Ni  Ni167  1  0.18254501  0.04947234  -0.04579783  1
  Ni  Ni168  1  0.46118228  0.14217924  0.37111269  1
  Ni  Ni169  1  0.81157604  0.62003837  0.41572280  1
  Ni  Ni170  1  0.72517187  0.19457961  0.26242562  1
  Ni  Ni171  1  0.44756844  0.87701984  0.60809022  1
  Ni  Ni172  1  0.78785497  0.07550747  0.39389677  1
  Ni  Ni173  1  0.21721226  0.42209339  0.57059051  1
  Ni  Ni174  1  0.24516737  0.70107664  0.30521618  1
  Ni  Ni175  1  0.34127741  0.55420612  0.87624353  1
  Ni  Ni176  1  0.07380644  0.38621100  0.75785478  1
  Ni  Ni177  1  0.51919485  0.24490329  0.16048902  1
  Ni  Ni178  1  0.26287464  0.83079025  0.62269092  1
  Ni  Ni179  1  0.70054937  0.16565544  0.83098255  1
  Ni  Ni180  1  0.78680675  0.05935990  0.14099941  1
  Ni  Ni181  1  0.10282130  0.64021369  0.52701301  1
  Ni  Ni182  1  0.08913710  0.11326385  0.09629000  1
  Ni  Ni183  1  0.82850476  0.63371838  0.79990511  1
  Ni  Ni184  1  0.12915531  0.66209424  0.19394360  1
  Ni  Ni185  1  0.22754149  0.59099185  0.75803856  1
  Ni  Ni186  1  0.07516232  0.81500401  0.14711580  1
  Ni  Ni187  1  0.31936678  -0.06477611  -0.00621332  1
  Ni  Ni188  1  0.64959809  -0.01663871  0.02190088  1
  Ni  Ni189  1  0.84355155  0.33868049  0.73092831  1
  Ni  Ni190  1  0.52934194  0.72104105  0.20832284  1
  Ni  Ni191  1  -0.06788131  -0.01459051  0.75857811  1
  Ni  Ni192  1  -0.05833389  -0.01363398  0.34841829  1
  Ni  Ni193  1  0.46129831  0.55851451  0.56840120  1
  Ni  Ni194  1  0.85254849  0.25987395  0.17149289  1
  Ni  Ni195  1  0.23678736  0.58603476  0.42798051  1
  Ni  Ni196  1  0.93192766  0.83570892  0.39696252  1
  Ni  Ni197  1  0.06577067  0.67790386  0.04603802  1
  Ni  Ni198  1  0.71540979  0.86332083  0.78436441  1
  Ni  Ni199  1  0.72003076  0.49073381  0.14423546  1
  Ni  Ni200  1  0.57971662  0.63226663  0.78491126  1
  Ni  Ni201  1  0.34026076  0.53176901  0.14669900  1
  Ni  Ni202  1  0.84678485  -0.04228193  0.48769112  1
  Ni  Ni203  1  0.45803350  0.46137150  0.34694489  1
  Ni  Ni204  1  0.88044253  0.04464806  0.90130503  1
  Ni  Ni205  1  0.81952858  0.72226728  0.15337799  1
  Ni  Ni206  1  0.03503636  0.84894758  0.78319104  1
  Ni  Ni207  1  0.08251447  0.35854026  0.11824421  1
  Ni  Ni208  1  0.68387789  0.79683880  0.22122639  1
  Ni  Ni209  1  0.37126466  0.19745872  0.63453794  1
  Ni  Ni210  1  0.50570113  0.18554641  0.52372491  1
  Ni  Ni211  1  -0.00093283  0.78191027  0.54052786  1
  Ni  Ni212  1  0.86009086  0.52621197  0.23240788  1
  Ni  Ni213  1  0.28281211  0.78643518  0.93890606  1
  Ni  Ni214  1  0.06601135  0.52754056  0.84351683  1
