# generated using pymatgen
data_Ti108Co54Ni53
_symmetry_space_group_name_H-M   'P 1'
_cell_length_a   14.63898783
_cell_length_b   14.64740299
_cell_length_c   14.70289583
_cell_angle_alpha   89.97764345
_cell_angle_beta   89.90025246
_cell_angle_gamma   89.54497849
_symmetry_Int_Tables_number   1
_chemical_formula_structural   Ti108Co54Ni53
_chemical_formula_sum   'Ti108 Co54 Ni53'
_cell_volume   3152.53688186
_cell_formula_units_Z   1
loop_
 _symmetry_equiv_pos_site_id
 _symmetry_equiv_pos_as_xyz
  1  'x, y, z'
loop_
 _atom_site_type_symbol
 _atom_site_label
 _atom_site_symmetry_multiplicity
 _atom_site_fract_x
 _atom_site_fract_y
 _atom_site_fract_z
 _atom_site_occupancy
  Ti  Ti0  1  0.12180226  0.10735087  0.32080380  1
  Ti  Ti1  1  0.05828776  0.02177275  0.50698805  1
  Ti  Ti2  1  0.10266086  0.07849318  0.95593949  1
  Ti  Ti3  1  0.08509199  0.38962064  0.26701508  1
  Ti  Ti4  1  0.05766673  0.45181599  0.57945079  1
  Ti  Ti5  1  0.10280421  0.47912671  0.94932865  1
  Ti  Ti6  1  0.06565006  0.72429661  0.27501667  1
  Ti  Ti7  1  0.15769341  0.72143859  0.62650197  1
  Ti  Ti8  1  0.20065873  0.74194064  0.96350850  1
  Ti  Ti9  1  0.46344269  0.01667296  0.25417477  1
  Ti  Ti10  1  0.32629092  -0.02018382  0.59533368  1
  Ti  Ti11  1  0.38582038  0.06220758  0.85654532  1
  Ti  Ti12  1  0.39511922  0.38822832  0.25914831  1
  Ti  Ti13  1  0.38033911  0.35378210  0.54830970  1
  Ti  Ti14  1  0.34157936  0.38406279  0.91368242  1
  Ti  Ti15  1  0.43119171  0.70921985  0.23117305  1
  Ti  Ti16  1  0.44943708  0.80717351  0.58051830  1
  Ti  Ti17  1  0.44333785  0.70934977  0.91142878  1
  Ti  Ti18  1  0.73151325  0.06537724  0.22959657  1
  Ti  Ti19  1  0.86400996  0.11957427  0.59500087  1
  Ti  Ti20  1  0.65310022  0.15446372  0.92430762  1
  Ti  Ti21  1  0.77101962  0.43459327  0.23869635  1
  Ti  Ti22  1  0.72647823  0.34006449  0.53673890  1
  Ti  Ti23  1  0.81016456  0.45886005  0.88163763  1
  Ti  Ti24  1  0.76691650  0.74781257  0.27368524  1
  Ti  Ti25  1  0.64316836  0.76124249  0.55858592  1
  Ti  Ti26  1  0.73649770  0.78065765  0.91660005  1
  Ti  Ti27  1  0.07002254  0.28522636  0.03818171  1
  Ti  Ti28  1  0.13906332  0.28643447  0.41992154  1
  Ti  Ti29  1  0.08757039  0.21446904  0.78545134  1
  Ti  Ti30  1  0.04075416  0.58067966  0.14147625  1
  Ti  Ti31  1  0.09074799  0.62834970  0.46445296  1
  Ti  Ti32  1  0.07037463  0.57177115  0.72995830  1
  Ti  Ti33  1  0.05492168  1.01990770  0.13396314  1
  Ti  Ti34  1  0.07441096  0.83694177  0.46473004  1
  Ti  Ti35  1  0.14629157  0.94252032  0.66720399  1
  Ti  Ti36  1  0.38005541  0.23484076  0.06720415  1
  Ti  Ti37  1  0.42434558  0.22577020  0.38695946  1
  Ti  Ti38  1  0.43282353  0.24490308  0.71522184  1
  Ti  Ti39  1  0.44064506  0.54581305  0.14277648  1
  Ti  Ti40  1  0.41665250  0.59792372  0.43833170  1
  Ti  Ti41  1  0.40642812  0.54346088  0.76940029  1
  Ti  Ti42  1  0.40397824  0.99429760  0.04946163  1
  Ti  Ti43  1  0.41236597  0.94906966  0.42926435  1
  Ti  Ti44  1  0.45557228  0.89984899  0.75569038  1
  Ti  Ti45  1  0.72094542  0.20651249  0.09490368  1
  Ti  Ti46  1  0.73745113  0.16232720  0.42388717  1
  Ti  Ti47  1  0.74138299  0.27099778  0.77686862  1
  Ti  Ti48  1  0.72193893  0.67986229  0.08184756  1
  Ti  Ti49  1  0.75301124  0.65122958  0.46444417  1
  Ti  Ti50  1  0.71496688  0.48662311  0.71756049  1
  Ti  Ti51  1  0.74565135  0.87816990  0.11140164  1
  Ti  Ti52  1  0.75957238  0.85442733  0.45020581  1
  Ti  Ti53  1  0.69223866  0.92048480  0.78468302  1
  Ti  Ti54  1  0.29061534  0.09216191  0.18445420  1
  Ti  Ti55  1  0.24701091  0.11800987  0.47523563  1
  Ti  Ti56  1  0.27628282  0.12118485  0.71187947  1
  Ti  Ti57  1  0.29384275  0.45425683  0.08950245  1
  Ti  Ti58  1  0.24167507  0.49624793  0.40169148  1
  Ti  Ti59  1  0.22358691  0.47787941  0.80483417  1
  Ti  Ti60  1  0.23022217  0.83628063  0.13182246  1
  Ti  Ti61  1  0.25387074  0.69498093  0.34807158  1
  Ti  Ti62  1  0.27194314  0.67296577  0.76576162  1
  Ti  Ti63  1  0.55329716  0.11059976  0.12152487  1
  Ti  Ti64  1  0.60820429  0.03434272  0.42296056  1
  Ti  Ti65  1  0.59677816  0.11944735  0.72845059  1
  Ti  Ti66  1  0.62191686  0.49485345  0.04241840  1
  Ti  Ti67  1  0.60302261  0.41935963  0.36518287  1
  Ti  Ti68  1  0.54119779  0.40897928  0.68970456  1
  Ti  Ti69  1  0.53912238  0.80806956  0.04293116  1
  Ti  Ti70  1  0.57921727  0.73153639  0.37204288  1
  Ti  Ti71  1  0.55356560  0.63567320  0.69246430  1
  Ti  Ti72  1  0.92509104  0.17588735  0.09022150  1
  Ti  Ti73  1  0.91563394  0.08430019  0.40268647  1
  Ti  Ti74  1  0.89905717  0.12582203  0.79726736  1
  Ti  Ti75  1  0.93653534  0.44197179  0.06683394  1
  Ti  Ti76  1  0.93248538  0.36096655  0.41006938  1
  Ti  Ti77  1  0.89591106  0.43671674  0.68526606  1
  Ti  Ti78  1  0.93086406  0.74653514  0.10372294  1
  Ti  Ti79  1  0.91925833  0.73488403  0.43112403  1
  Ti  Ti80  1  0.86728427  0.63773878  0.73434037  1
  Ti  Ti81  1  0.23170506  0.28378282  0.19757313  1
  Ti  Ti82  1  0.22089789  0.25906845  0.60418009  1
  Ti  Ti83  1  0.24917210  0.18921007  0.91535952  1
  Ti  Ti84  1  0.24254414  0.63232214  0.17264001  1
  Ti  Ti85  1  0.26810509  0.52127278  0.61403392  1
  Ti  Ti86  1  0.30807979  0.58278346  0.94375966  1
  Ti  Ti87  1  0.32079723  0.87677087  0.28985752  1
  Ti  Ti88  1  0.26313452  0.82191461  0.50084652  1
  Ti  Ti89  1  0.24375951  0.93650121  0.92162328  1
  Ti  Ti90  1  0.54656842  0.28663221  0.19144991  1
  Ti  Ti91  1  0.54408667  0.19573027  0.54471429  1
  Ti  Ti92  1  0.54630528  0.30878740  0.97859271  1
  Ti  Ti93  1  0.64271830  0.59710754  0.23112253  1
  Ti  Ti94  1  0.62725571  0.51820290  0.55043140  1
  Ti  Ti95  1  0.58554935  0.54306511  0.85494680  1
  Ti  Ti96  1  0.65183152  0.90424864  0.29504442  1
  Ti  Ti97  1  0.61424763  0.95760502  0.60621251  1
  Ti  Ti98  1  0.60735734  0.96013621  0.96703758  1
  Ti  Ti99  1  0.85069491  0.23410429  0.26800450  1
  Ti  Ti100  1  0.99848207  0.26569383  0.62353874  1
  Ti  Ti101  1  0.83882829  0.28390678  0.94809754  1
  Ti  Ti102  1  0.94553623  0.52762438  0.29337780  1
  Ti  Ti103  1  0.91413773  0.54160675  0.47943924  1
  Ti  Ti104  1  0.86369250  0.61734177  0.96605364  1
  Ti  Ti105  1  0.90046545  0.90755709  0.24518693  1
  Ti  Ti106  1  0.90688487  0.90496980  0.59220190  1
  Ti  Ti107  1  0.81557689  0.96382795  0.95090774  1
  Co  Co108  1  0.17765413  0.59197963  0.03680119  1
  Co  Co109  1  0.54450632  0.01430659  0.83660262  1
  Co  Co110  1  0.19440900  0.16656993  0.07544110  1
  Co  Co111  1  0.80354742  0.55255148  0.59822940  1
  Co  Co112  1  0.35541282  0.40394135  0.70637219  1
  Co  Co113  1  0.70103698  0.04192331  0.06607576  1
  Co  Co114  1  0.41130054  0.19562172  0.22581792  1
  Co  Co115  1  0.31119629  0.04466395  0.33784531  1
  Co  Co116  1  0.91443401  0.29061742  0.78599379  1
  Co  Co117  1  0.02626740  0.63465273  -0.01664878  1
  Co  Co118  1  0.83798863  0.72971335  0.58077328  1
  Co  Co119  1  0.17751851  0.05245364  0.81282114  1
  Co  Co120  1  0.45710280  0.39343885  0.08143578  1
  Co  Co121  1  0.29276710  -0.04853438  0.75435907  1
  Co  Co122  1  0.62919706  0.27913893  0.65590072  1
  Co  Co123  1  -0.04617315  0.04235504  -0.02026567  1
  Co  Co124  1  0.78144567  0.48705951  0.05327989  1
  Co  Co125  1  0.56712682  0.25779886  0.81236329  1
  Co  Co126  1  0.75122011  0.86075319  0.63727694  1
  Co  Co127  1  0.87240216  0.23784268  0.47867585  1
  Co  Co128  1  0.06786092  0.46155293  0.41932988  1
  Co  Co129  1  -0.05389851  0.35170358  0.21448964  1
  Co  Co130  1  0.83014981  0.27682298  0.64380488  1
  Co  Co131  1  -0.08521054  0.69147692  0.26291718  1
  Co  Co132  1  0.14256889  0.62161787  0.86783419  1
  Co  Co133  1  0.77944772  -0.00568063  0.36214507  1
  Co  Co134  1  0.44356823  0.06270859  0.69769560  1
  Co  Co135  1  0.35727036  0.69604092  0.07043325  1
  Co  Co136  1  0.19951111  0.39860008  0.52247904  1
  Co  Co137  1  0.27102515  0.20005881  0.32670986  1
  Co  Co138  1  0.70163609  0.35125477  0.00542152  1
  Co  Co139  1  0.29628408  0.33721074  0.39953550  1
  Co  Co140  1  0.12058083  0.56730359  0.30209544  1
  Co  Co141  1  0.03557032  0.18117529  0.49206965  1
  Co  Co142  1  0.44868231  0.50575650  0.59364079  1
  Co  Co143  1  0.56209038  0.87936765  0.45213834  1
  Co  Co144  1  0.09930286  0.73138442  0.09543466  1
  Co  Co145  1  0.50216369  0.54755219  0.30300507  1
  Co  Co146  1  0.05979966  0.86339437  0.18351023  1
  Co  Co147  1  0.76146990  0.32609126  0.37275173  1
  Co  Co148  1  0.71452590  0.66882161  0.67698439  1
  Co  Co149  1  0.52736789  0.65056917  0.53045051  1
  Co  Co150  1  -0.02818996  0.61098334  0.60783511  1
  Co  Co151  1  -0.01977063  0.19515745  0.91922140  1
  Co  Co152  1  0.34618421  0.55980843  0.28606376  1
  Co  Co153  1  0.29897951  0.81592293  0.66645946  1
  Co  Co154  1  0.62563464  0.58061123  0.39952342  1
  Co  Co155  1  0.43270395  0.89672465  -0.07108666  1
  Co  Co156  1  0.79586206  0.58886481  0.31957640  1
  Co  Co157  1  0.81684751  0.12503709  -0.03376549  1
  Co  Co158  1  0.54385856  0.36575928  0.52585991  1
  Co  Co159  1  0.23753579  0.45021717  0.24125195  1
  Co  Co160  1  0.44041111  0.73562752  0.75107185  1
  Co  Co161  1  0.85201310  0.03360431  0.11686605  1
  Ni  Ni162  1  0.37287609  0.65822210  0.62188712  1
  Ni  Ni163  1  0.49188719  0.85478706  0.29196025  1
  Ni  Ni164  1  0.46030272  0.52158717  -0.03340378  1
  Ni  Ni165  1  0.12764020  0.11909257  0.62764603  1
  Ni  Ni166  1  0.00101037  0.22677428  0.33422888  1
  Ni  Ni167  1  0.48391201  0.40002565  0.84211438  1
  Ni  Ni168  1  0.82142453  0.33178072  0.11733106  1
  Ni  Ni169  1  0.55793432  0.14049717  0.30094862  1
  Ni  Ni170  1  0.00172847  0.76596765  0.59468140  1
  Ni  Ni171  1  -0.00830940  0.04330509  0.66936946  1
  Ni  Ni172  1  0.93563485  0.90424253  0.06814619  1
  Ni  Ni173  1  0.40949053  0.85811067  0.14301347  1
  Ni  Ni174  1  0.15525211  0.33499670  0.87341215  1
  Ni  Ni175  1  0.48263654  0.03473615  0.54334546  1
  Ni  Ni176  1  0.54412114  0.65300571  0.09092550  1
  Ni  Ni177  1  0.57887984  0.44390636  0.19508543  1
  Ni  Ni178  1  0.94885991  0.08812256  0.24389346  1
  Ni  Ni179  1  0.85286154  0.58819404  0.15453825  1
  Ni  Ni180  1  0.16657723  0.83744950  0.32483691  1
  Ni  Ni181  1  0.65273491  0.39025095  0.85783894  1
  Ni  Ni182  1  0.17116904  0.38788034  0.68510422  1
  Ni  Ni183  1  0.69175094  0.13175109  0.59003019  1
  Ni  Ni184  1  0.03778484  0.40513336  0.76646977  1
  Ni  Ni185  1  0.49253834  0.12614274  -0.03165264  1
  Ni  Ni186  1  0.60110850  0.26082595  0.40275673  1
  Ni  Ni187  1  0.76325478  0.47624549  0.43705479  1
  Ni  Ni188  1  0.06600396  0.20367094  0.18644231  1
  Ni  Ni189  1  0.43713774  0.43232709  0.41280811  1
  Ni  Ni190  1  0.61170572  0.76898180  0.19562360  1
  Ni  Ni191  1  0.10149825  0.88704653  0.01910235  1
  Ni  Ni192  1  -0.03510302  0.53066896  0.85854568  1
  Ni  Ni193  1  0.18508452  -0.02840455  0.23965504  1
  Ni  Ni194  1  0.20322557  -0.03852064  0.43194531  1
  Ni  Ni195  1  -0.01797519  0.36540197  -0.08617489  1
  Ni  Ni196  1  0.31905954  0.81021931  0.84215788  1
  Ni  Ni197  1  0.57473261  -0.06066106  0.14496171  1
  Ni  Ni198  1  0.92114076  0.91978221  0.42718225  1
  Ni  Ni199  1  0.40628531  0.77048306  0.41363144  1
  Ni  Ni200  1  0.27357528  0.28111817  0.77364187  1
  Ni  Ni201  1  0.21445543  0.00003994  0.07156260  1
  Ni  Ni202  1  0.22850972  0.32191003  0.02269522  1
  Ni  Ni203  1  0.76956077  0.00133367  0.52564236  1
  Ni  Ni204  1  0.74353954  0.07195976  0.81967722  1
  Ni  Ni205  1  0.41261682  0.23863511  0.88099866  1
  Ni  Ni206  1  0.37794311  0.16644083  0.56695541  1
  Ni  Ni207  1  0.04398364  -0.04214848  0.32638410  1
  Ni  Ni208  1  0.59484860  0.80766148  0.70580366  1
  Ni  Ni209  1  0.12688851  0.43132998  0.11181467  1
  Ni  Ni210  1  0.68587211  0.23097112  0.26173263  1
  Ni  Ni211  1  0.25461202  0.64844503  0.50522651  1
  Ni  Ni212  1  0.73527849  0.62257066  0.84381141  1
  Ni  Ni213  1  0.57096522  0.82033539  0.86835871  1
  Ni  Ni214  1  0.61346332  0.67478148  -0.05185309  1
