# generated using pymatgen
data_Ti108Co54Ni53
_symmetry_space_group_name_H-M   'P 1'
_cell_length_a   14.59874736
_cell_length_b   14.63024061
_cell_length_c   14.61062914
_cell_angle_alpha   90.06671809
_cell_angle_beta   90.09256146
_cell_angle_gamma   90.29775137
_symmetry_Int_Tables_number   1
_chemical_formula_structural   Ti108Co54Ni53
_chemical_formula_sum   'Ti108 Co54 Ni53'
_cell_volume   3120.53637377
_cell_formula_units_Z   1
loop_
 _symmetry_equiv_pos_site_id
 _symmetry_equiv_pos_as_xyz
  1  'x, y, z'
loop_
 _atom_site_type_symbol
 _atom_site_label
 _atom_site_symmetry_multiplicity
 _atom_site_fract_x
 _atom_site_fract_y
 _atom_site_fract_z
 _atom_site_occupancy
  Ti  Ti0  1  0.06809081  0.14503692  0.26299396  1
  Ti  Ti1  1  0.09574836  0.03002944  0.57889433  1
  Ti  Ti2  1  0.06780078  0.10649576  0.96540299  1
  Ti  Ti3  1  0.04037915  0.45487131  0.20722389  1
  Ti  Ti4  1  0.13643592  0.47041382  0.61751449  1
  Ti  Ti5  1  0.11409378  0.46793891  0.95367984  1
  Ti  Ti6  1  0.12749714  0.79213734  0.22500875  1
  Ti  Ti7  1  0.11169114  0.72636977  0.54108829  1
  Ti  Ti8  1  0.09299436  0.79852575  0.86520095  1
  Ti  Ti9  1  0.39756163  0.12194750  0.25224744  1
  Ti  Ti10  1  0.41624187  0.05103722  0.56418315  1
  Ti  Ti11  1  0.40549779  0.11313556  0.93418697  1
  Ti  Ti12  1  0.38382362  0.43939373  0.25484273  1
  Ti  Ti13  1  0.46004596  0.36384809  0.58798934  1
  Ti  Ti14  1  0.34458570  0.43903113  0.98070028  1
  Ti  Ti15  1  0.46466575  0.74755293  0.24382754  1
  Ti  Ti16  1  0.34456779  0.70619596  0.55150407  1
  Ti  Ti17  1  0.36382965  0.78933338  0.90355823  1
  Ti  Ti18  1  0.70015985  0.07197405  0.20853036  1
  Ti  Ti19  1  0.77107012  0.03470290  0.52440120  1
  Ti  Ti20  1  0.77136885  0.09114973  0.93662431  1
  Ti  Ti21  1  0.71172847  0.35630838  0.21951854  1
  Ti  Ti22  1  0.81001899  0.45442626  0.52600948  1
  Ti  Ti23  1  0.74627025  0.38090828  0.87596436  1
  Ti  Ti24  1  0.74123364  0.82004077  0.26788972  1
  Ti  Ti25  1  0.75092363  0.70667725  0.59183112  1
  Ti  Ti26  1  0.81462113  0.72104902  0.92633550  1
  Ti  Ti27  1  0.20572050  0.23523219  0.10122294  1
  Ti  Ti28  1  0.14590605  0.22135983  0.44226183  1
  Ti  Ti29  1  0.01922292  0.25600742  0.73844745  1
  Ti  Ti30  1  0.09133961  0.64746464  0.09731139  1
  Ti  Ti31  1  0.08455773  0.55614233  0.41703733  1
  Ti  Ti32  1  0.04910071  0.57539554  0.77903892  1
  Ti  Ti33  1  0.09670391  0.88821104  0.05081672  1
  Ti  Ti34  1  0.06344866  0.88933662  0.40386748  1
  Ti  Ti35  1  0.10517557  0.89517162  0.70337211  1
  Ti  Ti36  1  0.39888484  0.30316368  0.12992812  1
  Ti  Ti37  1  0.34828873  0.21479939  0.44504614  1
  Ti  Ti38  1  0.39624346  0.31330196  0.76925533  1
  Ti  Ti39  1  0.49551989  0.56415113  0.11961196  1
  Ti  Ti40  1  0.43683334  0.53069580  0.40859239  1
  Ti  Ti41  1  0.47660922  0.61495161  0.77686921  1
  Ti  Ti42  1  0.40017684  0.84778166  0.08005096  1
  Ti  Ti43  1  0.37834039  0.84526237  0.40545527  1
  Ti  Ti44  1  0.40065786  0.89480500  0.71612815  1
  Ti  Ti45  1  0.79745235  0.27884400  0.03107162  1
  Ti  Ti46  1  0.74308801  0.23809326  0.51035690  1
  Ti  Ti47  1  0.78039142  0.31225753  0.68632712  1
  Ti  Ti48  1  0.79676940  0.54915526  0.12600805  1
  Ti  Ti49  1  0.76180747  0.64178309  0.40261368  1
  Ti  Ti50  1  0.72270268  0.61867521  0.80496725  1
  Ti  Ti51  1  0.81329914  0.94665273  0.10617868  1
  Ti  Ti52  1  0.67668805  0.94668530  0.37529451  1
  Ti  Ti53  1  0.78498052  0.88499587  0.79319486  1
  Ti  Ti54  1  0.18226823  0.05495653  0.10314332  1
  Ti  Ti55  1  0.28856852  0.03242089  0.39284994  1
  Ti  Ti56  1  0.17564438  0.09390150  0.78287063  1
  Ti  Ti57  1  0.21621477  0.43083882  0.13196614  1
  Ti  Ti58  1  0.26134639  0.41307453  0.45164068  1
  Ti  Ti59  1  0.19508782  0.32687837  0.75339441  1
  Ti  Ti60  1  0.28611722  0.69592770  0.12116207  1
  Ti  Ti61  1  0.19823049  0.72331906  0.38581857  1
  Ti  Ti62  1  0.19387621  0.70518231  0.73337653  1
  Ti  Ti63  1  0.55014505  0.11272123  0.08750173  1
  Ti  Ti64  1  0.61539748  0.10615861  0.41579566  1
  Ti  Ti65  1  0.59848870  0.22614261  0.66547062  1
  Ti  Ti66  1  0.58640409  0.37934043  0.00229735  1
  Ti  Ti67  1  0.62556105  0.40941973  0.44685687  1
  Ti  Ti68  1  0.61352622  0.45383676  0.74350585  1
  Ti  Ti69  1  0.64740683  0.68616225  0.16406479  1
  Ti  Ti70  1  0.53117225  0.72002010  0.45797096  1
  Ti  Ti71  1  0.63658604  0.78908061  0.72040411  1
  Ti  Ti72  1  0.98361895  0.02437696  0.12866121  1
  Ti  Ti73  1  0.91305798  0.14786169  0.39991716  1
  Ti  Ti74  1  0.90643269  0.13699066  0.64266844  1
  Ti  Ti75  1  0.91983519  0.42451514  0.05054823  1
  Ti  Ti76  1  0.93616870  0.42611596  0.38154711  1
  Ti  Ti77  1  0.92997226  0.42878573  0.70830808  1
  Ti  Ti78  1  0.84336571  0.73596744  0.10315353  1
  Ti  Ti79  1  0.87479178  0.81869039  0.44499342  1
  Ti  Ti80  1  0.91904693  0.74235651  0.78192826  1
  Ti  Ti81  1  0.25521102  0.28633291  0.28708764  1
  Ti  Ti82  1  0.26741204  0.24766697  0.60437269  1
  Ti  Ti83  1  0.17485237  0.27890116  0.92377610  1
  Ti  Ti84  1  0.25673198  0.57961917  0.28074287  1
  Ti  Ti85  1  0.30702900  0.57381225  0.68357874  1
  Ti  Ti86  1  0.28690277  0.61291025  0.88236798  1
  Ti  Ti87  1  0.28798738  0.94155738  0.20056463  1
  Ti  Ti88  1  0.22556938  0.90771202  0.52080152  1
  Ti  Ti89  1  0.23265361  0.94218156  0.93316256  1
  Ti  Ti90  1  0.56244448  0.22721151  0.25773244  1
  Ti  Ti91  1  0.52717883  0.23634361  0.48431865  1
  Ti  Ti92  1  0.56220124  0.26518764  0.84799156  1
  Ti  Ti93  1  0.64828211  0.52522106  0.26138428  1
  Ti  Ti94  1  0.52468515  0.56203582  0.57728814  1
  Ti  Ti95  1  0.54941571  0.68341069  0.93454036  1
  Ti  Ti96  1  0.57987172  0.90128539  0.18116593  1
  Ti  Ti97  1  0.60556237  0.89377291  0.56293617  1
  Ti  Ti98  1  0.56705693  0.88497830  0.95997954  1
  Ti  Ti99  1  0.87372823  0.21834044  0.20985431  1
  Ti  Ti100  1  0.93433660  0.30676055  0.53232861  1
  Ti  Ti101  1  0.97852578  0.27994540  0.94386298  1
  Ti  Ti102  1  0.91222529  0.58191482  0.29400558  1
  Ti  Ti103  1  0.91915099  0.60444368  0.62843165  1
  Ti  Ti104  1  0.95057276  0.58196783  0.95105230  1
  Ti  Ti105  1  0.93454554  0.87698253  0.26184436  1
  Ti  Ti106  1  0.89658966  0.93519752  0.64158288  1
  Ti  Ti107  1  0.92164619  0.87208119  0.96336202  1
  Co  Co108  1  0.12666122  0.17576846  0.64995581  1
  Co  Co109  1  0.89143112  0.14036921  0.04570386  1
  Co  Co110  1  0.60739096  0.07480770  0.57369681  1
  Co  Co111  1  0.33737767  -0.01010384  0.02706610  1
  Co  Co112  1  0.49681481  0.42157175  0.84972080  1
  Co  Co113  1  0.44847183  0.47517043  0.69940009  1
  Co  Co114  1  0.17949008  0.43974377  0.30331625  1
  Co  Co115  1  0.54239739  0.39195750  0.15704542  1
  Co  Co116  1  0.42164877  0.28247531  0.30204703  1
  Co  Co117  1  0.06468037  0.39782901  0.81638582  1
  Co  Co118  1  0.86277927  0.72045561  0.25959128  1
  Co  Co119  1  0.77090941  0.50937656  0.67860039  1
  Co  Co120  1  -0.04629269  0.57643195  0.13505120  1
  Co  Co121  1  0.45242477  0.09647977  0.40027876  1
  Co  Co122  1  0.49888941  0.59963097  0.28239526  1
  Co  Co123  1  0.22559142  0.57333723  0.02756309  1
  Co  Co124  1  0.24805573  0.09364084  0.54459128  1
  Co  Co125  1  0.52799575  0.75531159  0.07526245  1
  Co  Co126  1  0.42652109  -0.06653490  0.28727495  1
  Co  Co127  1  0.39066874  0.65957725  0.00733821  1
  Co  Co128  1  0.43023860  0.20223211  0.62949168  1
  Co  Co129  1  0.42728765  0.37164009  0.43147812  1
  Co  Co130  1  -0.01756456  0.81205089  0.12979617  1
  Co  Co131  1  0.62853929  0.70177478  0.32141480  1
  Co  Co132  1  0.55936708  0.84160643  0.34440227  1
  Co  Co133  1  0.18992777  0.50010477  0.77961862  1
  Co  Co134  1  0.54327469  0.40806911  0.31196246  1
  Co  Co135  1  0.66728000  0.27522480  0.36710088  1
  Co  Co136  1  -0.01239748  0.01973404  0.32856290  1
  Co  Co137  1  0.67106659  0.78134420  0.88104599  1
  Co  Co138  1  0.66031554  0.22080676  -0.03294187  1
  Co  Co139  1  -0.08291637  0.42784102  0.87873907  1
  Co  Co140  1  0.86289908  0.05536676  0.23153511  1
  Co  Co141  1  -0.08090011  0.01887702  -0.05853707  1
  Co  Co142  1  0.09529384  0.61501970  0.26209053  1
  Co  Co143  1  0.69398654  0.56175155  0.54442393  1
  Co  Co144  1  0.77314428  0.46760640  0.35422505  1
  Co  Co145  1  0.03631355  0.19019929  0.10567805  1
  Co  Co146  1  0.54842906  0.04088033  0.27174022  1
  Co  Co147  1  0.03041252  0.86794782  0.55867918  1
  Co  Co148  1  0.01819897  0.05081857  0.72821428  1
  Co  Co149  1  0.35747160  0.73153444  0.74774638  1
  Co  Co150  1  0.34069324  0.53817811  0.12908170  1
  Co  Co151  1  0.21668859  0.88762141  0.35118091  1
  Co  Co152  1  0.24002057  0.12750780  -0.03760159  1
  Co  Co153  1  0.34200166  0.46785031  0.81887666  1
  Co  Co154  1  0.26470354  0.81626835  0.63443803  1
  Co  Co155  1  0.60182225  0.56722802  0.41335015  1
  Co  Co156  1  0.62540671  0.62799213  0.67878052  1
  Co  Co157  1  0.12870158  0.05273440  0.40979982  1
  Co  Co158  1  0.82498059  0.30349769  0.36677238  1
  Co  Co159  1  0.71573298  -0.03295095  0.66446779  1
  Co  Co160  1  0.08508992  0.31932865  0.59008365  1
  Co  Co161  1  0.87766293  0.57026912  0.79768147  1
  Ni  Ni162  1  0.10562528  0.30537708  0.22264788  1
  Ni  Ni163  1  0.50869260  -0.04229194  0.44631913  1
  Ni  Ni164  1  0.65960027  -0.00369713  0.04943610  1
  Ni  Ni165  1  0.67694313  0.22056393  0.12785768  1
  Ni  Ni166  1  0.22501775  0.58861109  0.50520241  1
  Ni  Ni167  1  0.83860339  0.04685184  0.77387128  1
  Ni  Ni168  1  0.44764555  0.00010969  0.14035892  1
  Ni  Ni169  1  0.63278499  0.52089796  0.90574500  1
  Ni  Ni170  1  0.07853554  -0.02629154  0.87208250  1
  Ni  Ni171  1  0.29867797  0.40846504  0.65884763  1
  Ni  Ni172  1  0.79322220  0.52790050  -0.05146167  1
  Ni  Ni173  1  0.83695746  0.97294773  0.37088542  1
  Ni  Ni174  1  0.76337953  0.13597118  0.34956060  1
  Ni  Ni175  1  -0.04639262  0.14204736  0.84379174  1
  Ni  Ni176  1  0.49512516  0.24181572  0.01089738  1
  Ni  Ni177  1  0.90400978  0.77139288  0.60300883  1
  Ni  Ni178  1  0.11951749  -0.03093532  0.24135807  1
  Ni  Ni179  1  0.69402970  0.65053374  0.00740201  1
  Ni  Ni180  1  0.36259625  0.50540677  0.54809925  1
  Ni  Ni181  1  0.71488190  0.20481870  0.81115549  1
  Ni  Ni182  1  0.65421272  0.38305771  0.60309954  1
  Ni  Ni183  1  0.69531154  0.79700364  0.44992313  1
  Ni  Ni184  1  0.29972204  0.19384735  0.82317616  1
  Ni  Ni185  1  0.09297394  0.38097524  0.43880356  1
  Ni  Ni186  1  0.49416183  0.73390826  0.63853287  1
  Ni  Ni187  1  -0.01273508  0.47383159  0.54047695  1
  Ni  Ni188  1  -0.00140641  0.73174216  -0.01507978  1
  Ni  Ni189  1  0.00991871  0.73017486  0.35550294  1
  Ni  Ni190  1  0.07670878  0.34945819  0.06671635  1
  Ni  Ni191  1  0.94503431  0.00544407  0.49586524  1
  Ni  Ni192  1  0.36588592  0.67534236  0.37761852  1
  Ni  Ni193  1  0.64723121  0.50897424  0.07960857  1
  Ni  Ni194  1  0.92360093  0.62758241  0.46437548  1
  Ni  Ni195  1  0.22833166  0.11517421  0.25905917  1
  Ni  Ni196  1  0.04132510  0.72496298  0.68282837  1
  Ni  Ni197  1  -0.01119331  0.28294584  0.33200086  1
  Ni  Ni198  1  0.50383956  0.80120856  0.81177009  1
  Ni  Ni199  1  0.75308718  0.91066229  -0.04998507  1
  Ni  Ni200  1  0.73975668  0.13333605  0.66207946  1
  Ni  Ni201  1  0.12042690  0.63898399  0.91861841  1
  Ni  Ni202  1  -0.04710820  0.91281067  0.80018445  1
  Ni  Ni203  1  0.86951353  0.41133098  0.21697539  1
  Ni  Ni204  1  0.01881929  0.16118874  0.51988264  1
  Ni  Ni205  1  0.26083403  -0.01218172  0.67719622  1
  Ni  Ni206  1  0.20293758  0.76748552  -0.00303003  1
  Ni  Ni207  1  0.68885333  0.82024187  0.06959879  1
  Ni  Ni208  1  0.33566758  0.26590230  -0.02559161  1
  Ni  Ni209  1  0.30174678  0.78078856  0.26040117  1
  Ni  Ni210  1  0.86427401  0.27452416  0.82204606  1
  Ni  Ni211  1  0.24985929  0.86313117  0.79110037  1
  Ni  Ni212  1  0.42498520  0.86576731  0.55991461  1
  Ni  Ni213  1  0.47774346  0.53337111  -0.04646295  1
  Ni  Ni214  1  0.34559029  0.13755165  0.09732171  1
