# generated using pymatgen
data_Ti108Co54Ni53
_symmetry_space_group_name_H-M   'P 1'
_cell_length_a   14.58355748
_cell_length_b   14.67684669
_cell_length_c   14.67690410
_cell_angle_alpha   89.78543154
_cell_angle_beta   90.09794321
_cell_angle_gamma   89.65097779
_symmetry_Int_Tables_number   1
_chemical_formula_structural   Ti108Co54Ni53
_chemical_formula_sum   'Ti108 Co54 Ni53'
_cell_volume   3141.36888290
_cell_formula_units_Z   1
loop_
 _symmetry_equiv_pos_site_id
 _symmetry_equiv_pos_as_xyz
  1  'x, y, z'
loop_
 _atom_site_type_symbol
 _atom_site_label
 _atom_site_symmetry_multiplicity
 _atom_site_fract_x
 _atom_site_fract_y
 _atom_site_fract_z
 _atom_site_occupancy
  Ti  Ti0  1  0.09725141  0.09600449  0.23083362  1
  Ti  Ti1  1  0.03586561  0.08813650  0.53687497  1
  Ti  Ti2  1  0.07835387  0.06257059  0.98755636  1
  Ti  Ti3  1  0.06223085  0.34679100  0.36223858  1
  Ti  Ti4  1  0.10289484  0.46818606  0.62712318  1
  Ti  Ti5  1  0.07891871  0.33463464  0.91718188  1
  Ti  Ti6  1  0.10222495  0.70662891  0.26622632  1
  Ti  Ti7  1  0.10992324  0.66436092  0.67467031  1
  Ti  Ti8  1  0.08142849  0.77896165  0.94602436  1
  Ti  Ti9  1  0.38384196  0.10661639  0.24031821  1
  Ti  Ti10  1  0.49120176  0.06816575  0.56595611  1
  Ti  Ti11  1  0.44284129  0.15404020  0.88781548  1
  Ti  Ti12  1  0.37192318  0.37998462  0.22795080  1
  Ti  Ti13  1  0.49702932  0.43249502  0.54431906  1
  Ti  Ti14  1  0.52482473  0.35805094  0.94128611  1
  Ti  Ti15  1  0.37801612  0.72970452  0.23455219  1
  Ti  Ti16  1  0.37650474  0.71211119  0.54441600  1
  Ti  Ti17  1  0.46267511  0.74623547  0.85891321  1
  Ti  Ti18  1  0.74584376  0.06037203  0.21951134  1
  Ti  Ti19  1  0.68455783  0.01149634  0.54499074  1
  Ti  Ti20  1  0.77857112  0.15582312  0.91269542  1
  Ti  Ti21  1  0.81614109  0.37743617  0.25732676  1
  Ti  Ti22  1  0.70821054  0.47197079  0.58456140  1
  Ti  Ti23  1  0.72563550  0.48468884  0.96177883  1
  Ti  Ti24  1  0.73050303  0.73163459  0.23561294  1
  Ti  Ti25  1  0.82353429  0.77678154  0.59195227  1
  Ti  Ti26  1  0.70252859  0.71793946  0.88051742  1
  Ti  Ti27  1  0.08016511  0.27742009  0.18904437  1
  Ti  Ti28  1  0.14869092  0.18500727  0.44217023  1
  Ti  Ti29  1  0.13194868  0.20232906  0.80835836  1
  Ti  Ti30  1  0.07190819  0.50612169  0.03469468  1
  Ti  Ti31  1  0.09669729  0.55970615  0.39820295  1
  Ti  Ti32  1  0.06385051  0.49854163  0.81961651  1
  Ti  Ti33  1  0.18641629  0.91409536  0.06692594  1
  Ti  Ti34  1  0.12675996  0.95587192  0.41056481  1
  Ti  Ti35  1  0.09348918  0.86466888  0.70926351  1
  Ti  Ti36  1  0.38994923  0.24867072  0.09511416  1
  Ti  Ti37  1  0.44687894  0.21566805  0.44862867  1
  Ti  Ti38  1  0.35636504  0.24729431  0.73446206  1
  Ti  Ti39  1  0.43118818  0.63197946  0.06763568  1
  Ti  Ti40  1  0.46710432  0.61867097  0.37081536  1
  Ti  Ti41  1  0.36123706  0.58617499  0.79992938  1
  Ti  Ti42  1  0.43512282  0.95788520  0.06047419  1
  Ti  Ti43  1  0.41676224  0.81688500  0.39606217  1
  Ti  Ti44  1  0.45915237  0.94614893  0.76131590  1
  Ti  Ti45  1  0.71373669  0.31166121  0.08399785  1
  Ti  Ti46  1  0.73488050  0.39768157  0.41505984  1
  Ti  Ti47  1  0.72314499  0.29893135  0.75188637  1
  Ti  Ti48  1  0.63568104  0.62833071  0.07513505  1
  Ti  Ti49  1  0.76534237  0.60225809  0.42933490  1
  Ti  Ti50  1  0.67828015  0.56113313  0.75457953  1
  Ti  Ti51  1  0.79370685  0.89995642  0.12328507  1
  Ti  Ti52  1  0.84804297  0.90425925  0.31076501  1
  Ti  Ti53  1  0.74561085  0.89639577  0.73921465  1
  Ti  Ti54  1  0.27548741  0.09676250  0.03914620  1
  Ti  Ti55  1  0.28973820  0.04646746  0.49711387  1
  Ti  Ti56  1  0.18683418  0.07789963  0.66986158  1
  Ti  Ti57  1  0.21745030  0.37054346  0.08104435  1
  Ti  Ti58  1  0.25866020  0.46498223  0.37962984  1
  Ti  Ti59  1  0.30673456  0.44920621  0.64969166  1
  Ti  Ti60  1  0.24742867  0.73320145  0.09012385  1
  Ti  Ti61  1  0.20227495  0.76210739  0.42385500  1
  Ti  Ti62  1  0.24131189  0.74839192  0.79114615  1
  Ti  Ti63  1  0.57457358  0.14527496  0.18314579  1
  Ti  Ti64  1  0.55858868  0.07608864  0.36688886  1
  Ti  Ti65  1  0.60951317  0.02756289  0.84660350  1
  Ti  Ti66  1  0.53604488  0.45891551  0.11610702  1
  Ti  Ti67  1  0.51625248  0.41731186  0.34315045  1
  Ti  Ti68  1  0.49442401  0.45914510  0.74722551  1
  Ti  Ti69  1  0.54906162  0.80462956  0.12887915  1
  Ti  Ti70  1  0.68756160  0.81640603  0.41035163  1
  Ti  Ti71  1  0.59502213  0.76976569  0.68491377  1
  Ti  Ti72  1  0.89051735  0.03590664  0.01392877  1
  Ti  Ti73  1  0.85266371  0.06752409  0.43083488  1
  Ti  Ti74  1  0.91034411  0.04142470  0.80614233  1
  Ti  Ti75  1  0.87774293  0.45626997  0.09071774  1
  Ti  Ti76  1  0.92190395  0.48637569  0.36172585  1
  Ti  Ti77  1  0.91005177  0.42091904  0.69604064  1
  Ti  Ti78  1  0.91284000  0.75308781  0.06055082  1
  Ti  Ti79  1  0.99652585  0.80410273  0.39992313  1
  Ti  Ti80  1  0.95713076  0.73627490  0.78872554  1
  Ti  Ti81  1  0.27027745  0.26257997  0.33139878  1
  Ti  Ti82  1  0.18752175  0.27228259  0.62211433  1
  Ti  Ti83  1  0.27094461  0.25478389  0.91799942  1
  Ti  Ti84  1  0.25452009  0.56261225  0.20820230  1
  Ti  Ti85  1  0.22827269  0.58886742  0.53195229  1
  Ti  Ti86  1  0.24566166  0.46798982  0.91308570  1
  Ti  Ti87  1  0.29467567  0.92841535  0.31860856  1
  Ti  Ti88  1  0.29093622  0.89723667  0.66720416  1
  Ti  Ti89  1  0.20802629  0.95401550  0.86238036  1
  Ti  Ti90  1  0.62461572  0.24914986  0.34914767  1
  Ti  Ti91  1  0.53755470  0.24066500  0.63071370  1
  Ti  Ti92  1  0.60363941  0.17726558  1.00028487  1
  Ti  Ti93  1  0.64713732  0.53950601  0.27078386  1
  Ti  Ti94  1  0.56965740  0.62026340  0.55296274  1
  Ti  Ti95  1  0.55269995  0.57237738  0.90754717  1
  Ti  Ti96  1  0.48947010  0.94072810  0.24987442  1
  Ti  Ti97  1  0.47234466  0.88720550  0.57027353  1
  Ti  Ti98  1  0.64874414  0.90131605  0.98869641  1
  Ti  Ti99  1  0.91027744  0.19292819  0.26301146  1
  Ti  Ti100  1  0.99797862  0.28907435  0.55733902  1
  Ti  Ti101  1  0.88431442  0.29889016  0.96303694  1
  Ti  Ti102  1  0.95462557  0.60230421  0.19041044  1
  Ti  Ti103  1  0.92701896  0.59375360  0.54814348  1
  Ti  Ti104  1  0.85853866  0.58137445  0.84750357  1
  Ti  Ti105  1  1.02683425  0.91476869  0.21617325  1
  Ti  Ti106  1  0.95362834  0.92109921  0.55306828  1
  Ti  Ti107  1  0.85812915  0.85244208  0.90857954  1
  Co  Co108  1  0.02189745  0.35115315  0.05959911  1
  Co  Co109  1  0.21610370  0.77296375  0.59526167  1
  Co  Co110  1  0.51050000  0.29586351  0.78884442  1
  Co  Co111  1  0.14991817  -0.04745620  0.57231041  1
  Co  Co112  1  0.40300315  0.77060622  0.70095328  1
  Co  Co113  1  0.80787948  0.55602713  0.26930781  1
  Co  Co114  1  0.61085624  0.50732587  0.44041733  1
  Co  Co115  1  0.40120447  0.79097464  0.02402188  1
  Co  Co116  1  0.81035302  -0.09346019  0.48082364  1
  Co  Co117  1  -0.10318034  0.33235546  0.41634642  1
  Co  Co118  1  0.29613489  0.64128319  0.36951060  1
  Co  Co119  1  0.34707768  0.86276249  0.84128404  1
  Co  Co120  1  0.24231150  0.56800226  0.04262368  1
  Co  Co121  1  0.79462989  0.72230795  0.74992930  1
  Co  Co122  1  0.45784099  0.24619557  0.28407731  1
  Co  Co123  1  -0.01636912  0.41266010  0.21565299  1
  Co  Co124  1  0.85783717  0.43500877  0.53647698  1
  Co  Co125  1  -0.05899455  0.45094385  0.93028545  1
  Co  Co126  1  0.01301617  0.63032093  -0.10035591  1
  Co  Co127  1  0.88889679  0.29567232  0.13722994  1
  Co  Co128  1  -0.02992054  0.16215526  0.90679356  1
  Co  Co129  1  0.81890391  0.16267980  0.09104943  1
  Co  Co130  1  0.07442875  0.81565892  0.54111621  1
  Co  Co131  1  0.61280180  0.38031653  0.67153199  1
  Co  Co132  1  0.59797018  -0.03743909  0.68023135  1
  Co  Co133  1  0.53543103  0.29767399  0.12682809  1
  Co  Co134  1  0.36796968  0.35944582  -0.01883504  1
  Co  Co135  1  0.63510747  0.42045339  0.83051173  1
  Co  Co136  1  -0.02441031  0.58445610  0.71404055  1
  Co  Co137  1  0.06850252  0.66451918  0.51292104  1
  Co  Co138  1  0.59441943  -0.01133386  0.13094550  1
  Co  Co139  1  0.36610176  0.39376517  0.81968534  1
  Co  Co140  1  0.46183409  0.11153034  0.05901814  1
  Co  Co141  1  0.41307483  0.00318589  0.40491028  1
  Co  Co142  1  0.43337328  0.53992887  0.23173889  1
  Co  Co143  1  0.62427095  0.66364234  0.37347509  1
  Co  Co144  1  0.70950210  0.30841887  -0.07718362  1
  Co  Co145  1  0.49319642  -0.10078989  0.92145204  1
  Co  Co146  1  0.09195365  0.52541671  0.24399857  1
  Co  Co147  1  0.20867986  0.53527446  0.75005128  1
  Co  Co148  1  0.62005309  0.16457699  0.49424435  1
  Co  Co149  1  0.82385734  0.55458323  0.67814764  1
  Co  Co150  1  0.03801401  0.17017294  0.67978837  1
  Co  Co151  1  0.33353589  0.66420638  -0.05957914  1
  Co  Co152  1  0.50381303  0.11757768  0.73928503  1
  Co  Co153  1  0.60925569  0.32993947  0.49646084  1
  Co  Co154  1  0.54388365  0.76160490  0.48628496  1
  Co  Co155  1  0.54609893  0.65801309  0.20864439  1
  Co  Co156  1  0.57015042  0.75081076  -0.02200371  1
  Co  Co157  1  0.41758413  0.50872520  -0.05754078  1
  Co  Co158  1  0.28476769  0.65007258  0.66853020  1
  Co  Co159  1  0.24415708  0.80477903  -0.05396407  1
  Co  Co160  1  0.61277282  0.85115989  0.82532512  1
  Co  Co161  1  0.66458250  0.85279214  0.56940785  1
  Ni  Ni162  1  0.08066732  0.05357440  0.81805679  1
  Ni  Ni163  1  0.55146165  0.79125656  0.30215350  1
  Ni  Ni164  1  0.33801229  0.87357703  0.16215543  1
  Ni  Ni165  1  0.16533597  0.37345314  0.49348994  1
  Ni  Ni166  1  0.37988917  0.53123530  0.47764291  1
  Ni  Ni167  1  0.07219530  0.78969531  0.11929118  1
  Ni  Ni168  1  0.92827768  0.77301326  0.23137803  1
  Ni  Ni169  1  0.36092116  0.05344760  0.67516974  1
  Ni  Ni170  1  0.17779270  0.63019830  0.89733292  1
  Ni  Ni171  1  0.64331534  0.36972938  0.23372945  1
  Ni  Ni172  1  -0.02116154  0.19104223  0.41300260  1
  Ni  Ni173  1  0.79581521  0.62905607  0.12225116  1
  Ni  Ni174  1  0.05123073  0.33118117  0.72329126  1
  Ni  Ni175  1  0.76682498  -0.01286236  0.89259259  1
  Ni  Ni176  1  0.42315731  0.57210828  0.63088686  1
  Ni  Ni177  1  0.23696508  0.01459670  0.18561195  1
  Ni  Ni178  1  0.32464623  0.17816895  0.57761738  1
  Ni  Ni179  1  0.71455739  0.05188035  0.03953514  1
  Ni  Ni180  1  0.11161658  0.63582323  0.11418506  1
  Ni  Ni181  1  0.38243272  0.36540301  0.41885386  1
  Ni  Ni182  1  0.20516666  0.36155116  0.77720371  1
  Ni  Ni183  1  0.80514936  0.41780117  0.83255764  1
  Ni  Ni184  1  0.62306364  0.19182025  0.83220765  1
  Ni  Ni185  1  0.27843240  0.10678772  0.81875411  1
  Ni  Ni186  1  0.55907042  -0.07788111  0.42713337  1
  Ni  Ni187  1  0.19226121  0.39437803  0.24339377  1
  Ni  Ni188  1  0.90827980  0.59556773  0.01037161  1
  Ni  Ni189  1  0.36363548  0.00811453  -0.08022862  1
  Ni  Ni190  1  0.29686212  0.88188363  0.49522837  1
  Ni  Ni191  1  0.91149878  0.87928748  0.72131410  1
  Ni  Ni192  1  -0.01445357  0.17135723  0.08198680  1
  Ni  Ni193  1  0.91573700  0.04015502  0.19087979  1
  Ni  Ni194  1  0.14272443  0.21497811  0.03749343  1
  Ni  Ni195  1  0.36272735  0.47407702  0.09387834  1
  Ni  Ni196  1  0.23740449  0.19132853  0.18107230  1
  Ni  Ni197  1  0.01225874  0.44309133  0.49547770  1
  Ni  Ni198  1  0.52311544  0.63333320  0.74401873  1
  Ni  Ni199  1  0.71964952  0.65392387  0.60802246  1
  Ni  Ni200  1  0.71742948  0.48046394  0.13312065  1
  Ni  Ni201  1  0.78836107  0.21305141  0.38528873  1
  Ni  Ni202  1  0.23816154  0.09000827  0.33340360  1
  Ni  Ni203  1  0.01391177  0.91007292  0.86017772  1
  Ni  Ni204  1  0.70874899  -0.00641109  0.37655633  1
  Ni  Ni205  1  -0.05377731  0.65074836  0.35339155  1
  Ni  Ni206  1  0.67320301  0.89757801  0.24770500  1
  Ni  Ni207  1  0.18647805  0.84553123  0.23012393  1
  Ni  Ni208  1  0.74209559  0.22625439  0.22500072  1
  Ni  Ni209  1  0.01553437  0.00644399  0.68101608  1
  Ni  Ni210  1  0.38397820  0.32147086  0.58106184  1
  Ni  Ni211  1  0.84250160  0.75157621  0.42298255  1
  Ni  Ni212  1  -0.00820622  0.02985472  0.35076478  1
  Ni  Ni213  1  0.73618714  0.76413958  0.04284221  1
  Ni  Ni214  1  -0.00142808  -0.09007838  0.03128759  1
