# generated using pymatgen
data_Ti108Co54Ni53
_symmetry_space_group_name_H-M   'P 1'
_cell_length_a   14.68830433
_cell_length_b   14.60645398
_cell_length_c   14.63049093
_cell_angle_alpha   90.29383055
_cell_angle_beta   90.36831384
_cell_angle_gamma   89.88888656
_symmetry_Int_Tables_number   1
_chemical_formula_structural   Ti108Co54Ni53
_chemical_formula_sum   'Ti108 Co54 Ni53'
_cell_volume   3138.77281855
_cell_formula_units_Z   1
loop_
 _symmetry_equiv_pos_site_id
 _symmetry_equiv_pos_as_xyz
  1  'x, y, z'
loop_
 _atom_site_type_symbol
 _atom_site_label
 _atom_site_symmetry_multiplicity
 _atom_site_fract_x
 _atom_site_fract_y
 _atom_site_fract_z
 _atom_site_occupancy
  Ti  Ti0  1  0.12454088  0.07961177  0.18214210  1
  Ti  Ti1  1  0.07129606  0.05424659  0.56752072  1
  Ti  Ti2  1  0.05279869  0.14061256  0.82694688  1
  Ti  Ti3  1  0.14755647  0.41251423  0.23738236  1
  Ti  Ti4  1  0.08300576  0.40125846  0.54927893  1
  Ti  Ti5  1  0.12926223  0.46422382  0.90755333  1
  Ti  Ti6  1  0.05658656  0.72784598  0.24240398  1
  Ti  Ti7  1  0.05730347  0.78795898  0.53151606  1
  Ti  Ti8  1  0.04147712  0.77972762  0.90267051  1
  Ti  Ti9  1  0.41377938  0.00843087  0.32644470  1
  Ti  Ti10  1  0.40931812  0.00552303  0.52854256  1
  Ti  Ti11  1  0.42950227  0.05681353  0.82852363  1
  Ti  Ti12  1  0.45185476  0.46373056  0.19340612  1
  Ti  Ti13  1  0.37201550  0.38991788  0.56438675  1
  Ti  Ti14  1  0.42727995  0.47422659  0.98747321  1
  Ti  Ti15  1  0.36122190  0.79163150  0.23526368  1
  Ti  Ti16  1  0.34720923  0.75469637  0.56010345  1
  Ti  Ti17  1  0.47147947  0.72625131  0.84338358  1
  Ti  Ti18  1  0.74402717  0.08011598  0.30726015  1
  Ti  Ti19  1  0.80325928  0.10484978  0.59848622  1
  Ti  Ti20  1  0.78061302  0.13872094  1.00746949  1
  Ti  Ti21  1  0.80105778  0.47004576  0.24260944  1
  Ti  Ti22  1  0.82267117  0.45113517  0.56816847  1
  Ti  Ti23  1  0.69862742  0.39723635  0.99814320  1
  Ti  Ti24  1  0.69458583  0.76472584  0.18197593  1
  Ti  Ti25  1  0.76747503  0.77635872  0.62570219  1
  Ti  Ti26  1  0.69615977  0.85700051  0.96467135  1
  Ti  Ti27  1  0.07253516  0.30029578  0.07943967  1
  Ti  Ti28  1  0.04523571  0.28202603  0.39352723  1
  Ti  Ti29  1  0.12778498  0.25801694  0.68297153  1
  Ti  Ti30  1  0.08834612  0.59618419  0.09749820  1
  Ti  Ti31  1  0.11915814  0.59188144  0.46872150  1
  Ti  Ti32  1  0.07639662  0.58767605  0.78376591  1
  Ti  Ti33  1  0.05198246  0.91985943  0.03882696  1
  Ti  Ti34  1  0.13731161  0.93077701  0.42151337  1
  Ti  Ti35  1  0.08149259  0.96143686  0.73057948  1
  Ti  Ti36  1  0.39042610  0.24494524  0.09446209  1
  Ti  Ti37  1  0.40737950  0.28265561  0.39346894  1
  Ti  Ti38  1  0.30248229  0.23380932  0.79087945  1
  Ti  Ti39  1  0.39635546  0.63550455  0.12145163  1
  Ti  Ti40  1  0.50400191  0.63268823  0.42322215  1
  Ti  Ti41  1  0.34576033  0.56113341  0.83597733  1
  Ti  Ti42  1  0.46003983  0.99918569  0.12560899  1
  Ti  Ti43  1  0.42689902  0.81718281  0.40213473  1
  Ti  Ti44  1  0.36034552  0.87171846  0.75618021  1
  Ti  Ti45  1  0.79935464  0.24418500  0.18496615  1
  Ti  Ti46  1  0.81783947  0.26850418  0.37948261  1
  Ti  Ti47  1  0.69512274  0.31399059  0.81850099  1
  Ti  Ti48  1  0.73411735  0.57003847  0.06229247  1
  Ti  Ti49  1  0.69795554  0.51886243  0.40708367  1
  Ti  Ti50  1  0.69431506  0.54045993  0.69291099  1
  Ti  Ti51  1  0.81565279  0.89357604  0.12389338  1
  Ti  Ti52  1  0.72109934  0.87315716  0.34899174  1
  Ti  Ti53  1  0.80603184  0.85204639  0.78398131  1
  Ti  Ti54  1  0.28871700  0.08047685  0.07639184  1
  Ti  Ti55  1  0.15116530  0.11506690  0.38898998  1
  Ti  Ti56  1  0.22926123  0.04316600  0.85334260  1
  Ti  Ti57  1  0.28493395  0.36578440  -0.04352822  1
  Ti  Ti58  1  0.23122290  0.42900096  0.41670306  1
  Ti  Ti59  1  0.24110935  0.42662632  0.72679673  1
  Ti  Ti60  1  0.26273362  0.78074621  0.05585930  1
  Ti  Ti61  1  0.19628907  0.74830311  0.38662167  1
  Ti  Ti62  1  0.22826414  0.70566298  0.74946201  1
  Ti  Ti63  1  0.63837877  0.03704688  0.07145045  1
  Ti  Ti64  1  0.61430027  0.03365119  0.43878181  1
  Ti  Ti65  1  0.63435019  0.05897584  0.74208234  1
  Ti  Ti66  1  0.53494896  0.34990341  0.06348423  1
  Ti  Ti67  1  0.53380796  0.43315954  0.36911884  1
  Ti  Ti68  1  0.54772733  0.40372315  0.70647282  1
  Ti  Ti69  1  0.57853025  0.70240161  0.02192414  1
  Ti  Ti70  1  0.66711350  0.73477870  0.47557445  1
  Ti  Ti71  1  0.63790654  0.74831886  0.78800669  1
  Ti  Ti72  1  0.93672058  0.04227557  0.11857034  1
  Ti  Ti73  1  0.93230305  0.11468956  0.44300506  1
  Ti  Ti74  1  0.87211143  0.04583382  0.78224215  1
  Ti  Ti75  1  0.96070999  0.44191720  0.01549100  1
  Ti  Ti76  1  0.90925916  0.42839310  0.41016853  1
  Ti  Ti77  1  0.85891908  0.39498523  0.74717570  1
  Ti  Ti78  1  0.93267419  0.73447218  0.08107765  1
  Ti  Ti79  1  0.87392006  0.80190964  0.44306313  1
  Ti  Ti80  1  0.93199053  0.70418269  0.77109380  1
  Ti  Ti81  1  0.27971460  0.18692430  0.25826340  1
  Ti  Ti82  1  0.29299946  0.18011630  0.56968665  1
  Ti  Ti83  1  0.18533426  0.21166105  0.96432912  1
  Ti  Ti84  1  0.28698178  0.55528744  0.26935099  1
  Ti  Ti85  1  0.29605372  0.56600132  0.56823839  1
  Ti  Ti86  1  0.25723369  0.57381729  1.01415758  1
  Ti  Ti87  1  0.16475274  0.88372069  0.21520203  1
  Ti  Ti88  1  0.21815283  0.88873133  0.62002489  1
  Ti  Ti89  1  0.19704227  0.86377395  0.87383588  1
  Ti  Ti90  1  0.60581694  0.21567612  0.31713446  1
  Ti  Ti91  1  0.62380922  0.26469806  0.52113564  1
  Ti  Ti92  1  0.57742001  0.20031436  0.94718120  1
  Ti  Ti93  1  0.62267774  0.58449993  0.23147355  1
  Ti  Ti94  1  0.52190430  0.55788169  0.58090581  1
  Ti  Ti95  1  0.57510429  0.54603661  0.89354989  1
  Ti  Ti96  1  0.54784532  0.88822980  0.25872998  1
  Ti  Ti97  1  0.59189901  0.88340422  0.62496354  1
  Ti  Ti98  1  0.50313537  0.90758445  0.93851440  1
  Ti  Ti99  1  0.95264097  0.33179310  0.23999112  1
  Ti  Ti100  1  0.94757772  0.26625276  0.58368551  1
  Ti  Ti101  1  0.87642323  0.22928871  0.87121364  1
  Ti  Ti102  1  0.95428897  0.58082599  0.27119426  1
  Ti  Ti103  1  0.88721339  0.64779949  0.56885776  1
  Ti  Ti104  1  0.84944999  0.56398705  0.89561887  1
  Ti  Ti105  1  0.89266614  0.95670478  0.30075472  1
  Ti  Ti106  1  0.90345233  0.94552904  0.60915047  1
  Ti  Ti107  1  0.88949081  0.90658465  0.94412736  1
  Co  Co108  1  0.34827793  -0.03733994  -0.03985401  1
  Co  Co109  1  0.83705603  0.38401251  0.91902707  1
  Co  Co110  1  0.02093542  0.83400609  0.35313417  1
  Co  Co111  1  0.71427327  0.47988059  0.84254796  1
  Co  Co112  1  0.33295539  0.12356392  0.41095219  1
  Co  Co113  1  -0.00048867  0.67805458  0.40379518  1
  Co  Co114  1  0.68954566  -0.05253091  0.20702558  1
  Co  Co115  1  0.66231086  0.91468624  0.80972805  1
  Co  Co116  1  0.90194664  0.57504623  0.08619942  1
  Co  Co117  1  0.77921118  0.73440290  0.04314840  1
  Co  Co118  1  0.82552962  0.40665730  0.10538729  1
  Co  Co119  1  0.10672215  0.76825961  0.07577830  1
  Co  Co120  1  0.62388222  0.68929829  0.63706952  1
  Co  Co121  1  0.09726309  0.79359864  0.72345667  1
  Co  Co122  1  0.31941597  0.93564931  0.17319793  1
  Co  Co123  1  0.58808089  0.86981267  0.08965574  1
  Co  Co124  1  0.53033286  0.59285242  0.74473374  1
  Co  Co125  1  0.22807562  0.33485522  0.56855903  1
  Co  Co126  1  -0.02304782  0.27681654  0.75064089  1
  Co  Co127  1  0.51346745  0.37840283  0.51786211  1
  Co  Co128  1  0.13090906  0.58741505  0.29970879  1
  Co  Co129  1  0.74498690  -0.04180831  0.66718771  1
  Co  Co130  1  0.64828852  0.45175265  0.54601850  1
  Co  Co131  1  0.42484830  0.27863538  -0.06418110  1
  Co  Co132  1  -0.01729847  0.52540503  0.52913228  1
  Co  Co133  1  -0.02774451  0.12619090  0.67186851  1
  Co  Co134  1  -0.02739867  0.46350499  0.85046091  1
  Co  Co135  1  0.72868380  0.60103861  0.54378058  1
  Co  Co136  1  0.70549909  0.35663078  0.66315311  1
  Co  Co137  1  0.57349065  0.05795874  0.26090018  1
  Co  Co138  1  0.48952225  0.77146048  0.69049893  1
  Co  Co139  1  0.56196223  0.53161722  0.07545409  1
  Co  Co140  1  0.41610126  0.64891213  -0.02971242  1
  Co  Co141  1  0.49554418  0.14103824  0.43149416  1
  Co  Co142  1  0.76598594  0.00516080  0.90447438  1
  Co  Co143  1  0.33134890  0.15134465  0.93371408  1
  Co  Co144  1  0.72374402  0.89386133  0.51779663  1
  Co  Co145  1  0.81051283  -0.00167779  0.44495276  1
  Co  Co146  1  0.06144395  0.45447726  0.37333829  1
  Co  Co147  1  0.14639462  0.44439227  0.07029844  1
  Co  Co148  1  0.46379418  0.09116091  -0.00338718  1
  Co  Co149  1  0.23982845  0.03458280  0.52886675  1
  Co  Co150  1  -0.03804299  0.87967929  0.79254799  1
  Co  Co151  1  0.18771985  0.70605326  0.59068133  1
  Co  Co152  1  0.51414571  -0.08451884  0.77253390  1
  Co  Co153  1  0.79123722  0.06485577  0.15838684  1
  Co  Co154  1  0.04623470  0.00366853  0.30118228  1
  Co  Co155  1  0.94043285  0.79973450  0.64090365  1
  Co  Co156  1  0.59680009  0.03749325  -0.09874588  1
  Co  Co157  1  -0.00199465  0.46078709  0.17306609  1
  Co  Co158  1  0.50906454  0.74991571  0.53665526  1
  Co  Co159  1  0.03806631  0.65850338  0.63858777  1
  Co  Co160  1  0.05659049  -0.01978278  0.88904413  1
  Co  Co161  1  0.78049538  0.65814866  0.76017314  1
  Ni  Ni162  1  -0.01034923  0.87887877  0.18754254  1
  Ni  Ni163  1  0.80775982  0.64207822  0.19639196  1
  Ni  Ni164  1  0.38640751  0.50472973  0.41940185  1
  Ni  Ni165  1  0.18096295  0.10222483  0.69039615  1
  Ni  Ni166  1  0.33858087  0.66804636  0.38502965  1
  Ni  Ni167  1  0.05818884  0.42025623  0.71993574  1
  Ni  Ni168  1  0.22170827  0.70080805  0.20541829  1
  Ni  Ni169  1  -0.01156003  0.18763639  0.15355920  1
  Ni  Ni170  1  0.38056309  0.65558106  0.69600055  1
  Ni  Ni171  1  0.34240874  0.79462782  0.91242132  1
  Ni  Ni172  1  0.42580024  0.82069344  0.06509925  1
  Ni  Ni173  1  0.20630147  -0.05760116  0.04632811  1
  Ni  Ni174  1  0.67453181  0.25489581  0.08453665  1
  Ni  Ni175  1  0.08042835  0.09651922  0.01723995  1
  Ni  Ni176  1  0.89728684  0.27300569  0.03945507  1
  Ni  Ni177  1  0.24691273  0.00188830  0.30665203  1
  Ni  Ni178  1  0.45760435  0.61576589  0.27325542  1
  Ni  Ni179  1  0.54167956  0.17351583  0.13297977  1
  Ni  Ni180  1  0.56541416  -0.11881704  0.45081854  1
  Ni  Ni181  1  0.79214673  0.28248806  0.54667437  1
  Ni  Ni182  1  0.23342166  0.26249717  0.41327803  1
  Ni  Ni183  1  0.70934698  0.66263016  -0.08806649  1
  Ni  Ni184  1  0.52152914  0.73687833  0.17492753  1
  Ni  Ni185  1  0.39596935  0.38928185  0.81612386  1
  Ni  Ni186  1  0.11247918  0.21088215  0.52622833  1
  Ni  Ni187  1  0.29631728  0.89461393  0.46001536  1
  Ni  Ni188  1  0.14302168  0.53716266  0.63407502  1
  Ni  Ni189  1  -0.02694327  0.95109000  0.45790879  1
  Ni  Ni190  1  0.71843051  0.15211335  0.84774498  1
  Ni  Ni191  1  0.87473256  0.78259226  0.26597630  1
  Ni  Ni192  1  0.30405504  0.44780469  0.11967858  1
  Ni  Ni193  1  0.01854563  0.30431154  -0.08288570  1
  Ni  Ni194  1  0.00826300  0.61313578  -0.05326900  1
  Ni  Ni195  1  0.74834157  0.69139528  0.33730920  1
  Ni  Ni196  1  0.81120958  0.22414884  0.71234722  1
  Ni  Ni197  1  0.73457868  0.15218082  0.45756747  1
  Ni  Ni198  1  0.55184818  0.37408467  0.88240478  1
  Ni  Ni199  1  0.64879878  0.42110108  0.17355203  1
  Ni  Ni200  1  0.44394671  0.16270286  0.26758546  1
  Ni  Ni201  1  0.91250957  0.14138856  0.28382445  1
  Ni  Ni202  1  0.31946339  0.36268660  0.26666635  1
  Ni  Ni203  1  0.23278168  0.29168537  0.12626009  1
  Ni  Ni204  1  0.69175634  0.36680931  0.32305325  1
  Ni  Ni205  1  0.58717356  0.73780005  0.32371303  1
  Ni  Ni206  1  0.17124402  0.67322931  0.91512253  1
  Ni  Ni207  1  0.92594831  0.54020912  0.69925630  1
  Ni  Ni208  1  0.85303968  0.58615496  0.41745641  1
  Ni  Ni209  1  0.50183987  0.31421780  0.23450512  1
  Ni  Ni210  1  0.15507935  0.31748656  0.83184783  1
  Ni  Ni211  1  -0.07087635  0.07520755  -0.05321108  1
  Ni  Ni212  1  0.40223665  0.49538371  0.69099518  1
  Ni  Ni213  1  0.31947827  0.02116595  0.68670945  1
  Ni  Ni214  1  0.11887765  0.24071816  0.25016120  1
