# generated using pymatgen
data_Ti108Co54Ni53
_symmetry_space_group_name_H-M   'P 1'
_cell_length_a   14.66236960
_cell_length_b   14.73055202
_cell_length_c   14.66980414
_cell_angle_alpha   90.14451843
_cell_angle_beta   90.18178266
_cell_angle_gamma   90.30165414
_symmetry_Int_Tables_number   1
_chemical_formula_structural   Ti108Co54Ni53
_chemical_formula_sum   'Ti108 Co54 Ni53'
_cell_volume   3168.38461246
_cell_formula_units_Z   1
loop_
 _symmetry_equiv_pos_site_id
 _symmetry_equiv_pos_as_xyz
  1  'x, y, z'
loop_
 _atom_site_type_symbol
 _atom_site_label
 _atom_site_symmetry_multiplicity
 _atom_site_fract_x
 _atom_site_fract_y
 _atom_site_fract_z
 _atom_site_occupancy
  Ti  Ti0  1  0.14741669  0.08597705  0.32724729  1
  Ti  Ti1  1  0.12618995  0.03509129  0.57459305  1
  Ti  Ti2  1  0.02699795  0.08334849  0.87810707  1
  Ti  Ti3  1  0.10681155  0.43584159  0.21897216  1
  Ti  Ti4  1  0.05995923  0.42758815  0.66239065  1
  Ti  Ti5  1  0.04330265  0.41483866  0.87784916  1
  Ti  Ti6  1  0.06301347  0.76829815  0.27956210  1
  Ti  Ti7  1  0.12458712  0.71542725  0.60564695  1
  Ti  Ti8  1  0.05973473  0.76659983  0.93694235  1
  Ti  Ti9  1  0.32937042  0.11347599  0.27509075  1
  Ti  Ti10  1  0.44874980  0.09028461  0.56210856  1
  Ti  Ti11  1  0.42573609  0.13272010  0.96403275  1
  Ti  Ti12  1  0.38711330  0.42376000  0.23843428  1
  Ti  Ti13  1  0.43229743  0.39171250  0.54419376  1
  Ti  Ti14  1  0.39881719  0.46155516  0.87383170  1
  Ti  Ti15  1  0.47176976  0.82625286  0.23908342  1
  Ti  Ti16  1  0.35295650  0.73800278  0.58879715  1
  Ti  Ti17  1  0.37636040  0.74708277  0.92453089  1
  Ti  Ti18  1  0.74212187  0.07516278  0.25076011  1
  Ti  Ti19  1  0.74617943  0.09106994  0.50851918  1
  Ti  Ti20  1  0.69688240  0.03175952  0.84423454  1
  Ti  Ti21  1  0.67450924  0.43074947  0.19327966  1
  Ti  Ti22  1  0.76225540  0.45429563  0.54114415  1
  Ti  Ti23  1  0.72005386  0.45645167  0.98328851  1
  Ti  Ti24  1  0.79999837  0.78565795  0.20696537  1
  Ti  Ti25  1  0.76813052  0.76489382  0.55248120  1
  Ti  Ti26  1  0.78272894  0.73293351  0.87943399  1
  Ti  Ti27  1  0.17869833  0.26065929  0.05270479  1
  Ti  Ti28  1  0.03424919  0.25730391  0.39419881  1
  Ti  Ti29  1  0.11993494  0.26550860  0.77696544  1
  Ti  Ti30  1  0.06674780  0.57666487  0.05147121  1
  Ti  Ti31  1  0.07164105  0.64520387  0.42729647  1
  Ti  Ti32  1  0.08542735  0.61064619  0.80837384  1
  Ti  Ti33  1  0.11975450  0.88241920  0.10296496  1
  Ti  Ti34  1  0.04933646  0.84563028  0.46830889  1
  Ti  Ti35  1  0.04939873  0.93779727  0.72380827  1
  Ti  Ti36  1  0.37368538  0.25800943  0.10977960  1
  Ti  Ti37  1  0.37645463  0.26854161  0.38516060  1
  Ti  Ti38  1  0.48080993  0.29847740  0.80268624  1
  Ti  Ti39  1  0.44660745  0.54385962  0.07890704  1
  Ti  Ti40  1  0.41705625  0.60847832  0.41714583  1
  Ti  Ti41  1  0.43511807  0.61463677  0.72424645  1
  Ti  Ti42  1  0.41576713  1.00467306  0.14662414  1
  Ti  Ti43  1  0.43277526  0.94320159  0.40820961  1
  Ti  Ti44  1  0.45018729  0.97226667  0.72417130  1
  Ti  Ti45  1  0.73580345  0.28830911  0.06091719  1
  Ti  Ti46  1  0.69708292  0.28514914  0.48739213  1
  Ti  Ti47  1  0.80583689  0.18935846  0.78496763  1
  Ti  Ti48  1  0.80165779  0.56974774  0.14972744  1
  Ti  Ti49  1  0.69326913  0.50138750  0.37576029  1
  Ti  Ti50  1  0.77259217  0.55521620  0.80210080  1
  Ti  Ti51  1  0.68426993  0.82709722  0.03308437  1
  Ti  Ti52  1  0.72493233  0.93810461  0.39506099  1
  Ti  Ti53  1  0.73742280  0.85655759  0.73189408  1
  Ti  Ti54  1  0.24967309  0.00745283  0.00437017  1
  Ti  Ti55  1  0.28454070  0.08714611  0.46209042  1
  Ti  Ti56  1  0.27772723  0.06693879  0.80905040  1
  Ti  Ti57  1  0.25460438  0.54875821  0.13039247  1
  Ti  Ti58  1  0.24923087  0.44947098  0.47765208  1
  Ti  Ti59  1  0.30758125  0.38959528  0.70303606  1
  Ti  Ti60  1  0.22137386  0.71856461  0.04839832  1
  Ti  Ti61  1  0.24309030  0.78847918  0.42271746  1
  Ti  Ti62  1  0.17457922  0.81403812  0.77560265  1
  Ti  Ti63  1  0.58717639  0.02142515  0.02421716  1
  Ti  Ti64  1  0.58908725  0.13593147  0.39368096  1
  Ti  Ti65  1  0.57945166  0.14439668  0.72558353  1
  Ti  Ti66  1  0.53468169  0.37360679  0.09302808  1
  Ti  Ti67  1  0.54853536  0.35708575  0.36870714  1
  Ti  Ti68  1  0.60528722  0.44999834  0.80835151  1
  Ti  Ti69  1  0.51962380  0.72071028  0.07090109  1
  Ti  Ti70  1  0.60649567  0.68458375  0.41023346  1
  Ti  Ti71  1  0.56348553  0.76865819  0.66296890  1
  Ti  Ti72  1  0.78401702  0.00664014  0.03900304  1
  Ti  Ti73  1  0.90305203  0.11720589  0.39354039  1
  Ti  Ti74  1  0.86822763  0.01199881  0.74021793  1
  Ti  Ti75  1  0.99057073  0.35419102  0.09199224  1
  Ti  Ti76  1  0.96574924  0.43129432  0.47746305  1
  Ti  Ti77  1  0.78128427  0.37607983  0.72534930  1
  Ti  Ti78  1  0.90227289  0.70975599  0.04670735  1
  Ti  Ti79  1  0.88908769  0.73940978  0.38873736  1
  Ti  Ti80  1  0.88422006  0.68579796  0.71209488  1
  Ti  Ti81  1  0.21920332  0.26364842  0.25706845  1
  Ti  Ti82  1  0.15827469  0.22361415  0.58783945  1
  Ti  Ti83  1  0.30723555  0.25451969  0.88271564  1
  Ti  Ti84  1  0.23898057  0.57927869  0.32303181  1
  Ti  Ti85  1  0.23453430  0.57086486  0.65975772  1
  Ti  Ti86  1  0.20983822  0.51566062  0.93207810  1
  Ti  Ti87  1  0.27050738  0.83877146  0.22000997  1
  Ti  Ti88  1  0.30466352  0.92762651  0.59411522  1
  Ti  Ti89  1  0.32584768  0.89578102  0.84106819  1
  Ti  Ti90  1  0.62061995  0.23433104  0.22116726  1
  Ti  Ti91  1  0.59311536  0.34054986  0.62993079  1
  Ti  Ti92  1  0.62422192  0.18583556  0.92410642  1
  Ti  Ti93  1  0.59164193  0.61697934  0.22062062  1
  Ti  Ti94  1  0.60550681  0.54353128  0.62043492  1
  Ti  Ti95  1  0.62822026  0.62935487  0.94087405  1
  Ti  Ti96  1  0.64510952  0.92248082  0.19413950  1
  Ti  Ti97  1  0.60836189  0.96466585  0.62816084  1
  Ti  Ti98  1  0.53891842  0.87885079  0.88484727  1
  Ti  Ti99  1  0.84955548  0.27639380  0.24057907  1
  Ti  Ti100  1  0.90338982  0.28083875  0.59251878  1
  Ti  Ti101  1  0.90162059  0.28413997  0.93036105  1
  Ti  Ti102  1  0.92644732  0.55535396  0.32564219  1
  Ti  Ti103  1  0.90108341  0.59859606  0.52738189  1
  Ti  Ti104  1  0.91138217  0.50327132  0.97078282  1
  Ti  Ti105  1  0.92355297  0.91989921  0.32220410  1
  Ti  Ti106  1  0.92639284  0.97998095  0.54680909  1
  Ti  Ti107  1  0.91747725  0.85808177  0.85587006  1
  Co  Co108  1  0.62291855  0.82783484  0.51461777  1
  Co  Co109  1  0.59076288  0.60514943  0.77174532  1
  Co  Co110  1  0.54803795  0.20962724  0.06626100  1
  Co  Co111  1  0.46421920  0.89245797  0.57089859  1
  Co  Co112  1  -0.05821105  0.35117448  0.75578977  1
  Co  Co113  1  0.38871044  0.45173274  0.39601588  1
  Co  Co114  1  0.85920580  0.86060303  0.02161681  1
  Co  Co115  1  0.46571021  0.44674238  0.70199596  1
  Co  Co116  1  0.78504292  0.15422744  -0.05162278  1
  Co  Co117  1  0.60587689  0.14187178  0.56966427  1
  Co  Co118  1  0.14706000  0.11168739  0.73438082  1
  Co  Co119  1  0.73249099  0.78052846  0.37455680  1
  Co  Co120  1  0.15745860  0.86889642  0.59526049  1
  Co  Co121  1  0.46054156  0.27796475  0.24053925  1
  Co  Co122  1  0.83778217  0.40547472  0.10262668  1
  Co  Co123  1  0.14866439  -0.02988614  0.86197088  1
  Co  Co124  1  -0.04311581  0.51384800  0.15148676  1
  Co  Co125  1  0.43543126  0.80526350  0.75396020  1
  Co  Co126  1  0.13365900  0.42265076  0.04370024  1
  Co  Co127  1  0.19467061  0.35019848  0.90676199  1
  Co  Co128  1  0.57897082  -0.00936628  0.47385114  1
  Co  Co129  1  0.29854540  0.72117883  0.74426717  1
  Co  Co130  1  0.18352227  0.14584706  -0.08178315  1
  Co  Co131  1  0.20356266  0.69318513  0.21433971  1
  Co  Co132  1  0.60420845  0.33690121  -0.05550750  1
  Co  Co133  1  0.73350404  0.23461582  0.63646981  1
  Co  Co134  1  -0.03171647  0.19947540  0.78078565  1
  Co  Co135  1  0.76274848  0.62525887  0.45426420  1
  Co  Co136  1  0.47829881  0.13034938  0.28157862  1
  Co  Co137  1  0.63366680  0.76581598  0.23027499  1
  Co  Co138  1  0.54459275  0.49879467  0.47817048  1
  Co  Co139  1  0.75638459  0.63952342  0.29014239  1
  Co  Co140  1  0.21257982  0.68999889  0.88674251  1
  Co  Co141  1  0.20961396  0.84794801  -0.04995773  1
  Co  Co142  1  0.05923954  0.25484108  -0.06131041  1
  Co  Co143  1  0.02062067  0.75764835  0.75153664  1
  Co  Co144  1  0.87660622  0.01317895  0.90668332  1
  Co  Co145  1  0.44970868  0.30798984  0.96442582  1
  Co  Co146  1  0.00283506  0.08590165  0.67845123  1
  Co  Co147  1  0.61830628  0.54464510  0.08275953  1
  Co  Co148  1  0.33691873  0.60218028  -0.01654135  1
  Co  Co149  1  -0.03818472  0.74200800  0.56016471  1
  Co  Co150  1  0.78947409  0.60640158  -0.02435684  1
  Co  Co151  1  0.57982339  0.07811829  0.17415331  1
  Co  Co152  1  0.29543031  0.57284232  0.80798353  1
  Co  Co153  1  0.54025192  0.47955877  -0.04415911  1
  Co  Co154  1  0.64550151  0.28165665  0.77544338  1
  Co  Co155  1  0.56012671  -0.00389847  0.30764427  1
  Co  Co156  1  0.92720759  0.67997648  0.21876638  1
  Co  Co157  1  0.17936412  0.45047402  0.77469094  1
  Co  Co158  1  0.58094256  0.85219048  0.36041467  1
  Co  Co159  1  0.93082460  0.66081099  0.88312280  1
  Co  Co160  1  0.86554553  0.12813907  0.61060306  1
  Co  Co161  1  0.69945163  0.68790977  0.09462099  1
  Ni  Ni162  1  0.01547972  -0.06933929  -0.02348112  1
  Ni  Ni163  1  0.28847552  -0.03949022  0.32671494  1
  Ni  Ni164  1  0.74523316  -0.10570633  -0.10070506  1
  Ni  Ni165  1  0.11326176  0.53094652  0.53773855  1
  Ni  Ni166  1  0.24552104  0.63256185  0.49290434  1
  Ni  Ni167  1  0.33680789  0.86215329  0.06648749  1
  Ni  Ni168  1  0.52555394  0.51103018  0.31720387  1
  Ni  Ni169  1  0.36426668  0.70440854  0.13388030  1
  Ni  Ni170  1  0.01580447  0.59714898  0.65325858  1
  Ni  Ni171  1  0.18812269  -0.05555199  0.44663630  1
  Ni  Ni172  1  0.47289793  0.61971067  0.89115024  1
  Ni  Ni173  1  0.28465448  0.22745343  0.71502835  1
  Ni  Ni174  1  0.82626483  0.44159736  0.26890408  1
  Ni  Ni175  1  0.41830870  0.14200899  0.77249393  1
  Ni  Ni176  1  0.41628754  -0.03138723  -0.03408081  1
  Ni  Ni177  1  0.75190804  0.32262947  0.88685284  1
  Ni  Ni178  1  0.71277145  0.33740928  0.32699205  1
  Ni  Ni179  1  0.27554737  0.13176274  0.11342943  1
  Ni  Ni180  1  0.50845392  0.24800245  0.49740807  1
  Ni  Ni181  1  0.22398593  -0.00434482  0.17901355  1
  Ni  Ni182  1  0.50817389  0.66000950  0.55059439  1
  Ni  Ni183  1  0.32240270  0.23713451  0.54268479  1
  Ni  Ni184  1  -0.06118677  0.52015107  0.78999954  1
  Ni  Ni185  1  0.50959175  0.88055676  0.06829809  1
  Ni  Ni186  1  0.44305984  0.24927939  0.64823243  1
  Ni  Ni187  1  0.90024177  0.85306745  0.67155450  1
  Ni  Ni188  1  0.75849697  0.19009867  0.36324965  1
  Ni  Ni189  1  0.00751148  0.14610350  0.52337744  1
  Ni  Ni190  1  0.06140893  0.72373834  0.11907926  1
  Ni  Ni191  1  0.11432905  0.35944406  0.50228168  1
  Ni  Ni192  1  0.07573588  0.59688136  0.24448023  1
  Ni  Ni193  1  0.20972259  0.23305363  0.42138900  1
  Ni  Ni194  1  0.25215194  0.38348097  0.15364133  1
  Ni  Ni195  1  0.38151569  0.54842458  0.57364192  1
  Ni  Ni196  1  0.03434194  0.00934319  0.41547241  1
  Ni  Ni197  1  0.85598302  0.32194042  0.41349723  1
  Ni  Ni198  1  0.72472761  0.07322978  0.67703752  1
  Ni  Ni199  1  0.71500679  0.68781403  0.70484114  1
  Ni  Ni200  1  0.62228088  0.75772857  0.82883286  1
  Ni  Ni201  1  0.52475991  0.04534304  0.85877025  1
  Ni  Ni202  1  0.70452741  0.13891853  0.09678309  1
  Ni  Ni203  1  0.77181394  -0.06688426  0.58469307  1
  Ni  Ni204  1  0.32228091  0.40595201  0.01278166  1
  Ni  Ni205  1  0.45391407  0.77878015  0.44532601  1
  Ni  Ni206  1  0.39979915  0.58941102  0.24282058  1
  Ni  Ni207  1  0.11897225  0.91943056  0.29103494  1
  Ni  Ni208  1  0.28851841  0.09019726  0.63288041  1
  Ni  Ni209  1  0.35337981  0.72961107  0.31144662  1
  Ni  Ni210  1  -0.02623544  0.38103022  0.30007851  1
  Ni  Ni211  1  -0.03944316  0.85165093  0.15980005  1
  Ni  Ni212  1  0.89444896  0.47105917  0.64200013  1
  Ni  Ni213  1  0.09747288  0.48092825  0.37845825  1
  Ni  Ni214  1  0.82432293  -0.05457743  0.18983057  1
