# generated using pymatgen
data_Ti108Co54Ni53
_symmetry_space_group_name_H-M   'P 1'
_cell_length_a   14.67187292
_cell_length_b   14.63656247
_cell_length_c   14.67321457
_cell_angle_alpha   90.13257642
_cell_angle_beta   90.02437179
_cell_angle_gamma   89.75871742
_symmetry_Int_Tables_number   1
_chemical_formula_structural   Ti108Co54Ni53
_chemical_formula_sum   'Ti108 Co54 Ni53'
_cell_volume   3150.97432731
_cell_formula_units_Z   1
loop_
 _symmetry_equiv_pos_site_id
 _symmetry_equiv_pos_as_xyz
  1  'x, y, z'
loop_
 _atom_site_type_symbol
 _atom_site_label
 _atom_site_symmetry_multiplicity
 _atom_site_fract_x
 _atom_site_fract_y
 _atom_site_fract_z
 _atom_site_occupancy
  Ti  Ti0  1  0.03662576  0.05926836  0.35200362  1
  Ti  Ti1  1  0.16358877  0.01923706  0.60817601  1
  Ti  Ti2  1  0.05830892  0.08562403  0.90433438  1
  Ti  Ti3  1  0.08584947  0.44396128  0.30945234  1
  Ti  Ti4  1  0.10294776  0.39549120  0.63429006  1
  Ti  Ti5  1  0.07914007  0.41529547  0.97057273  1
  Ti  Ti6  1  0.11428654  0.74051804  0.25902866  1
  Ti  Ti7  1  0.05429076  0.79223715  0.64955676  1
  Ti  Ti8  1  0.01242695  0.72683266  0.91697520  1
  Ti  Ti9  1  0.36218829  0.11380313  0.23837732  1
  Ti  Ti10  1  0.47495464  0.13593357  0.54151381  1
  Ti  Ti11  1  0.43273094  0.12936702  0.90604503  1
  Ti  Ti12  1  0.43325855  0.36977581  0.22276339  1
  Ti  Ti13  1  0.52793921  0.46434572  0.59026995  1
  Ti  Ti14  1  0.46878253  0.40183224  0.86613434  1
  Ti  Ti15  1  0.42581087  0.71434775  0.32177263  1
  Ti  Ti16  1  0.36939319  0.69878801  0.57355073  1
  Ti  Ti17  1  0.37211055  0.71134336  0.93927228  1
  Ti  Ti18  1  0.84424310  0.02977650  0.25422895  1
  Ti  Ti19  1  0.72648830  0.09463753  0.54100658  1
  Ti  Ti20  1  0.72111724  0.06861750  0.98731553  1
  Ti  Ti21  1  0.77540852  0.33802300  0.22946569  1
  Ti  Ti22  1  0.81025594  0.48551661  0.53979970  1
  Ti  Ti23  1  0.76619555  0.43653146  0.81506375  1
  Ti  Ti24  1  0.75830063  0.74142403  0.30384190  1
  Ti  Ti25  1  0.68094013  0.75066612  0.49866102  1
  Ti  Ti26  1  0.68383398  0.76361955  0.95063628  1
  Ti  Ti27  1  0.03298596  0.29335411  0.10287565  1
  Ti  Ti28  1  0.06557484  0.25361863  0.38175072  1
  Ti  Ti29  1  0.12805200  0.20883750  0.75521057  1
  Ti  Ti30  1  0.08437010  0.61227153  0.05672918  1
  Ti  Ti31  1  0.11428341  0.60997809  0.41468003  1
  Ti  Ti32  1  0.05037074  0.61458791  0.72906629  1
  Ti  Ti33  1  0.06852398  0.80924954  0.07699951  1
  Ti  Ti34  1  0.12789699  0.89957932  0.38197625  1
  Ti  Ti35  1  0.00426991  0.98524339  0.68155814  1
  Ti  Ti36  1  0.42751506  0.25724691  0.06464133  1
  Ti  Ti37  1  0.45681695  0.28991050  0.40927342  1
  Ti  Ti38  1  0.43320065  0.30795769  0.68000167  1
  Ti  Ti39  1  0.41303674  0.61638289  0.11247177  1
  Ti  Ti40  1  0.45176294  0.56504418  0.44968492  1
  Ti  Ti41  1  0.35767399  0.56034952  0.80983113  1
  Ti  Ti42  1  0.53147980  0.85945468  0.08773664  1
  Ti  Ti43  1  0.39809382  0.93708384  0.35331321  1
  Ti  Ti44  1  0.36719633  0.89453067  0.68796723  1
  Ti  Ti45  1  0.72325927  0.23226042  0.07926864  1
  Ti  Ti46  1  0.68483559  0.33123621  0.52277005  1
  Ti  Ti47  1  0.72269811  0.21277840  0.84531904  1
  Ti  Ti48  1  0.73484896  0.57909083  0.06445476  1
  Ti  Ti49  1  0.77044879  0.57015684  0.36858300  1
  Ti  Ti50  1  0.74247383  0.65938988  0.75460861  1
  Ti  Ti51  1  0.71936127  0.90100429  0.09101154  1
  Ti  Ti52  1  0.75031124  0.91916638  0.40073805  1
  Ti  Ti53  1  0.80708538  0.95001423  0.67590829  1
  Ti  Ti54  1  0.18150260  0.15529126  0.10581685  1
  Ti  Ti55  1  0.19955327  0.11036775  0.44349549  1
  Ti  Ti56  1  0.30771297  0.12801443  0.73072661  1
  Ti  Ti57  1  0.23747985  0.37395195  0.08478386  1
  Ti  Ti58  1  0.23117737  0.43130098  0.45174364  1
  Ti  Ti59  1  0.27581592  0.37512853  0.78533296  1
  Ti  Ti60  1  0.25829207  0.71226666  0.13985253  1
  Ti  Ti61  1  0.25218875  0.75160154  0.41528408  1
  Ti  Ti62  1  0.25067964  0.70347505  0.71276177  1
  Ti  Ti63  1  0.56660928  0.14252230  0.16991223  1
  Ti  Ti64  1  0.57685551  0.02238176  0.40907167  1
  Ti  Ti65  1  0.67661304  0.04425414  0.75140712  1
  Ti  Ti66  1  0.52753545  0.46325919  0.07454538  1
  Ti  Ti67  1  0.57494487  0.45037861  0.35697070  1
  Ti  Ti68  1  0.61823012  0.37838553  0.73342781  1
  Ti  Ti69  1  0.56825570  0.65755002  0.02858565  1
  Ti  Ti70  1  0.57739305  0.82382428  0.31101542  1
  Ti  Ti71  1  0.58778971  0.83414376  0.73804619  1
  Ti  Ti72  1  0.98016026  0.09682738  0.09637401  1
  Ti  Ti73  1  0.89342215  0.12586393  0.45328051  1
  Ti  Ti74  1  0.89668719  0.12202698  0.78830602  1
  Ti  Ti75  1  0.88814184  0.44127608  0.10133868  1
  Ti  Ti76  1  0.90788838  0.37219243  0.41233521  1
  Ti  Ti77  1  0.96637592  0.41813167  0.75508925  1
  Ti  Ti78  1  0.86185564  0.75065680  0.07473329  1
  Ti  Ti79  1  0.94753065  0.75588860  0.37212997  1
  Ti  Ti80  1  0.89673428  0.80997247  0.77743722  1
  Ti  Ti81  1  0.27282839  0.27245895  0.34739975  1
  Ti  Ti82  1  0.31903273  0.24118923  0.53102755  1
  Ti  Ti83  1  0.23267211  0.22318951  0.91662351  1
  Ti  Ti84  1  0.29262842  0.58582303  0.30498455  1
  Ti  Ti85  1  0.25218979  0.52868590  0.62037810  1
  Ti  Ti86  1  0.18844180  0.62863035  0.87734046  1
  Ti  Ti87  1  0.21299503  0.90741931  0.16321127  1
  Ti  Ti88  1  0.21559390  0.83975638  0.56996315  1
  Ti  Ti89  1  0.17771607  0.90697718  0.90477176  1
  Ti  Ti90  1  0.62539038  0.25524493  0.31445197  1
  Ti  Ti91  1  0.61633014  0.20343304  0.66180183  1
  Ti  Ti92  1  0.62015454  0.32863538  0.95410280  1
  Ti  Ti93  1  0.60397699  0.60153547  0.22875513  1
  Ti  Ti94  1  0.56220366  0.65515594  0.63166563  1
  Ti  Ti95  1  0.55569994  0.66042361  0.83049865  1
  Ti  Ti96  1  0.65626934  0.98367021  0.23745690  1
  Ti  Ti97  1  0.56112138  0.98714502  0.61884010  1
  Ti  Ti98  1  0.61254191  0.93498533  0.90900551  1
  Ti  Ti99  1  0.89581534  0.19994367  0.28616301  1
  Ti  Ti100  1  0.97941835  0.24083883  0.62786282  1
  Ti  Ti101  1  0.88595328  0.26152508  0.96176417  1
  Ti  Ti102  1  0.97772094  0.59054869  0.23183754  1
  Ti  Ti103  1  0.98300075  0.58680490  0.55610525  1
  Ti  Ti104  1  0.88997120  0.57630530  0.85930400  1
  Ti  Ti105  1  0.99512626  0.91045279  0.21291056  1
  Ti  Ti106  1  0.87573261  0.81028469  0.55017621  1
  Ti  Ti107  1  0.96159115  0.92694078  0.95846717  1
  Co  Co108  1  -0.06951964  0.41167606  -0.08755371  1
  Co  Co109  1  0.29130793  0.79789916  0.83422393  1
  Co  Co110  1  0.42017654  0.84831803  0.21415907  1
  Co  Co111  1  0.15781641  0.66551670  0.57297878  1
  Co  Co112  1  0.61347511  0.18613106  0.46538206  1
  Co  Co113  1  0.12186856  0.36721468  0.82497697  1
  Co  Co114  1  0.72594976  0.08592647  0.36731075  1
  Co  Co115  1  0.19240618  0.15629321  0.27785753  1
  Co  Co116  1  0.29893014  0.25840816  0.18347672  1
  Co  Co117  1  0.85113579  0.66650098  0.47168630  1
  Co  Co118  1  0.74285575  0.78605528  0.65471047  1
  Co  Co119  1  0.43084832  -0.02632165  0.52348507  1
  Co  Co120  1  0.17735611  0.18903695  0.60993535  1
  Co  Co121  1  0.42435968  0.72558621  0.74253456  1
  Co  Co122  1  0.04890057  0.12093130  0.52461359  1
  Co  Co123  1  0.87166572  0.47456988  0.27752533  1
  Co  Co124  1  0.38252537  0.83153359  0.48227038  1
  Co  Co125  1  0.52443523  0.30385373  0.55088302  1
  Co  Co126  1  0.36112925  0.10400683  0.41325608  1
  Co  Co127  1  0.37936755  0.41822552  0.53593110  1
  Co  Co128  1  0.40932538  0.56460889  0.65352103  1
  Co  Co129  1  0.45382666  0.53465526  0.25045053  1
  Co  Co130  1  0.58435490  0.01343789  0.06731771  1
  Co  Co131  1  0.22814934  0.46126307  -0.08218602  1
  Co  Co132  1  0.36851235  0.47665716  1.01052538  1
  Co  Co133  1  0.04131354  0.18295118  0.22445651  1
  Co  Co134  1  0.04879906  0.54201581  0.88036910  1
  Co  Co135  1  0.87935095  0.24438307  0.13314625  1
  Co  Co136  1  0.15213775  0.29556198  0.49939754  1
  Co  Co137  1  0.49697803  -0.00865324  0.22670772  1
  Co  Co138  1  0.37991227  0.24734234  0.81789305  1
  Co  Co139  1  0.28519629  0.59405156  0.46856787  1
  Co  Co140  1  0.73997841  0.16263263  0.22637625  1
  Co  Co141  1  -0.05041861  0.55259918  0.39906080  1
  Co  Co142  1  -0.05275132  0.74892868  0.20884324  1
  Co  Co143  1  0.61998483  0.48722085  0.92723043  1
  Co  Co144  1  0.86598173  0.52996059  0.68961065  1
  Co  Co145  1  0.57320131  0.31042233  0.13334049  1
  Co  Co146  1  0.18752534  0.89187067  0.72213993  1
  Co  Co147  1  0.52893824  0.51739441  0.75952156  1
  Co  Co148  1  0.56577629  0.18055072  0.01021271  1
  Co  Co149  1  0.71711847  0.60539257  -0.09569699  1
  Co  Co150  1  0.85293994  0.29094022  0.79132886  1
  Co  Co151  1  -0.05939988  0.40070396  0.58718845  1
  Co  Co152  1  0.49146856  0.81672121  0.61187589  1
  Co  Co153  1  0.70096425  -0.08434829  0.55743369  1
  Co  Co154  1  0.84525853  0.26884380  0.53800473  1
  Co  Co155  1  0.79151290  0.46152790  -0.03248768  1
  Co  Co156  1  0.17498490  0.51140863  0.76334517  1
  Co  Co157  1  0.08628670  0.23026354  -0.03164083  1
  Co  Co158  1  -0.07113200  0.57801405  0.02049894  1
  Co  Co159  1  0.26961381  -0.04629752  0.46792189  1
  Co  Co160  1  0.14201636  0.30682937  0.22387620  1
  Co  Co161  1  0.27685120  0.80786867  0.27509738  1
  Ni  Ni162  1  0.03759930  0.90395715  0.81437159  1
  Ni  Ni163  1  0.24469516  0.00097079  0.30897803  1
  Ni  Ni164  1  0.58891239  0.10082677  0.87294906  1
  Ni  Ni165  1  0.05640253  0.44314135  0.47579366  1
  Ni  Ni166  1  0.78877553  0.36322579  0.66183899  1
  Ni  Ni167  1  0.34324118  0.33561002  -0.05003301  1
  Ni  Ni168  1  -0.03232113  0.34789961  0.24482448  1
  Ni  Ni169  1  0.52018764  0.72585188  0.18096983  1
  Ni  Ni170  1  0.82221110  0.86624807  0.22718629  1
  Ni  Ni171  1  0.11170687  0.03185308  0.20604811  1
  Ni  Ni172  1  0.47486162  0.56037674  -0.06681876  1
  Ni  Ni173  1  0.74297836  0.62876846  0.59302606  1
  Ni  Ni174  1  0.10157354  -0.01636514  0.04762841  1
  Ni  Ni175  1  -0.10639287  0.68806880  0.66401306  1
  Ni  Ni176  1  0.77102105  0.24252372  0.39176026  1
  Ni  Ni177  1  0.85782519  -0.02776682  0.51694278  1
  Ni  Ni178  1  0.60793036  0.63853742  0.38363808  1
  Ni  Ni179  1  0.68739288  0.74571542  0.14303386  1
  Ni  Ni180  1  -0.00090595  0.26300577  0.83725513  1
  Ni  Ni181  1  0.15326274  0.57976682  0.21530912  1
  Ni  Ni182  1  0.87180186  -0.03652266  0.09239948  1
  Ni  Ni183  1  0.73760834  0.84606686  0.80978902  1
  Ni  Ni184  1  0.02332307  0.93403252  0.51612946  1
  Ni  Ni185  1  0.30048509  0.51054782  0.15560853  1
  Ni  Ni186  1  0.16267759  0.04103311  0.78406150  1
  Ni  Ni187  1  0.49873341  0.13927659  0.33182195  1
  Ni  Ni188  1  0.51175490  0.80134559  -0.07953988  1
  Ni  Ni189  1  0.24811582  0.41859249  0.27206443  1
  Ni  Ni190  1  0.50967491  0.72424657  0.47451665  1
  Ni  Ni191  1  0.19890734  0.75761411  -0.01704852  1
  Ni  Ni192  1  0.56008175  0.87611104  0.47449516  1
  Ni  Ni193  1  0.25632725  0.34884054  0.62710583  1
  Ni  Ni194  1  0.38336550  0.43647609  0.36958137  1
  Ni  Ni195  1  0.54755998  0.25129885  0.81800169  1
  Ni  Ni196  1  0.50219427  -0.02323029  0.78600671  1
  Ni  Ni197  1  -0.09906067  0.09454672  0.61555026  1
  Ni  Ni198  1  0.81712940  0.62381726  0.19998548  1
  Ni  Ni199  1  0.88138368  0.08828614  -0.04194125  1
  Ni  Ni200  1  0.80561667  0.88224708  -0.04547191  1
  Ni  Ni201  1  0.06570260  0.45940377  0.13979354  1
  Ni  Ni202  1  0.69567513  0.40959356  0.08341745  1
  Ni  Ni203  1  0.31522497  0.07471328  0.57618253  1
  Ni  Ni204  1  0.80272569  -0.00391430  0.84578994  1
  Ni  Ni205  1  0.73246809  0.40773664  0.38167408  1
  Ni  Ni206  1  0.12593981  0.76884362  0.80804831  1
  Ni  Ni207  1  0.78379470  0.18978443  0.67701535  1
  Ni  Ni208  1  0.07459785  0.76953872  0.47828508  1
  Ni  Ni209  1  0.64893395  0.52368926  0.49594339  1
  Ni  Ni210  1  0.84029395  0.72363974  0.90927933  1
  Ni  Ni211  1  0.25815045  0.59470800  0.02006276  1
  Ni  Ni212  1  0.71618952  0.48856333  0.22424065  1
  Ni  Ni213  1  0.48232920  0.12666707  0.73038636  1
  Ni  Ni214  1  -0.07492926  -0.07442476  0.37194675  1
