# generated using pymatgen
data_Ti108Co54Ni53
_symmetry_space_group_name_H-M   'P 1'
_cell_length_a   14.63039416
_cell_length_b   14.61365163
_cell_length_c   14.58908818
_cell_angle_alpha   89.88592768
_cell_angle_beta   89.78595068
_cell_angle_gamma   89.94102723
_symmetry_Int_Tables_number   1
_chemical_formula_structural   Ti108Co54Ni53
_chemical_formula_sum   'Ti108 Co54 Ni53'
_cell_volume   3119.16829815
_cell_formula_units_Z   1
loop_
 _symmetry_equiv_pos_site_id
 _symmetry_equiv_pos_as_xyz
  1  'x, y, z'
loop_
 _atom_site_type_symbol
 _atom_site_label
 _atom_site_symmetry_multiplicity
 _atom_site_fract_x
 _atom_site_fract_y
 _atom_site_fract_z
 _atom_site_occupancy
  Ti  Ti0  1  0.03382357  0.09968712  0.28106681  1
  Ti  Ti1  1  0.11586881  0.08615267  0.61079464  1
  Ti  Ti2  1  0.06348515  0.03023172  0.91617351  1
  Ti  Ti3  1  0.06270778  0.41265215  0.20549845  1
  Ti  Ti4  1  0.02197478  0.42641746  0.54507276  1
  Ti  Ti5  1  0.13111418  0.47643419  0.87158690  1
  Ti  Ti6  1  0.08248053  0.67138776  0.25891416  1
  Ti  Ti7  1  0.16852169  0.70684130  0.57829316  1
  Ti  Ti8  1  0.08921851  0.81872756  0.88347282  1
  Ti  Ti9  1  0.44052463  0.03713198  0.28175033  1
  Ti  Ti10  1  0.46589884  0.05176001  0.65620717  1
  Ti  Ti11  1  0.42783715  0.13168339  1.04785172  1
  Ti  Ti12  1  0.37563319  0.43178875  0.24544809  1
  Ti  Ti13  1  0.45745152  0.43276572  0.51852738  1
  Ti  Ti14  1  0.44955913  0.32286964  0.95555914  1
  Ti  Ti15  1  0.39256045  0.74018641  0.24128692  1
  Ti  Ti16  1  0.36581171  0.62272186  0.55863779  1
  Ti  Ti17  1  0.37506048  0.77340468  0.99475722  1
  Ti  Ti18  1  0.72231713  0.15361441  0.25905709  1
  Ti  Ti19  1  0.77895594  0.10951218  0.55897803  1
  Ti  Ti20  1  0.77578706  0.02548910  0.93570608  1
  Ti  Ti21  1  0.87236009  0.41767088  0.24381159  1
  Ti  Ti22  1  0.68181539  0.41668262  0.66853823  1
  Ti  Ti23  1  0.69994470  0.46175564  0.88843187  1
  Ti  Ti24  1  0.78439642  0.80101269  0.23419573  1
  Ti  Ti25  1  0.80872783  0.78785498  0.55094608  1
  Ti  Ti26  1  0.76721469  0.73012512  0.95920127  1
  Ti  Ti27  1  0.11981832  0.28505003  0.06569100  1
  Ti  Ti28  1  0.09259831  0.22908731  0.42645231  1
  Ti  Ti29  1  0.05874211  0.24500042  0.75694730  1
  Ti  Ti30  1  0.04409084  0.59722839  0.01204419  1
  Ti  Ti31  1  0.05136008  0.59329544  0.45596734  1
  Ti  Ti32  1  0.07747987  0.57863767  0.68972229  1
  Ti  Ti33  1  0.04970370  0.93395402  0.07928137  1
  Ti  Ti34  1  0.14935640  0.89077682  0.48981161  1
  Ti  Ti35  1  0.17232466  0.94774773  0.76369371  1
  Ti  Ti36  1  0.31819726  0.29571660  0.11238585  1
  Ti  Ti37  1  0.40166378  0.21662634  0.53286579  1
  Ti  Ti38  1  0.36305751  0.25368523  0.78510488  1
  Ti  Ti39  1  0.50052073  0.61197366  0.09784087  1
  Ti  Ti40  1  0.46989728  0.57640460  0.32759812  1
  Ti  Ti41  1  0.41833805  0.61305287  0.77098474  1
  Ti  Ti42  1  0.51604810  0.94784774  0.09772738  1
  Ti  Ti43  1  0.40535793  0.87604450  0.41879817  1
  Ti  Ti44  1  0.36105560  0.95923999  0.81604492  1
  Ti  Ti45  1  0.76053223  0.21809427  0.02550469  1
  Ti  Ti46  1  0.73868906  0.23457591  0.42810697  1
  Ti  Ti47  1  0.80398602  0.22403642  0.69788371  1
  Ti  Ti48  1  0.76078055  0.52929200  0.07854920  1
  Ti  Ti49  1  0.70633687  0.63877634  0.46627964  1
  Ti  Ti50  1  0.82373498  0.53018819  0.72591075  1
  Ti  Ti51  1  0.72368079  0.91292206  0.08509823  1
  Ti  Ti52  1  0.83623753  0.89392896  0.38255186  1
  Ti  Ti53  1  0.78490327  0.87777886  0.76624312  1
  Ti  Ti54  1  0.21170755  0.10347266  0.10079809  1
  Ti  Ti55  1  0.22201697  0.10564982  0.31240592  1
  Ti  Ti56  1  0.20512936  0.12883721  0.80263057  1
  Ti  Ti57  1  0.28152480  0.46874940  0.03419585  1
  Ti  Ti58  1  0.19587197  0.42468782  0.38922146  1
  Ti  Ti59  1  0.26644324  0.42646512  0.74011810  1
  Ti  Ti60  1  0.22517532  0.74327238  0.15618368  1
  Ti  Ti61  1  0.23141206  0.75737785  0.38015462  1
  Ti  Ti62  1  0.24765946  0.73428493  0.78670395  1
  Ti  Ti63  1  0.61660185  0.08107778  -0.00568109  1
  Ti  Ti64  1  0.56720475  0.13394138  0.40309141  1
  Ti  Ti65  1  0.64852668  0.10184839  0.71869119  1
  Ti  Ti66  1  0.61064912  0.40290667  0.06836239  1
  Ti  Ti67  1  0.61876795  0.45372173  0.40727244  1
  Ti  Ti68  1  0.53848785  0.37022022  0.77552312  1
  Ti  Ti69  1  0.58652692  0.77528682  0.02994606  1
  Ti  Ti70  1  0.55128465  0.75511368  0.37903947  1
  Ti  Ti71  1  0.62851110  0.74668707  0.81257067  1
  Ti  Ti72  1  0.87608615  0.07421365  0.15004531  1
  Ti  Ti73  1  0.87792994  0.08774143  0.37619720  1
  Ti  Ti74  1  0.90093469  0.01673954  0.67930801  1
  Ti  Ti75  1  0.94333764  0.42124837  0.04290155  1
  Ti  Ti76  1  0.85087505  0.39795569  0.42841900  1
  Ti  Ti77  1  0.94669545  0.40870713  0.82059897  1
  Ti  Ti78  1  0.89816173  0.71079462  0.08902949  1
  Ti  Ti79  1  0.99863704  0.77942744  0.40528415  1
  Ti  Ti80  1  0.89205684  0.71387890  0.78602542  1
  Ti  Ti81  1  0.25668185  0.28159872  0.28959623  1
  Ti  Ti82  1  0.23375601  0.25352562  0.64202410  1
  Ti  Ti83  1  0.26958482  0.22062272  0.95204373  1
  Ti  Ti84  1  0.26800305  0.58637551  0.28285013  1
  Ti  Ti85  1  0.21701062  0.48015780  0.56486384  1
  Ti  Ti86  1  0.22305855  0.64598497  0.97757107  1
  Ti  Ti87  1  0.27752918  0.92088333  0.26336007  1
  Ti  Ti88  1  0.29941774  0.97060892  0.57949247  1
  Ti  Ti89  1  0.22706261  0.90861646  1.05846489  1
  Ti  Ti90  1  0.49425137  0.24890211  0.26668028  1
  Ti  Ti91  1  0.60333720  0.26387383  0.57344154  1
  Ti  Ti92  1  0.52899426  0.17439551  0.85498551  1
  Ti  Ti93  1  0.63131995  0.56717993  0.23590336  1
  Ti  Ti94  1  0.63291749  0.60547948  0.64982031  1
  Ti  Ti95  1  0.50471047  0.50531875  0.92842713  1
  Ti  Ti96  1  0.63270749  0.96628477  0.28564734  1
  Ti  Ti97  1  0.60889658  0.93518613  0.49827109  1
  Ti  Ti98  1  0.59977372  0.95075410  0.81419602  1
  Ti  Ti99  1  0.93572016  0.25367769  0.16624469  1
  Ti  Ti100  1  0.92330504  0.25060256  0.51921448  1
  Ti  Ti101  1  0.91021254  0.19660380  0.85461130  1
  Ti  Ti102  1  0.82351162  0.60616153  0.24216828  1
  Ti  Ti103  1  0.90977996  0.63407037  0.59581997  1
  Ti  Ti104  1  0.85981885  0.56043159  0.93127965  1
  Ti  Ti105  1  0.96193974  0.91050380  0.24317966  1
  Ti  Ti106  1  0.95970294  0.93572560  0.52325249  1
  Ti  Ti107  1  0.90041376  0.87105403  0.93622643  1
  Co  Co108  1  0.49416249  0.02034631  0.91506011  1
  Co  Co109  1  0.79139087  -0.02321401  0.24759895  1
  Co  Co110  1  0.11478743  0.65650137  0.84578019  1
  Co  Co111  1  0.76230378  0.51510438  0.35787695  1
  Co  Co112  1  0.62518835  0.83584707  0.19423073  1
  Co  Co113  1  0.01545079  0.75554219  0.55956412  1
  Co  Co114  1  -0.04716783  0.54426752  0.32765120  1
  Co  Co115  1  0.28258826  0.55316451  0.85457271  1
  Co  Co116  1  0.87212214  0.44310943  0.59988013  1
  Co  Co117  1  0.56952421  0.22866951  0.02954355  1
  Co  Co118  1  0.30477765  0.38306474  -0.09530534  1
  Co  Co119  1  0.60310456  0.09047837  0.55545981  1
  Co  Co120  1  0.11325009  0.52423551  0.30262962  1
  Co  Co121  1  0.07024074  -0.08851029  0.63919111  1
  Co  Co122  1  0.70053801  0.82039273  0.41769977  1
  Co  Co123  1  0.64946747  0.26199999  0.74553118  1
  Co  Co124  1  0.13546368  -0.00584791  0.20369812  1
  Co  Co125  1  0.25683566  0.13457455  0.51385719  1
  Co  Co126  1  0.68908676  0.69769729  0.30854320  1
  Co  Co127  1  0.08500912  0.27820517  0.58550132  1
  Co  Co128  1  -0.06548860  0.32640833  0.68233331  1
  Co  Co129  1  0.21138644  0.60723266  0.44034976  1
  Co  Co130  1  0.21977749  0.42509079  0.18929205  1
  Co  Co131  1  0.48015138  0.88113567  0.26411617  1
  Co  Co132  1  0.76162288  0.70192308  0.67880187  1
  Co  Co133  1  0.71233804  0.07095643  0.12298345  1
  Co  Co134  1  0.22926830  0.03148380  0.93684638  1
  Co  Co135  1  0.02368159  -0.04249449  0.37901379  1
  Co  Co136  1  0.36854858  0.11225125  0.87585789  1
  Co  Co137  1  0.41209005  0.44911045  0.80598057  1
  Co  Co138  1  0.04093591  0.07255334  0.76391128  1
  Co  Co139  1  -0.02184227  0.09662945  0.50473030  1
  Co  Co140  1  -0.04123359  0.71210782  -0.06593883  1
  Co  Co141  1  0.84227272  0.70038132  0.39591926  1
  Co  Co142  1  0.15741888  0.57799012  0.13607032  1
  Co  Co143  1  0.25507266  0.85657651  0.90362267  1
  Co  Co144  1  0.21871288  0.84090106  0.65493637  1
  Co  Co145  1  0.95633561  0.16524580  0.65536177  1
  Co  Co146  1  0.30281733  0.09505057  0.68127316  1
  Co  Co147  1  0.84254729  0.34135424  -0.05240472  1
  Co  Co148  1  0.37986762  0.68866318  0.41026787  1
  Co  Co149  1  0.47573715  0.30905894  0.12616714  1
  Co  Co150  1  0.10174814  0.18064113  -0.06153268  1
  Co  Co151  1  0.77132293  0.31404029  0.56603985  1
  Co  Co152  1  0.54680031  0.70889126  0.21493423  1
  Co  Co153  1  0.93145275  0.72839395  0.26318362  1
  Co  Co154  1  0.88169818  0.88970418  0.10139532  1
  Co  Co155  1  0.69870764  0.87192996  0.92007015  1
  Co  Co156  1  0.89419239  0.03297851  0.83824382  1
  Co  Co157  1  -0.12239296  0.55379473  0.46808064  1
  Co  Co158  1  0.02249465  0.32401088  -0.06686327  1
  Co  Co159  1  0.33360351  0.60013324  0.13584023  1
  Co  Co160  1  0.11913104  0.44734077  0.03351051  1
  Co  Co161  1  0.58407582  0.55632106  0.79732493  1
  Ni  Ni162  1  0.71650519  0.04793545  0.41090646  1
  Ni  Ni163  1  0.69773397  0.68606818  0.12540512  1
  Ni  Ni164  1  0.38182807  0.60119518  -0.02414599  1
  Ni  Ni165  1  0.39701603  0.35111838  0.65103798  1
  Ni  Ni166  1  0.31288915  0.79151085  0.53023686  1
  Ni  Ni167  1  0.12333315  0.76277958  0.02435221  1
  Ni  Ni168  1  0.13255745  0.05274716  0.44643947  1
  Ni  Ni169  1  0.04566843  0.11329544  0.10685102  1
  Ni  Ni170  1  0.03053529  0.78645702  0.14785056  1
  Ni  Ni171  1  0.49637912  0.85633215  -0.08766063  1
  Ni  Ni172  1  0.65142289  0.30353800  -0.09011054  1
  Ni  Ni173  1  0.09995759  0.40638273  0.69734084  1
  Ni  Ni174  1  0.64990791  0.31150668  0.31845069  1
  Ni  Ni175  1  0.50460855  0.68413183  0.90621356  1
  Ni  Ni176  1  0.49569199  0.21230958  0.68775341  1
  Ni  Ni177  1  0.17563889  0.31257222  0.84171216  1
  Ni  Ni178  1  0.01833973  0.38367334  0.37172792  1
  Ni  Ni179  1  0.12478524  0.84558563  0.27900743  1
  Ni  Ni180  1  0.73170380  0.16787758  0.85761390  1
  Ni  Ni181  1  0.49664267  0.49963264  0.66589007  1
  Ni  Ni182  1  0.45468608  0.03512868  0.48139271  1
  Ni  Ni183  1  0.37152046  -0.04125315  -0.00654698  1
  Ni  Ni184  1  0.37575782  0.34376259  0.39454676  1
  Ni  Ni185  1  0.73251057  0.62252156  0.82915979  1
  Ni  Ni186  1  0.67591011  -0.04710067  0.65505413  1
  Ni  Ni187  1  0.79419187  0.35865063  0.10230483  1
  Ni  Ni188  1  0.56100125  0.11440702  0.17881076  1
  Ni  Ni189  1  0.73391010  0.48687392  0.53057134  1
  Ni  Ni190  1  0.34207515  0.51035534  0.42426670  1
  Ni  Ni191  1  0.78663708  0.35222903  0.79750290  1
  Ni  Ni192  1  0.30508365  0.00937216  0.41240331  1
  Ni  Ni193  1  0.24018992  0.29483140  0.48205045  1
  Ni  Ni194  1  0.54100920  0.42534790  0.23178039  1
  Ni  Ni195  1  0.25627722  0.59145195  0.69227180  1
  Ni  Ni196  1  0.37364319  0.86983394  0.13640841  1
  Ni  Ni197  1  -0.03554639  0.55423436  0.15818935  1
  Ni  Ni198  1  0.06699827  0.76135350  0.72061805  1
  Ni  Ni199  1  0.91490518  0.25086016  0.33052100  1
  Ni  Ni200  1  0.64245760  0.61029735  -0.02452267  1
  Ni  Ni201  1  0.65133274  0.27027589  0.16152481  1
  Ni  Ni202  1  0.10385216  0.24098800  0.23294715  1
  Ni  Ni203  1  -0.07328645  0.02780625  0.00584505  1
  Ni  Ni204  1  -0.01927060  0.57359225  0.82358210  1
  Ni  Ni205  1  0.43878184  0.46128773  0.08745332  1
  Ni  Ni206  1  0.78566691  -0.04998716  0.53471856  1
  Ni  Ni207  1  -0.01219088  0.90991793  0.78973675  1
  Ni  Ni208  1  0.94007220  0.19687456  0.01257917  1
  Ni  Ni209  1  0.70871244  0.42666076  0.21916531  1
  Ni  Ni210  1  0.37571223  0.16791599  0.37490626  1
  Ni  Ni211  1  0.52405237  0.60232614  0.48749448  1
  Ni  Ni212  1  0.53008254  0.30334675  0.42763964  1
  Ni  Ni213  1  0.91826752  0.83038445  0.66724741  1
  Ni  Ni214  1  0.34769772  0.15563953  0.20302593  1
