# generated using pymatgen
data_Ti108Co54Ni53
_symmetry_space_group_name_H-M   'P 1'
_cell_length_a   14.61389789
_cell_length_b   14.65170681
_cell_length_c   14.66611452
_cell_angle_alpha   90.15695348
_cell_angle_beta   90.11320239
_cell_angle_gamma   90.04152056
_symmetry_Int_Tables_number   1
_chemical_formula_structural   Ti108Co54Ni53
_chemical_formula_sum   'Ti108 Co54 Ni53'
_cell_volume   3140.26838609
_cell_formula_units_Z   1
loop_
 _symmetry_equiv_pos_site_id
 _symmetry_equiv_pos_as_xyz
  1  'x, y, z'
loop_
 _atom_site_type_symbol
 _atom_site_label
 _atom_site_symmetry_multiplicity
 _atom_site_fract_x
 _atom_site_fract_y
 _atom_site_fract_z
 _atom_site_occupancy
  Ti  Ti0  1  0.06374175  0.11434349  0.26810413  1
  Ti  Ti1  1  0.07456888  0.03170349  0.57167006  1
  Ti  Ti2  1  0.10862770  0.03453628  0.97020979  1
  Ti  Ti3  1  0.04394901  0.46420173  0.27831910  1
  Ti  Ti4  1  0.14623374  0.41289090  0.68008258  1
  Ti  Ti5  1  0.04471993  0.32724567  0.94936769  1
  Ti  Ti6  1  -0.01058753  0.70387593  0.25954648  1
  Ti  Ti7  1  0.13794032  0.73321629  0.58063483  1
  Ti  Ti8  1  0.07048535  0.74362906  0.93974334  1
  Ti  Ti9  1  0.37600758  0.02448648  0.22716700  1
  Ti  Ti10  1  0.46820229  0.08427968  0.59791385  1
  Ti  Ti11  1  0.44071940  0.07495697  0.87303284  1
  Ti  Ti12  1  0.37023746  0.45441514  0.34006509  1
  Ti  Ti13  1  0.35866684  0.37194200  0.55311528  1
  Ti  Ti14  1  0.44466484  0.37349667  0.92186319  1
  Ti  Ti15  1  0.41942255  0.75569525  0.27315158  1
  Ti  Ti16  1  0.33356084  0.80664164  0.59596724  1
  Ti  Ti17  1  0.48563712  0.79020932  0.89822784  1
  Ti  Ti18  1  0.71099372  0.07275814  0.24421224  1
  Ti  Ti19  1  0.76430689  0.10739517  0.55340971  1
  Ti  Ti20  1  0.76440202  0.07115940  0.85196614  1
  Ti  Ti21  1  0.74323892  0.42190108  0.26438681  1
  Ti  Ti22  1  0.70310827  0.45483237  0.60620380  1
  Ti  Ti23  1  0.74057156  0.44174488  0.92086946  1
  Ti  Ti24  1  0.75912359  0.73904863  0.21511514  1
  Ti  Ti25  1  0.81080402  0.79256106  0.53709914  1
  Ti  Ti26  1  0.70158705  0.73692070  0.90806757  1
  Ti  Ti27  1  0.14044099  0.21119167  0.08652145  1
  Ti  Ti28  1  0.15572705  0.30120607  0.33878636  1
  Ti  Ti29  1  0.00586845  0.28603314  0.75654937  1
  Ti  Ti30  1  0.02251384  0.57878434  0.11925637  1
  Ti  Ti31  1  0.14433468  0.63226511  0.37798423  1
  Ti  Ti32  1  0.06892165  0.59994847  0.71009296  1
  Ti  Ti33  1  0.00664399  0.97702862  0.13239449  1
  Ti  Ti34  1  0.03890609  0.87073505  0.33505839  1
  Ti  Ti35  1  0.11382769  0.97023508  0.76628481  1
  Ti  Ti36  1  0.42319341  0.31003736  0.10215138  1
  Ti  Ti37  1  0.46179991  0.20005848  0.44985420  1
  Ti  Ti38  1  0.49672773  0.23924387  0.78114964  1
  Ti  Ti39  1  0.46674111  0.52024306  0.09131199  1
  Ti  Ti40  1  0.50008925  0.62075465  0.43250960  1
  Ti  Ti41  1  0.41064937  0.65039205  0.77351294  1
  Ti  Ti42  1  0.41173975  0.85186804  0.09955660  1
  Ti  Ti43  1  0.41102820  0.92029269  0.39374274  1
  Ti  Ti44  1  0.33443414  0.96624076  0.71475132  1
  Ti  Ti45  1  0.76196770  0.21516689  0.13302982  1
  Ti  Ti46  1  0.79005678  0.24695664  0.39170310  1
  Ti  Ti47  1  0.70557383  0.27884307  0.77278573  1
  Ti  Ti48  1  0.69571543  0.58425998  0.06638461  1
  Ti  Ti49  1  0.73839329  0.52439143  0.43792305  1
  Ti  Ti50  1  0.77317309  0.63820315  0.66317425  1
  Ti  Ti51  1  0.82179729  0.94649441  0.01567349  1
  Ti  Ti52  1  0.73037966  0.88900650  0.37064552  1
  Ti  Ti53  1  0.78919316  0.95870077  0.67474952  1
  Ti  Ti54  1  0.20700804  0.05058668  0.13894126  1
  Ti  Ti55  1  0.18209737  0.14821386  0.44961221  1
  Ti  Ti56  1  0.21601059  0.12430196  0.81686977  1
  Ti  Ti57  1  0.17390736  0.42955767  0.11021617  1
  Ti  Ti58  1  0.21339815  0.46792786  0.43369300  1
  Ti  Ti59  1  0.32294948  0.37813325  0.74767769  1
  Ti  Ti60  1  0.20071767  0.86244728  0.07297936  1
  Ti  Ti61  1  0.24274560  0.80071218  0.39750468  1
  Ti  Ti62  1  0.19273817  0.77340532  0.77863958  1
  Ti  Ti63  1  0.48203232  0.09162580  0.08834918  1
  Ti  Ti64  1  0.61793962  0.07251750  0.40961064  1
  Ti  Ti65  1  0.60049053  0.00903498  0.74309065  1
  Ti  Ti66  1  0.61782763  0.34980870  0.12675124  1
  Ti  Ti67  1  0.57674797  0.47061940  0.35301713  1
  Ti  Ti68  1  0.51886247  0.41948140  0.72413258  1
  Ti  Ti69  1  0.60665043  0.78673541  0.09096322  1
  Ti  Ti70  1  0.59450074  0.77141333  0.49196248  1
  Ti  Ti71  1  0.67038837  0.79366681  0.67295291  1
  Ti  Ti72  1  0.95491419  0.15429686  0.09238534  1
  Ti  Ti73  1  0.94665641  0.10764700  0.43666054  1
  Ti  Ti74  1  0.94799960  0.06817967  0.76033200  1
  Ti  Ti75  1  0.89768558  0.46330085  0.03787801  1
  Ti  Ti76  1  1.01768639  0.38764619  0.45697720  1
  Ti  Ti77  1  0.85183327  0.38660852  0.70370828  1
  Ti  Ti78  1  0.90909472  0.75052181  0.07645597  1
  Ti  Ti79  1  0.98956055  0.72598922  0.46307071  1
  Ti  Ti80  1  0.91260028  0.68961868  0.81134565  1
  Ti  Ti81  1  0.37619992  0.25154438  0.27588839  1
  Ti  Ti82  1  0.21948551  0.23454551  0.64175261  1
  Ti  Ti83  1  0.26520420  0.29306427  0.97806216  1
  Ti  Ti84  1  0.30708915  0.59620191  0.19189323  1
  Ti  Ti85  1  0.24761527  0.54589926  0.59699488  1
  Ti  Ti86  1  0.21682247  0.46414254  0.89815579  1
  Ti  Ti87  1  0.22312100  0.98431444  0.33738433  1
  Ti  Ti88  1  0.27119415  0.97720291  0.52013615  1
  Ti  Ti89  1  0.29831474  0.93345188  0.90160521  1
  Ti  Ti90  1  0.59782420  0.26488923  0.31709212  1
  Ti  Ti91  1  0.55969247  0.31395029  0.57485553  1
  Ti  Ti92  1  0.58241026  0.22304305  0.98428934  1
  Ti  Ti93  1  0.60184657  0.65729243  0.26092654  1
  Ti  Ti94  1  0.56331680  0.60338138  0.64851790  1
  Ti  Ti95  1  0.57010208  0.53766517  0.86489726  1
  Ti  Ti96  1  0.55845841  0.94280407  0.25730414  1
  Ti  Ti97  1  0.50190418  0.89842427  0.61039411  1
  Ti  Ti98  1  0.62162228  0.95917696  0.94378357  1
  Ti  Ti99  1  0.90516742  0.31494241  0.21790865  1
  Ti  Ti100  1  0.91871965  0.23758260  0.57885993  1
  Ti  Ti101  1  0.89003340  0.20024924  0.88885356  1
  Ti  Ti102  1  0.85590016  0.59284615  0.31231773  1
  Ti  Ti103  1  0.91886866  0.53070241  0.55512401  1
  Ti  Ti104  1  0.93916916  0.50089910  0.85886652  1
  Ti  Ti105  1  0.87067639  0.88016645  0.21786599  1
  Ti  Ti106  1  0.97427511  0.87376374  0.62156395  1
  Ti  Ti107  1  0.94568220  0.89305751  0.83557699  1
  Co  Co108  1  -0.08436484  0.06180115  0.60635397  1
  Co  Co109  1  0.46286697  0.93883289  -0.03263366  1
  Co  Co110  1  0.35231043  0.81088613  0.78125058  1
  Co  Co111  1  0.84999759  -0.04769677  0.50488111  1
  Co  Co112  1  0.58309615  0.44648687  0.00943199  1
  Co  Co113  1  0.47376452  0.35738637  0.41682063  1
  Co  Co114  1  0.42678296  0.66845700  0.58814609  1
  Co  Co115  1  0.49689703  0.77442070  0.70640837  1
  Co  Co116  1  0.87970843  0.42090407  0.35919352  1
  Co  Co117  1  0.22992108  0.30156230  0.19156402  1
  Co  Co118  1  -0.06294650  0.70052538  0.62712244  1
  Co  Co119  1  0.10690290  0.60088423  0.86313982  1
  Co  Co120  1  0.07188114  0.48592221  -0.01669812  1
  Co  Co121  1  -0.10422420  0.47794331  0.20042124  1
  Co  Co122  1  0.67863511  0.45690604  0.75975067  1
  Co  Co123  1  0.23769053  0.54880266  0.76395217  1
  Co  Co124  1  0.84476910  0.64888613  0.47966269  1
  Co  Co125  1  0.33899052  0.42437217  0.18061833  1
  Co  Co126  1  0.08030007  0.01148512  0.41041042  1
  Co  Co127  1  0.62162171  0.03752665  0.58302734  1
  Co  Co128  1  0.80705646  0.11923971  0.00948722  1
  Co  Co129  1  0.28010475  0.67043640  0.50372767  1
  Co  Co130  1  0.77041514  0.38871448  0.10555361  1
  Co  Co131  1  0.87303815  0.15898334  0.26606556  1
  Co  Co132  1  0.83842385  0.03896317  0.15398205  1
  Co  Co133  1  0.12021604  0.86775612  0.48284973  1
  Co  Co134  1  0.55342297  -0.05698881  0.09943799  1
  Co  Co135  1  0.63515665  0.19839075  0.49505096  1
  Co  Co136  1  0.06781735  0.23263921  0.52046870  1
  Co  Co137  1  0.16704542  0.76480870  0.26151683  1
  Co  Co138  1  0.30368182  0.87489197  0.22515785  1
  Co  Co139  1  0.03637159  0.78551507  0.74379098  1
  Co  Co140  1  0.81639369  0.61772502  -0.03388748  1
  Co  Co141  1  0.67291591  0.63455313  0.53425911  1
  Co  Co142  1  0.17763036  0.34885009  0.53130836  1
  Co  Co143  1  0.89464106  0.54855972  0.71375142  1
  Co  Co144  1  0.57572134  0.80158678  0.33266349  1
  Co  Co145  1  0.69234227  0.90759962  0.54245119  1
  Co  Co146  1  0.60111901  0.35481589  0.87188052  1
  Co  Co147  1  0.85022444  0.61646287  0.13717589  1
  Co  Co148  1  -0.00497952  0.56013870  0.39967972  1
  Co  Co149  1  0.83867235  0.80438603  0.71834564  1
  Co  Co150  1  0.46653118  -0.07071777  0.80077317  1
  Co  Co151  1  0.46150023  0.56900841  0.25676828  1
  Co  Co152  1  0.07703701  0.43904045  0.81964588  1
  Co  Co153  1  0.87147074  0.35626462  0.87126781  1
  Co  Co154  1  0.32155639  0.17552620  0.12176724  1
  Co  Co155  1  -0.00042766  0.38469749  0.61628832  1
  Co  Co156  1  0.21055422  0.47085893  0.27206057  1
  Co  Co157  1  0.28044106  0.67996002  0.67890988  1
  Co  Co158  1  0.38456702  0.52338678  0.49363456  1
  Co  Co159  1  0.86793612  0.78040627  0.35700425  1
  Co  Co160  1  0.05720833  0.27179285  0.21371503  1
  Co  Co161  1  0.59816322  0.68060331  0.79376653  1
  Ni  Ni162  1  0.30224072  0.27787124  0.42914502  1
  Ni  Ni163  1  0.14638982  0.61003821  0.21392092  1
  Ni  Ni164  1  0.35666034  0.08602165  0.38928365  1
  Ni  Ni165  1  0.13937056  -0.07969210  0.21621910  1
  Ni  Ni166  1  0.07709474  0.14657170  0.69729740  1
  Ni  Ni167  1  0.40931152  0.20516226  -0.02954403  1
  Ni  Ni168  1  0.24073697  0.15043447  0.27623361  1
  Ni  Ni169  1  0.73780168  0.26845221  -0.05298532  1
  Ni  Ni170  1  0.08830047  0.52625486  0.54102079  1
  Ni  Ni171  1  0.33433280  0.23542232  0.82731490  1
  Ni  Ni172  1  0.41282069  0.24527934  0.64246574  1
  Ni  Ni173  1  0.17191417  0.89117160  0.63838133  1
  Ni  Ni174  1  0.74637331  0.59048161  0.82451827  1
  Ni  Ni175  1  0.32223664  0.14613336  0.54400127  1
  Ni  Ni176  1  0.05825104  0.16181271  0.87178231  1
  Ni  Ni177  1  0.55575539  0.65442382  -0.01654395  1
  Ni  Ni178  1  0.38841724  0.50084241  0.83968964  1
  Ni  Ni179  1  0.59555899  0.18403562  0.16421304  1
  Ni  Ni180  1  0.73950020  0.27739013  0.60030432  1
  Ni  Ni181  1  0.61270326  0.17834251  0.66722261  1
  Ni  Ni182  1  -0.06963825  0.00615320  0.30245708  1
  Ni  Ni183  1  0.67683242  0.05117575  0.07661203  1
  Ni  Ni184  1  0.70985720  0.91035011  0.16431758  1
  Ni  Ni185  1  0.71765080  0.70565912  0.38216005  1
  Ni  Ni186  1  0.83774794  0.38078093  0.51513473  1
  Ni  Ni187  1  0.26147654  0.11909916  -0.02607233  1
  Ni  Ni188  1  0.33842439  0.00173210  0.05415243  1
  Ni  Ni189  1  0.05639553  0.80131872  0.13588438  1
  Ni  Ni190  1  0.21736982  0.06673332  0.65354778  1
  Ni  Ni191  1  0.61343945  0.13921740  0.84651496  1
  Ni  Ni192  1  0.41485005  0.76349412  0.44874387  1
  Ni  Ni193  1  0.55872501  -0.06780601  0.45271032  1
  Ni  Ni194  1  -0.05660027  0.04248091  -0.06350139  1
  Ni  Ni195  1  0.33600363  0.62800065  0.35859523  1
  Ni  Ni196  1  -0.00794980  0.88674166  -0.00212712  1
  Ni  Ni197  1  -0.02678319  0.61958944  -0.02991626  1
  Ni  Ni198  1  0.32495131  0.45852148  0.02413688  1
  Ni  Ni199  1  0.47497848  0.68562036  0.13012690  1
  Ni  Ni200  1  0.83397904  0.18324134  0.71461203  1
  Ni  Ni201  1  0.39593705  0.51893006  0.66751247  1
  Ni  Ni202  1  0.79238631  0.05877061  0.38719349  1
  Ni  Ni203  1  0.13664047  -0.11495433  0.90335508  1
  Ni  Ni204  1  -0.11734954  0.29270276  0.03023213  1
  Ni  Ni205  1  0.61058842  0.85096448  0.80843900  1
  Ni  Ni206  1  0.60651543  0.50526454  0.18532238  1
  Ni  Ni207  1  0.16953502  0.29366303  0.81840446  1
  Ni  Ni208  1  0.85736514  0.79296126  -0.06828290  1
  Ni  Ni209  1  0.50456368  0.11835123  0.29068738  1
  Ni  Ni210  1  0.55543030  0.47833000  0.52252804  1
  Ni  Ni211  1  -0.03020213  0.25678174  0.36870161  1
  Ni  Ni212  1  0.49172226  0.38679551  0.23924713  1
  Ni  Ni213  1  0.76287217  -0.09740138  0.83995513  1
  Ni  Ni214  1  0.67408086  0.36059953  0.44783486  1
