# generated using pymatgen
data_Ti108Co54Ni53
_symmetry_space_group_name_H-M   'P 1'
_cell_length_a   14.65820738
_cell_length_b   14.66221207
_cell_length_c   14.63961909
_cell_angle_alpha   89.88511397
_cell_angle_beta   89.49937456
_cell_angle_gamma   90.44748461
_symmetry_Int_Tables_number   1
_chemical_formula_structural   Ti108Co54Ni53
_chemical_formula_sum   'Ti108 Co54 Ni53'
_cell_volume   3146.14966017
_cell_formula_units_Z   1
loop_
 _symmetry_equiv_pos_site_id
 _symmetry_equiv_pos_as_xyz
  1  'x, y, z'
loop_
 _atom_site_type_symbol
 _atom_site_label
 _atom_site_symmetry_multiplicity
 _atom_site_fract_x
 _atom_site_fract_y
 _atom_site_fract_z
 _atom_site_occupancy
  Ti  Ti0  1  0.04751737  0.07026733  0.23212046  1
  Ti  Ti1  1  0.07326244  0.13505770  0.58579570  1
  Ti  Ti2  1  0.04574459  0.14060882  0.90343525  1
  Ti  Ti3  1  0.09404955  0.50255680  0.23429652  1
  Ti  Ti4  1  0.06881331  0.44262506  0.55889341  1
  Ti  Ti5  1  0.11490089  0.43210185  0.87283983  1
  Ti  Ti6  1  0.09746649  0.70552189  0.23377842  1
  Ti  Ti7  1  0.07122415  0.81316549  0.55267071  1
  Ti  Ti8  1  0.14607160  0.75612753  0.79879013  1
  Ti  Ti9  1  0.36747394  0.02228778  0.19047391  1
  Ti  Ti10  1  0.39274029  0.06520263  0.55339741  1
  Ti  Ti11  1  0.37436831  0.04832734  0.96377971  1
  Ti  Ti12  1  0.38456125  0.46719154  0.30757607  1
  Ti  Ti13  1  0.42431012  0.41813479  0.52299584  1
  Ti  Ti14  1  0.39947310  0.49035026  0.90568408  1
  Ti  Ti15  1  0.46559816  0.63115546  0.20111961  1
  Ti  Ti16  1  0.40019359  0.72639592  0.60346671  1
  Ti  Ti17  1  0.44533965  0.71368391  0.90526107  1
  Ti  Ti18  1  0.70880927  0.05657854  0.32727134  1
  Ti  Ti19  1  0.67611842  0.02597692  0.53468946  1
  Ti  Ti20  1  0.83783113  0.11397882  0.90848937  1
  Ti  Ti21  1  0.83459361  0.46582534  0.28506199  1
  Ti  Ti22  1  0.74038811  0.37536920  0.60913141  1
  Ti  Ti23  1  0.77734887  0.48892239  0.88231879  1
  Ti  Ti24  1  0.81018885  0.79891375  0.27165867  1
  Ti  Ti25  1  0.75038031  0.73590064  0.57597171  1
  Ti  Ti26  1  0.77525341  0.69211082  0.93334336  1
  Ti  Ti27  1  0.08584699  0.21270618  0.08093507  1
  Ti  Ti28  1  0.11770759  0.26247566  0.44771840  1
  Ti  Ti29  1  0.08825713  0.26856799  0.74410482  1
  Ti  Ti30  1  0.04258674  0.50019708  0.03702602  1
  Ti  Ti31  1  0.03580601  0.55063356  0.40907380  1
  Ti  Ti32  1  0.00034034  0.52583651  0.73451982  1
  Ti  Ti33  1  0.08389087  0.90516582  0.14350223  1
  Ti  Ti34  1  0.11916795  0.98981408  0.41981763  1
  Ti  Ti35  1  0.09475918  0.93896127  0.79734566  1
  Ti  Ti36  1  0.38909320  0.19855587  0.11520416  1
  Ti  Ti37  1  0.42738434  0.28540502  0.37943242  1
  Ti  Ti38  1  0.44921301  0.30631766  0.68979309  1
  Ti  Ti39  1  0.34938363  0.61174432  0.05026101  1
  Ti  Ti40  1  0.35735854  0.62997821  0.41584675  1
  Ti  Ti41  1  0.42113070  0.52132612  0.70792981  1
  Ti  Ti42  1  0.46036878  0.88336504  0.05762655  1
  Ti  Ti43  1  0.44343346  0.89284809  0.31686461  1
  Ti  Ti44  1  0.39346763  0.98755570  0.74018773  1
  Ti  Ti45  1  0.76746584  0.20769151  0.08411065  1
  Ti  Ti46  1  0.71330380  0.30376916  0.35266866  1
  Ti  Ti47  1  0.76880316  0.18433898  0.73592069  1
  Ti  Ti48  1  0.75653755  0.51019824  0.10330784  1
  Ti  Ti49  1  0.71887056  0.59398508  0.41431003  1
  Ti  Ti50  1  0.77382557  0.63601916  0.73479211  1
  Ti  Ti51  1  0.71689675  0.92620969  0.11847273  1
  Ti  Ti52  1  0.77418669  0.89934424  0.43648909  1
  Ti  Ti53  1  0.77590900  0.93335056  0.84771425  1
  Ti  Ti54  1  0.19971878  0.05408170  0.06992150  1
  Ti  Ti55  1  0.29696294  0.12128930  0.38419571  1
  Ti  Ti56  1  0.24159966  0.14219084  0.77522014  1
  Ti  Ti57  1  0.27222230  0.44465795  0.13941568  1
  Ti  Ti58  1  0.23333287  0.47303047  0.45701404  1
  Ti  Ti59  1  0.28385770  0.33948339  0.78341297  1
  Ti  Ti60  1  0.20054789  0.74376681  0.07996718  1
  Ti  Ti61  1  0.21071114  0.77197330  0.40252362  1
  Ti  Ti62  1  0.30958595  0.67179126  0.76796255  1
  Ti  Ti63  1  0.55029006  0.09140123  0.04716580  1
  Ti  Ti64  1  0.55350434  0.15301583  0.42160156  1
  Ti  Ti65  1  0.59675322  0.00470254  0.72434219  1
  Ti  Ti66  1  0.57081958  0.40428762  0.18902268  1
  Ti  Ti67  1  0.57233420  0.42607814  0.38531924  1
  Ti  Ti68  1  0.57989692  0.42520302  0.83627394  1
  Ti  Ti69  1  0.59264015  0.71316368  0.04665979  1
  Ti  Ti70  1  0.53389707  0.73239328  0.41143860  1
  Ti  Ti71  1  0.63293870  0.79862320  0.73337442  1
  Ti  Ti72  1  0.94999838  0.04689618  0.06057225  1
  Ti  Ti73  1  0.87785389  0.17014667  0.34686854  1
  Ti  Ti74  1  0.91737266  0.02561784  0.72314654  1
  Ti  Ti75  1  0.90833203  0.36492504  0.10922766  1
  Ti  Ti76  1  0.93688426  0.36090114  0.41983256  1
  Ti  Ti77  1  0.91502347  0.33955143  0.71519329  1
  Ti  Ti78  1  0.88742471  0.69759238  0.10716354  1
  Ti  Ti79  1  0.89030952  0.73889248  0.44503195  1
  Ti  Ti80  1  0.95226790  0.75285131  0.74941111  1
  Ti  Ti81  1  0.24271859  0.30270603  0.28053395  1
  Ti  Ti82  1  0.29021337  0.22035613  0.59357128  1
  Ti  Ti83  1  0.29262444  0.22595636  0.95098125  1
  Ti  Ti84  1  0.27604113  0.63101686  0.22966744  1
  Ti  Ti85  1  0.20341451  0.57082312  0.63805756  1
  Ti  Ti86  1  0.21149621  0.61782379  0.93058575  1
  Ti  Ti87  1  0.26303374  0.85456366  0.23384198  1
  Ti  Ti88  1  0.26577321  0.90227271  0.55627415  1
  Ti  Ti89  1  0.27062711  0.90676380  0.86892164  1
  Ti  Ti90  1  0.57267116  0.21096517  0.23078582  1
  Ti  Ti91  1  0.61753882  0.18142032  0.61281520  1
  Ti  Ti92  1  0.56555950  0.21058876  0.83109987  1
  Ti  Ti93  1  0.64015388  0.67319601  0.24971945  1
  Ti  Ti94  1  0.60406309  0.60135955  0.63090729  1
  Ti  Ti95  1  0.60539701  0.61762817  0.84052374  1
  Ti  Ti96  1  0.63335773  0.87049356  0.28759239  1
  Ti  Ti97  1  0.47851052  0.90673310  0.51760967  1
  Ti  Ti98  1  0.60618151  0.95359671  0.93589709  1
  Ti  Ti99  1  1.03650157  0.27557927  0.26621681  1
  Ti  Ti100  1  0.86137798  0.20656183  0.54879062  1
  Ti  Ti101  1  0.88247308  0.31102523  0.90003182  1
  Ti  Ti102  1  0.92866423  0.64104721  0.29478508  1
  Ti  Ti103  1  0.93863008  0.62186254  0.58479063  1
  Ti  Ti104  1  1.01919468  0.66553036  0.93179113  1
  Ti  Ti105  1  0.91115644  0.97323023  0.30730755  1
  Ti  Ti106  1  0.88206440  0.88316143  0.59236664  1
  Ti  Ti107  1  0.88759195  0.86930010  0.99661447  1
  Co  Co108  1  0.49925163  0.06354311  0.86197316  1
  Co  Co109  1  0.72517488  0.83710008  -0.02079907  1
  Co  Co110  1  0.24102995  0.73280039  0.57919017  1
  Co  Co111  1  0.63739833  0.47835962  0.52003959  1
  Co  Co112  1  0.45266562  0.22278054  0.54248122  1
  Co  Co113  1  0.30665177  0.77060754  -0.05131818  1
  Co  Co114  1  0.84125045  0.48181234  0.72539233  1
  Co  Co115  1  0.78748907  0.62372098  0.22244040  1
  Co  Co116  1  0.10270483  0.40307393  0.36684639  1
  Co  Co117  1  0.15364678  0.26685268  0.89656717  1
  Co  Co118  1  0.83482091  0.05083174  0.45070304  1
  Co  Co119  1  0.55753795  0.73840630  0.57080340  1
  Co  Co120  1  -0.06243630  0.18356831  0.77395092  1
  Co  Co121  1  0.67415960  0.49958214  0.27329154  1
  Co  Co122  1  0.03246828  0.33450763  -0.01664504  1
  Co  Co123  1  0.20351740  0.00239574  0.25880281  1
  Co  Co124  1  0.29729226  0.41038166  0.62452282  1
  Co  Co125  1  0.24007558  0.84694972  0.70653972  1
  Co  Co126  1  0.23954521  0.01040782  0.69104617  1
  Co  Co127  1  0.73097383  0.35740072  0.18072598  1
  Co  Co128  1  0.46319988  0.20667228  -0.03736604  1
  Co  Co129  1  0.59037136  -0.04069565  0.41213456  1
  Co  Co130  1  0.75310572  0.19544940  0.23972806  1
  Co  Co131  1  0.04664121  0.73796704  0.39075100  1
  Co  Co132  1  0.43409556  0.33649096  0.86353568  1
  Co  Co133  1  0.92706972  0.21364363  0.01867087  1
  Co  Co134  1  0.00666068  0.11427682  0.41232229  1
  Co  Co135  1  0.94044940  -0.01238606  0.88190587  1
  Co  Co136  1  0.73016545  0.04842552  0.01148094  1
  Co  Co137  1  0.49045207  0.68586014  0.73872697  1
  Co  Co138  1  0.17590047  0.57827028  0.09705512  1
  Co  Co139  1  0.52968171  0.79699844  0.18542239  1
  Co  Co140  1  -0.04912072  0.45688933  0.88778768  1
  Co  Co141  1  0.34582684  0.56624810  0.56811226  1
  Co  Co142  1  -0.03363882  0.88221884  0.42641821  1
  Co  Co143  1  0.50106057  0.58124929  -0.00290199  1
  Co  Co144  1  -0.09577243  0.90390864  0.15185933  1
  Co  Co145  1  0.10368465  0.87672098  0.30715302  1
  Co  Co146  1  0.96966228  0.80275154  0.25717404  1
  Co  Co147  1  0.80973809  0.07214017  0.61221049  1
  Co  Co148  1  0.50532905  0.86819160  0.66949458  1
  Co  Co149  1  0.16462104  0.30819903  0.60101562  1
  Co  Co150  1  0.39098324  0.18581797  0.81425250  1
  Co  Co151  1  0.59395156  0.55592625  0.13050287  1
  Co  Co152  1  0.41743579  0.16775703  0.27274074  1
  Co  Co153  1  0.86888085  0.31177285  0.26080654  1
  Co  Co154  1  0.30163568  -0.04649266  0.40019790  1
  Co  Co155  1  0.38676689  0.74386305  0.29126284  1
  Co  Co156  1  -0.00122024  0.82588846  0.88700966  1
  Co  Co157  1  0.68026046  0.48966205  0.72265865  1
  Co  Co158  1  0.69597897  0.75753490  0.41654128  1
  Co  Co159  1  0.20588183  0.05596197  0.90381611  1
  Co  Co160  1  0.88498999  0.56659825  -0.00017163  1
  Co  Co161  1  0.13202263  0.59297718  0.79227446  1
  Ni  Ni162  1  0.22077965  0.06747626  0.53441975  1
  Ni  Ni163  1  0.28253394  0.31962269  0.45511455  1
  Ni  Ni164  1  0.23975514  0.28321386  0.10306926  1
  Ni  Ni165  1  -0.10100025  0.43464058  0.56970308  1
  Ni  Ni166  1  -0.03415780  0.01489341  0.53936899  1
  Ni  Ni167  1  0.14484396  0.82301032  -0.04630998  1
  Ni  Ni168  1  0.43666302  0.48101799  0.12059890  1
  Ni  Ni169  1  0.36619314  0.79881042  0.44907746  1
  Ni  Ni170  1  0.44363108  0.04213732  0.38347911  1
  Ni  Ni171  1  0.07601284  -0.03011734  -0.02617682  1
  Ni  Ni172  1  0.26822610  0.50455443  0.79757127  1
  Ni  Ni173  1  0.62149666  0.31388935  0.70591480  1
  Ni  Ni174  1  0.80324666  0.80412212  0.74174916  1
  Ni  Ni175  1  0.73109622  0.75733444  0.12810751  1
  Ni  Ni176  1  -0.07519664  0.18144242  0.17624867  1
  Ni  Ni177  1  0.18824400  0.60400074  0.36190124  1
  Ni  Ni178  1  0.14594511  0.14941129  0.33208579  1
  Ni  Ni179  1  0.44850768  0.90286080  -0.10942755  1
  Ni  Ni180  1  0.74939584  0.34829456  0.79300802  1
  Ni  Ni181  1  0.77218751  0.42657809  0.44635334  1
  Ni  Ni182  1  0.38828273  0.81512785  0.76930922  1
  Ni  Ni183  1  0.58941713  0.31889317  0.52194301  1
  Ni  Ni184  1  0.87810025  0.54961837  0.44416743  1
  Ni  Ni185  1  0.07762371  0.09054994  0.74288279  1
  Ni  Ni186  1  0.59251374  0.79324974  0.89440001  1
  Ni  Ni187  1  0.52847399  0.57903750  0.34580388  1
  Ni  Ni188  1  0.50001997  0.57495966  0.50607748  1
  Ni  Ni189  1  0.64656696  0.86719796  0.55617720  1
  Ni  Ni190  1  0.71930436  0.17973015  0.46419946  1
  Ni  Ni191  1  0.89588683  0.60590753  0.83760743  1
  Ni  Ni192  1  0.11956269  0.64743036  0.50874915  1
  Ni  Ni193  1  0.47819632  0.12757040  0.68986144  1
  Ni  Ni194  1  -0.00171477  0.29297034  0.57258111  1
  Ni  Ni195  1  0.02405017  0.77663113  0.06899041  1
  Ni  Ni196  1  0.53978323  -0.02812064  0.17859087  1
  Ni  Ni197  1  0.09753282  -0.03847782  0.62426352  1
  Ni  Ni198  1  0.14611293  0.42843372  0.70939150  1
  Ni  Ni199  1  0.36902256  0.76444233  0.12026991  1
  Ni  Ni200  1  0.66302808  0.08366286  0.16496039  1
  Ni  Ni201  1  0.24630764  0.15042091  0.20264404  1
  Ni  Ni202  1  0.28132771  -0.09649055  0.05900489  1
  Ni  Ni203  1  0.24723183  0.45787521  -0.02479556  1
  Ni  Ni204  1  0.54460168  0.43993623  0.64366520  1
  Ni  Ni205  1  0.64910525  0.53384435  -0.02340901  1
  Ni  Ni206  1  -0.07053945  0.53595243  0.15876726  1
  Ni  Ni207  1  0.37717210  0.35513605  0.02506939  1
  Ni  Ni208  1  0.41166824  0.33427981  0.20623206  1
  Ni  Ni209  1  0.67419020  0.08678233  0.85639115  1
  Ni  Ni210  1  0.10222138  0.36979470  0.14119626  1
  Ni  Ni211  1  0.77591352  0.55258648  0.58128644  1
  Ni  Ni212  1  0.82361358  0.05082302  0.17502099  1
  Ni  Ni213  1  0.08087478  0.68469678  0.66114464  1
  Ni  Ni214  1  0.74438169  -0.06158939  0.67791619  1
