# generated using pymatgen
data_Ti108Co54Ni53
_symmetry_space_group_name_H-M   'P 1'
_cell_length_a   14.56246445
_cell_length_b   14.69181258
_cell_length_c   14.70105100
_cell_angle_alpha   89.94579543
_cell_angle_beta   90.04305729
_cell_angle_gamma   90.17319320
_symmetry_Int_Tables_number   1
_chemical_formula_structural   Ti108Co54Ni53
_chemical_formula_sum   'Ti108 Co54 Ni53'
_cell_volume   3145.25847984
_cell_formula_units_Z   1
loop_
 _symmetry_equiv_pos_site_id
 _symmetry_equiv_pos_as_xyz
  1  'x, y, z'
loop_
 _atom_site_type_symbol
 _atom_site_label
 _atom_site_symmetry_multiplicity
 _atom_site_fract_x
 _atom_site_fract_y
 _atom_site_fract_z
 _atom_site_occupancy
  Ti  Ti0  1  0.03846754  0.03232867  0.21916057  1
  Ti  Ti1  1  0.08621712  0.09134560  0.53659272  1
  Ti  Ti2  1  0.08370590  0.06085104  1.00877666  1
  Ti  Ti3  1  0.10239107  0.41090399  0.35076582  1
  Ti  Ti4  1  0.07348051  0.31065993  0.53224734  1
  Ti  Ti5  1  0.14579661  0.36342413  0.91846243  1
  Ti  Ti6  1  0.07950577  0.72872625  0.26382916  1
  Ti  Ti7  1  0.06597353  0.68623842  0.64103011  1
  Ti  Ti8  1  0.04149156  0.71904240  0.94263513  1
  Ti  Ti9  1  0.47150597  0.10184962  0.21861995  1
  Ti  Ti10  1  0.51334660  0.13297317  0.52595236  1
  Ti  Ti11  1  0.47309167  0.07888261  0.83744879  1
  Ti  Ti12  1  0.45471187  0.44300912  0.23202128  1
  Ti  Ti13  1  0.45847961  0.41909176  0.54386010  1
  Ti  Ti14  1  0.41102394  0.47355354  0.91178825  1
  Ti  Ti15  1  0.44634255  0.78912084  0.21771114  1
  Ti  Ti16  1  0.38927220  0.76940223  0.57205552  1
  Ti  Ti17  1  0.34699159  0.66113921  0.95410550  1
  Ti  Ti18  1  0.73074733  0.13383066  0.22733543  1
  Ti  Ti19  1  0.74743454  0.09098983  0.51753234  1
  Ti  Ti20  1  0.66679260  0.11194001  0.88636947  1
  Ti  Ti21  1  0.75885991  0.46879424  0.21487626  1
  Ti  Ti22  1  0.69355385  0.40547225  0.52922849  1
  Ti  Ti23  1  0.71231660  0.37097704  0.89211820  1
  Ti  Ti24  1  0.69696880  0.76092510  0.30199568  1
  Ti  Ti25  1  0.71814748  0.81851577  0.63641889  1
  Ti  Ti26  1  0.79642928  0.72374819  0.95934854  1
  Ti  Ti27  1  0.17044189  0.25649974  0.08888816  1
  Ti  Ti28  1  0.08276607  0.20592866  0.35860324  1
  Ti  Ti29  1  0.04849247  0.30667677  0.75766096  1
  Ti  Ti30  1  0.07042048  0.61501054  0.10968398  1
  Ti  Ti31  1  0.08488284  0.63398968  0.45133236  1
  Ti  Ti32  1  0.06618575  0.51356610  0.75752287  1
  Ti  Ti33  1  0.13886085  0.88483947  0.12535505  1
  Ti  Ti34  1  0.01959585  0.88496941  0.40062837  1
  Ti  Ti35  1  0.08274463  0.83852474  0.78159677  1
  Ti  Ti36  1  0.40401865  0.18823834  0.06534352  1
  Ti  Ti37  1  0.38774715  0.32188013  0.37855757  1
  Ti  Ti38  1  0.40379272  0.27037743  0.79200628  1
  Ti  Ti39  1  0.48131833  0.56847600  0.06904825  1
  Ti  Ti40  1  0.40262389  0.53170243  0.39864514  1
  Ti  Ti41  1  0.47224016  0.64789534  0.70934009  1
  Ti  Ti42  1  0.44451859  0.95489452  0.07076171  1
  Ti  Ti43  1  0.39698416  0.87988169  0.36881303  1
  Ti  Ti44  1  0.50568363  0.87231909  0.75081423  1
  Ti  Ti45  1  0.73441072  0.21925740  0.03179551  1
  Ti  Ti46  1  0.75998961  0.32235774  0.35022106  1
  Ti  Ti47  1  0.79562833  0.22798283  0.78158368  1
  Ti  Ti48  1  0.74811415  0.54367479  0.02303465  1
  Ti  Ti49  1  0.71110453  0.61610042  0.46164996  1
  Ti  Ti50  1  0.74744704  0.53822845  0.78177577  1
  Ti  Ti51  1  0.72587197  0.81376619  0.11323629  1
  Ti  Ti52  1  0.84742132  0.91373613  0.51902963  1
  Ti  Ti53  1  0.76871988  0.87569359  0.82104340  1
  Ti  Ti54  1  0.26028086  0.05543019  0.07236225  1
  Ti  Ti55  1  0.26527199  0.12832778  0.39450158  1
  Ti  Ti56  1  0.21315920  0.08728282  0.80671716  1
  Ti  Ti57  1  0.17267200  0.44671623  0.14004561  1
  Ti  Ti58  1  0.26372843  0.41627052  0.50504789  1
  Ti  Ti59  1  0.26904869  0.42991001  0.77667088  1
  Ti  Ti60  1  0.29775559  0.81146515  0.06771100  1
  Ti  Ti61  1  0.32836995  0.70470602  0.38567972  1
  Ti  Ti62  1  0.29888341  0.76653964  0.79716112  1
  Ti  Ti63  1  0.62243577  0.03881100  0.11940073  1
  Ti  Ti64  1  0.60991947  0.07604031  0.36828394  1
  Ti  Ti65  1  0.61686254  0.08669262  0.70036497  1
  Ti  Ti66  1  0.51498312  0.36762494  0.07615457  1
  Ti  Ti67  1  0.58317962  0.40416062  0.37763929  1
  Ti  Ti68  1  0.55090770  0.37506234  0.69497322  1
  Ti  Ti69  1  0.50224406  0.77380101  0.02095802  1
  Ti  Ti70  1  0.53221982  0.69020899  0.37568662  1
  Ti  Ti71  1  0.64761762  0.70676346  0.76416552  1
  Ti  Ti72  1  0.89455953  0.08784764  0.08476540  1
  Ti  Ti73  1  0.93856834  0.05619012  0.39966273  1
  Ti  Ti74  1  0.96710877  0.08061822  0.74003444  1
  Ti  Ti75  1  0.89007450  0.34903965  0.10497782  1
  Ti  Ti76  1  0.89805002  0.39664662  0.48127306  1
  Ti  Ti77  1  0.88563896  0.41230106  0.76114536  1
  Ti  Ti78  1  0.93025478  0.77078997  0.10546576  1
  Ti  Ti79  1  0.89356707  0.73314743  0.37419070  1
  Ti  Ti80  1  0.89853672  0.76640679  0.68214038  1
  Ti  Ti81  1  0.24116674  0.29524320  0.26174885  1
  Ti  Ti82  1  0.22944858  0.23844903  0.61460084  1
  Ti  Ti83  1  0.32750379  0.31300649  0.95648994  1
  Ti  Ti84  1  0.25134570  0.61490857  0.23928769  1
  Ti  Ti85  1  0.21558651  0.56049413  0.62865217  1
  Ti  Ti86  1  0.16979276  0.56784038  0.91251111  1
  Ti  Ti87  1  0.20644096  0.90599640  0.32681686  1
  Ti  Ti88  1  0.14817130  0.85497496  0.54108781  1
  Ti  Ti89  1  0.19931679  0.91908769  0.92803738  1
  Ti  Ti90  1  0.57406337  0.24376988  0.29187210  1
  Ti  Ti91  1  0.67019967  0.24119985  0.61634812  1
  Ti  Ti92  1  0.54159778  0.25054048  0.94071060  1
  Ti  Ti93  1  0.60015345  0.66628807  0.17689305  1
  Ti  Ti94  1  0.62450896  0.55727891  0.62319880  1
  Ti  Ti95  1  0.54909154  0.61987613  0.89929557  1
  Ti  Ti96  1  0.66509901  0.93891759  0.26989749  1
  Ti  Ti97  1  0.61531198  0.93497230  0.51673513  1
  Ti  Ti98  1  0.64888001  0.93073718  0.97498608  1
  Ti  Ti99  1  0.91813167  0.23803949  0.27101363  1
  Ti  Ti100  1  0.92311798  0.23954388  0.62507244  1
  Ti  Ti101  1  0.99810601  0.23239518  0.96781138  1
  Ti  Ti102  1  0.92086534  0.58637388  0.25236515  1
  Ti  Ti103  1  0.90251338  0.59371243  0.54099055  1
  Ti  Ti104  1  0.92171870  0.57539721  0.88722836  1
  Ti  Ti105  1  0.85612257  0.89876299  0.27416947  1
  Ti  Ti106  1  1.00317991  0.91801311  0.62446890  1
  Ti  Ti107  1  0.91577658  0.98799794  0.90765165  1
  Co  Co108  1  0.62960864  -0.03998805  0.80643067  1
  Co  Co109  1  0.07299257  -0.00874595  0.83821922  1
  Co  Co110  1  0.86401516  0.94160053  0.70048423  1
  Co  Co111  1  0.21047199  0.27990020  0.43837914  1
  Co  Co112  1  0.43054273  0.27026995  0.22056198  1
  Co  Co113  1  0.80383835  0.48704572  0.61638911  1
  Co  Co114  1  0.57643841  0.86065533  0.14014138  1
  Co  Co115  1  -0.12607951  0.06901617  0.24996516  1
  Co  Co116  1  0.43725265  0.16541057  0.37226442  1
  Co  Co117  1  0.58491898  0.22210199  0.11875639  1
  Co  Co118  1  0.28657168  0.84827238  0.47910053  1
  Co  Co119  1  0.36284194  0.84370983  0.92730589  1
  Co  Co120  1  0.52097835  0.28604129  0.48158600  1
  Co  Co121  1  0.56911004  0.53061753  0.46482230  1
  Co  Co122  1  0.52059303  0.38145169  0.85604549  1
  Co  Co123  1  0.88488720  0.31013054  0.89421798  1
  Co  Co124  1  0.61686544  0.50794106  0.12892912  1
  Co  Co125  1  0.31700341  0.66518880  0.67129249  1
  Co  Co126  1  0.80350069  0.12021156  0.66678867  1
  Co  Co127  1  0.74740048  0.85695785  0.41187011  1
  Co  Co128  1  0.34655825  0.15990845  0.90414223  1
  Co  Co129  1  0.37750029  0.68194923  0.12303540  1
  Co  Co130  1  0.61816551  0.37589017  0.21380781  1
  Co  Co131  1  0.85777963  0.44093267  -0.02831271  1
  Co  Co132  1  0.75928401  0.04734516  0.00286769  1
  Co  Co133  1  0.64343742  0.76414905  0.48510363  1
  Co  Co134  1  0.70730706  0.38132748  0.06107817  1
  Co  Co135  1  0.36328790  0.23957772  0.51449659  1
  Co  Co136  1  0.19752564  0.75726638  -0.06414417  1
  Co  Co137  1  0.00226409  0.42861670  0.88935117  1
  Co  Co138  1  0.78714581  0.04285537  0.80574732  1
  Co  Co139  1  0.20812996  0.02735561  0.22580498  1
  Co  Co140  1  0.11511612  0.03834766  0.37521522  1
  Co  Co141  1  0.13848485  0.16255878  0.21364478  1
  Co  Co142  1  0.49957872  0.92667487  -0.09348636  1
  Co  Co143  1  0.06200965  0.32070428  0.21780948  1
  Co  Co144  1  0.04237948  0.37042024  0.04950417  1
  Co  Co145  1  0.49823530  -0.04757283  0.24984017  1
  Co  Co146  1  0.23979644  0.68558300  0.52413732  1
  Co  Co147  1  0.37535295  0.57493459  0.55050814  1
  Co  Co148  1  0.64367272  0.66614009  0.02197069  1
  Co  Co149  1  0.79894766  0.16443644  0.37274694  1
  Co  Co150  1  0.35484697  0.02953617  0.31198836  1
  Co  Co151  1  0.00268549  0.19608059  0.13257049  1
  Co  Co152  1  0.06865594  0.16260574  0.84266533  1
  Co  Co153  1  0.20517342  0.77477778  0.66067022  1
  Co  Co154  1  0.09898827  0.16886657  0.68063066  1
  Co  Co155  1  0.24624961  0.77509196  0.22618511  1
  Co  Co156  1  0.83317817  0.88405832  0.00250468  1
  Co  Co157  1  0.46697127  0.74916019  0.84768802  1
  Co  Co158  1  0.76624056  0.64625769  0.64328985  1
  Co  Co159  1  0.71754937  -0.02210220  0.65079691  1
  Co  Co160  1  0.77335626  0.48115202  0.38825998  1
  Co  Co161  1  0.77173566  0.00788255  0.37775252  1
  Ni  Ni162  1  0.32812796  0.92034112  0.19385912  1
  Ni  Ni163  1  0.85343213  0.15070830  -0.08086546  1
  Ni  Ni164  1  0.76187666  0.61624685  0.29937086  1
  Ni  Ni165  1  0.62203947  0.79077211  0.89972336  1
  Ni  Ni166  1  0.14664679  0.67483514  0.78800557  1
  Ni  Ni167  1  -0.01963964  0.76838184  0.52056054  1
  Ni  Ni168  1  0.56466502  0.86161098  0.37652577  1
  Ni  Ni169  1  0.21523621  0.25915005  0.79738552  1
  Ni  Ni170  1  0.44174084  0.61002390  0.25267388  1
  Ni  Ni171  1  0.33590590  0.58688413  0.80852565  1
  Ni  Ni172  1  0.57786981  0.51714981  0.77994413  1
  Ni  Ni173  1  0.60552388  0.54692120  0.29754967  1
  Ni  Ni174  1  -0.08593586  0.58237157  0.70961432  1
  Ni  Ni175  1  -0.01923417  -0.06489370  0.07306195  1
  Ni  Ni176  1  0.47465672  0.00704268  0.42636826  1
  Ni  Ni177  1  -0.07599628  0.81321610  0.87115424  1
  Ni  Ni178  1  0.09443302  0.55950949  0.28019299  1
  Ni  Ni179  1  0.81519655  0.74343833  0.51969947  1
  Ni  Ni180  1  0.33532987  0.52151187  0.13141446  1
  Ni  Ni181  1  0.22398766  0.55134488  0.40842977  1
  Ni  Ni182  1  0.15728941  0.40137060  0.64869317  1
  Ni  Ni183  1  0.19102206  0.18482272  -0.05233056  1
  Ni  Ni184  1  -0.09134301  0.40819511  0.29693498  1
  Ni  Ni185  1  -0.02489989  0.52046191  0.39909489  1
  Ni  Ni186  1  0.55786417  0.78446647  0.62423845  1
  Ni  Ni187  1  -0.05292534  0.20938876  0.46093603  1
  Ni  Ni188  1  0.52774134  0.09146591  -0.00065238  1
  Ni  Ni189  1  0.00697928  0.86509898  0.22840021  1
  Ni  Ni190  1  0.61565757  0.24772155  0.78858017  1
  Ni  Ni191  1  0.35500621  0.34182302  0.65068017  1
  Ni  Ni192  1  0.75041814  0.28692605  0.18757497  1
  Ni  Ni193  1  0.60028381  0.47321960  -0.03462352  1
  Ni  Ni194  1  -0.08560092  0.60560927  0.05260339  1
  Ni  Ni195  1  0.41765649  0.48657257  0.70623343  1
  Ni  Ni196  1  0.32941413  0.35728872  0.12166074  1
  Ni  Ni197  1  0.28460347  0.45388234  0.28712819  1
  Ni  Ni198  1  0.49345115  0.22156293  0.66054309  1
  Ni  Ni199  1  0.22440034  0.64285109  0.06697719  1
  Ni  Ni200  1  0.79270597  0.66560216  0.14713800  1
  Ni  Ni201  1  0.30748266  0.15641894  0.20458880  1
  Ni  Ni202  1  0.65857983  0.22335473  0.44569426  1
  Ni  Ni203  1  0.26366542  0.46679950  -0.00301085  1
  Ni  Ni204  1  0.13825378  -0.00865520  0.68067948  1
  Ni  Ni205  1  -0.01833525  0.43414333  0.62466624  1
  Ni  Ni206  1  0.71924807  0.37569504  0.71345474  1
  Ni  Ni207  1  0.92152878  0.06252672  0.56912088  1
  Ni  Ni208  1  0.78618421  -0.03193944  0.14122229  1
  Ni  Ni209  1  0.51529207  0.66086638  0.53358323  1
  Ni  Ni210  1  0.80140165  0.26225209  0.51124508  1
  Ni  Ni211  1  0.35175496  0.00431429  -0.06472290  1
  Ni  Ni212  1  0.00056245  0.46840516  0.17046594  1
  Ni  Ni213  1  0.17059801  0.76061385  0.39346514  1
  Ni  Ni214  1  0.81533935  0.69292899  0.79907674  1
