# generated using pymatgen
data_Ti108Co54Ni53
_symmetry_space_group_name_H-M   'P 1'
_cell_length_a   14.70206262
_cell_length_b   14.61419928
_cell_length_c   14.67992002
_cell_angle_alpha   89.87377356
_cell_angle_beta   90.15698511
_cell_angle_gamma   89.90748587
_symmetry_Int_Tables_number   1
_chemical_formula_structural   Ti108Co54Ni53
_chemical_formula_sum   'Ti108 Co54 Ni53'
_cell_volume   3154.08743560
_cell_formula_units_Z   1
loop_
 _symmetry_equiv_pos_site_id
 _symmetry_equiv_pos_as_xyz
  1  'x, y, z'
loop_
 _atom_site_type_symbol
 _atom_site_label
 _atom_site_symmetry_multiplicity
 _atom_site_fract_x
 _atom_site_fract_y
 _atom_site_fract_z
 _atom_site_occupancy
  Ti  Ti0  1  0.03897226  0.09913287  0.35593322  1
  Ti  Ti1  1  0.04315763  0.12751184  0.59907927  1
  Ti  Ti2  1  0.08335667  0.08101239  0.90711726  1
  Ti  Ti3  1  0.08819449  0.39039130  0.23489359  1
  Ti  Ti4  1  0.13025619  0.46898004  0.55982244  1
  Ti  Ti5  1  0.14237220  0.48571961  0.88492672  1
  Ti  Ti6  1  0.04556775  0.73814393  0.19225214  1
  Ti  Ti7  1  0.10759865  0.67276757  0.50453146  1
  Ti  Ti8  1  0.12161050  0.68730553  0.91241080  1
  Ti  Ti9  1  0.43263526  0.04904060  0.21203193  1
  Ti  Ti10  1  0.40044764  0.12189366  0.66490598  1
  Ti  Ti11  1  0.41121172  0.08044539  0.95091212  1
  Ti  Ti12  1  0.41155792  0.36711307  0.25123766  1
  Ti  Ti13  1  0.42120777  0.50593745  0.55352710  1
  Ti  Ti14  1  0.33147882  0.42046702  0.92843712  1
  Ti  Ti15  1  0.39308058  0.70458285  0.22458029  1
  Ti  Ti16  1  0.40768029  0.71140577  0.55109982  1
  Ti  Ti17  1  0.45318430  0.74150003  0.87284357  1
  Ti  Ti18  1  0.77759149  0.11151372  0.20192627  1
  Ti  Ti19  1  0.74835632  0.16226138  0.57006640  1
  Ti  Ti20  1  0.73881919  0.02564807  0.87371708  1
  Ti  Ti21  1  0.70587090  0.43749882  0.28970316  1
  Ti  Ti22  1  0.70051836  0.38218730  0.54620932  1
  Ti  Ti23  1  0.72866576  0.45327904  0.85286232  1
  Ti  Ti24  1  0.76257241  0.75104737  0.24227125  1
  Ti  Ti25  1  0.75154126  0.76190114  0.60174221  1
  Ti  Ti26  1  0.75231914  0.68060050  0.92402858  1
  Ti  Ti27  1  0.12592758  0.18700401  0.10669765  1
  Ti  Ti28  1  0.15101268  0.20201732  0.45802220  1
  Ti  Ti29  1  0.09857990  0.27075396  0.73329062  1
  Ti  Ti30  1  0.08262611  0.59487531  0.07061588  1
  Ti  Ti31  1  0.03112546  0.50564667  0.37904091  1
  Ti  Ti32  1  0.02211630  0.60117556  0.65030961  1
  Ti  Ti33  1  0.08807941  0.91559134  0.11997733  1
  Ti  Ti34  1  0.10589859  0.88891173  0.32107149  1
  Ti  Ti35  1  0.04885338  0.95137390  0.76020917  1
  Ti  Ti36  1  0.34849879  0.21274484  0.11142050  1
  Ti  Ti37  1  0.47947563  0.24446175  0.41487557  1
  Ti  Ti38  1  0.39149089  0.24677207  0.81840258  1
  Ti  Ti39  1  0.40019848  0.56468898  0.05365195  1
  Ti  Ti40  1  0.37275926  0.56169648  0.37490864  1
  Ti  Ti41  1  0.45726601  0.62540767  0.72130219  1
  Ti  Ti42  1  0.42592112  0.87592484  0.12724237  1
  Ti  Ti43  1  0.47203421  0.95394488  0.43865028  1
  Ti  Ti44  1  0.34932524  0.92349531  0.75090433  1
  Ti  Ti45  1  0.71083368  0.26222216  0.08619212  1
  Ti  Ti46  1  0.79296837  0.26862472  0.40000589  1
  Ti  Ti47  1  0.71031911  0.28694515  0.74041492  1
  Ti  Ti48  1  0.69774589  0.61127850  0.11560985  1
  Ti  Ti49  1  0.75464303  0.67808480  0.42394188  1
  Ti  Ti50  1  0.75520660  0.59989337  0.73630900  1
  Ti  Ti51  1  0.80654337  0.94419123  0.03092212  1
  Ti  Ti52  1  0.79680666  0.93237515  0.36922703  1
  Ti  Ti53  1  0.71990776  0.92092781  0.71056416  1
  Ti  Ti54  1  0.27231544  0.01404054  0.10071177  1
  Ti  Ti55  1  0.23520758  0.03896307  0.34421995  1
  Ti  Ti56  1  0.21328542  0.06697827  0.65329203  1
  Ti  Ti57  1  0.23066917  0.47243602  0.13087489  1
  Ti  Ti58  1  0.23370917  0.37588805  0.36720206  1
  Ti  Ti59  1  0.29628368  0.39128914  0.67481721  1
  Ti  Ti60  1  0.31633374  0.75827952  0.01523599  1
  Ti  Ti61  1  0.24762097  0.75074652  0.40738956  1
  Ti  Ti62  1  0.15592954  0.77945835  0.74727561  1
  Ti  Ti63  1  0.64524334  0.07778049  0.02851567  1
  Ti  Ti64  1  0.58692059  0.09910040  0.36263700  1
  Ti  Ti65  1  0.60830636  0.08655270  0.73717116  1
  Ti  Ti66  1  0.57945983  0.45261066  0.13460106  1
  Ti  Ti67  1  0.55913757  0.43861681  0.41522227  1
  Ti  Ti68  1  0.53491938  0.40025565  0.83772623  1
  Ti  Ti69  1  0.58966512  0.77952510  0.13573194  1
  Ti  Ti70  1  0.57281502  0.78251525  0.44918346  1
  Ti  Ti71  1  0.61868874  0.74253925  0.77572163  1
  Ti  Ti72  1  0.95165253  0.07514271  0.05871533  1
  Ti  Ti73  1  0.89725006  0.07988601  0.48162759  1
  Ti  Ti74  1  0.88980926  0.03521871  0.68945137  1
  Ti  Ti75  1  0.88413100  0.51471604  0.12466353  1
  Ti  Ti76  1  0.84508127  0.46882123  0.40728349  1
  Ti  Ti77  1  0.95394997  0.43169302  0.70010026  1
  Ti  Ti78  1  0.87897086  0.71067660  0.10831770  1
  Ti  Ti79  1  0.93434832  0.77424732  0.42397659  1
  Ti  Ti80  1  0.93844540  0.71037944  0.77385549  1
  Ti  Ti81  1  0.31173401  0.21681408  0.33075550  1
  Ti  Ti82  1  0.33656331  0.25708808  0.53568885  1
  Ti  Ti83  1  0.23871231  0.21911869  0.92953489  1
  Ti  Ti84  1  0.18586606  0.60414185  0.27590498  1
  Ti  Ti85  1  0.25789829  0.59870679  0.65266472  1
  Ti  Ti86  1  0.29742285  0.63951665  0.85324959  1
  Ti  Ti87  1  0.33205309  0.88530102  0.30229640  1
  Ti  Ti88  1  0.21486882  0.87109327  0.58135051  1
  Ti  Ti89  1  0.15944226  0.88335803  0.95507593  1
  Ti  Ti90  1  0.62167052  0.27800992  0.26473789  1
  Ti  Ti91  1  0.56403688  0.21361136  0.59767419  1
  Ti  Ti92  1  0.56331235  0.25345740  0.95027198  1
  Ti  Ti93  1  0.59313772  0.63945209  0.30925949  1
  Ti  Ti94  1  0.61158518  0.55710947  0.60057888  1
  Ti  Ti95  1  0.58091599  0.57673464  0.95639585  1
  Ti  Ti96  1  0.62244147  0.96192326  0.20819661  1
  Ti  Ti97  1  0.50235391  0.94883912  0.63636770  1
  Ti  Ti98  1  0.56239029  0.92537592  0.86165314  1
  Ti  Ti99  1  0.96231317  0.29017896  0.32281743  1
  Ti  Ti100  1  0.89909957  0.24153377  0.66982599  1
  Ti  Ti101  1  0.86474723  0.19861732  0.86222560  1
  Ti  Ti102  1  0.91050489  0.63219964  0.29522110  1
  Ti  Ti103  1  0.82348981  0.55309961  0.57119112  1
  Ti  Ti104  1  0.93201939  0.61905706  0.95006456  1
  Ti  Ti105  1  0.93475465  0.99260873  0.23313537  1
  Ti  Ti106  1  0.92896719  0.90224847  0.54913231  1
  Ti  Ti107  1  0.87561801  0.89842736  0.84206695  1
  Co  Co108  1  0.23122155  0.05979902  -0.04181131  1
  Co  Co109  1  -0.03345546  -0.05719321  0.39042733  1
  Co  Co110  1  -0.00172295  -0.06557694  -0.02610480  1
  Co  Co111  1  0.16583296  0.74526866  0.07475037  1
  Co  Co112  1  0.89938182  0.43614396  0.26174231  1
  Co  Co113  1  0.46260985  0.10109289  0.51927738  1
  Co  Co114  1  -0.07261614  0.87482084  0.10827521  1
  Co  Co115  1  0.87371526  0.14306398  0.32645230  1
  Co  Co116  1  0.71860162  0.85845429  0.89749803  1
  Co  Co117  1  0.69149943  0.53265430  0.44603686  1
  Co  Co118  1  0.29378263  0.10765295  0.49077317  1
  Co  Co119  1  0.63371227  -0.08763393  0.02844000  1
  Co  Co120  1  0.53020056  0.61801504  0.46205864  1
  Co  Co121  1  0.07392999  0.71717449  0.35309215  1
  Co  Co122  1  0.36675448  0.53167677  0.21244669  1
  Co  Co123  1  0.76691762  0.57958183  0.26057050  1
  Co  Co124  1  0.47446442  0.86270747  -0.02385609  1
  Co  Co125  1  0.40543683  0.27369992  0.97597483  1
  Co  Co126  1  0.12879893  0.44792581  0.72082303  1
  Co  Co127  1  0.42922113  0.73981784  0.38151752  1
  Co  Co128  1  0.74045451  0.78807230  0.06409868  1
  Co  Co129  1  0.74925121  0.42087306  0.13592275  1
  Co  Co130  1  0.34604156  -0.01666197  0.58125704  1
  Co  Co131  1  -0.03042848  0.46786900  0.53223111  1
  Co  Co132  1  0.26998735  0.61308431  0.49757878  1
  Co  Co133  1  0.53027430  0.61016127  0.15588089  1
  Co  Co134  1  0.20129489  0.76818620  0.25068324  1
  Co  Co135  1  0.14482585  0.60789095  0.76506134  1
  Co  Co136  1  0.54960450  0.23002585  0.77578491  1
  Co  Co137  1  0.47296348  0.71037391  0.04378048  1
  Co  Co138  1  0.12565017  0.22863335  0.28999896  1
  Co  Co139  1  0.61727083  0.41851130  0.69863183  1
  Co  Co140  1  0.51702244  0.49543293  0.27758463  1
  Co  Co141  1  0.39655099  0.38089703  0.41741312  1
  Co  Co142  1  0.47121211  0.20177442  0.24925411  1
  Co  Co143  1  0.79902002  0.29289876  0.23651431  1
  Co  Co144  1  0.87586816  0.78632765  -0.04844659  1
  Co  Co145  1  -0.04512725  0.22672637  0.47579924  1
  Co  Co146  1  0.26450890  0.64405644  0.14465782  1
  Co  Co147  1  0.50234331  -0.00229435  0.05922621  1
  Co  Co148  1  0.06650507  -0.04132339  0.60793913  1
  Co  Co149  1  0.00280166  0.12920136  0.76534715  1
  Co  Co150  1  0.08276462  0.35239656  0.42750754  1
  Co  Co151  1  0.28427529  0.44203854  0.51344818  1
  Co  Co152  1  0.18522992  0.52053285  0.40801486  1
  Co  Co153  1  0.44238228  0.54792580  0.87148214  1
  Co  Co154  1  0.59548504  0.56363152  0.79258306  1
  Co  Co155  1  0.09142419  0.84520814  0.47421199  1
  Co  Co156  1  0.29016398  0.49910022  0.78753619  1
  Co  Co157  1  0.80238587  0.12602878  0.00920340  1
  Co  Co158  1  0.01906654  0.76232238  0.02388725  1
  Co  Co159  1  0.88890929  0.85339638  0.68751123  1
  Co  Co160  1  0.33185657  -0.06577304  -0.04381821  1
  Co  Co161  1  0.02360713  0.31960036  0.58800495  1
  Ni  Ni162  1  0.45195143  0.46438692  0.71501732  1
  Ni  Ni163  1  0.44141414  0.30249866  0.67255827  1
  Ni  Ni164  1  0.91559405  0.82358164  0.26616949  1
  Ni  Ni165  1  -0.09682724  0.71141601  0.59315308  1
  Ni  Ni166  1  0.86040453  0.35358111  0.80987994  1
  Ni  Ni167  1  0.45902825  0.05002640  0.79884858  1
  Ni  Ni168  1  0.49808594  0.86601472  0.28350743  1
  Ni  Ni169  1  0.22155327  0.34670920  0.82276688  1
  Ni  Ni170  1  0.78126903  0.76590336  0.77450959  1
  Ni  Ni171  1  0.78391196  0.43518974  0.68731316  1
  Ni  Ni172  1  0.26034451  0.85901510  0.14066250  1
  Ni  Ni173  1  0.69260494  0.18468634  0.87891391  1
  Ni  Ni174  1  0.40691247  0.08764880  0.36710304  1
  Ni  Ni175  1  0.57846309  0.72235600  0.60638408  1
  Ni  Ni176  1  0.26312860  0.22499836  0.70363964  1
  Ni  Ni177  1  0.47679688  0.80386363  0.70993165  1
  Ni  Ni178  1  0.65478649  0.39805635  -0.00773652  1
  Ni  Ni179  1  0.51540795  0.30513098  0.12107691  1
  Ni  Ni180  1  0.63840358  0.26067922  0.44560728  1
  Ni  Ni181  1  0.23514346  0.30924824  0.19302012  1
  Ni  Ni182  1  0.76742181  0.12641708  0.73546717  1
  Ni  Ni183  1  0.18090585  0.30729727  0.58128679  1
  Ni  Ni184  1  0.52791811  0.37382338  0.55925301  1
  Ni  Ni185  1  0.49837302  0.15588014  0.07629907  1
  Ni  Ni186  1  0.77378636  0.52681106  -0.00349083  1
  Ni  Ni187  1  0.76896913  -0.01866389  0.54792272  1
  Ni  Ni188  1  0.93932405  0.61438729  0.46691968  1
  Ni  Ni189  1  0.24258165  0.13450385  0.21068109  1
  Ni  Ni190  1  0.02794528  0.54900338  0.21415533  1
  Ni  Ni191  1  0.60455381  0.75562950  -0.04191177  1
  Ni  Ni192  1  0.23714332  0.58208355  -0.00292180  1
  Ni  Ni193  1  0.65281455  0.83138276  0.31589868  1
  Ni  Ni194  1  0.60934546  0.12937457  0.18866152  1
  Ni  Ni195  1  0.00232087  0.55138981  0.81452137  1
  Ni  Ni196  1  0.91692781  0.04865832  0.88950407  1
  Ni  Ni197  1  0.02547348  0.81490925  0.86527594  1
  Ni  Ni198  1  0.35672430  0.85148635  0.48591914  1
  Ni  Ni199  1  0.14524644  0.01852791  0.48238427  1
  Ni  Ni200  1  0.85950518  0.34914133  0.54987669  1
  Ni  Ni201  1  0.74035150  0.09305581  0.41546547  1
  Ni  Ni202  1  0.28189404  0.81082316  0.85749168  1
  Ni  Ni203  1  0.64448038  -0.04673487  0.42539850  1
  Ni  Ni204  1  0.61585205  0.05106531  0.55504484  1
  Ni  Ni205  1  0.10157764  0.05343833  0.20698579  1
  Ni  Ni206  1  0.78273649  -0.08836899  0.19517106  1
  Ni  Ni207  1  0.32239058  0.74927511  0.70563994  1
  Ni  Ni208  1  0.48870797  0.42123969  -0.00493982  1
  Ni  Ni209  1  -0.01907219  0.16997320  0.19978386  1
  Ni  Ni210  1  0.04401376  0.78864703  0.62795376  1
  Ni  Ni211  1  0.36130272  0.38229129  0.09460694  1
  Ni  Ni212  1  0.20436112  -0.03872402  0.81693595  1
  Ni  Ni213  1  0.29300621  0.10052110  0.80935744  1
  Ni  Ni214  1  0.63494929  0.88056237  0.57321269  1
