# generated using pymatgen
data_Ti108Co54Ni53
_symmetry_space_group_name_H-M   'P 1'
_cell_length_a   14.62613035
_cell_length_b   14.66194714
_cell_length_c   14.69413948
_cell_angle_alpha   90.02250017
_cell_angle_beta   89.95416670
_cell_angle_gamma   89.98915192
_symmetry_Int_Tables_number   1
_chemical_formula_structural   Ti108Co54Ni53
_chemical_formula_sum   'Ti108 Co54 Ni53'
_cell_volume   3151.12090297
_cell_formula_units_Z   1
loop_
 _symmetry_equiv_pos_site_id
 _symmetry_equiv_pos_as_xyz
  1  'x, y, z'
loop_
 _atom_site_type_symbol
 _atom_site_label
 _atom_site_symmetry_multiplicity
 _atom_site_fract_x
 _atom_site_fract_y
 _atom_site_fract_z
 _atom_site_occupancy
  Ti  Ti0  1  0.13564628  0.04945679  0.22368177  1
  Ti  Ti1  1  0.06714626  0.17638552  0.56404821  1
  Ti  Ti2  1  0.07872922  0.12529234  0.90516385  1
  Ti  Ti3  1  0.11074252  0.40695749  0.23297728  1
  Ti  Ti4  1  0.01203311  0.36818238  0.55271962  1
  Ti  Ti5  1  0.12306350  0.43270986  0.89770719  1
  Ti  Ti6  1  0.07291418  0.71502617  0.31308399  1
  Ti  Ti7  1  0.04639152  0.72702107  0.60474173  1
  Ti  Ti8  1  0.12282960  0.70765752  0.83647375  1
  Ti  Ti9  1  0.36816567  0.06697707  0.22395011  1
  Ti  Ti10  1  0.36392404  0.06803743  0.61135366  1
  Ti  Ti11  1  0.48965552  0.08071762  0.95031997  1
  Ti  Ti12  1  0.45546411  0.35063471  0.29460658  1
  Ti  Ti13  1  0.41850135  0.35374014  0.51070848  1
  Ti  Ti14  1  0.44694542  0.37988787  0.96758861  1
  Ti  Ti15  1  0.38614607  0.71873128  0.30475004  1
  Ti  Ti16  1  0.40967345  0.73068327  0.56619827  1
  Ti  Ti17  1  0.39749895  0.70468273  0.93895167  1
  Ti  Ti18  1  0.83001549  0.10005904  0.22248895  1
  Ti  Ti19  1  0.83237077  0.11256939  0.60464448  1
  Ti  Ti20  1  0.75659169  0.09323952  0.88278395  1
  Ti  Ti21  1  0.75343869  0.42236546  0.18774646  1
  Ti  Ti22  1  0.71752454  0.47262072  0.61984275  1
  Ti  Ti23  1  0.79289970  0.45506419  0.87696906  1
  Ti  Ti24  1  0.75793804  0.82642615  0.21358796  1
  Ti  Ti25  1  0.71508155  0.73235431  0.63902048  1
  Ti  Ti26  1  0.77063685  0.75871321  0.98985256  1
  Ti  Ti27  1  0.08122292  0.23591037  0.10563129  1
  Ti  Ti28  1  0.02807173  0.25959974  0.38753003  1
  Ti  Ti29  1  0.02773136  0.20563285  0.75012435  1
  Ti  Ti30  1  0.06909086  0.58283890  0.13978919  1
  Ti  Ti31  1  0.12865149  0.59485431  0.45675195  1
  Ti  Ti32  1  0.10369851  0.54685441  0.75268608  1
  Ti  Ti33  1  0.04205306  0.90330156  0.10678712  1
  Ti  Ti34  1  0.09980813  0.92338982  0.39803000  1
  Ti  Ti35  1  0.08544590  0.86578605  0.73900120  1
  Ti  Ti36  1  0.37768768  0.25080092  0.13681205  1
  Ti  Ti37  1  0.35225403  0.22200677  0.37343212  1
  Ti  Ti38  1  0.37852179  0.26323078  0.69520000  1
  Ti  Ti39  1  0.35959351  0.66691827  0.11876634  1
  Ti  Ti40  1  0.43433256  0.52997294  0.36947171  1
  Ti  Ti41  1  0.42667464  0.60805704  0.72374190  1
  Ti  Ti42  1  0.38538026  0.95379394  0.05357146  1
  Ti  Ti43  1  0.43180239  0.90888584  0.46785551  1
  Ti  Ti44  1  0.47997278  0.97368350  0.76352583  1
  Ti  Ti45  1  0.76151097  0.30331860  0.04275726  1
  Ti  Ti46  1  0.75693551  0.29702069  0.47282755  1
  Ti  Ti47  1  0.70602515  0.20551467  0.72430269  1
  Ti  Ti48  1  0.73868947  0.61795406  0.12268991  1
  Ti  Ti49  1  0.73716642  0.65854881  0.41668292  1
  Ti  Ti50  1  0.79895011  0.60506034  0.75015083  1
  Ti  Ti51  1  0.71589941  0.94876991  0.07160971  1
  Ti  Ti52  1  0.75986335  0.82987430  0.49060262  1
  Ti  Ti53  1  0.77040389  0.92386703  0.69455259  1
  Ti  Ti54  1  0.19713803  0.02849478  0.01224873  1
  Ti  Ti55  1  0.22660721  0.09235426  0.46042940  1
  Ti  Ti56  1  0.22818426  0.11603335  0.78369610  1
  Ti  Ti57  1  0.28602284  0.46247478  0.09038863  1
  Ti  Ti58  1  0.27869033  0.42155604  0.39375089  1
  Ti  Ti59  1  0.25012676  0.39137787  0.76340858  1
  Ti  Ti60  1  0.22137718  0.81717616  0.09085606  1
  Ti  Ti61  1  0.22657870  0.76019585  0.41452503  1
  Ti  Ti62  1  0.26736760  0.80411406  0.68753532  1
  Ti  Ti63  1  0.65373509  0.13127632  0.05843060  1
  Ti  Ti64  1  0.49563050  0.10343101  0.41714126  1
  Ti  Ti65  1  0.53709668  0.14914659  0.69489611  1
  Ti  Ti66  1  0.61183898  0.46783376  0.06043603  1
  Ti  Ti67  1  0.58544538  0.41961772  0.42692863  1
  Ti  Ti68  1  0.53450015  0.37188588  0.77577990  1
  Ti  Ti69  1  0.57186871  0.66869041  0.02472433  1
  Ti  Ti70  1  0.58268533  0.78718764  0.35988848  1
  Ti  Ti71  1  0.56414446  0.80352039  0.72642321  1
  Ti  Ti72  1  0.97949954  0.07983348  0.08884922  1
  Ti  Ti73  1  0.93259937  0.06118979  0.42609488  1
  Ti  Ti74  1  0.94194231  -0.00211214  0.78517809  1
  Ti  Ti75  1  0.95163696  0.38435269  0.07995213  1
  Ti  Ti76  1  0.86113184  0.49428423  0.36344439  1
  Ti  Ti77  1  0.96434732  0.37333616  0.81305919  1
  Ti  Ti78  1  0.99440903  0.73230511  -0.01479915  1
  Ti  Ti79  1  0.93485490  0.68943521  0.44699891  1
  Ti  Ti80  1  0.85083537  0.78689361  0.79324150  1
  Ti  Ti81  1  0.20028288  0.23440916  0.26854190  1
  Ti  Ti82  1  0.22356914  0.35965107  0.57598017  1
  Ti  Ti83  1  0.34153931  0.21965828  0.91849132  1
  Ti  Ti84  1  0.22438913  0.56870465  0.28242713  1
  Ti  Ti85  1  0.28954936  0.54451697  0.57441533  1
  Ti  Ti86  1  0.28168312  0.55086835  0.91072238  1
  Ti  Ti87  1  0.28211174  0.89783634  0.30138774  1
  Ti  Ti88  1  0.19635284  0.98049213  0.62719428  1
  Ti  Ti89  1  0.28416184  0.86003723  0.89356888  1
  Ti  Ti90  1  0.58659425  0.28627584  0.16263091  1
  Ti  Ti91  1  0.59246670  0.32132383  0.59785720  1
  Ti  Ti92  1  0.63213100  0.25802336  0.91093318  1
  Ti  Ti93  1  0.53831564  0.58571273  0.20217639  1
  Ti  Ti94  1  0.58602932  0.59603022  0.53665120  1
  Ti  Ti95  1  0.52839078  0.54212396  0.88543298  1
  Ti  Ti96  1  0.53481017  0.92014017  0.17098967  1
  Ti  Ti97  1  0.59780952  0.90243885  0.58233589  1
  Ti  Ti98  1  0.52694255  0.87046217  0.92659650  1
  Ti  Ti99  1  0.89058257  0.31440448  0.25818738  1
  Ti  Ti100  1  0.85606299  0.29332568  0.65487713  1
  Ti  Ti101  1  0.91087305  0.22635743  0.95050814  1
  Ti  Ti102  1  0.88432724  0.65875054  0.25182145  1
  Ti  Ti103  1  0.95462893  0.55139282  0.62601555  1
  Ti  Ti104  1  0.96573721  0.53243854  0.96549991  1
  Ti  Ti105  1  0.94788361  0.85659142  0.27573569  1
  Ti  Ti106  1  0.97133220  0.94380949  0.60526346  1
  Ti  Ti107  1  0.88491765  0.92301190  0.99285128  1
  Co  Co108  1  0.51020093  0.75023095  0.20264052  1
  Co  Co109  1  0.20129427  0.20405372  -0.01662496  1
  Co  Co110  1  0.82355354  0.78559127  0.35451578  1
  Co  Co111  1  0.29691958  0.38103280  0.24034781  1
  Co  Co112  1  0.88796076  0.22638926  0.11999169  1
  Co  Co113  1  0.46549164  0.80204870  0.05644594  1
  Co  Co114  1  0.64050082  0.41581182  -0.08585846  1
  Co  Co115  1  0.07852855  0.02417663  0.52200471  1
  Co  Co116  1  -0.08259310  0.49545952  0.19256063  1
  Co  Co117  1  0.04219819  0.55686863  0.30799941  1
  Co  Co118  1  0.85710527  0.41561380  0.52930773  1
  Co  Co119  1  0.44175488  0.52391340  0.52919083  1
  Co  Co120  1  0.30864724  0.61729262  0.43400142  1
  Co  Co121  1  0.88417530  0.79903399  0.11079762  1
  Co  Co122  1  0.17482321  0.26502712  0.82954206  1
  Co  Co123  1  0.79038229  -0.06687992  0.87069132  1
  Co  Co124  1  0.38417760  0.42775958  0.65889726  1
  Co  Co125  1  0.07706119  0.05633138  0.70486918  1
  Co  Co126  1  -0.01373143  0.51801790  0.47050981  1
  Co  Co127  1  0.63979442  -0.01344916  -0.05776436  1
  Co  Co128  1  0.69884225  0.36623991  0.74597513  1
  Co  Co129  1  0.26729576  0.55378684  0.73346824  1
  Co  Co130  1  0.27243989  0.36907450  -0.05600748  1
  Co  Co131  1  0.22406301  0.31205015  0.10815898  1
  Co  Co132  1  0.81394837  0.09096786  0.05254905  1
  Co  Co133  1  0.44217184  0.54815350  0.03908722  1
  Co  Co134  1  -0.08542121  0.23017991  0.51139622  1
  Co  Co135  1  0.87433657  -0.04367062  0.15499707  1
  Co  Co136  1  0.71851814  0.36514743  0.33386448  1
  Co  Co137  1  0.72741410  0.54894781  0.27880589  1
  Co  Co138  1  0.41946906  0.89251242  0.63481101  1
  Co  Co139  1  0.11362576  0.58795196  -0.04378276  1
  Co  Co140  1  0.47473872  0.20086604  0.55244613  1
  Co  Co141  1  0.59939095  0.10830283  0.83841558  1
  Co  Co142  1  0.36731275  0.83762844  0.17694038  1
  Co  Co143  1  0.48591385  0.18928568  0.26165156  1
  Co  Co144  1  0.65766887  0.51472537  0.78785331  1
  Co  Co145  1  0.45268008  0.88685255  0.30676520  1
  Co  Co146  1  0.58768755  0.44314536  0.25401248  1
  Co  Co147  1  0.59387087  0.75669041  0.52091773  1
  Co  Co148  1  0.25016074  -0.03562438  0.15102665  1
  Co  Co149  1  0.11928657  0.85492054  0.54779876  1
  Co  Co150  1  -0.05126825  0.53884689  0.80793020  1
  Co  Co151  1  0.49629759  0.23027064  0.02115074  1
  Co  Co152  1  0.47319752  0.67808808  0.43520200  1
  Co  Co153  1  -0.08344919  0.07371839  0.91893898  1
  Co  Co154  1  0.63862433  -0.03943611  0.78101585  1
  Co  Co155  1  0.48727667  0.23486709  0.84156284  1
  Co  Co156  1  -0.01958010  0.69624249  0.75113114  1
  Co  Co157  1  -0.00709684  0.40903341  0.34397496  1
  Co  Co158  1  0.24044514  0.14221299  0.13055534  1
  Co  Co159  1  0.54679978  0.26087614  0.41925997  1
  Co  Co160  1  0.66733994  0.69731390  0.24783924  1
  Co  Co161  1  0.69764054  0.58094392  -0.04980760  1
  Ni  Ni162  1  0.03958264  -0.02716641  -0.04613163  1
  Ni  Ni163  1  0.16123970  -0.02580459  0.83905106  1
  Ni  Ni164  1  0.59530422  0.58653419  0.36279187  1
  Ni  Ni165  1  0.19426816  0.22023067  0.66371040  1
  Ni  Ni166  1  0.85386840  0.64465157  0.90206689  1
  Ni  Ni167  1  -0.01928909  0.01552991  0.26959505  1
  Ni  Ni168  1  0.46353616  0.41128264  0.13353403  1
  Ni  Ni169  1  0.50148820  0.09092713  0.12358535  1
  Ni  Ni170  1  0.54043853  0.48599224  0.65915323  1
  Ni  Ni171  1  0.59794066  0.63599701  0.70595487  1
  Ni  Ni172  1  0.82468164  -0.03169609  0.52918238  1
  Ni  Ni173  1  0.08982580  0.10532876  0.37315216  1
  Ni  Ni174  1  0.31088058  0.21566381  0.54299477  1
  Ni  Ni175  1  0.72430465  0.49489134  0.45466941  1
  Ni  Ni176  1  0.37725954  0.52678031  0.21571629  1
  Ni  Ni177  1  0.51817072  0.03800078  0.56810627  1
  Ni  Ni178  1  0.90275315  0.63522809  0.08717310  1
  Ni  Ni179  1  0.84659487  0.19516918  0.36719489  1
  Ni  Ni180  1  0.06061870  0.29372595  -0.04966479  1
  Ni  Ni181  1  0.53678668  0.70407758  0.85173325  1
  Ni  Ni182  1  0.67251395  0.04417534  0.63932735  1
  Ni  Ni183  1  0.88008455  0.80059006  0.61682328  1
  Ni  Ni184  1  0.12076963  0.49698141  0.59432271  1
  Ni  Ni185  1  0.87013169  0.15636031  0.76938403  1
  Ni  Ni186  1  0.22686032  0.70248864  -0.02371953  1
  Ni  Ni187  1  0.28912514  0.69538408  0.81334766  1
  Ni  Ni188  1  0.11480182  0.44086358  0.06070414  1
  Ni  Ni189  1  0.34990604  0.02887415  0.38008478  1
  Ni  Ni190  1  0.18890473  0.26379768  0.44219644  1
  Ni  Ni191  1  0.03670685  0.74478957  0.15565977  1
  Ni  Ni192  1  0.39396822  0.11285890  0.78537923  1
  Ni  Ni193  1  0.63535369  0.79700989  0.09948112  1
  Ni  Ni194  1  0.12807416  0.86320824  0.24187383  1
  Ni  Ni195  1  0.40915298  0.80917804  0.78789677  1
  Ni  Ni196  1  0.12312107  0.42548519  0.43383228  1
  Ni  Ni197  1  0.22371443  0.72539716  0.22838427  1
  Ni  Ni198  1  0.39131112  0.46022284  0.81937197  1
  Ni  Ni199  1  0.22243387  0.70322049  0.56736536  1
  Ni  Ni200  1  0.74044564  0.24280204  0.21223912  1
  Ni  Ni201  1  0.30963398  -0.04279510  0.75423931  1
  Ni  Ni202  1  0.09330264  0.35891121  0.70270547  1
  Ni  Ni203  1  0.80298005  0.28860021  0.84571734  1
  Ni  Ni204  1  0.81153569  0.48590997  0.04202083  1
  Ni  Ni205  1  0.28439207  0.86700513  0.52777176  1
  Ni  Ni206  1  0.85728314  0.44538962  0.70487451  1
  Ni  Ni207  1  0.32749383  0.02440666  -0.09441676  1
  Ni  Ni208  1  0.67517793  0.82072511  0.86606590  1
  Ni  Ni209  1  0.00046013  0.17745541  0.24500579  1
  Ni  Ni210  1  -0.04929731  0.85908855  0.45956113  1
  Ni  Ni211  1  0.83383947  0.64386354  0.56904541  1
  Ni  Ni212  1  0.12809663  0.84079842  -0.05158488  1
  Ni  Ni213  1  0.65353643  0.17727797  0.54740832  1
  Ni  Ni214  1  -0.01579751  0.84258295  0.86331360  1
