# generated using pymatgen
data_Ti108Co54Ni53
_symmetry_space_group_name_H-M   'P 1'
_cell_length_a   14.66800876
_cell_length_b   14.62400706
_cell_length_c   14.61155718
_cell_angle_alpha   89.98531974
_cell_angle_beta   89.69750712
_cell_angle_gamma   89.71163196
_symmetry_Int_Tables_number   1
_chemical_formula_structural   Ti108Co54Ni53
_chemical_formula_sum   'Ti108 Co54 Ni53'
_cell_volume   3134.16954335
_cell_formula_units_Z   1
loop_
 _symmetry_equiv_pos_site_id
 _symmetry_equiv_pos_as_xyz
  1  'x, y, z'
loop_
 _atom_site_type_symbol
 _atom_site_label
 _atom_site_symmetry_multiplicity
 _atom_site_fract_x
 _atom_site_fract_y
 _atom_site_fract_z
 _atom_site_occupancy
  Ti  Ti0  1  0.08820306  0.06947753  0.19486728  1
  Ti  Ti1  1  0.08675706  0.03745677  0.58168041  1
  Ti  Ti2  1  0.09684953  0.06886626  0.96101132  1
  Ti  Ti3  1  0.06480350  0.46295593  0.28687881  1
  Ti  Ti4  1  0.00399870  0.42441809  0.55087738  1
  Ti  Ti5  1  0.09139862  0.44961105  0.87705966  1
  Ti  Ti6  1  0.05325646  0.79265104  0.28528822  1
  Ti  Ti7  1  0.07996530  0.78916273  0.53763700  1
  Ti  Ti8  1  0.10568673  0.77420649  0.83892467  1
  Ti  Ti9  1  0.41545217  0.01692370  0.28210035  1
  Ti  Ti10  1  0.46526835  0.04924707  0.63964525  1
  Ti  Ti11  1  0.43388412  0.07534093  0.96054209  1
  Ti  Ti12  1  0.38634166  0.43265388  0.13191530  1
  Ti  Ti13  1  0.40541241  0.47936504  0.59675809  1
  Ti  Ti14  1  0.41323513  0.37462872  0.91380146  1
  Ti  Ti15  1  0.42762217  0.80881757  0.28336857  1
  Ti  Ti16  1  0.46807948  0.73077766  0.61811915  1
  Ti  Ti17  1  0.38994865  0.69163078  0.95388715  1
  Ti  Ti18  1  0.73099266  0.10939215  0.29358830  1
  Ti  Ti19  1  0.65494563  0.07267942  0.58332720  1
  Ti  Ti20  1  0.75674185  0.07139937  0.91337543  1
  Ti  Ti21  1  0.75833014  0.46424070  0.19796196  1
  Ti  Ti22  1  0.83682863  0.33944086  0.60540920  1
  Ti  Ti23  1  0.71541163  0.43580587  0.99023119  1
  Ti  Ti24  1  0.70775013  0.78988623  0.31330998  1
  Ti  Ti25  1  0.77805852  0.76893042  0.63274118  1
  Ti  Ti26  1  0.78643462  0.78028880  0.92489303  1
  Ti  Ti27  1  0.08449006  0.25078857  0.07504974  1
  Ti  Ti28  1  0.08641955  0.22555759  0.33480810  1
  Ti  Ti29  1  0.06714989  0.22863799  0.84984330  1
  Ti  Ti30  1  0.12959272  0.60006020  0.15085955  1
  Ti  Ti31  1  0.11451118  0.55999441  0.46287105  1
  Ti  Ti32  1  0.04466929  0.52127031  0.71055875  1
  Ti  Ti33  1  0.05047527  0.90921988  0.09159689  1
  Ti  Ti34  1  0.04329665  0.91979017  0.41957204  1
  Ti  Ti35  1  0.08861427  0.99211916  0.78752132  1
  Ti  Ti36  1  0.46856989  0.25232686  0.09597134  1
  Ti  Ti37  1  0.41788107  0.36029515  0.41065504  1
  Ti  Ti38  1  0.43037411  0.27244020  0.73963889  1
  Ti  Ti39  1  0.46774343  0.59125550  0.11085186  1
  Ti  Ti40  1  0.40722758  0.56571234  0.40263091  1
  Ti  Ti41  1  0.35090286  0.62767986  0.73554726  1
  Ti  Ti42  1  0.49828274  0.90641023  0.07262263  1
  Ti  Ti43  1  0.40122789  0.90960053  0.46624564  1
  Ti  Ti44  1  0.38781031  0.81180359  0.78624171  1
  Ti  Ti45  1  0.75681176  0.27648159  0.09992922  1
  Ti  Ti46  1  0.73456549  0.33911373  0.37676645  1
  Ti  Ti47  1  0.76546992  0.20915547  0.74903523  1
  Ti  Ti48  1  0.78907256  0.61658184  0.09282259  1
  Ti  Ti49  1  0.78960050  0.54168317  0.38225022  1
  Ti  Ti50  1  0.80397672  0.60641758  0.72991945  1
  Ti  Ti51  1  0.69792974  0.93339448  0.04848896  1
  Ti  Ti52  1  0.73097443  0.89608042  0.49986815  1
  Ti  Ti53  1  0.72415106  0.90413876  0.81599235  1
  Ti  Ti54  1  0.25387110  0.10994854  0.07127346  1
  Ti  Ti55  1  0.18774717  0.04716273  0.38233671  1
  Ti  Ti56  1  0.25755935  0.07712029  0.83548187  1
  Ti  Ti57  1  0.23110004  0.38086417  0.00676603  1
  Ti  Ti58  1  0.19513905  0.36783726  0.38847917  1
  Ti  Ti59  1  0.28149766  0.46548136  0.80645170  1
  Ti  Ti60  1  0.18559296  0.76479663  0.03245535  1
  Ti  Ti61  1  0.23707307  0.77167279  0.38269603  1
  Ti  Ti62  1  0.23019147  0.75726637  0.68240731  1
  Ti  Ti63  1  0.61873979  0.13887949  0.02834374  1
  Ti  Ti64  1  0.56752564  0.04353769  0.41505756  1
  Ti  Ti65  1  0.59135320  0.14350593  0.83445779  1
  Ti  Ti66  1  0.58465086  0.40604788  0.17713714  1
  Ti  Ti67  1  0.59481480  0.48310344  0.40130077  1
  Ti  Ti68  1  0.65004420  0.47952105  0.71351984  1
  Ti  Ti69  1  0.58231599  0.72606953  0.04865021  1
  Ti  Ti70  1  0.59220021  0.76971524  0.48285339  1
  Ti  Ti71  1  0.57229355  0.72438025  0.82403941  1
  Ti  Ti72  1  0.88089114  0.01919424  0.14030246  1
  Ti  Ti73  1  0.86849949  0.00805080  0.35680848  1
  Ti  Ti74  1  0.96216796  0.13793696  0.72061382  1
  Ti  Ti75  1  0.94538921  0.41372544  0.12273649  1
  Ti  Ti76  1  0.93275401  0.34066152  0.40040451  1
  Ti  Ti77  1  0.95226231  0.34669261  0.76294576  1
  Ti  Ti78  1  0.92914659  0.75342052  0.04472605  1
  Ti  Ti79  1  0.91946410  0.69733900  0.39913887  1
  Ti  Ti80  1  0.94597796  0.80663137  0.71743278  1
  Ti  Ti81  1  0.27707921  0.30529257  0.19904016  1
  Ti  Ti82  1  0.19454113  0.24200311  0.59932113  1
  Ti  Ti83  1  0.23989382  0.28145183  0.79880814  1
  Ti  Ti84  1  0.33294610  0.62720434  0.24848547  1
  Ti  Ti85  1  0.21454351  0.53846894  0.63265194  1
  Ti  Ti86  1  0.21417552  0.58290750  0.95770821  1
  Ti  Ti87  1  0.27903042  0.87426155  0.16563969  1
  Ti  Ti88  1  0.25879979  0.95294367  0.64054788  1
  Ti  Ti89  1  0.30667059  0.91101704  0.94904848  1
  Ti  Ti90  1  0.61315116  0.22225784  0.22281426  1
  Ti  Ti91  1  0.57903934  0.29790532  0.53704202  1
  Ti  Ti92  1  0.60211705  0.34745707  0.84096906  1
  Ti  Ti93  1  0.60142171  0.61614772  0.23897002  1
  Ti  Ti94  1  0.68430152  0.59534267  0.55686509  1
  Ti  Ti95  1  0.57347961  0.55270066  0.91250104  1
  Ti  Ti96  1  0.59843456  0.96976103  0.22934152  1
  Ti  Ti97  1  0.60814811  0.86878423  0.66707671  1
  Ti  Ti98  1  0.52134970  0.94722649  0.81199347  1
  Ti  Ti99  1  0.92157760  0.16548743  0.25937471  1
  Ti  Ti100  1  0.93061343  0.17041472  0.50981758  1
  Ti  Ti101  1  0.87027300  0.27596338  0.92441061  1
  Ti  Ti102  1  0.93467181  0.60824437  0.23010074  1
  Ti  Ti103  1  0.94829764  0.63928947  0.58342040  1
  Ti  Ti104  1  0.88544545  0.61346405  0.92220807  1
  Ti  Ti105  1  0.87992560  0.81006159  0.21630331  1
  Ti  Ti106  1  0.90567315  0.96850945  0.53855048  1
  Ti  Ti107  1  0.93382973  0.95139462  0.91212606  1
  Co  Co108  1  0.10186885  0.87124214  0.67831854  1
  Co  Co109  1  0.70179229  -0.04424291  0.36011534  1
  Co  Co110  1  0.08586467  0.68509013  0.66962480  1
  Co  Co111  1  0.48463916  0.48737513  0.27396874  1
  Co  Co112  1  0.88798794  0.44574125  0.28918685  1
  Co  Co113  1  0.71408568  0.08426182  0.13702078  1
  Co  Co114  1  0.26397209  0.73444801  0.86354959  1
  Co  Co115  1  0.13954992  0.91204445  -0.05646390  1
  Co  Co116  1  0.46836482  0.83314510  -0.06714104  1
  Co  Co117  1  0.44313385  0.31638765  0.24677624  1
  Co  Co118  1  0.12932693  0.35533709  0.18565118  1
  Co  Co119  1  0.69859494  0.65542865  -0.03966657  1
  Co  Co120  1  0.85906068  0.85449102  0.38125203  1
  Co  Co121  1  0.59305736  -0.00371594  -0.05912341  1
  Co  Co122  1  0.49299316  0.23475276  -0.07768383  1
  Co  Co123  1  -0.01380224  0.31288089  0.24247453  1
  Co  Co124  1  0.88631403  0.47754107  0.68223541  1
  Co  Co125  1  0.62561973  0.83337584  0.93462163  1
  Co  Co126  1  0.32919048  0.25400401  0.03866595  1
  Co  Co127  1  0.77829588  0.71562764  0.47691185  1
  Co  Co128  1  0.04862578  0.73771356  0.13806573  1
  Co  Co129  1  0.20691706  0.73682291  0.21650269  1
  Co  Co130  1  0.67268674  0.32108724  0.67102049  1
  Co  Co131  1  -0.04939163  0.77715043  0.88291503  1
  Co  Co132  1  0.14309354  0.13764841  0.72038194  1
  Co  Co133  1  0.54733159  0.88010872  0.36572995  1
  Co  Co134  1  0.29629432  -0.07848328  0.34236019  1
  Co  Co135  1  0.82266873  0.20388166  0.39418201  1
  Co  Co136  1  0.20271779  -0.08427304  0.48651938  1
  Co  Co137  1  -0.08685886  0.80507418  0.52723572  1
  Co  Co138  1  0.43905522  0.11868515  0.78870177  1
  Co  Co139  1  0.86466824  0.46144402  -0.00471148  1
  Co  Co140  1  -0.00292362  0.36053350  -0.03615540  1
  Co  Co141  1  -0.03748283  0.53345910  0.41236885  1
  Co  Co142  1  -0.01203148  0.10445300  0.05980014  1
  Co  Co143  1  0.63954003  0.69703192  0.67743339  1
  Co  Co144  1  0.22944747  -0.10978248  0.80201986  1
  Co  Co145  1  0.85575239  0.89620953  0.04546344  1
  Co  Co146  1  0.23210220  0.47921573  0.16161311  1
  Co  Co147  1  0.25713580  0.02799137  0.22133288  1
  Co  Co148  1  0.55148609  -0.06926688  0.53369296  1
  Co  Co149  1  0.16146197  0.40302854  0.55531700  1
  Co  Co150  1  0.15414464  0.91251248  0.26921418  1
  Co  Co151  1  0.36710516  -0.02123136  0.77303106  1
  Co  Co152  1  0.34471710  0.20212857  0.88988535  1
  Co  Co153  1  0.76394864  0.07169367  0.46770865  1
  Co  Co154  1  0.71412103  0.25086493  0.91217752  1
  Co  Co155  1  0.01869972  0.08134054  0.40544418  1
  Co  Co156  1  0.07560779  0.27895672  0.48537539  1
  Co  Co157  1  -0.06289521  0.12377834  0.88798199  1
  Co  Co158  1  0.81927634  0.29719538  0.24477276  1
  Co  Co159  1  -0.08843337  0.47884717  0.84115138  1
  Co  Co160  1  0.34964163  0.62806417  0.55543480  1
  Co  Co161  1  0.77789636  0.65337884  0.25764277  1
  Ni  Ni162  1  0.06196319  0.66311342  -0.03159341  1
  Ni  Ni163  1  0.42145897  0.73260451  0.43565279  1
  Ni  Ni164  1  0.51752957  0.58453480  0.69906949  1
  Ni  Ni165  1  0.19818471  0.67595943  0.53241897  1
  Ni  Ni166  1  0.42026403  0.75620015  0.12036363  1
  Ni  Ni167  1  0.08120082  0.63809577  0.31682037  1
  Ni  Ni168  1  0.84150365  0.52769081  0.53741858  1
  Ni  Ni169  1  0.73655521  0.53216634  0.85897105  1
  Ni  Ni170  1  0.71080226  0.41818664  0.53129345  1
  Ni  Ni171  1  0.82656000  0.14096884  0.03261639  1
  Ni  Ni172  1  0.36493788  0.51878264  0.99116418  1
  Ni  Ni173  1  -0.03443073  0.57938642  0.07150403  1
  Ni  Ni174  1  0.57664824  0.80045525  0.19877537  1
  Ni  Ni175  1  0.60724368  0.30868398  0.02136725  1
  Ni  Ni176  1  0.09547237  0.46471925  0.05516218  1
  Ni  Ni177  1  0.84020222  0.03689540  0.78132310  1
  Ni  Ni178  1  -0.04548613  -0.03135200  0.69093756  1
  Ni  Ni179  1  0.78060611  0.93876154  0.65819748  1
  Ni  Ni180  1  0.42980860  0.55699711  0.85113303  1
  Ni  Ni181  1  0.19567425  0.21503124  -0.04855245  1
  Ni  Ni182  1  0.75988021  -0.07235195  0.20882808  1
  Ni  Ni183  1  0.28452313  0.47858428  0.47239851  1
  Ni  Ni184  1  0.96043898  0.64668451  0.77554021  1
  Ni  Ni185  1  0.82297334  0.09864482  0.62609067  1
  Ni  Ni186  1  0.56222133  0.46450236  0.57267454  1
  Ni  Ni187  1  0.12444279  0.36984971  0.71829712  1
  Ni  Ni188  1  0.42156589  0.89069000  0.63985033  1
  Ni  Ni189  1  0.74084476  0.77983378  0.11949776  1
  Ni  Ni190  1  0.51432623  0.08852412  0.14891457  1
  Ni  Ni191  1  0.73835630  0.22406879  0.54563313  1
  Ni  Ni192  1  0.64371083  0.19267093  0.41564797  1
  Ni  Ni193  1  0.77722109  0.38150456  0.79267722  1
  Ni  Ni194  1  0.56813590  0.32712408  0.34889708  1
  Ni  Ni195  1  0.63333597  0.55203090  0.08480550  1
  Ni  Ni196  1  0.46202118  0.43513622  0.75080572  1
  Ni  Ni197  1  0.17681217  0.60632326  0.79272211  1
  Ni  Ni198  1  0.49380299  0.17058709  0.31936403  1
  Ni  Ni199  1  0.36934295  0.15693209  0.19534548  1
  Ni  Ni200  1  0.29639409  0.63772547  0.09340365  1
  Ni  Ni201  1  0.37437500  0.00427063  0.10904631  1
  Ni  Ni202  1  0.52054521  0.44376340  0.02178090  1
  Ni  Ni203  1  0.29056551  0.37432387  0.66248328  1
  Ni  Ni204  1  0.32889223  0.43977792  0.29795549  1
  Ni  Ni205  1  0.65220187  0.64369645  0.39097412  1
  Ni  Ni206  1  -0.00788295  -0.04444984  0.26064132  1
  Ni  Ni207  1  0.02751241  0.26021623  0.63754828  1
  Ni  Ni208  1  0.51989815  0.61268893  0.50903339  1
  Ni  Ni209  1  0.31150014  0.79606985  0.54670036  1
  Ni  Ni210  1  0.67760709  0.04498020  0.73963542  1
  Ni  Ni211  1  0.20814680  0.17382328  0.24555787  1
  Ni  Ni212  1  0.56936828  0.18783249  0.67669355  1
  Ni  Ni213  1  -0.07656823  0.24494041  0.10591214  1
  Ni  Ni214  1  0.21427854  0.54718408  0.32738522  1
