# generated using pymatgen
data_Ti108Co54Ni53
_symmetry_space_group_name_H-M   'P 1'
_cell_length_a   14.61339472
_cell_length_b   14.59284613
_cell_length_c   14.62418221
_cell_angle_alpha   89.77612210
_cell_angle_beta   90.08074023
_cell_angle_gamma   89.82395953
_symmetry_Int_Tables_number   1
_chemical_formula_structural   Ti108Co54Ni53
_chemical_formula_sum   'Ti108 Co54 Ni53'
_cell_volume   3118.58010512
_cell_formula_units_Z   1
loop_
 _symmetry_equiv_pos_site_id
 _symmetry_equiv_pos_as_xyz
  1  'x, y, z'
loop_
 _atom_site_type_symbol
 _atom_site_label
 _atom_site_symmetry_multiplicity
 _atom_site_fract_x
 _atom_site_fract_y
 _atom_site_fract_z
 _atom_site_occupancy
  Ti  Ti0  1  0.07324123  0.06102113  0.31369049  1
  Ti  Ti1  1  0.09123421  0.04883179  0.61893069  1
  Ti  Ti2  1  0.15459925  0.10528700  0.93967770  1
  Ti  Ti3  1  0.03431585  0.42290374  0.21609285  1
  Ti  Ti4  1  0.11922435  0.38950621  0.62097660  1
  Ti  Ti5  1  0.05684500  0.41690736  0.86803451  1
  Ti  Ti6  1  0.10618639  0.71163106  0.23150946  1
  Ti  Ti7  1  0.03463588  0.79957058  0.56845300  1
  Ti  Ti8  1  0.06072704  0.75644549  0.87964687  1
  Ti  Ti9  1  0.39282653  -0.01312666  0.24548051  1
  Ti  Ti10  1  0.42137483  0.04616915  0.64148836  1
  Ti  Ti11  1  0.41592755  0.05915873  0.98402993  1
  Ti  Ti12  1  0.39219897  0.41833906  0.13745353  1
  Ti  Ti13  1  0.35024559  0.45723085  0.63742905  1
  Ti  Ti14  1  0.50685347  0.40201034  0.92612356  1
  Ti  Ti15  1  0.37310955  0.74052622  0.33215896  1
  Ti  Ti16  1  0.44305291  0.75356467  0.52450886  1
  Ti  Ti17  1  0.43489841  0.72617025  0.88363155  1
  Ti  Ti18  1  0.70273251  0.07327951  0.22367343  1
  Ti  Ti19  1  0.71699887  0.06573709  0.61671990  1
  Ti  Ti20  1  0.69190945  0.05624507  0.85914008  1
  Ti  Ti21  1  0.83753142  0.44998527  0.23910130  1
  Ti  Ti22  1  0.77525424  0.46124086  0.52611449  1
  Ti  Ti23  1  0.81491751  0.42671920  0.91630863  1
  Ti  Ti24  1  0.81704668  0.78252288  0.27364093  1
  Ti  Ti25  1  0.73906702  0.82257612  0.53134744  1
  Ti  Ti26  1  0.74474986  0.74842455  0.89231064  1
  Ti  Ti27  1  0.02678258  0.22885002  0.06774039  1
  Ti  Ti28  1  0.10435210  0.24760469  0.46131466  1
  Ti  Ti29  1  0.03664101  0.15812243  0.77905462  1
  Ti  Ti30  1  0.08081552  0.67352977  0.03694452  1
  Ti  Ti31  1  0.11335708  0.66331771  0.43021180  1
  Ti  Ti32  1  0.04696846  0.55503181  0.69569529  1
  Ti  Ti33  1  0.06065307  0.97183271  0.12806033  1
  Ti  Ti34  1  0.10541730  0.91613471  0.44818347  1
  Ti  Ti35  1  0.12654455  0.88069810  0.75872582  1
  Ti  Ti36  1  0.37818258  0.26771231  0.01670554  1
  Ti  Ti37  1  0.44955405  0.27732710  0.41431759  1
  Ti  Ti38  1  0.40260363  0.32021536  0.78124242  1
  Ti  Ti39  1  0.41644029  0.63181082  0.15318879  1
  Ti  Ti40  1  0.37558883  0.53655896  0.32559631  1
  Ti  Ti41  1  0.41223987  0.62192963  0.71784096  1
  Ti  Ti42  1  0.39028761  0.87608332  0.02807605  1
  Ti  Ti43  1  0.42169713  0.94288647  0.46570559  1
  Ti  Ti44  1  0.43012568  0.91826662  0.80048356  1
  Ti  Ti45  1  0.78811783  0.26357180  0.05433879  1
  Ti  Ti46  1  0.77461225  0.26068912  0.55404778  1
  Ti  Ti47  1  0.82001353  0.20529082  0.73778370  1
  Ti  Ti48  1  0.78660852  0.60679030  0.04592639  1
  Ti  Ti49  1  0.71921311  0.61093091  0.41914657  1
  Ti  Ti50  1  0.70977910  0.56750837  0.72098611  1
  Ti  Ti51  1  0.76473115  1.00072625  0.04056966  1
  Ti  Ti52  1  0.75240213  0.98489279  0.42323480  1
  Ti  Ti53  1  0.76224276  0.90077594  0.73077390  1
  Ti  Ti54  1  0.25173283  0.01743442  0.07471006  1
  Ti  Ti55  1  0.29220008  0.09015377  0.38883070  1
  Ti  Ti56  1  0.26580934  0.13631829  0.73407983  1
  Ti  Ti57  1  0.18952438  0.37227959  0.04656581  1
  Ti  Ti58  1  0.21513073  0.43220131  0.43979684  1
  Ti  Ti59  1  0.22451244  0.46424483  0.78623016  1
  Ti  Ti60  1  0.23986141  0.72479941  0.09649508  1
  Ti  Ti61  1  0.26056319  0.79434283  0.48978526  1
  Ti  Ti62  1  0.20136898  0.67873459  0.75034469  1
  Ti  Ti63  1  0.59203842  0.03588563  0.05408545  1
  Ti  Ti64  1  0.55916404  0.04661992  0.36944890  1
  Ti  Ti65  1  0.49393056  0.14495422  0.80810600  1
  Ti  Ti66  1  0.55702035  0.50004103  0.09852651  1
  Ti  Ti67  1  0.54631283  0.45363657  0.45896271  1
  Ti  Ti68  1  0.53691465  0.46067446  0.69887470  1
  Ti  Ti69  1  0.65632318  0.71635938  0.11600251  1
  Ti  Ti70  1  0.59327733  0.75933256  0.38899479  1
  Ti  Ti71  1  0.59141648  0.71267148  0.78792832  1
  Ti  Ti72  1  0.90449825  0.10053620  0.13538691  1
  Ti  Ti73  1  0.96575536  0.08674911  0.46690954  1
  Ti  Ti74  1  0.87323204  0.04215489  0.81784163  1
  Ti  Ti75  1  0.96723349  0.39931021  0.04139153  1
  Ti  Ti76  1  0.99608949  0.41415387  0.41343059  1
  Ti  Ti77  1  0.80473464  0.39325535  0.71861824  1
  Ti  Ti78  1  0.91006304  0.71463213  0.12073480  1
  Ti  Ti79  1  0.88039026  0.71930966  0.44578036  1
  Ti  Ti80  1  0.88240908  0.67963876  0.75207492  1
  Ti  Ti81  1  0.28652324  0.24606505  0.22663700  1
  Ti  Ti82  1  0.30816373  0.29819968  0.55551993  1
  Ti  Ti83  1  0.23591201  0.28887897  0.87611534  1
  Ti  Ti84  1  0.22421767  0.45594305  0.22594295  1
  Ti  Ti85  1  0.30084135  0.59996443  0.49840678  1
  Ti  Ti86  1  0.26449630  0.59160365  0.92611504  1
  Ti  Ti87  1  0.24215575  0.86972280  0.20601071  1
  Ti  Ti88  1  0.25309375  0.97520022  0.55967660  1
  Ti  Ti89  1  0.25120954  0.82227666  0.91026355  1
  Ti  Ti90  1  0.50596936  0.25614269  0.21715259  1
  Ti  Ti91  1  0.56519467  0.20836240  0.60574545  1
  Ti  Ti92  1  0.61594171  0.22261570  0.95387580  1
  Ti  Ti93  1  0.56266446  0.56434760  0.28734846  1
  Ti  Ti94  1  0.59988148  0.68919425  0.58635781  1
  Ti  Ti95  1  0.65290001  0.54302771  0.94013986  1
  Ti  Ti96  1  0.54097085  0.89407395  0.17323504  1
  Ti  Ti97  1  0.56764519  0.88539177  0.63290857  1
  Ti  Ti98  1  0.60883349  0.85679250  0.97258420  1
  Ti  Ti99  1  0.98606239  0.23127420  0.29204445  1
  Ti  Ti100  1  0.97625558  0.24390887  0.60645059  1
  Ti  Ti101  1  0.91824307  0.27054592  0.88398414  1
  Ti  Ti102  1  0.96879661  0.60537496  0.29933082  1
  Ti  Ti103  1  0.95304141  0.57518606  0.52440881  1
  Ti  Ti104  1  0.95077746  0.57304423  0.95140589  1
  Ti  Ti105  1  0.94026781  0.93899431  0.31151757  1
  Ti  Ti106  1  0.88908332  0.96067255  0.59980408  1
  Ti  Ti107  1  0.96628762  0.85195567  1.00651041  1
  Co  Co108  1  -0.01350040  0.13104999  0.94040048  1
  Co  Co109  1  0.25618887  0.31798217  0.70706907  1
  Co  Co110  1  0.69433126  0.53459406  0.16807417  1
  Co  Co111  1  0.47715939  0.34947238  0.57896037  1
  Co  Co112  1  0.49849428  0.75822229  0.07153047  1
  Co  Co113  1  0.64159012  -0.09949159  0.30550727  1
  Co  Co114  1  0.40638868  0.21239310  0.65644891  1
  Co  Co115  1  0.42564344  0.14680394  0.31744776  1
  Co  Co116  1  0.27909260  -0.03812491  0.72525242  1
  Co  Co117  1  0.46308697  0.56534683  0.56944139  1
  Co  Co118  1  0.37636956  0.87879359  0.61897810  1
  Co  Co119  1  0.52612586  0.73224977  0.23982246  1
  Co  Co120  1  0.48042537  0.62446127  0.42014624  1
  Co  Co121  1  0.81909598  0.12074974  0.49223220  1
  Co  Co122  1  0.47753451  0.87136273  0.33489281  1
  Co  Co123  1  0.65556274  0.19202858  0.12264712  1
  Co  Co124  1  0.27145471  -0.07483215  0.37149967  1
  Co  Co125  1  0.53917545  0.33158608  0.07577140  1
  Co  Co126  1  0.85418588  0.53002394  0.38579006  1
  Co  Co127  1  0.87229268  0.53149438  0.65597908  1
  Co  Co128  1  0.13814529  0.67512420  0.59000388  1
  Co  Co129  1  0.11980005  0.56671504  0.16532343  1
  Co  Co130  1  0.21820460  0.54681171  0.64194286  1
  Co  Co131  1  0.67224523  0.39044785  0.00682121  1
  Co  Co132  1  0.27006723  0.25049744  0.40672958  1
  Co  Co133  1  0.38387882  0.44600468  0.47382600  1
  Co  Co134  1  0.53393292  0.56183745  0.83271106  1
  Co  Co135  1  0.81202767  0.14678601  -0.05284867  1
  Co  Co136  1  0.14599889  0.09345083  0.47009704  1
  Co  Co137  1  0.82247773  0.61556456  0.22180744  1
  Co  Co138  1  0.81272670  0.45045356  0.07968368  1
  Co  Co139  1  0.25985315  0.63883110  0.24243571  1
  Co  Co140  1  0.44365353  0.55274497  -0.01563443  1
  Co  Co141  1  0.30804327  0.70055361  0.62430507  1
  Co  Co142  1  0.11137470  -0.09779564  0.28840244  1
  Co  Co143  1  0.39019096  0.80533715  0.17902835  1
  Co  Co144  1  0.78864318  0.80687259  0.04200726  1
  Co  Co145  1  0.16044073  0.18935048  0.30809020  1
  Co  Co146  1  -0.07831980  0.26359181  0.44917444  1
  Co  Co147  1  0.08555580  0.26490018  -0.07487199  1
  Co  Co148  1  0.35955593  0.69777102  0.01217508  1
  Co  Co149  1  0.90923231  0.10654716  0.64822114  1
  Co  Co150  1  0.69685855  0.89003158  0.14240984  1
  Co  Co151  1  0.15136381  0.03635952  0.78913041  1
  Co  Co152  1  0.19840200  0.83528037  0.63016983  1
  Co  Co153  1  0.13030067  0.29435402  0.17752319  1
  Co  Co154  1  0.13587445  0.34739495  0.32950738  1
  Co  Co155  1  -0.10139298  0.72203887  -0.06341088  1
  Co  Co156  1  0.46962159  0.77436395  0.70373512  1
  Co  Co157  1  0.62431189  0.87530096  0.80648150  1
  Co  Co158  1  0.10834279  0.29938314  0.76284845  1
  Co  Co159  1  0.10852266  0.52271188  0.52058265  1
  Co  Co160  1  0.11896338  0.52928548  0.33539181  1
  Co  Co161  1  0.20304401  0.77409912  0.34336969  1
  Ni  Ni162  1  0.56759065  0.30146949  0.78648634  1
  Ni  Ni163  1  0.63538749  0.53328460  0.57161448  1
  Ni  Ni164  1  0.55781452  0.04100976  0.54737617  1
  Ni  Ni165  1  -0.04603008  0.55040376  0.12630541  1
  Ni  Ni166  1  0.72162615  0.74900305  0.69403440  1
  Ni  Ni167  1  0.33638565  0.15812666  0.88376084  1
  Ni  Ni168  1  0.49949667  0.40772795  0.29038221  1
  Ni  Ni169  1  0.52958021  0.08498997  0.20399766  1
  Ni  Ni170  1  0.78927264  0.94594860  0.26152413  1
  Ni  Ni171  1  0.34366329  0.37197269  0.32048706  1
  Ni  Ni172  1  0.01331840  0.78402808  0.36406060  1
  Ni  Ni173  1  0.57529710  0.67989658  -0.04036510  1
  Ni  Ni174  1  0.90286815  0.30043092  0.16912861  1
  Ni  Ni175  1  0.66342623  0.43029784  0.81676950  1
  Ni  Ni176  1  -0.08721859  0.88154214  0.46310669  1
  Ni  Ni177  1  -0.02925825  0.37388174  0.72246365  1
  Ni  Ni178  1  0.65789039  0.35298998  0.64833073  1
  Ni  Ni179  1  -0.00363494  -0.01746944  0.73561642  1
  Ni  Ni180  1  0.38624923  0.49211833  0.82628020  1
  Ni  Ni181  1  0.87208876  0.09736590  0.31215717  1
  Ni  Ni182  1  0.14505626  0.86092046  0.03190511  1
  Ni  Ni183  1  0.91281866  0.00080884  0.97651934  1
  Ni  Ni184  1  0.28394754  -0.01100289  -0.10324695  1
  Ni  Ni185  1  -0.07741867  0.50536020  0.80460577  1
  Ni  Ni186  1  0.22661159  0.20044146  0.05935545  1
  Ni  Ni187  1  0.03570657  0.72805374  0.71593299  1
  Ni  Ni188  1  0.68466202  0.67954219  0.27056875  1
  Ni  Ni189  1  0.92125201  0.39525378  0.56437861  1
  Ni  Ni190  1  0.50192494  0.17475044  0.06825063  1
  Ni  Ni191  1  0.73712509  0.28507707  0.86526566  1
  Ni  Ni192  1  0.27686323  0.54421506  0.08562208  1
  Ni  Ni193  1  0.31473786  0.79918066  0.75618657  1
  Ni  Ni194  1  0.66030959  0.17746191  0.74387461  1
  Ni  Ni195  1  0.10642996  0.50951150  0.01308625  1
  Ni  Ni196  1  -0.00351469  0.82639201  0.19736849  1
  Ni  Ni197  1  0.36671467  0.12597038  0.14777283  1
  Ni  Ni198  1  0.59823890  0.90489704  0.46635870  1
  Ni  Ni199  1  0.22422012  0.03654100  0.23963889  1
  Ni  Ni200  1  0.78690101  -0.09108375  -0.10075357  1
  Ni  Ni201  1  0.15060833  0.21207566  0.62376993  1
  Ni  Ni202  1  0.87514576  0.78935057  0.62528108  1
  Ni  Ni203  1  0.77858369  0.64810978  0.57502806  1
  Ni  Ni204  1  0.88662460  -0.07260336  0.13368945  1
  Ni  Ni205  1  0.28893990  0.13684223  0.55395333  1
  Ni  Ni206  1  0.10058483  0.58727859  0.86202691  1
  Ni  Ni207  1  0.32705186  0.42498936  -0.03616838  1
  Ni  Ni208  1  0.58242022  0.02536163  0.72327394  1
  Ni  Ni209  1  -0.07228855  0.85340511  0.81869192  1
  Ni  Ni210  1  0.65774000  0.14632710  0.46858650  1
  Ni  Ni211  1  0.05972739  -0.04389645  -0.09450272  1
  Ni  Ni212  1  0.54344046  -0.00470348  0.89334699  1
  Ni  Ni213  1  0.79788742  0.59035298  0.86699555  1
  Ni  Ni214  1  0.11121445  0.12614881  0.15842748  1
