# generated using pymatgen
data_Ti108Co54Ni53
_symmetry_space_group_name_H-M   'P 1'
_cell_length_a   14.71874486
_cell_length_b   14.67071591
_cell_length_c   14.57476571
_cell_angle_alpha   89.73815652
_cell_angle_beta   90.14412386
_cell_angle_gamma   89.80030661
_symmetry_Int_Tables_number   1
_chemical_formula_structural   Ti108Co54Ni53
_chemical_formula_sum   'Ti108 Co54 Ni53'
_cell_volume   3147.13303681
_cell_formula_units_Z   1
loop_
 _symmetry_equiv_pos_site_id
 _symmetry_equiv_pos_as_xyz
  1  'x, y, z'
loop_
 _atom_site_type_symbol
 _atom_site_label
 _atom_site_symmetry_multiplicity
 _atom_site_fract_x
 _atom_site_fract_y
 _atom_site_fract_z
 _atom_site_occupancy
  Ti  Ti0  1  0.12727754  0.15147327  0.26344374  1
  Ti  Ti1  1  0.05201647  0.09612320  0.58631537  1
  Ti  Ti2  1  0.07390731  0.10753200  0.96299838  1
  Ti  Ti3  1  0.04815620  0.45818476  0.27919032  1
  Ti  Ti4  1  0.11985449  0.41241527  0.56604431  1
  Ti  Ti5  1  0.04568154  0.43433291  0.92316992  1
  Ti  Ti6  1  0.08742263  0.76063984  0.28875787  1
  Ti  Ti7  1  0.15844025  0.75710439  0.66504010  1
  Ti  Ti8  1  0.07664281  0.76540840  0.96201170  1
  Ti  Ti9  1  0.42935849  0.05447676  0.29027516  1
  Ti  Ti10  1  0.41370138  0.12892717  0.63518067  1
  Ti  Ti11  1  0.48559016  0.06481473  0.87919144  1
  Ti  Ti12  1  0.43340060  0.42041057  0.19733900  1
  Ti  Ti13  1  0.44348101  0.40284068  0.52840379  1
  Ti  Ti14  1  0.37416766  0.41657482  0.92415100  1
  Ti  Ti15  1  0.41792100  0.78749359  0.18411860  1
  Ti  Ti16  1  0.43559087  0.81175235  0.62725647  1
  Ti  Ti17  1  0.42659664  0.74489723  0.95497417  1
  Ti  Ti18  1  0.74003745  0.15929695  0.26035008  1
  Ti  Ti19  1  0.81637904  0.07653612  0.60263454  1
  Ti  Ti20  1  0.81380887  0.04025494  0.93412186  1
  Ti  Ti21  1  0.77470817  0.47958987  0.26445540  1
  Ti  Ti22  1  0.81276088  0.41990962  0.58146031  1
  Ti  Ti23  1  0.70285867  0.41946080  0.88767325  1
  Ti  Ti24  1  0.72924005  0.67524495  0.20677076  1
  Ti  Ti25  1  0.74555611  0.77634635  0.53817931  1
  Ti  Ti26  1  0.76070408  0.73272031  0.97926880  1
  Ti  Ti27  1  0.15091431  0.27656927  0.07585034  1
  Ti  Ti28  1  0.02139638  0.27664886  0.38966960  1
  Ti  Ti29  1  0.05538253  0.26456467  0.69643224  1
  Ti  Ti30  1  0.08346121  0.56285506  0.06152380  1
  Ti  Ti31  1  0.17082337  0.55415625  0.39666633  1
  Ti  Ti32  1  0.11116388  0.57729894  0.78721376  1
  Ti  Ti33  1  0.15327595  0.93106613  0.02833272  1
  Ti  Ti34  1  0.05397125  0.92248179  0.41795587  1
  Ti  Ti35  1  0.03212766  0.84456820  0.76448517  1
  Ti  Ti36  1  0.41697703  0.18874372  0.12246622  1
  Ti  Ti37  1  0.38896681  0.24083495  0.41353930  1
  Ti  Ti38  1  0.39606854  0.29949085  0.76457736  1
  Ti  Ti39  1  0.48592357  0.62345240  0.09759259  1
  Ti  Ti40  1  0.36613166  0.54498850  0.42026758  1
  Ti  Ti41  1  0.45534530  0.60891235  0.72765998  1
  Ti  Ti42  1  0.35035143  0.93926526  -0.01579307  1
  Ti  Ti43  1  0.47078029  0.95395641  0.45160432  1
  Ti  Ti44  1  0.40686148  0.96764396  0.74778111  1
  Ti  Ti45  1  0.79858275  0.29758471  0.03822529  1
  Ti  Ti46  1  0.75051577  0.22616615  0.47981464  1
  Ti  Ti47  1  0.67665864  0.24675385  0.78090131  1
  Ti  Ti48  1  0.73700259  0.48124041  0.07203865  1
  Ti  Ti49  1  0.73628587  0.58143822  0.48504206  1
  Ti  Ti50  1  0.76906823  0.55619169  0.71052407  1
  Ti  Ti51  1  0.74045849  0.91838701  0.09456651  1
  Ti  Ti52  1  0.66427554  0.92402867  0.39533540  1
  Ti  Ti53  1  0.74880263  0.98704296  0.75089559  1
  Ti  Ti54  1  0.23527237  0.09449488  0.09726153  1
  Ti  Ti55  1  0.24965686  0.01907817  0.39344297  1
  Ti  Ti56  1  0.21963993  0.05945743  0.72827631  1
  Ti  Ti57  1  0.22799744  0.45705435  0.13047884  1
  Ti  Ti58  1  0.22865522  0.35785305  0.42021217  1
  Ti  Ti59  1  0.22655508  0.40688726  0.74543633  1
  Ti  Ti60  1  0.16777232  0.72925455  0.11934192  1
  Ti  Ti61  1  0.26097735  0.70889947  0.43709232  1
  Ti  Ti62  1  0.30755201  0.70680452  0.78408439  1
  Ti  Ti63  1  0.52055394  0.02485929  0.09051864  1
  Ti  Ti64  1  0.56561869  0.13560139  0.41212244  1
  Ti  Ti65  1  0.62485886  0.09795001  0.62839429  1
  Ti  Ti66  1  0.54732951  0.46060787  0.03659750  1
  Ti  Ti67  1  0.66704778  0.41002586  0.45494249  1
  Ti  Ti68  1  0.55510908  0.41254678  0.71699310  1
  Ti  Ti69  1  0.58898472  0.80938138  0.07423589  1
  Ti  Ti70  1  0.62518931  0.72078226  0.38973484  1
  Ti  Ti71  1  0.64972246  0.68654174  0.78281668  1
  Ti  Ti72  1  0.87836435  0.13951011  0.08406939  1
  Ti  Ti73  1  0.89750127  0.08210737  0.43200768  1
  Ti  Ti74  1  0.96181997  0.05892692  0.76313586  1
  Ti  Ti75  1  0.91658036  0.45140587  0.11441438  1
  Ti  Ti76  1  0.91322696  0.50646125  0.42723124  1
  Ti  Ti77  1  0.90478709  0.41117714  0.78046446  1
  Ti  Ti78  1  0.90613434  0.80651254  0.09148762  1
  Ti  Ti79  1  0.93418127  0.72879881  0.46620188  1
  Ti  Ti80  1  0.89085887  0.74014128  0.68898834  1
  Ti  Ti81  1  0.29228007  0.28932631  0.24028702  1
  Ti  Ti82  1  0.23753288  0.20185334  0.56340076  1
  Ti  Ti83  1  0.25080574  0.21796513  0.91237875  1
  Ti  Ti84  1  0.29982534  0.61631389  0.22860443  1
  Ti  Ti85  1  0.20557359  0.58411103  0.61650195  1
  Ti  Ti86  1  0.23194870  0.59654991  0.94998133  1
  Ti  Ti87  1  0.21487317  0.92509461  0.22193290  1
  Ti  Ti88  1  0.20650579  0.88079820  0.53785021  1
  Ti  Ti89  1  0.20925588  0.88634906  0.83845054  1
  Ti  Ti90  1  0.62114479  0.33720791  0.19800342  1
  Ti  Ti91  1  0.54988207  0.26540233  0.56196976  1
  Ti  Ti92  1  0.56804564  0.20294653  0.95894286  1
  Ti  Ti93  1  0.49311336  0.59820122  0.29017010  1
  Ti  Ti94  1  0.53328316  0.58517749  0.54525850  1
  Ti  Ti95  1  0.55004817  0.55346818  0.88264463  1
  Ti  Ti96  1  0.55271530  0.91116350  0.23892108  1
  Ti  Ti97  1  0.62275187  0.84515762  0.68094858  1
  Ti  Ti98  1  0.65385248  0.88758022  0.89191570  1
  Ti  Ti99  1  0.97007123  0.27859918  0.19872188  1
  Ti  Ti100  1  0.85335301  0.25079814  0.67698285  1
  Ti  Ti101  1  0.94120884  0.22235732  0.88073960  1
  Ti  Ti102  1  0.93965275  0.62333148  0.20802148  1
  Ti  Ti103  1  0.96612195  0.52245837  0.63295812  1
  Ti  Ti104  1  0.88792084  0.56319874  0.93601629  1
  Ti  Ti105  1  0.95482110  1.07192030  0.25480111  1
  Ti  Ti106  1  0.94316469  0.93951214  0.59969015  1
  Ti  Ti107  1  0.97328951  0.92804863  0.94574682  1
  Co  Co108  1  0.28067840  0.86871141  0.69118769  1
  Co  Co109  1  0.05386938  0.85088684  0.13354361  1
  Co  Co110  1  0.50587046  0.81568611  0.35786732  1
  Co  Co111  1  0.87413105  0.21803597  0.32755905  1
  Co  Co112  1  0.81168385  0.13612263  0.78991910  1
  Co  Co113  1  0.80495832  0.31325031  0.19265143  1
  Co  Co114  1  0.10239932  0.14731098  0.80355868  1
  Co  Co115  1  0.36586460  0.84582348  0.83912353  1
  Co  Co116  1  0.51371677  -0.03003670  0.60611495  1
  Co  Co117  1  0.07008558  0.40798823  0.10980768  1
  Co  Co118  1  0.80735800  0.29591704  0.85491986  1
  Co  Co119  1  0.11730923  -0.05236376  0.66931088  1
  Co  Co120  1  0.09160929  0.25075076  0.52256539  1
  Co  Co121  1  0.67343056  -0.04448614  0.56695110  1
  Co  Co122  1  -0.09901419  0.39104707  0.29818610  1
  Co  Co123  1  0.15351683  0.72177946  0.83260175  1
  Co  Co124  1  0.09029558  -0.00949529  0.84743750  1
  Co  Co125  1  0.09222238  0.00723922  0.17056546  1
  Co  Co126  1  0.20334617  0.85168604  0.37214380  1
  Co  Co127  1  0.89322900  -0.08858254  0.78802403  1
  Co  Co128  1  -0.07321587  0.20366604  0.54050113  1
  Co  Co129  1  0.01107233  0.62865648  0.35297302  1
  Co  Co130  1  0.81627342  0.87885193  -0.06168283  1
  Co  Co131  1  0.35570701  0.84093644  0.46393597  1
  Co  Co132  1  0.64873515  0.46955185  0.60589396  1
  Co  Co133  1  0.64296415  0.32845709  0.02050763  1
  Co  Co134  1  0.35565211  0.13203204  0.80602865  1
  Co  Co135  1  0.88440946  0.40262785  -0.05090934  1
  Co  Co136  1  0.65994456  0.65689944  0.61638495  1
  Co  Co137  1  0.45023440  0.70547607  0.48495391  1
  Co  Co138  1  0.40874244  0.24269948  -0.07055826  1
  Co  Co139  1  0.20889933  0.20201530  0.39386003  1
  Co  Co140  1  0.36734811  0.49844189  0.06570763  1
  Co  Co141  1  0.37388460  0.09798723  -0.00216920  1
  Co  Co142  1  0.20231561  0.04784567  0.54472797  1
  Co  Co143  1  0.74174676  0.39423618  0.73047749  1
  Co  Co144  1  0.25239299  0.77457236  -0.04334264  1
  Co  Co145  1  0.85708207  0.62678895  0.57132715  1
  Co  Co146  1  0.58761672  0.72273747  0.93665783  1
  Co  Co147  1  0.13843918  0.32771648  0.25519878  1
  Co  Co148  1  0.68988801  0.29564065  0.61523084  1
  Co  Co149  1  0.03735271  0.82826834  0.57009861  1
  Co  Co150  1  0.06140953  0.42801060  0.73540645  1
  Co  Co151  1  0.57385616  -0.01739875  0.75373386  1
  Co  Co152  1  0.80309483  0.88318798  0.64062626  1
  Co  Co153  1  0.73616384  0.17563691  -0.04412648  1
  Co  Co154  1  0.23152675  0.05045174  -0.08195955  1
  Co  Co155  1  0.48542223  0.31638087  0.05521557  1
  Co  Co156  1  0.57399828  0.72174080  0.21946508  1
  Co  Co157  1  0.36741162  -0.01204799  0.15320210  1
  Co  Co158  1  -0.04821174  0.58307969  0.78377376  1
  Co  Co159  1  -0.03305866  0.35846770  0.58289004  1
  Co  Co160  1  0.82047369  0.61649455  0.08987263  1
  Co  Co161  1  0.40146263  0.39169350  0.35076283  1
  Ni  Ni162  1  0.60739956  0.19058538  0.12304242  1
  Ni  Ni163  1  0.72856916  0.07983263  0.10886584  1
  Ni  Ni164  1  0.34939135  -0.02929494  0.58094208  1
  Ni  Ni165  1  0.11561570  0.30522290  0.85426868  1
  Ni  Ni166  1  0.57252372  0.82624771  0.51593342  1
  Ni  Ni167  1  0.65607652  0.56587888  0.33823616  1
  Ni  Ni168  1  0.39815852  0.58581551  -0.07206507  1
  Ni  Ni169  1  0.58792559  0.08295909  0.24353238  1
  Ni  Ni170  1  0.02810652  0.67325887  0.61609182  1
  Ni  Ni171  1  0.32199313  0.32482635  0.61529410  1
  Ni  Ni172  1  0.81720386  -0.06557640  0.48020187  1
  Ni  Ni173  1  0.37594383  0.09464333  0.47422004  1
  Ni  Ni174  1  0.81529475  0.66356704  0.82542157  1
  Ni  Ni175  1  0.64636710  0.62819554  0.06232795  1
  Ni  Ni176  1  0.72988152  0.31545202  0.33354084  1
  Ni  Ni177  1  0.48174660  0.22833995  0.26867475  1
  Ni  Ni178  1  0.76423267  0.81253612  0.78850943  1
  Ni  Ni179  1  0.30348085  0.54154187  0.79927184  1
  Ni  Ni180  1  0.69760299  0.83430319  0.24549288  1
  Ni  Ni181  1  0.53369884  0.35883993  0.88232450  1
  Ni  Ni182  1  0.38238210  0.71910732  0.33450238  1
  Ni  Ni183  1  0.64906797  0.09608167  0.83497559  1
  Ni  Ni184  1  0.86669720  0.33785908  0.44584211  1
  Ni  Ni185  1  0.32373811  0.66628101  0.07111648  1
  Ni  Ni186  1  0.23342834  0.23708070  0.73696825  1
  Ni  Ni187  1  0.36419719  -0.10627837  0.30661146  1
  Ni  Ni188  1  0.71848657  0.07065016  0.45224312  1
  Ni  Ni189  1  0.50072082  0.89417407  -0.08059498  1
  Ni  Ni190  1  0.63917767  0.02639152  -0.01639407  1
  Ni  Ni191  1  -0.03548372  0.66705251  0.03804670  1
  Ni  Ni192  1  0.60763646  0.51933745  0.18601255  1
  Ni  Ni193  1  0.31766104  0.32266906  0.06191710  1
  Ni  Ni194  1  0.26074927  0.46111167  0.29033601  1
  Ni  Ni195  1  0.10275996  0.72848289  0.46340872  1
  Ni  Ni196  1  0.05236828  0.56588815  0.49974547  1
  Ni  Ni197  1  0.29220991  0.83728104  0.10018292  1
  Ni  Ni198  1  -0.07613607  0.76280300  0.89158372  1
  Ni  Ni199  1  0.50144531  0.76681891  0.79122200  1
  Ni  Ni200  1  0.38611043  0.46337408  0.68008133  1
  Ni  Ni201  1  0.28150029  0.46553064  0.54190014  1
  Ni  Ni202  1  0.52686835  0.21250791  0.73145814  1
  Ni  Ni203  1  0.55110622  0.31080899  0.39028684  1
  Ni  Ni204  1  0.70945315  0.58245992  0.91906490  1
  Ni  Ni205  1  0.31119262  0.71765833  0.59542798  1
  Ni  Ni206  1  0.20715210  0.41279647  -0.03787366  1
  Ni  Ni207  1  0.52831669  0.48220742  0.40386955  1
  Ni  Ni208  1  0.07732437  0.09097166  0.41791047  1
  Ni  Ni209  1  0.82572998  0.63460280  0.34427469  1
  Ni  Ni210  1  -0.01166166  0.28419563  0.02495307  1
  Ni  Ni211  1  0.12937950  0.59840570  0.22784111  1
  Ni  Ni212  1  0.29271052  0.12630246  0.25485210  1
  Ni  Ni213  1  0.04236764  0.14784397  0.11600173  1
  Ni  Ni214  1  -0.05262052  -0.01114539  0.09629113  1
