# generated using pymatgen
data_Ti108Co54Ni53
_symmetry_space_group_name_H-M   'P 1'
_cell_length_a   14.69910059
_cell_length_b   14.63959482
_cell_length_c   14.65817185
_cell_angle_alpha   89.88026093
_cell_angle_beta   89.59124974
_cell_angle_gamma   89.67347535
_symmetry_Int_Tables_number   1
_chemical_formula_structural   Ti108Co54Ni53
_chemical_formula_sum   'Ti108 Co54 Ni53'
_cell_volume   3154.13742859
_cell_formula_units_Z   1
loop_
 _symmetry_equiv_pos_site_id
 _symmetry_equiv_pos_as_xyz
  1  'x, y, z'
loop_
 _atom_site_type_symbol
 _atom_site_label
 _atom_site_symmetry_multiplicity
 _atom_site_fract_x
 _atom_site_fract_y
 _atom_site_fract_z
 _atom_site_occupancy
  Ti  Ti0  1  0.08542154  0.03837803  0.17161342  1
  Ti  Ti1  1  0.08011669  0.11975814  0.61247223  1
  Ti  Ti2  1  0.12994244  0.07053385  0.81602010  1
  Ti  Ti3  1  0.11903960  0.44820376  0.27245289  1
  Ti  Ti4  1  0.03203874  0.43626525  0.62998105  1
  Ti  Ti5  1  0.08085732  0.37631331  0.95198360  1
  Ti  Ti6  1  0.01045651  0.70854448  0.23341264  1
  Ti  Ti7  1  0.09412306  0.78172418  0.52399500  1
  Ti  Ti8  1  -0.01195004  0.78178274  0.94849119  1
  Ti  Ti9  1  0.38712996  0.07148058  0.32855115  1
  Ti  Ti10  1  0.45835891  0.17925615  0.58990929  1
  Ti  Ti11  1  0.45098915  0.07724138  0.94090970  1
  Ti  Ti12  1  0.42427971  0.42564432  0.24972581  1
  Ti  Ti13  1  0.45974439  0.39269758  0.59451657  1
  Ti  Ti14  1  0.31673169  0.38046246  0.89273339  1
  Ti  Ti15  1  0.42742293  0.72677379  0.29487044  1
  Ti  Ti16  1  0.37944569  0.82052666  0.61405736  1
  Ti  Ti17  1  0.37735392  0.72474603  0.94050094  1
  Ti  Ti18  1  0.71636479  0.11607053  0.30033045  1
  Ti  Ti19  1  0.74122025  0.09875302  0.65721579  1
  Ti  Ti20  1  0.79937416  0.09615537  0.85046667  1
  Ti  Ti21  1  0.75594365  0.42876333  0.34632589  1
  Ti  Ti22  1  0.71692660  0.47282350  0.64261890  1
  Ti  Ti23  1  0.73829664  0.37607301  0.95995787  1
  Ti  Ti24  1  0.78319469  0.68562661  0.24539661  1
  Ti  Ti25  1  0.79268829  0.74739089  0.57901131  1
  Ti  Ti26  1  0.78409395  0.87581188  0.91858838  1
  Ti  Ti27  1  0.11705681  0.21239078  0.08212558  1
  Ti  Ti28  1  0.14516860  0.28892767  0.39749980  1
  Ti  Ti29  1  0.03939117  0.28598698  0.76261621  1
  Ti  Ti30  1  0.07846424  0.55625037  0.09631162  1
  Ti  Ti31  1  0.07013196  0.52911823  0.45990171  1
  Ti  Ti32  1  0.10759657  0.57193205  0.74221648  1
  Ti  Ti33  1  0.09763824  0.90726646  0.03075481  1
  Ti  Ti34  1  0.05327631  0.87374531  0.33532013  1
  Ti  Ti35  1  0.08480733  0.88767785  0.79712438  1
  Ti  Ti36  1  0.42466441  0.27321104  0.06553747  1
  Ti  Ti37  1  0.46353430  0.27231723  0.38310608  1
  Ti  Ti38  1  0.43915961  0.26339323  0.75016972  1
  Ti  Ti39  1  0.40992588  0.56267935  0.06985706  1
  Ti  Ti40  1  0.48068928  0.56807158  0.39372286  1
  Ti  Ti41  1  0.36775913  0.64963803  0.69009520  1
  Ti  Ti42  1  0.37040024  0.97008276  0.08713343  1
  Ti  Ti43  1  0.40035964  0.87370267  0.39539183  1
  Ti  Ti44  1  0.39481218  1.00016824  0.62460853  1
  Ti  Ti45  1  0.79600284  0.26750563  0.11452371  1
  Ti  Ti46  1  0.79944644  0.24846910  0.42441487  1
  Ti  Ti47  1  0.73999700  0.27940828  0.78473314  1
  Ti  Ti48  1  0.84280924  0.48080051  0.08946427  1
  Ti  Ti49  1  0.77710726  0.57092316  0.47255068  1
  Ti  Ti50  1  0.73666002  0.63064269  0.79077285  1
  Ti  Ti51  1  0.66169148  0.95825620  0.13934870  1
  Ti  Ti52  1  0.78661247  0.88319177  0.41414019  1
  Ti  Ti53  1  0.69336999  0.90243440  0.64735367  1
  Ti  Ti54  1  0.28735576  0.13505737  0.08004720  1
  Ti  Ti55  1  0.19021838  0.10325305  0.43333882  1
  Ti  Ti56  1  0.32226636  0.12155856  0.75334497  1
  Ti  Ti57  1  0.24164102  0.48171455  0.01893566  1
  Ti  Ti58  1  0.28029329  0.46214517  0.39157471  1
  Ti  Ti59  1  0.32310462  0.44395942  0.71863763  1
  Ti  Ti60  1  0.27687233  0.77781591  0.10769842  1
  Ti  Ti61  1  0.22339093  0.75549457  0.32905876  1
  Ti  Ti62  1  0.23849436  0.77732051  0.78184848  1
  Ti  Ti63  1  0.51192007  0.10623804  0.13329323  1
  Ti  Ti64  1  0.56705675  0.11629719  0.44055708  1
  Ti  Ti65  1  0.52990754  0.07064804  0.75776033  1
  Ti  Ti66  1  0.56907634  0.42159286  0.10162224  1
  Ti  Ti67  1  0.60639240  0.44702528  0.46063985  1
  Ti  Ti68  1  0.58615125  0.38275289  0.72988832  1
  Ti  Ti69  1  0.50702591  0.85001565  0.08278860  1
  Ti  Ti70  1  0.60055482  0.74120904  0.37625237  1
  Ti  Ti71  1  0.56934941  0.74805692  0.70993308  1
  Ti  Ti72  1  0.83739041  0.06780316  0.11064522  1
  Ti  Ti73  1  0.97081757  0.04362783  0.46441399  1
  Ti  Ti74  1  0.92937796  0.03015638  0.69848678  1
  Ti  Ti75  1  0.97836536  0.33954719  0.13395542  1
  Ti  Ti76  1  0.96160064  0.36212151  0.35778829  1
  Ti  Ti77  1  0.86335467  0.46513072  0.79973686  1
  Ti  Ti78  1  0.87249520  0.79221836  0.10880105  1
  Ti  Ti79  1  0.92220498  0.72362799  0.44068882  1
  Ti  Ti80  1  0.93759635  0.67727400  0.76919884  1
  Ti  Ti81  1  0.24988366  0.29332896  0.21818623  1
  Ti  Ti82  1  0.26377116  0.25437203  0.57692009  1
  Ti  Ti83  1  0.21883910  0.22633055  0.89469411  1
  Ti  Ti84  1  0.31988880  0.59489776  0.23308836  1
  Ti  Ti85  1  0.22442082  0.54173519  0.58596711  1
  Ti  Ti86  1  0.26074785  0.59189219  0.84905739  1
  Ti  Ti87  1  0.23107783  0.95353450  0.29737777  1
  Ti  Ti88  1  0.19777436  0.91120398  0.62167626  1
  Ti  Ti89  1  0.26793919  0.91900153  0.92341008  1
  Ti  Ti90  1  0.66715878  0.28892953  0.23926367  1
  Ti  Ti91  1  0.61216916  0.28592910  0.55117993  1
  Ti  Ti92  1  0.56689236  0.27301222  0.91148899  1
  Ti  Ti93  1  0.55878035  0.58683361  0.21516446  1
  Ti  Ti94  1  0.54421051  0.58064075  0.61789546  1
  Ti  Ti95  1  0.55399913  0.52777163  0.88581348  1
  Ti  Ti96  1  0.59870886  0.95241952  0.33914309  1
  Ti  Ti97  1  0.54444470  0.88472093  0.52810290  1
  Ti  Ti98  1  0.59796258  0.96257116  0.91676996  1
  Ti  Ti99  1  0.91119492  0.18563819  0.28952194  1
  Ti  Ti100  1  0.92361959  0.26109563  0.57197991  1
  Ti  Ti101  1  0.91655412  0.21537555  0.97708789  1
  Ti  Ti102  1  0.93120449  0.55930724  0.34313756  1
  Ti  Ti103  1  0.89697380  0.57985088  0.61814327  1
  Ti  Ti104  1  0.95432859  0.58353017  0.94203396  1
  Ti  Ti105  1  0.92279166  0.99207888  0.27593506  1
  Ti  Ti106  1  0.92948765  0.84065231  0.64132060  1
  Ti  Ti107  1  0.94899553  0.98717460  0.89523766  1
  Co  Co108  1  0.06278270  0.73430536  0.08034383  1
  Co  Co109  1  0.46125624  0.51804244  0.74126244  1
  Co  Co110  1  0.43465875  0.41956374  0.43321344  1
  Co  Co111  1  0.82081484  0.53608510  0.23821214  1
  Co  Co112  1  -0.03783255  0.16852779  0.14680574  1
  Co  Co113  1  0.62293534  0.61082972  0.47595729  1
  Co  Co114  1  0.88476310  0.29183843  0.84387518  1
  Co  Co115  1  0.15661216  0.40278728  0.50657838  1
  Co  Co116  1  0.16806896  0.06292098  -0.00134812  1
  Co  Co117  1  0.07076811  0.19924114  -0.07571455  1
  Co  Co118  1  0.22255614  -0.04249355  0.12547339  1
  Co  Co119  1  0.14974389  0.83284607  0.19953530  1
  Co  Co120  1  0.87711172  0.19411766  0.70849427  1
  Co  Co121  1  0.55183273  0.14046839  0.28156386  1
  Co  Co122  1  0.61913712  0.27435819  0.06886352  1
  Co  Co123  1  0.11553890  0.54911242  -0.07517608  1
  Co  Co124  1  0.64559347  0.13466985  0.84276934  1
  Co  Co125  1  0.17931440  0.37720134  0.67084570  1
  Co  Co126  1  0.45737567  0.00703688  0.47254640  1
  Co  Co127  1  0.25652279  -0.04040678  0.76081391  1
  Co  Co128  1  0.84833333  0.36095725  0.23539045  1
  Co  Co129  1  0.29576030  0.07332733  -0.09577207  1
  Co  Co130  1  0.70847154  0.82996865  0.27011016  1
  Co  Co131  1  0.46619845  0.39305072  0.83942368  1
  Co  Co132  1  0.26557284  0.30872896  0.04090494  1
  Co  Co133  1  0.78365793  0.77521172  0.74312410  1
  Co  Co134  1  0.01478255  0.45805724  0.82249867  1
  Co  Co135  1  0.57606688  0.42546372  0.29890584  1
  Co  Co136  1  0.70154950  0.63312758  0.63654732  1
  Co  Co137  1  0.88055470  0.82082930  0.28896416  1
  Co  Co138  1  0.08820495  0.27587300  0.57906988  1
  Co  Co139  1  0.75801288  0.71728786  0.40178739  1
  Co  Co140  1  0.63882715  0.27250619  0.39314255  1
  Co  Co141  1  0.73808583  0.02734678  -0.00949066  1
  Co  Co142  1  0.18031548  0.21047105  0.71446258  1
  Co  Co143  1  -0.02690225  0.48665128  0.20533047  1
  Co  Co144  1  -0.00323741  0.87528519  0.17135573  1
  Co  Co145  1  0.70766047  0.14961090  0.50905679  1
  Co  Co146  1  0.30949172  0.40209173  0.54260170  1
  Co  Co147  1  0.35638944  0.86137004  0.22370008  1
  Co  Co148  1  0.05303260  0.62717637  0.59357139  1
  Co  Co149  1  0.04034839  -0.05256993  0.60648764  1
  Co  Co150  1  -0.04548497  0.88120601  0.47041203  1
  Co  Co151  1  0.18935225  0.65341637  0.48037166  1
  Co  Co152  1  0.24024922  0.64005453  0.02315580  1
  Co  Co153  1  0.68561499  0.13527379  0.13828824  1
  Co  Co154  1  0.67284319  0.57313765  0.32319395  1
  Co  Co155  1  0.52271464  0.90700991  0.70012529  1
  Co  Co156  1  0.39080640  0.54001332  0.90504890  1
  Co  Co157  1  0.46760708  0.66050811  0.81666654  1
  Co  Co158  1  0.08015232  0.25857604  0.24438619  1
  Co  Co159  1  0.17725185  0.43115748  0.82447578  1
  Co  Co160  1  0.40961352  -0.02250104  0.80541656  1
  Co  Co161  1  0.77116749  -0.02788290  0.26226777  1
  Ni  Ni162  1  0.69733274  0.46160789  0.82352870  1
  Ni  Ni163  1  -0.08810059  0.45751460  0.48933699  1
  Ni  Ni164  1  0.22019568  0.12779291  0.25740951  1
  Ni  Ni165  1  0.83847459  0.71680001  0.90506892  1
  Ni  Ni166  1  0.54820731  0.82605382  0.23803677  1
  Ni  Ni167  1  0.60961151  0.20441021  0.69414141  1
  Ni  Ni168  1  0.47959268  -0.02751285  0.22605001  1
  Ni  Ni169  1  0.38252102  0.19379444  0.22305855  1
  Ni  Ni170  1  0.21941018  0.71845100  0.62750853  1
  Ni  Ni171  1  0.13721954  0.38292138  0.11949077  1
  Ni  Ni172  1  0.47176980  0.71114142  0.50670501  1
  Ni  Ni173  1  0.44878324  0.41859299  -0.00344593  1
  Ni  Ni174  1  0.91429033  0.40342315  -0.03956289  1
  Ni  Ni175  1  0.07379246  0.76207003  0.69406171  1
  Ni  Ni176  1  0.35029976  0.12972827  0.48458947  1
  Ni  Ni177  1  0.09412264  0.69882342  0.84856994  1
  Ni  Ni178  1  0.29257423  -0.02848033  0.48213144  1
  Ni  Ni179  1  0.40537532  0.81292742  0.78528968  1
  Ni  Ni180  1  0.73900351  0.20582703  -0.03369999  1
  Ni  Ni181  1  0.17435594  0.66151482  0.18261135  1
  Ni  Ni182  1  0.30086509  0.23563620  0.37121206  1
  Ni  Ni183  1  0.57351995  0.04626113  0.60095994  1
  Ni  Ni184  1  0.24203124  0.08110787  0.61176706  1
  Ni  Ni185  1  0.33457651  0.64928381  0.41616302  1
  Ni  Ni186  1  0.06443921  0.09845164  0.32267307  1
  Ni  Ni187  1  0.12852532  -0.05010333  0.46067406  1
  Ni  Ni188  1  0.51092898  0.28951909  0.20807923  1
  Ni  Ni189  1  0.43325462  0.88947008  -0.05887081  1
  Ni  Ni190  1  0.60120792  0.12084481  -0.00319656  1
  Ni  Ni191  1  0.65407534  0.85490286  0.80623512  1
  Ni  Ni192  1  -0.03129662  0.13811219  0.82310558  1
  Ni  Ni193  1  0.75735450  0.27024659  0.62213027  1
  Ni  Ni194  1  0.06670059  0.68657904  0.38492961  1
  Ni  Ni195  1  0.38759851  0.22222488  0.90741567  1
  Ni  Ni196  1  0.63447147  0.75272145  0.54485470  1
  Ni  Ni197  1  0.68122057  -0.01318929  0.49323494  1
  Ni  Ni198  1  0.28185251  0.44831163  0.17162882  1
  Ni  Ni199  1  0.18404891  0.58783894  0.33222105  1
  Ni  Ni200  1  0.76730525  0.38808192  0.50925023  1
  Ni  Ni201  1  0.83688210  -0.02838214  0.56153468  1
  Ni  Ni202  1  0.26543698  0.80743338  0.48546099  1
  Ni  Ni203  1  0.00625061  0.20663085  0.43769145  1
  Ni  Ni204  1  0.70393360  0.44658040  0.17966565  1
  Ni  Ni205  1  0.81519472  0.06147527  0.42148155  1
  Ni  Ni206  1  0.00893334  0.07464580  0.02074074  1
  Ni  Ni207  1  0.86622897  0.39742012  0.64801556  1
  Ni  Ni208  1  0.79777129  -0.05178873  0.76360761  1
  Ni  Ni209  1  0.92225268  0.62826806  0.11534938  1
  Ni  Ni210  1  0.90949748  0.93661156  0.04362920  1
  Ni  Ni211  1  0.43629341  0.71152889  0.13225800  1
  Ni  Ni212  1  0.39159485  0.54967942  0.54699582  1
  Ni  Ni213  1  -0.08228126  0.84510214  0.80801016  1
  Ni  Ni214  1  0.18498098  0.77809733  -0.04712051  1
