# generated using pymatgen
data_Ti108Co54Ni53
_symmetry_space_group_name_H-M   'P 1'
_cell_length_a   14.73714032
_cell_length_b   14.66362605
_cell_length_c   14.69425843
_cell_angle_alpha   89.83103310
_cell_angle_beta   89.99234174
_cell_angle_gamma   89.95900983
_symmetry_Int_Tables_number   1
_chemical_formula_structural   Ti108Co54Ni53
_chemical_formula_sum   'Ti108 Co54 Ni53'
_cell_volume   3175.41334401
_cell_formula_units_Z   1
loop_
 _symmetry_equiv_pos_site_id
 _symmetry_equiv_pos_as_xyz
  1  'x, y, z'
loop_
 _atom_site_type_symbol
 _atom_site_label
 _atom_site_symmetry_multiplicity
 _atom_site_fract_x
 _atom_site_fract_y
 _atom_site_fract_z
 _atom_site_occupancy
  Ti  Ti0  1  0.15484291  0.07333207  0.28676888  1
  Ti  Ti1  1  0.14902208  0.13640839  0.59553757  1
  Ti  Ti2  1  0.06503967  0.08741228  0.99097150  1
  Ti  Ti3  1  0.07019102  0.35709923  0.23974344  1
  Ti  Ti4  1  0.06258688  0.41733638  0.49783600  1
  Ti  Ti5  1  0.02539884  0.36342741  0.88655757  1
  Ti  Ti6  1  -0.01182139  0.71429288  0.28657486  1
  Ti  Ti7  1  0.00897331  0.72264233  0.60972771  1
  Ti  Ti8  1  0.03845537  0.71685165  0.92990309  1
  Ti  Ti9  1  0.41824926  0.03138250  0.25200237  1
  Ti  Ti10  1  0.34875929  0.13990559  0.59181319  1
  Ti  Ti11  1  0.41533116  0.07163438  0.99025044  1
  Ti  Ti12  1  0.46159117  0.35960124  0.13095187  1
  Ti  Ti13  1  0.33299592  0.43905837  0.51857516  1
  Ti  Ti14  1  0.42005195  0.51496037  0.87899049  1
  Ti  Ti15  1  0.36857519  0.77544329  0.35095072  1
  Ti  Ti16  1  0.52308562  0.75948914  0.66663831  1
  Ti  Ti17  1  0.47479629  0.73304155  0.86649320  1
  Ti  Ti18  1  0.75894911  0.02853717  0.22729706  1
  Ti  Ti19  1  0.75783077  0.07081546  0.58521721  1
  Ti  Ti20  1  0.76975210  -0.07857804  0.93708782  1
  Ti  Ti21  1  0.78171364  0.38016580  0.31839201  1
  Ti  Ti22  1  0.74487484  0.43250348  0.53204051  1
  Ti  Ti23  1  0.75429571  0.44041277  0.82551537  1
  Ti  Ti24  1  0.78834240  0.78361898  0.28022993  1
  Ti  Ti25  1  0.69450706  0.76616172  0.58677510  1
  Ti  Ti26  1  0.83496123  0.72322644  0.96705074  1
  Ti  Ti27  1  0.13669991  0.19379603  0.15104657  1
  Ti  Ti28  1  0.07863444  0.23520563  0.41762721  1
  Ti  Ti29  1  -0.00253312  0.24198884  0.72850220  1
  Ti  Ti30  1  0.14810722  0.57136998  0.06504025  1
  Ti  Ti31  1  0.07654860  0.61222509  0.42996933  1
  Ti  Ti32  1  0.09105363  0.62303235  0.77206794  1
  Ti  Ti33  1  0.08725206  0.89641389  0.03615397  1
  Ti  Ti34  1  0.02576698  0.91601212  0.46379288  1
  Ti  Ti35  1  0.16458954  0.95894172  0.71546168  1
  Ti  Ti36  1  0.30719613  0.23803416  0.06138283  1
  Ti  Ti37  1  0.37953971  0.20837235  0.38036953  1
  Ti  Ti38  1  0.46067607  0.23253265  0.72068973  1
  Ti  Ti39  1  0.34411119  0.62007133  0.13478828  1
  Ti  Ti40  1  0.44600883  0.58965741  0.41156397  1
  Ti  Ti41  1  0.42332514  0.59365469  0.61902274  1
  Ti  Ti42  1  0.45031995  0.82302360  0.17532259  1
  Ti  Ti43  1  0.44116634  1.01082903  0.47619502  1
  Ti  Ti44  1  0.36376505  0.88649979  0.75754199  1
  Ti  Ti45  1  0.76305522  0.32422611  0.10869134  1
  Ti  Ti46  1  0.80614350  0.23989664  0.45419334  1
  Ti  Ti47  1  0.80191614  0.27773382  0.65749443  1
  Ti  Ti48  1  0.79756925  0.51789170  0.02122172  1
  Ti  Ti49  1  0.69555352  0.64233450  0.42018309  1
  Ti  Ti50  1  0.77852331  0.62130736  0.71452746  1
  Ti  Ti51  1  0.72696149  0.82125782  0.09402742  1
  Ti  Ti52  1  0.73412871  0.96844813  0.41579163  1
  Ti  Ti53  1  0.74644452  0.83601626  0.76486088  1
  Ti  Ti54  1  0.24613080  0.04866992  0.09756529  1
  Ti  Ti55  1  0.26020119  0.07641630  0.43397377  1
  Ti  Ti56  1  0.31365240  0.09586109  0.79317706  1
  Ti  Ti57  1  0.29821476  0.45378977  0.06076287  1
  Ti  Ti58  1  0.20845231  0.38700665  0.38300219  1
  Ti  Ti59  1  0.29854534  0.47033470  0.72391362  1
  Ti  Ti60  1  0.23405193  0.76884899  0.04343668  1
  Ti  Ti61  1  0.16718394  0.78232449  0.35956712  1
  Ti  Ti62  1  0.21282775  0.76612554  0.73653862  1
  Ti  Ti63  1  0.59820720  0.13817964  0.11289840  1
  Ti  Ti64  1  0.57112988  0.17949997  0.39552894  1
  Ti  Ti65  1  0.51372179  0.04321343  0.66043093  1
  Ti  Ti66  1  0.60919132  0.48339951  0.08953137  1
  Ti  Ti67  1  0.47452512  0.38386049  0.37650179  1
  Ti  Ti68  1  0.53630941  0.43571698  0.74671878  1
  Ti  Ti69  1  0.52759680  0.67634827  0.05141775  1
  Ti  Ti70  1  0.56253422  0.74659500  0.34502611  1
  Ti  Ti71  1  0.56931022  0.89628312  0.79820548  1
  Ti  Ti72  1  0.94639525  0.07056781  0.14914267  1
  Ti  Ti73  1  0.90406288  0.07890221  0.37637680  1
  Ti  Ti74  1  1.00576382  0.06294841  0.78499085  1
  Ti  Ti75  1  1.00032889  0.43415184  0.06491442  1
  Ti  Ti76  1  0.95865412  0.47723635  0.33971396  1
  Ti  Ti77  1  1.02884440  0.44842308  0.70150403  1
  Ti  Ti78  1  1.02478625  0.71845456  0.10712138  1
  Ti  Ti79  1  0.85737597  0.80080192  0.47802587  1
  Ti  Ti80  1  0.90711108  0.73829173  0.79329464  1
  Ti  Ti81  1  0.30829436  0.33332696  0.23194689  1
  Ti  Ti82  1  0.27395251  0.29126114  0.66798532  1
  Ti  Ti83  1  0.24025966  0.29937927  0.88016654  1
  Ti  Ti84  1  0.26685761  0.60778750  0.32558869  1
  Ti  Ti85  1  0.23222782  0.60971789  0.61815967  1
  Ti  Ti86  1  0.22244353  0.51524817  0.87826674  1
  Ti  Ti87  1  0.25223829  0.90926236  0.21984106  1
  Ti  Ti88  1  0.28097358  0.85590356  0.52752004  1
  Ti  Ti89  1  0.26376716  0.94718944  0.93348836  1
  Ti  Ti90  1  0.60615029  0.35228549  0.24927184  1
  Ti  Ti91  1  0.57059211  0.33095596  0.56682990  1
  Ti  Ti92  1  0.53806443  0.34271437  0.93026761  1
  Ti  Ti93  1  0.58552471  0.55352861  0.26445327  1
  Ti  Ti94  1  0.62102740  0.56681625  0.60318088  1
  Ti  Ti95  1  0.60769068  0.56495801  0.91665031  1
  Ti  Ti96  1  0.62122716  0.89938486  0.23653247  1
  Ti  Ti97  1  0.57449470  0.87949382  0.49759440  1
  Ti  Ti98  1  0.55802941  0.87734249  1.00486418  1
  Ti  Ti99  1  0.83412491  0.20862990  0.24651144  1
  Ti  Ti100  1  0.95305101  0.16919046  0.55313023  1
  Ti  Ti101  1  0.94248072  0.25093627  1.08343826  1
  Ti  Ti102  1  0.86815465  0.56965497  0.20855414  1
  Ti  Ti103  1  0.91997634  0.54323138  0.53642777  1
  Ti  Ti104  1  0.91577450  0.54135697  0.86147484  1
  Ti  Ti105  1  0.94338115  0.88592662  0.19086533  1
  Ti  Ti106  1  0.92600557  0.91243438  0.66700375  1
  Ti  Ti107  1  0.97528540  0.90226270  0.88031760  1
  Co  Co108  1  0.19009547  0.67023724  0.90832493  1
  Co  Co109  1  0.61367372  0.05088916  0.51474232  1
  Co  Co110  1  -0.05666381  0.59779241  0.69458854  1
  Co  Co111  1  0.60639218  0.29918210  0.08231771  1
  Co  Co112  1  0.11388558  0.82231062  0.19405547  1
  Co  Co113  1  0.83699248  0.47026136  0.66998499  1
  Co  Co114  1  0.49615657  0.60712777  0.76211924  1
  Co  Co115  1  0.08232798  0.56785617  0.59048927  1
  Co  Co116  1  0.38835784  0.20593131  0.88751380  1
  Co  Co117  1  0.15146061  0.35602718  0.75783281  1
  Co  Co118  1  0.68304792  0.40811835  0.68070676  1
  Co  Co119  1  0.64570966  0.54931491  0.76378148  1
  Co  Co120  1  0.82966087  -0.03262427  0.08901372  1
  Co  Co121  1  0.34162940  0.46540830  0.34349189  1
  Co  Co122  1  0.43549893  0.79008682  0.48932253  1
  Co  Co123  1  0.75443077  0.62212301  0.87818841  1
  Co  Co124  1  -0.08160712  0.02624715  -0.03328980  1
  Co  Co125  1  0.23875120  0.48780946  0.21028926  1
  Co  Co126  1  0.21311696  0.53575172  0.46691342  1
  Co  Co127  1  0.63179506  -0.07818611  0.64658283  1
  Co  Co128  1  0.02571277  0.54191891  0.18661018  1
  Co  Co129  1  0.66160526  0.77964293  0.93022405  1
  Co  Co130  1  0.47042942  0.22159668  0.03111045  1
  Co  Co131  1  0.91751503  0.84835394  0.02438329  1
  Co  Co132  1  0.88357887  -0.00845378  0.51553742  1
  Co  Co133  1  0.10070785  0.85698631  0.60491117  1
  Co  Co134  1  0.72670841  0.63920160  0.24202054  1
  Co  Co135  1  0.02329341  0.02638074  0.61132287  1
  Co  Co136  1  0.43226899  0.49471581  0.21328617  1
  Co  Co137  1  0.06559057  0.54229162  0.92320902  1
  Co  Co138  1  0.88522863  0.10617318  0.68207769  1
  Co  Co139  1  0.87705862  0.91247099  0.34919765  1
  Co  Co140  1  0.67382772  0.20842017  0.23755695  1
  Co  Co141  1  0.78360022  0.13770837  0.10558041  1
  Co  Co142  1  0.72060825  0.12430076  0.37975461  1
  Co  Co143  1  0.31165779  0.67288292  0.48022931  1
  Co  Co144  1  -0.06253199  0.34839437  0.61238801  1
  Co  Co145  1  0.67195155  0.20596372  0.53605605  1
  Co  Co146  1  0.18987033  0.43239240  0.60077542  1
  Co  Co147  1  0.50581724  0.16523176  0.54712923  1
  Co  Co148  1  0.89824754  0.36993345  0.78281565  1
  Co  Co149  1  0.78912548  0.62232901  0.54898257  1
  Co  Co150  1  0.09598365  0.00157776  0.15213334  1
  Co  Co151  1  0.50130638  0.47884142  0.53123985  1
  Co  Co152  1  0.17568791  0.35815877  0.12242085  1
  Co  Co153  1  0.15677162  0.41119536  -0.02353247  1
  Co  Co154  1  0.69817363  0.81241416  0.40779535  1
  Co  Co155  1  0.90179244  0.38328268  0.19498468  1
  Co  Co156  1  0.11876802  0.50500103  0.32003167  1
  Co  Co157  1  0.84718614  0.75781241  0.64101033  1
  Co  Co158  1  0.01580061  -0.01020723  0.30034502  1
  Co  Co159  1  0.14931650  0.03190435  0.85697606  1
  Co  Co160  1  0.16780820  0.94085135  0.38042264  1
  Co  Co161  1  0.01343944  0.75802657  0.44444913  1
  Ni  Ni162  1  0.36632707  -0.06746007  0.07941063  1
  Ni  Ni163  1  0.17272745  -0.01567195  0.54093130  1
  Ni  Ni164  1  0.60730380  0.73282146  0.18275545  1
  Ni  Ni165  1  0.67281025  -0.00996727  0.07017692  1
  Ni  Ni166  1  0.40509064  0.28745135  0.52446648  1
  Ni  Ni167  1  0.09576571  0.26467660  0.01284156  1
  Ni  Ni168  1  0.08521013  0.19934231  0.86842047  1
  Ni  Ni169  1  0.79947540  0.52058043  0.39472236  1
  Ni  Ni170  1  0.32812263  0.64220180  0.77828829  1
  Ni  Ni171  1  0.17874899  0.17363395  0.74859415  1
  Ni  Ni172  1  0.58851149  0.06289059  0.27242065  1
  Ni  Ni173  1  0.42743527  -0.08712539  0.90776008  1
  Ni  Ni174  1  0.63233535  0.71080867  0.78482765  1
  Ni  Ni175  1  0.16063608  0.72832717  0.52666299  1
  Ni  Ni176  1  0.69869225  0.65067708  0.06044729  1
  Ni  Ni177  1  0.27113155  0.74764543  0.21212401  1
  Ni  Ni178  1  0.09959050  0.29225435  0.60316297  1
  Ni  Ni179  1  0.45626317  0.66340463  0.24268994  1
  Ni  Ni180  1  0.38381004  0.35667256  -0.03167433  1
  Ni  Ni181  1  -0.06002516  0.29938631  0.34258308  1
  Ni  Ni182  1  0.23663866  0.13660473  -0.05129473  1
  Ni  Ni183  1  0.30886270  0.78200641  0.88265888  1
  Ni  Ni184  1  0.51787333  -0.01190082  0.12671884  1
  Ni  Ni185  1  0.49191033  0.90547534  0.34811194  1
  Ni  Ni186  1  0.55012726  0.67998539  0.50926916  1
  Ni  Ni187  1  0.31343449  0.15457833  0.21448078  1
  Ni  Ni188  1  -0.05303158  0.59263797  0.03766756  1
  Ni  Ni189  1  0.45692805  0.51852696  0.04064477  1
  Ni  Ni190  1  0.05073992  0.81227222  0.75519753  1
  Ni  Ni191  1  0.61843377  0.48686900  0.41678272  1
  Ni  Ni192  1  0.69103664  0.39167463  -0.02909677  1
  Ni  Ni193  1  0.14004431  0.65053105  0.22533436  1
  Ni  Ni194  1  0.35168947  0.74911640  0.63674569  1
  Ni  Ni195  1  0.48332769  0.21561325  0.23780455  1
  Ni  Ni196  1  0.73589979  0.47535803  0.19170303  1
  Ni  Ni197  1  0.06796250  0.07509358  0.44766463  1
  Ni  Ni198  1  0.21793396  0.22550010  0.32700998  1
  Ni  Ni199  1  0.40267419  0.78352166  0.01774994  1
  Ni  Ni200  1  0.85711099  0.71812725  0.13644892  1
  Ni  Ni201  1  0.33128656  -0.06469728  0.36757484  1
  Ni  Ni202  1  0.89143244  0.38662411  0.46725522  1
  Ni  Ni203  1  -0.11266591  0.65380341  0.39960891  1
  Ni  Ni204  1  0.31215136  -0.01057078  0.63391096  1
  Ni  Ni205  1  0.65417477  0.32448241  0.41509261  1
  Ni  Ni206  1  0.44680074  0.89669012  0.61636228  1
  Ni  Ni207  1  0.86387429  0.37529983  -0.04215008  1
  Ni  Ni208  1  0.34524979  0.63338575  -0.03262757  1
  Ni  Ni209  1  0.01105400  0.17971364  0.25973363  1
  Ni  Ni210  1  0.14989336  0.84012437  -0.11825659  1
  Ni  Ni211  1  0.23777951  0.25485127  0.49787295  1
  Ni  Ni212  1  0.38928979  0.35443363  0.80767228  1
  Ni  Ni213  1  0.85128987  -0.01549507  0.80125452  1
  Ni  Ni214  1  0.42251149  0.38779989  0.64870908  1
