# generated using pymatgen
data_Ti108Co54Ni53
_symmetry_space_group_name_H-M   'P 1'
_cell_length_a   14.64055265
_cell_length_b   14.64058804
_cell_length_c   14.69420232
_cell_angle_alpha   90.02152654
_cell_angle_beta   90.28683559
_cell_angle_gamma   90.16150350
_symmetry_Int_Tables_number   1
_chemical_formula_structural   Ti108Co54Ni53
_chemical_formula_sum   'Ti108 Co54 Ni53'
_cell_volume   3149.59567932
_cell_formula_units_Z   1
loop_
 _symmetry_equiv_pos_site_id
 _symmetry_equiv_pos_as_xyz
  1  'x, y, z'
loop_
 _atom_site_type_symbol
 _atom_site_label
 _atom_site_symmetry_multiplicity
 _atom_site_fract_x
 _atom_site_fract_y
 _atom_site_fract_z
 _atom_site_occupancy
  Ti  Ti0  1  0.08561014  0.08364720  0.25041750  1
  Ti  Ti1  1  0.09545146  0.10602591  0.46763195  1
  Ti  Ti2  1  -0.00372728  0.16819860  0.93412326  1
  Ti  Ti3  1  0.04197003  0.45248464  0.27815256  1
  Ti  Ti4  1  0.17041053  0.45528296  0.56026467  1
  Ti  Ti5  1  0.07226487  0.35577574  0.97449685  1
  Ti  Ti6  1  0.09247694  0.77872181  0.18646911  1
  Ti  Ti7  1  0.10841589  0.73047123  0.54514728  1
  Ti  Ti8  1  0.08244258  0.78341002  0.90488131  1
  Ti  Ti9  1  0.29598031  0.07728077  0.24049911  1
  Ti  Ti10  1  0.45822589  0.09726596  0.52330555  1
  Ti  Ti11  1  0.48001114  0.10338346  0.91367845  1
  Ti  Ti12  1  0.42060242  0.44165236  0.23503735  1
  Ti  Ti13  1  0.37331924  0.35443626  0.55970905  1
  Ti  Ti14  1  0.45165267  0.43956072  0.85253333  1
  Ti  Ti15  1  0.50280520  0.77981335  0.25468154  1
  Ti  Ti16  1  0.49808212  0.75711083  0.56007799  1
  Ti  Ti17  1  0.42487380  0.73769407  0.91988461  1
  Ti  Ti18  1  0.77258821  0.10473674  0.31147007  1
  Ti  Ti19  1  0.69975645  0.08688879  0.61593606  1
  Ti  Ti20  1  0.81205497  0.05719782  0.87184787  1
  Ti  Ti21  1  0.81459487  0.42674117  0.27409628  1
  Ti  Ti22  1  0.84364891  0.44840102  0.58813948  1
  Ti  Ti23  1  0.69182736  0.39872087  0.96725240  1
  Ti  Ti24  1  0.69256420  0.84170400  0.22090859  1
  Ti  Ti25  1  0.76786687  0.78843538  0.56104211  1
  Ti  Ti26  1  0.74125969  0.70885836  0.87785079  1
  Ti  Ti27  1  0.11493845  0.26529024  0.16667207  1
  Ti  Ti28  1  0.06666654  0.27003648  0.36939622  1
  Ti  Ti29  1  0.11246153  0.29778146  0.72977616  1
  Ti  Ti30  1  0.00740493  0.59895548  0.03570926  1
  Ti  Ti31  1  0.04998243  0.59800818  0.41295676  1
  Ti  Ti32  1  0.06278040  0.62727097  0.76206901  1
  Ti  Ti33  1  0.02123306  0.95069075  0.10985376  1
  Ti  Ti34  1  0.12644095  0.89002488  0.44876313  1
  Ti  Ti35  1  0.02595705  0.89224613  0.71079452  1
  Ti  Ti36  1  0.44199450  0.28864450  0.10656293  1
  Ti  Ti37  1  0.48797804  0.27165319  0.40862946  1
  Ti  Ti38  1  0.43638422  0.29269204  0.73251796  1
  Ti  Ti39  1  0.38842096  0.65165488  0.10912124  1
  Ti  Ti40  1  0.39026217  0.61456328  0.42465174  1
  Ti  Ti41  1  0.39894608  0.60971076  0.78344405  1
  Ti  Ti42  1  0.40276923  0.94823902  0.14211209  1
  Ti  Ti43  1  0.34288076  0.89614937  0.48623844  1
  Ti  Ti44  1  0.44263859  0.83645184  0.73470580  1
  Ti  Ti45  1  0.77517657  0.30691748  0.10590714  1
  Ti  Ti46  1  0.87469066  0.26876781  0.39927856  1
  Ti  Ti47  1  0.79137522  0.23897417  0.79975504  1
  Ti  Ti48  1  0.74334569  0.61466733  0.05713110  1
  Ti  Ti49  1  0.70999569  0.56731392  0.43412616  1
  Ti  Ti50  1  0.72254995  0.52740794  0.72091142  1
  Ti  Ti51  1  0.69781658  0.85060001  0.00057329  1
  Ti  Ti52  1  0.79853100  0.88694486  0.38850878  1
  Ti  Ti53  1  0.76051864  0.85796339  0.77038543  1
  Ti  Ti54  1  0.20357845  0.06860437  0.05877450  1
  Ti  Ti55  1  0.29092499  0.08874395  0.45581901  1
  Ti  Ti56  1  0.30916445  0.09535453  0.69390193  1
  Ti  Ti57  1  0.24848052  0.35973500  0.08207156  1
  Ti  Ti58  1  0.30514467  0.42673835  0.39894486  1
  Ti  Ti59  1  0.28397366  0.43202534  0.72594633  1
  Ti  Ti60  1  0.18735274  0.64046032  0.08579532  1
  Ti  Ti61  1  0.23539568  0.72397266  0.38762703  1
  Ti  Ti62  1  0.26046902  0.74493046  0.82189286  1
  Ti  Ti63  1  0.58257050  0.03292618  0.07423709  1
  Ti  Ti64  1  0.62007171  0.10913492  0.43013436  1
  Ti  Ti65  1  0.52131925  0.11920074  0.71885878  1
  Ti  Ti66  1  0.54472520  0.47731139  0.08039456  1
  Ti  Ti67  1  0.62056184  0.40655792  0.39678488  1
  Ti  Ti68  1  0.60925481  0.36946044  0.69378602  1
  Ti  Ti69  1  0.57755042  0.68215180  0.10551634  1
  Ti  Ti70  1  0.61565619  0.80430771  0.41165102  1
  Ti  Ti71  1  0.57658349  0.71506792  0.76684943  1
  Ti  Ti72  1  0.78162270  0.00375334  0.05523867  1
  Ti  Ti73  1  0.95745698  -0.01221190  0.39493310  1
  Ti  Ti74  1  0.99590074  0.09625424  0.69048690  1
  Ti  Ti75  1  0.93873815  0.43436388  0.12326398  1
  Ti  Ti76  1  0.97205015  0.43339682  0.45322083  1
  Ti  Ti77  1  0.94196024  0.39826238  0.76464935  1
  Ti  Ti78  1  0.84848839  0.78577691  0.11461455  1
  Ti  Ti79  1  0.92905054  0.75823297  0.39794705  1
  Ti  Ti80  1  0.83044221  0.67715019  0.71065703  1
  Ti  Ti81  1  0.32174816  0.26646600  0.26321699  1
  Ti  Ti82  1  0.19254647  0.26673375  0.53147341  1
  Ti  Ti83  1  0.29937653  0.30623476  0.90344779  1
  Ti  Ti84  1  0.28170374  0.57767454  0.24907763  1
  Ti  Ti85  1  0.24008650  0.62873901  0.64931249  1
  Ti  Ti86  1  0.29660880  0.54867913  0.93785879  1
  Ti  Ti87  1  0.34245725  0.89545216  0.30509382  1
  Ti  Ti88  1  0.25253069  0.84252570  0.64560666  1
  Ti  Ti89  1  0.29779329  0.89867873  1.00037591  1
  Ti  Ti90  1  0.60040606  0.19547619  0.22654963  1
  Ti  Ti91  1  0.66917289  0.28406725  0.53620750  1
  Ti  Ti92  1  0.66644267  0.18885223  0.95733611  1
  Ti  Ti93  1  0.62093562  0.52651325  0.25298373  1
  Ti  Ti94  1  0.55004975  0.55027989  0.56005593  1
  Ti  Ti95  1  0.58281786  0.58328058  0.90670967  1
  Ti  Ti96  1  0.52930830  0.99493038  0.27242273  1
  Ti  Ti97  1  0.53790914  0.95398700  0.60134570  1
  Ti  Ti98  1  0.50075254  0.90279364  0.95930529  1
  Ti  Ti99  1  0.90823824  0.13557493  0.15607200  1
  Ti  Ti100  1  0.93444479  0.26547475  0.59721279  1
  Ti  Ti101  1  0.88269101  0.34272625  0.93780167  1
  Ti  Ti102  1  0.94025853  0.63377729  0.23097387  1
  Ti  Ti103  1  0.89748947  0.62800133  0.53496048  1
  Ti  Ti104  1  0.90045406  0.56990093  0.86505145  1
  Ti  Ti105  1  0.86451948  0.95999988  0.22662732  1
  Ti  Ti106  1  0.86667904  0.97256726  0.57479253  1
  Ti  Ti107  1  0.89476235  0.87846041  0.92170114  1
  Co  Co108  1  0.18015873  0.40202521  0.85334490  1
  Co  Co109  1  0.81042795  0.24749229  0.24583326  1
  Co  Co110  1  0.16067412  0.49218350  -0.00701056  1
  Co  Co111  1  0.19321924  0.00313472  0.35495080  1
  Co  Co112  1  0.13233982  0.63566060  0.92400984  1
  Co  Co113  1  0.47795534  0.47713826  0.38821982  1
  Co  Co114  1  -0.06820413  0.03254135  0.00334638  1
  Co  Co115  1  0.45031782  0.57136343  -0.01895418  1
  Co  Co116  1  0.21224104  0.59781509  0.48923401  1
  Co  Co117  1  0.56052043  0.55889827  0.73364440  1
  Co  Co118  1  0.35298945  0.72351270  0.27450460  1
  Co  Co119  1  0.94748829  0.13948490  0.32493388  1
  Co  Co120  1  0.58758589  0.73807001  -0.04266213  1
  Co  Co121  1  0.11121795  0.46340683  0.13292305  1
  Co  Co122  1  0.64609919  0.68582739  0.27628924  1
  Co  Co123  1  0.84017011  0.15128277  0.66985062  1
  Co  Co124  1  0.43795674  0.78128477  0.41049123  1
  Co  Co125  1  0.88451381  0.83667343  0.67362817  1
  Co  Co126  1  0.29024680  0.19945408  0.11177867  1
  Co  Co127  1  0.80891758  0.74224468  0.26843151  1
  Co  Co128  1  0.13906981  0.40291861  0.41109816  1
  Co  Co129  1  0.16672459  0.22739176  -0.00402463  1
  Co  Co130  1  0.19203845  0.85070772  0.29726040  1
  Co  Co131  1  0.35011758  0.20051830  0.58253079  1
  Co  Co132  1  0.07272171  0.74381487  0.34259918  1
  Co  Co133  1  0.78340548  0.03875323  0.45475837  1
  Co  Co134  1  0.05988880  0.57526108  0.58761670  1
  Co  Co135  1  0.68398600  0.45185140  0.56003733  1
  Co  Co136  1  0.10911050  0.47257998  0.72135164  1
  Co  Co137  1  -0.05802208  0.82467412  0.24767262  1
  Co  Co138  1  0.26439351  0.73856712  -0.01620948  1
  Co  Co139  1  0.12871056  0.77104583  0.72236820  1
  Co  Co140  1  0.31164683  0.73345963  0.53492385  1
  Co  Co141  1  0.61769527  0.85551189  0.84834878  1
  Co  Co142  1  0.64729980  0.01037500  -0.07842428  1
  Co  Co143  1  0.42588366  0.80019958  0.07783294  1
  Co  Co144  1  0.05641446  0.13033007  0.08092332  1
  Co  Co145  1  0.04043201  0.49276938  0.88292405  1
  Co  Co146  1  0.20658957  -0.04833811  0.17290073  1
  Co  Co147  1  0.60879330  0.43121820  0.83767958  1
  Co  Co148  1  0.53221681  0.17733181  0.04979911  1
  Co  Co149  1  0.93158847  0.54748869  0.68712396  1
  Co  Co150  1  0.52810050  0.38847645  0.54007375  1
  Co  Co151  1  0.60709885  0.31626990  0.07903634  1
  Co  Co152  1  0.77437507  0.32606416  0.66433358  1
  Co  Co153  1  0.26796724  0.26965738  0.70767333  1
  Co  Co154  1  0.72169631  0.46253892  0.13021763  1
  Co  Co155  1  0.05464273  -0.07126974  0.28189121  1
  Co  Co156  1  0.09598073  0.60824891  0.21959235  1
  Co  Co157  1  0.66359587  -0.03398266  0.35852840  1
  Co  Co158  1  0.33042265  0.24612450  0.42407483  1
  Co  Co159  1  0.30171091  0.50807247  0.10412531  1
  Co  Co160  1  0.17721383  0.54015653  0.34766568  1
  Co  Co161  1  -0.01665770  0.71620860  0.64737800  1
  Ni  Ni162  1  0.35805516  0.90896416  0.84947760  1
  Ni  Ni163  1  0.37643399  -0.03912732  0.63540106  1
  Ni  Ni164  1  0.19820707  0.17755576  0.34031465  1
  Ni  Ni165  1  0.21847284  0.40287131  0.24978593  1
  Ni  Ni166  1  0.77691981  0.40373558  0.81475650  1
  Ni  Ni167  1  -0.04678340  0.27218411  0.07502969  1
  Ni  Ni168  1  -0.00426721  0.79246619  0.04495267  1
  Ni  Ni169  1  0.65312782  -0.02582249  0.72904952  1
  Ni  Ni170  1  0.37001958  0.17969510  0.82557107  1
  Ni  Ni171  1  0.78862648  0.18680215  0.50818997  1
  Ni  Ni172  1  0.55411013  0.63688271  0.40409263  1
  Ni  Ni173  1  0.14846348  0.85264981  0.04556064  1
  Ni  Ni174  1  0.39911613  0.41223773  0.00842337  1
  Ni  Ni175  1  0.76337261  0.71126408  0.41445004  1
  Ni  Ni176  1  0.68605809  0.00766300  0.20283920  1
  Ni  Ni177  1  0.27159043  0.79501158  0.15048444  1
  Ni  Ni178  1  0.56797079  0.35972730  0.23447866  1
  Ni  Ni179  1  -0.06500755  0.11869796  0.51388285  1
  Ni  Ni180  1  0.77780626  0.58793576  0.22571585  1
  Ni  Ni181  1  0.66903723  0.66544799  0.63251732  1
  Ni  Ni182  1  -0.04000883  0.23027656  0.78409259  1
  Ni  Ni183  1  0.84498011  0.49402739  0.00715693  1
  Ni  Ni184  1  0.83357379  0.17838060  -0.00550445  1
  Ni  Ni185  1  -0.06304720  0.75718728  0.81247013  1
  Ni  Ni186  1  0.21227119  -0.01001155  0.56837140  1
  Ni  Ni187  1  0.52331269  0.23179155  0.59601863  1
  Ni  Ni188  1  0.21712318  0.56610078  0.80172971  1
  Ni  Ni189  1  0.41640060  0.63644198  0.62814964  1
  Ni  Ni190  1  0.85244842  -0.00572260  0.73283307  1
  Ni  Ni191  1  0.01554809  0.40841402  0.61135152  1
  Ni  Ni192  1  0.88094088  0.70795875  -0.03374937  1
  Ni  Ni193  1  0.69656648  0.25737445  0.36903828  1
  Ni  Ni194  1  0.50272966  0.29215440  0.92257446  1
  Ni  Ni195  1  0.62992654  0.82690801  0.65272495  1
  Ni  Ni196  1  0.87470778  0.56381303  0.37557932  1
  Ni  Ni197  1  0.04169137  -0.01200762  0.56674209  1
  Ni  Ni198  1  0.44522151  0.13113596  0.18679104  1
  Ni  Ni199  1  -0.03225706  0.84235080  0.53086076  1
  Ni  Ni200  1  -0.03902820  0.30328171  0.24176747  1
  Ni  Ni201  1  0.78986769  0.40971493  0.43567181  1
  Ni  Ni202  1  0.44453266  0.46532558  0.67597222  1
  Ni  Ni203  1  0.67987904  0.93080862  0.52072386  1
  Ni  Ni204  1  0.50397961  -0.05466089  0.43055935  1
  Ni  Ni205  1  0.67218503  0.12033931  0.79572745  1
  Ni  Ni206  1  0.38106361  0.07644121  0.04411121  1
  Ni  Ni207  1  0.47501970  0.60506593  0.25258663  1
  Ni  Ni208  1  0.43982349  0.11179091  0.35362475  1
  Ni  Ni209  1  0.56521730  0.87353924  0.12313978  1
  Ni  Ni210  1  0.73885493  0.54192917  0.88986782  1
  Ni  Ni211  1  0.15811010  0.13949489  0.62956606  1
  Ni  Ni212  1  0.51071736  -0.02418032  0.80722550  1
  Ni  Ni213  1  0.33607799  0.51380431  0.55639982  1
  Ni  Ni214  1  0.72804555  0.14636872  0.12739225  1
