# generated using pymatgen
data_Ti108Co54Ni53
_symmetry_space_group_name_H-M   'P 1'
_cell_length_a   14.60805297
_cell_length_b   14.66804217
_cell_length_c   14.58817323
_cell_angle_alpha   89.78747760
_cell_angle_beta   90.12398650
_cell_angle_gamma   90.17593791
_symmetry_Int_Tables_number   1
_chemical_formula_structural   Ti108Co54Ni53
_chemical_formula_sum   'Ti108 Co54 Ni53'
_cell_volume   3125.78681836
_cell_formula_units_Z   1
loop_
 _symmetry_equiv_pos_site_id
 _symmetry_equiv_pos_as_xyz
  1  'x, y, z'
loop_
 _atom_site_type_symbol
 _atom_site_label
 _atom_site_symmetry_multiplicity
 _atom_site_fract_x
 _atom_site_fract_y
 _atom_site_fract_z
 _atom_site_occupancy
  Ti  Ti0  1  0.07536048  0.01327434  0.20308731  1
  Ti  Ti1  1  0.10741953  0.04802737  0.55104334  1
  Ti  Ti2  1  0.06112285  0.05764332  0.86851790  1
  Ti  Ti3  1  0.04550898  0.39043499  0.23716127  1
  Ti  Ti4  1  0.13407635  0.41162187  0.54985048  1
  Ti  Ti5  1  0.05867403  0.33159614  0.91813987  1
  Ti  Ti6  1  0.08362738  0.70605973  0.20635012  1
  Ti  Ti7  1  0.04381867  0.71237379  0.59924703  1
  Ti  Ti8  1  0.12908408  0.65861128  1.01095107  1
  Ti  Ti9  1  0.37866935  0.14013356  0.29499612  1
  Ti  Ti10  1  0.45530563  0.08382195  0.65142494  1
  Ti  Ti11  1  0.39859218  0.07425237  0.95372383  1
  Ti  Ti12  1  0.44884728  0.45624676  0.24092959  1
  Ti  Ti13  1  0.44337760  0.39947047  0.62425721  1
  Ti  Ti14  1  0.45316813  0.44519905  0.97349638  1
  Ti  Ti15  1  0.40212795  0.81581455  0.28303147  1
  Ti  Ti16  1  0.45475831  0.76465274  0.50299327  1
  Ti  Ti17  1  0.42258960  0.81524847  0.84875071  1
  Ti  Ti18  1  0.78792270  0.07701520  0.18388479  1
  Ti  Ti19  1  0.73542421  0.05188404  0.59710893  1
  Ti  Ti20  1  0.71712071  0.12623574  0.99495615  1
  Ti  Ti21  1  0.71506808  0.42631997  0.26776481  1
  Ti  Ti22  1  0.76090564  0.37989727  0.60280427  1
  Ti  Ti23  1  0.64965109  0.42057321  0.93638455  1
  Ti  Ti24  1  0.80262793  0.66839573  0.35187166  1
  Ti  Ti25  1  0.74711303  0.71083515  0.54521749  1
  Ti  Ti26  1  0.72409010  0.74876551  0.88378845  1
  Ti  Ti27  1  0.12922889  0.27497798  0.09709481  1
  Ti  Ti28  1  0.07226364  0.28185618  0.38812078  1
  Ti  Ti29  1  0.14764864  0.28931477  0.75530775  1
  Ti  Ti30  1  0.05237647  0.48705374  0.07990667  1
  Ti  Ti31  1  0.07169347  0.63970435  0.41089330  1
  Ti  Ti32  1  0.11374253  0.59435732  0.81442172  1
  Ti  Ti33  1  0.14425694  0.84308337  0.08745205  1
  Ti  Ti34  1  0.03778342  0.94900723  0.40170487  1
  Ti  Ti35  1  0.07674209  0.82484667  0.76358811  1
  Ti  Ti36  1  0.43579287  0.17998395  0.12007670  1
  Ti  Ti37  1  0.39512345  0.21747844  0.50283525  1
  Ti  Ti38  1  0.33120257  0.25231293  0.70283562  1
  Ti  Ti39  1  0.44471943  0.64091490  0.05696411  1
  Ti  Ti40  1  0.41285348  0.54015432  0.48305787  1
  Ti  Ti41  1  0.38941729  0.58782358  0.67913245  1
  Ti  Ti42  1  0.42295683  0.93489506  0.08313979  1
  Ti  Ti43  1  0.37497113  0.93835895  0.50019092  1
  Ti  Ti44  1  0.46540069  0.89421427  0.68555729  1
  Ti  Ti45  1  0.73992982  0.33808223  0.11144589  1
  Ti  Ti46  1  0.75816158  0.19675584  0.48510701  1
  Ti  Ti47  1  0.73799721  0.33185864  0.78280479  1
  Ti  Ti48  1  0.74852520  0.55652187  0.04270603  1
  Ti  Ti49  1  0.75171449  0.52446311  0.47675252  1
  Ti  Ti50  1  0.69543848  0.54319667  0.69389539  1
  Ti  Ti51  1  0.78034278  0.85573154  0.10915478  1
  Ti  Ti52  1  0.78521879  0.95710777  0.41467813  1
  Ti  Ti53  1  0.73096482  0.88676875  0.70690972  1
  Ti  Ti54  1  0.24313190  0.03602428  0.09158562  1
  Ti  Ti55  1  0.25364853  0.08451341  0.42112857  1
  Ti  Ti56  1  0.22141346  0.09106047  0.73674580  1
  Ti  Ti57  1  0.28064562  0.37976335  0.05717448  1
  Ti  Ti58  1  0.28024075  0.40607640  0.39862070  1
  Ti  Ti59  1  0.24954290  0.44924109  0.72892021  1
  Ti  Ti60  1  0.27252666  0.68615857  0.14970347  1
  Ti  Ti61  1  0.22111929  0.75690201  0.36264196  1
  Ti  Ti62  1  0.22124844  0.74933331  0.87040755  1
  Ti  Ti63  1  0.58024656  0.03985725  0.11059085  1
  Ti  Ti64  1  0.56046679  0.09385507  0.31144918  1
  Ti  Ti65  1  0.63285030  0.16583824  0.71034774  1
  Ti  Ti66  1  0.57857433  0.28096485  0.02819160  1
  Ti  Ti67  1  0.57989931  0.42111766  0.39102549  1
  Ti  Ti68  1  0.53140262  0.48822264  0.79538193  1
  Ti  Ti69  1  0.56366727  0.80759202  0.15289484  1
  Ti  Ti70  1  0.64930042  0.79637741  0.39911583  1
  Ti  Ti71  1  0.55096531  0.69717600  0.70536070  1
  Ti  Ti72  1  0.97793076  0.12910420  0.07963719  1
  Ti  Ti73  1  0.92062252  0.09720484  0.43904439  1
  Ti  Ti74  1  0.92336985  0.11251379  0.64786531  1
  Ti  Ti75  1  0.88533983  0.41097113  -0.00467642  1
  Ti  Ti76  1  0.96817965  0.46515055  0.45245430  1
  Ti  Ti77  1  1.01654535  0.44934984  0.70269993  1
  Ti  Ti78  1  0.87202101  0.71641458  0.17489002  1
  Ti  Ti79  1  0.90502919  0.80556813  0.46018590  1
  Ti  Ti80  1  0.88943465  0.76687601  0.78690728  1
  Ti  Ti81  1  0.23136226  0.26150670  0.25290037  1
  Ti  Ti82  1  0.18732020  0.21504751  0.56892078  1
  Ti  Ti83  1  0.25390528  0.22958504  0.91616160  1
  Ti  Ti84  1  0.29501375  0.56067219  0.27930306  1
  Ti  Ti85  1  0.24480449  0.66045007  0.55281902  1
  Ti  Ti86  1  0.28218364  0.56185182  0.96104109  1
  Ti  Ti87  1  0.23614722  0.93651060  0.27664148  1
  Ti  Ti88  1  0.21763987  0.91168081  0.63458605  1
  Ti  Ti89  1  0.28427723  0.90619074  0.94763347  1
  Ti  Ti90  1  0.55558411  0.29510078  0.23009102  1
  Ti  Ti91  1  0.59065522  0.27965604  0.53541142  1
  Ti  Ti92  1  0.51046104  0.26096545  0.83775881  1
  Ti  Ti93  1  0.59482434  0.59248675  0.19310218  1
  Ti  Ti94  1  0.58472084  0.62475904  0.49681873  1
  Ti  Ti95  1  0.55244731  0.68282815  0.90362347  1
  Ti  Ti96  1  0.66781465  0.93323989  0.25521224  1
  Ti  Ti97  1  0.58463318  0.95261593  0.53339944  1
  Ti  Ti98  1  0.56757539  0.94346774  0.90965218  1
  Ti  Ti99  1  0.90696046  0.26007251  0.21157360  1
  Ti  Ti100  1  0.91007158  0.30271749  0.52482341  1
  Ti  Ti101  1  0.88779178  0.20267108  0.91783715  1
  Ti  Ti102  1  0.96410948  0.56310773  0.26417597  1
  Ti  Ti103  1  0.87582860  0.59637262  0.62133299  1
  Ti  Ti104  1  0.92070475  0.60779762  0.92307093  1
  Ti  Ti105  1  0.91080263  0.92520191  0.26059831  1
  Ti  Ti106  1  1.00564640  0.90014197  0.59502072  1
  Ti  Ti107  1  0.94872658  0.85244974  0.98194425  1
  Co  Co108  1  0.07968035  0.14709069  0.68294101  1
  Co  Co109  1  -0.02277909  0.31217556  0.07395216  1
  Co  Co110  1  0.25249346  0.24845000  0.41573653  1
  Co  Co111  1  0.66116980  0.59885345  0.34679776  1
  Co  Co112  1  0.43949420  0.37893467  0.45128045  1
  Co  Co113  1  0.60319374  0.79089271  0.58744755  1
  Co  Co114  1  0.10693119  0.86520355  -0.07009919  1
  Co  Co115  1  0.39092831  0.66016614  0.88703234  1
  Co  Co116  1  0.79653811  0.46817174  -0.12503007  1
  Co  Co117  1  -0.01801209  0.63736449  0.74076026  1
  Co  Co118  1  0.83090849  0.21141496  0.07233338  1
  Co  Co119  1  0.91509457  0.62801691  0.45845991  1
  Co  Co120  1  0.73878144  0.87234984  0.54206437  1
  Co  Co121  1  0.87981446  0.43076759  0.18121859  1
  Co  Co122  1  0.31011489  0.75088897  0.00671342  1
  Co  Co123  1  0.37176620  0.51313433  0.83234955  1
  Co  Co124  1  0.90970710  0.33914619  0.82148480  1
  Co  Co125  1  -0.01906442  0.47577089  0.86086620  1
  Co  Co126  1  0.36766766  0.14557658  0.81207863  1
  Co  Co127  1  0.03016809  0.55520459  0.56949229  1
  Co  Co128  1  0.19141472  0.73635203  0.68475387  1
  Co  Co129  1  0.15770944  0.56763952  0.65934077  1
  Co  Co130  1  0.27678953  0.80736839  0.52285101  1
  Co  Co131  1  0.87331725  -0.02918563  0.55476050  1
  Co  Co132  1  0.72282369  0.72111858  0.70768045  1
  Co  Co133  1  0.81994659  0.61671218  0.79033730  1
  Co  Co134  1  0.48958612  0.24449308  0.66694058  1
  Co  Co135  1  0.35947324  -0.01541354  0.78992755  1
  Co  Co136  1  0.06661826  0.20123398  0.22732669  1
  Co  Co137  1  0.09226522  0.85327349  0.28568985  1
  Co  Co138  1  0.90532645  -0.01824461  0.10442223  1
  Co  Co139  1  0.09445948  0.80003755  0.46269161  1
  Co  Co140  1  0.60147671  -0.01120411  0.71163760  1
  Co  Co141  1  0.59709604  0.82957174  0.78926649  1
  Co  Co142  1  0.60038724  0.43258755  0.12265962  1
  Co  Co143  1  0.53084413  0.72844839  0.33114063  1
  Co  Co144  1  0.06321893  -0.00833970  0.71133841  1
  Co  Co145  1  0.29305817  0.84263879  0.75867794  1
  Co  Co146  1  0.51309351  0.23472142  0.38937065  1
  Co  Co147  1  0.40308251  0.26654935  -0.02723702  1
  Co  Co148  1  0.76672812  0.30690705  -0.05302489  1
  Co  Co149  1  0.28170855  0.19266230  0.08019679  1
  Co  Co150  1  -0.00844325  0.71150044  0.05546289  1
  Co  Co151  1  0.60149799  0.36960668  0.69304909  1
  Co  Co152  1  0.35256952  0.51547482  0.12131241  1
  Co  Co153  1  0.65958183  0.21431767  0.87206086  1
  Co  Co154  1  0.02977928  0.72896752  0.88743157  1
  Co  Co155  1  0.51619060  0.07272591  0.81787701  1
  Co  Co156  1  0.53753413  0.53759810  0.63474420  1
  Co  Co157  1  0.27025264  0.62870751  0.77167993  1
  Co  Co158  1  0.21650882  0.10401219  0.23701258  1
  Co  Co159  1  0.61967642  0.44538820  0.54180907  1
  Co  Co160  1  0.37650463  -0.01855822  0.33985060  1
  Co  Co161  1  -0.01070614  0.84799754  0.14715808  1
  Ni  Ni162  1  0.84321938  0.49361841  0.34267778  1
  Ni  Ni163  1  0.79453826  0.82539526  0.30112807  1
  Ni  Ni164  1  0.06110893  -0.01658463  0.03463124  1
  Ni  Ni165  1  0.28124928  0.49644822  0.56974493  1
  Ni  Ni166  1  0.58586747  0.55831906  0.01130597  1
  Ni  Ni167  1  0.65834113  0.71028949  0.04872641  1
  Ni  Ni168  1  0.67065890  0.24831953  0.33783479  1
  Ni  Ni169  1  0.85228248  0.46230308  0.72277806  1
  Ni  Ni170  1  0.82968187  0.19655773  0.33563671  1
  Ni  Ni171  1  0.49627170  -0.04333133  0.23135168  1
  Ni  Ni172  1  0.29886419  0.07069350  0.58784073  1
  Ni  Ni173  1  0.23867485  0.06361744  -0.09389516  1
  Ni  Ni174  1  0.00797914  0.29077818  0.66129311  1
  Ni  Ni175  1  0.13013397  0.48679905  -0.06067102  1
  Ni  Ni176  1  0.13334168  0.55242032  0.23043709  1
  Ni  Ni177  1  0.82570249  0.71237383  0.01265194  1
  Ni  Ni178  1  0.45673409  0.07506854  0.44957177  1
  Ni  Ni179  1  0.49727852  0.57104077  0.34798967  1
  Ni  Ni180  1  0.29131588  0.34080582  0.56182284  1
  Ni  Ni181  1  0.77765527  0.57114884  0.20946468  1
  Ni  Ni182  1  0.69269343  0.72703246  0.22120173  1
  Ni  Ni183  1  0.75380937  0.36072703  0.43074682  1
  Ni  Ni184  1  0.20048198  -0.07105066  0.45130950  1
  Ni  Ni185  1  0.67381749  0.57950880  0.86048200  1
  Ni  Ni186  1  0.43063364  0.65134432  0.22140654  1
  Ni  Ni187  1  0.38931865  0.36019409  0.81219990  1
  Ni  Ni188  1  0.11695009  0.45887778  0.37093460  1
  Ni  Ni189  1  0.78529510  0.21529203  0.65149711  1
  Ni  Ni190  1  0.13187069  0.13592616  0.00622587  1
  Ni  Ni191  1  0.29764191  0.85426005  0.14192864  1
  Ni  Ni192  1  0.71651417  0.08456188  0.35155319  1
  Ni  Ni193  1  0.38961016  0.30980176  0.30360460  1
  Ni  Ni194  1  0.22622267  0.56880326  0.42379558  1
  Ni  Ni195  1  -0.09662426  0.34337298  0.35523108  1
  Ni  Ni196  1  0.22685486  0.42195684  0.20947214  1
  Ni  Ni197  1  0.18556547  -0.05484582  0.81079361  1
  Ni  Ni198  1  -0.09076842  0.57175835  0.09680797  1
  Ni  Ni199  1  0.61029249  0.11744846  0.48500708  1
  Ni  Ni200  1  -0.03796156  0.75136404  0.31674832  1
  Ni  Ni201  1  0.09744849  0.11618340  0.37125043  1
  Ni  Ni202  1  0.86807840  0.79996567  0.62873523  1
  Ni  Ni203  1  0.36743638  0.67895930  0.38882303  1
  Ni  Ni204  1  0.24763546  0.39133882  0.88885781  1
  Ni  Ni205  1  0.51611342  0.90305384  0.38634735  1
  Ni  Ni206  1  0.02938334  0.19286384  0.52491343  1
  Ni  Ni207  1  0.00726721  0.20631601  0.80790998  1
  Ni  Ni208  1  0.54600651  0.13084149  -0.02807178  1
  Ni  Ni209  1  -0.05560720  0.09150927  0.26759791  1
  Ni  Ni210  1  0.47669209  0.80093466  0.00538243  1
  Ni  Ni211  1  0.65371575  0.18171283  0.16143020  1
  Ni  Ni212  1  0.44196444  0.35408084  0.11268624  1
  Ni  Ni213  1  0.69928664  -0.03593344  0.03353564  1
  Ni  Ni214  1  0.36826722  0.75091433  0.65270884  1
