# generated using pymatgen
data_Ti108Co54Ni53
_symmetry_space_group_name_H-M   'P 1'
_cell_length_a   14.65478926
_cell_length_b   14.64611391
_cell_length_c   14.63000161
_cell_angle_alpha   89.96439813
_cell_angle_beta   89.82363139
_cell_angle_gamma   90.03101116
_symmetry_Int_Tables_number   1
_chemical_formula_structural   Ti108Co54Ni53
_chemical_formula_sum   'Ti108 Co54 Ni53'
_cell_volume   3140.10487883
_cell_formula_units_Z   1
loop_
 _symmetry_equiv_pos_site_id
 _symmetry_equiv_pos_as_xyz
  1  'x, y, z'
loop_
 _atom_site_type_symbol
 _atom_site_label
 _atom_site_symmetry_multiplicity
 _atom_site_fract_x
 _atom_site_fract_y
 _atom_site_fract_z
 _atom_site_occupancy
  Ti  Ti0  1  0.03044051  0.09719846  0.16470115  1
  Ti  Ti1  1  0.08799240  0.03245196  0.63006226  1
  Ti  Ti2  1  0.05047378  0.09586064  0.83847893  1
  Ti  Ti3  1  0.12948082  0.38812818  0.27026689  1
  Ti  Ti4  1  0.12848240  0.43669997  0.61796506  1
  Ti  Ti5  1  0.02412799  0.44316247  0.94127561  1
  Ti  Ti6  1  0.08400525  0.76539518  0.30457387  1
  Ti  Ti7  1  0.12046348  0.78388870  0.49513888  1
  Ti  Ti8  1  0.11223742  0.74397323  0.96671379  1
  Ti  Ti9  1  0.36753076  0.11231503  0.17773825  1
  Ti  Ti10  1  0.46519212  0.00214092  0.62985281  1
  Ti  Ti11  1  0.49094311  0.09891352  0.92778962  1
  Ti  Ti12  1  0.43963419  0.41132211  0.22364868  1
  Ti  Ti13  1  0.44814175  0.50699786  0.59063709  1
  Ti  Ti14  1  0.39033103  0.47563441  0.98156256  1
  Ti  Ti15  1  0.43249247  0.72466419  0.25615214  1
  Ti  Ti16  1  0.42547664  0.77090952  0.58334456  1
  Ti  Ti17  1  0.36912591  0.69513089  0.82233783  1
  Ti  Ti18  1  0.80620240  0.07152702  0.23018818  1
  Ti  Ti19  1  0.70202071  0.15160491  0.62963082  1
  Ti  Ti20  1  0.73220747  0.12477923  0.87588728  1
  Ti  Ti21  1  0.79415915  0.38294624  0.29902326  1
  Ti  Ti22  1  0.78368914  0.36082469  0.60605309  1
  Ti  Ti23  1  0.67956962  0.43589777  0.90563160  1
  Ti  Ti24  1  0.78654847  0.75221208  0.31836884  1
  Ti  Ti25  1  0.80123716  0.70258152  0.55896000  1
  Ti  Ti26  1  0.69474833  0.78451984  0.85868682  1
  Ti  Ti27  1  0.07986111  0.25958472  0.02376984  1
  Ti  Ti28  1  0.06044433  0.19116514  0.35974493  1
  Ti  Ti29  1  0.10181878  0.23664172  0.70174052  1
  Ti  Ti30  1  0.03789033  0.60164289  0.14816793  1
  Ti  Ti31  1  0.02890407  0.62260481  0.46612314  1
  Ti  Ti32  1  0.12699001  0.59149211  0.79553919  1
  Ti  Ti33  1  0.03186338  0.90410803  0.05650929  1
  Ti  Ti34  1  0.05549171  0.96555198  0.38550003  1
  Ti  Ti35  1  0.15846668  0.91687966  0.78268047  1
  Ti  Ti36  1  0.40352102  0.31387782  0.06528776  1
  Ti  Ti37  1  0.40934024  0.26705342  0.42393084  1
  Ti  Ti38  1  0.41854412  0.24525200  0.80805735  1
  Ti  Ti39  1  0.38624458  0.57356158  0.13633788  1
  Ti  Ti40  1  0.41513861  0.48062548  0.39973291  1
  Ti  Ti41  1  0.36444828  0.49937225  0.77977845  1
  Ti  Ti42  1  0.37816546  0.96377494  0.04104963  1
  Ti  Ti43  1  0.36914173  0.93664148  0.46589721  1
  Ti  Ti44  1  0.46080707  0.85510595  0.76720412  1
  Ti  Ti45  1  0.74066465  0.33023264  0.08220424  1
  Ti  Ti46  1  0.72898000  0.19807501  0.36099772  1
  Ti  Ti47  1  0.71349158  0.28149189  0.77468795  1
  Ti  Ti48  1  0.75158854  0.57770206  0.03462937  1
  Ti  Ti49  1  0.73536534  0.51925029  0.46257816  1
  Ti  Ti50  1  0.76247828  0.58287459  0.80537725  1
  Ti  Ti51  1  0.82981895  0.88534236  -0.01327298  1
  Ti  Ti52  1  0.69217210  0.96012234  0.36965874  1
  Ti  Ti53  1  0.81072103  0.92717881  0.79471603  1
  Ti  Ti54  1  0.19855861  0.03377767  0.09550752  1
  Ti  Ti55  1  0.21607867  0.08231113  0.45640490  1
  Ti  Ti56  1  0.24072849  0.11193157  0.78216704  1
  Ti  Ti57  1  0.21081678  0.47413372  0.10052163  1
  Ti  Ti58  1  0.20679540  0.49459910  0.40749810  1
  Ti  Ti59  1  0.18676860  0.40629579  0.80930393  1
  Ti  Ti60  1  0.31984197  0.75362214  0.07902005  1
  Ti  Ti61  1  0.29618534  0.77845419  0.38874374  1
  Ti  Ti62  1  0.21691590  0.68899314  0.66763787  1
  Ti  Ti63  1  0.64524185  0.11755262  0.05794236  1
  Ti  Ti64  1  0.56327380  0.14998031  0.48344954  1
  Ti  Ti65  1  0.59242187  0.04118738  0.77731415  1
  Ti  Ti66  1  0.60248445  0.46365099  0.13995017  1
  Ti  Ti67  1  0.64530613  0.33854299  0.45157487  1
  Ti  Ti68  1  0.54080320  0.37485419  0.71023017  1
  Ti  Ti69  1  0.54505568  0.72056008  0.07500399  1
  Ti  Ti70  1  0.55718735  0.80251786  0.42922658  1
  Ti  Ti71  1  0.56241649  0.69931209  0.74098016  1
  Ti  Ti72  1  0.86732432  0.16692923  0.04386144  1
  Ti  Ti73  1  0.92489674  0.08617014  0.47770857  1
  Ti  Ti74  1  0.90024456  0.06940441  0.70239446  1
  Ti  Ti75  1  0.89679946  0.45273923  0.10574230  1
  Ti  Ti76  1  0.90660525  0.47737905  0.50077528  1
  Ti  Ti77  1  0.86787836  0.41265782  0.79357091  1
  Ti  Ti78  1  0.91194343  0.74596829  0.10001253  1
  Ti  Ti79  1  0.92860999  0.80015570  0.43379041  1
  Ti  Ti80  1  0.87049983  0.75216095  0.75150160  1
  Ti  Ti81  1  0.25788336  0.20249932  0.30842468  1
  Ti  Ti82  1  0.24822491  0.27777744  0.54205318  1
  Ti  Ti83  1  0.30945850  0.18869627  0.95996917  1
  Ti  Ti84  1  0.21670897  0.62959647  0.23075842  1
  Ti  Ti85  1  0.30430016  0.61964873  0.51867267  1
  Ti  Ti86  1  0.25222718  0.59526950  0.93682571  1
  Ti  Ti87  1  0.31673251  0.91621780  0.21048059  1
  Ti  Ti88  1  0.27676854  0.96880625  0.62929336  1
  Ti  Ti89  1  0.28496193  0.85640955  0.90505680  1
  Ti  Ti90  1  0.52131229  0.22713448  0.25311666  1
  Ti  Ti91  1  0.43342880  0.21088639  0.62662342  1
  Ti  Ti92  1  0.58868937  0.26178052  0.93276198  1
  Ti  Ti93  1  0.61114160  0.52507647  0.32442434  1
  Ti  Ti94  1  0.59560874  0.63488193  0.55110008  1
  Ti  Ti95  1  0.52858794  0.55674539  0.86507985  1
  Ti  Ti96  1  0.50116284  0.98342629  0.26192780  1
  Ti  Ti97  1  0.63382186  0.94948694  0.56360685  1
  Ti  Ti98  1  0.56958521  0.90297112  0.98765106  1
  Ti  Ti99  1  0.96821643  0.28967999  0.20458009  1
  Ti  Ti100  1  0.97181457  0.28795678  0.52209574  1
  Ti  Ti101  1  0.90294978  0.22218287  0.84067331  1
  Ti  Ti102  1  0.93856935  0.50492422  0.29878503  1
  Ti  Ti103  1  0.95730595  0.58472036  0.65940878  1
  Ti  Ti104  1  0.94682731  0.60863931  0.86095541  1
  Ti  Ti105  1  0.94164970  0.88487379  0.24700201  1
  Ti  Ti106  1  0.85071590  0.90915041  0.57997593  1
  Ti  Ti107  1  0.98621230  0.91296264  0.86686523  1
  Co  Co108  1  0.65934313  0.63580166  -0.08147429  1
  Co  Co109  1  0.42723471  0.81523874  -0.02927299  1
  Co  Co110  1  0.67068011  0.18310396  0.19495197  1
  Co  Co111  1  0.43485087  0.86588900  0.33671578  1
  Co  Co112  1  0.46178640  0.85090691  0.14205778  1
  Co  Co113  1  0.48071032  0.35202956  0.53527507  1
  Co  Co114  1  0.18457970  0.65913074  0.40647802  1
  Co  Co115  1  0.05534160  0.41189429  0.11734271  1
  Co  Co116  1  0.81063894  0.70096916  0.93826357  1
  Co  Co117  1  0.74328802  0.82678987  0.66725392  1
  Co  Co118  1  0.07783041  0.76739222  0.14050979  1
  Co  Co119  1  0.68345627  0.67199863  0.41550015  1
  Co  Co120  1  0.64626879  0.34379325  0.25248674  1
  Co  Co121  1  0.17727050  0.25295069  0.86672029  1
  Co  Co122  1  0.55612327  0.57146682  0.02779177  1
  Co  Co123  1  -0.07149070  0.59852196  0.01752203  1
  Co  Co124  1  0.20192900  0.73687361  0.82841531  1
  Co  Co125  1  0.23723488  0.13745943  0.61940019  1
  Co  Co126  1  0.75065177  0.48695411  0.19163089  1
  Co  Co127  1  0.13746300  0.31172505  0.43430758  1
  Co  Co128  1  0.29935300  0.82051778  0.72144794  1
  Co  Co129  1  0.27243431  0.80814990  0.55580866  1
  Co  Co130  1  0.08324965  0.57279107  0.31206286  1
  Co  Co131  1  0.52355905  0.36709395  0.35841501  1
  Co  Co132  1  0.77669771  0.29067634  0.92824480  1
  Co  Co133  1  0.82156448  0.34860952  0.44682988  1
  Co  Co134  1  0.33180469  -0.03368923  0.77766442  1
  Co  Co135  1  0.86898043  0.63319137  0.43467283  1
  Co  Co136  1  0.77813783  0.03265000  0.03892951  1
  Co  Co137  1  -0.02563156  0.35271905  0.36178167  1
  Co  Co138  1  0.02922361  0.31049758  0.84765245  1
  Co  Co139  1  0.26821187  0.26516464  0.72973287  1
  Co  Co140  1  0.52605839  0.59607689  0.20359360  1
  Co  Co141  1  0.20390891  0.86964452  0.06340745  1
  Co  Co142  1  0.13168907  -0.03964570  0.93812979  1
  Co  Co143  1  0.89036787  0.21186564  0.35800732  1
  Co  Co144  1  0.25909495  0.52341270  0.66341343  1
  Co  Co145  1  0.13074415  0.84393367  0.64757078  1
  Co  Co146  1  -0.04740150  0.06378937  0.30138762  1
  Co  Co147  1  0.78053826  0.57983456  0.31639863  1
  Co  Co148  1  0.57273273  0.19818418  0.75846388  1
  Co  Co149  1  0.28916328  0.35600338  0.36541303  1
  Co  Co150  1  0.44819686  -0.04339086  0.88314559  1
  Co  Co151  1  0.17701162  -0.06600212  0.50745827  1
  Co  Co152  1  0.53752005  0.73501891  0.90059380  1
  Co  Co153  1  0.29004286  0.47944898  0.25245943  1
  Co  Co154  1  0.61355707  0.27930916  0.60254569  1
  Co  Co155  1  0.12401317  0.22644475  0.20667799  1
  Co  Co156  1  -0.07336476  0.31963723  0.00776278  1
  Co  Co157  1  0.41574380  0.63722684  0.67787635  1
  Co  Co158  1  0.84149263  0.46253347  -0.05424768  1
  Co  Co159  1  0.71114779  0.67278873  0.69088634  1
  Co  Co160  1  0.43230658  0.08869316  0.76384422  1
  Co  Co161  1  0.57053799  0.54324946  0.70571814  1
  Ni  Ni162  1  0.62257078  0.88824467  0.74835136  1
  Ni  Ni163  1  0.46035956  0.65205974  0.45091734  1
  Ni  Ni164  1  -0.02402904  0.75289815  0.60494275  1
  Ni  Ni165  1  -0.02786211  0.34075660  0.68052577  1
  Ni  Ni166  1  0.20344174  0.90947534  0.34490879  1
  Ni  Ni167  1  0.11261581  -0.07739021  0.20436765  1
  Ni  Ni168  1  0.95414615  0.76510865  -0.07195616  1
  Ni  Ni169  1  0.28985689  0.32665905  0.19699332  1
  Ni  Ni170  1  0.73246257  0.83056189  0.47576325  1
  Ni  Ni171  1  0.01140283  0.91490776  0.53974261  1
  Ni  Ni172  1  0.10097090  0.57409972  -0.00581094  1
  Ni  Ni173  1  0.85954435  0.60767498  0.17356962  1
  Ni  Ni174  1  0.00070369  0.06217545  -0.00110369  1
  Ni  Ni175  1  0.73922600  0.00277493  0.67489645  1
  Ni  Ni176  1  0.81619639  0.23925620  0.20469903  1
  Ni  Ni177  1  0.09109368  0.17119069  0.53379131  1
  Ni  Ni178  1  0.15751612  0.06519536  0.27959911  1
  Ni  Ni179  1  0.54455193  0.40799687  0.00316777  1
  Ni  Ni180  1  0.90400739  -0.01132762  0.12318565  1
  Ni  Ni181  1  0.85489329  0.22722814  0.67980083  1
  Ni  Ni182  1  0.81222794  0.20354763  0.51583346  1
  Ni  Ni183  1  0.57899522  0.28734498  0.10524004  1
  Ni  Ni184  1  0.69777364  -0.03359915  -0.08754796  1
  Ni  Ni185  1  0.41330678  0.64646796  -0.02184151  1
  Ni  Ni186  1  0.22148063  0.79165796  0.21523878  1
  Ni  Ni187  1  0.69894608  0.44344434  0.72686494  1
  Ni  Ni188  1  0.47407882  0.16598808  0.07156150  1
  Ni  Ni189  1  0.15264022  0.12281580  -0.03542293  1
  Ni  Ni190  1  0.85892641  0.94723239  0.38881283  1
  Ni  Ni191  1  -0.02115749  -0.09748894  0.70232931  1
  Ni  Ni192  1  0.33786101  0.61427514  0.34326266  1
  Ni  Ni193  1  0.31838106  0.02632909  0.32964616  1
  Ni  Ni194  1  0.48333386  0.38856261  0.86263129  1
  Ni  Ni195  1  0.32232400  0.35370016  0.88305942  1
  Ni  Ni196  1  0.36780002  0.37142017  0.66760272  1
  Ni  Ni197  1  0.88039738  0.05165325  0.89051289  1
  Ni  Ni198  1  0.23049181  0.34235395  0.01314083  1
  Ni  Ni199  1  -0.05710372  0.68442544  0.29482042  1
  Ni  Ni200  1  0.79687420  0.53692236  0.62729900  1
  Ni  Ni201  1  0.52343133  0.01109617  0.10403668  1
  Ni  Ni202  1  0.76335826  0.04462326  0.50006850  1
  Ni  Ni203  1  0.30935795  0.42878419  0.52528117  1
  Ni  Ni204  1  0.04163185  0.74792614  0.77287087  1
  Ni  Ni205  1  0.61964487  0.45485625  0.57418707  1
  Ni  Ni206  1  0.28551928  0.02844018  -0.07821779  1
  Ni  Ni207  1  0.37943588  0.10336028  0.51195746  1
  Ni  Ni208  1  0.24535473  0.19997104  0.10910612  1
  Ni  Ni209  1  0.60636197  0.09454091  0.32584293  1
  Ni  Ni210  1  0.02622337  0.46543302  0.76318719  1
  Ni  Ni211  1  0.52510348  -0.01031554  0.44013869  1
  Ni  Ni212  1  0.44086521  0.11725939  0.35462350  1
  Ni  Ni213  1  0.05969510  0.45120110  0.46240921  1
  Ni  Ni214  1  0.59236055  0.79844265  0.60552011  1
