# generated using pymatgen
data_Ti108Co54Ni53
_symmetry_space_group_name_H-M   'P 1'
_cell_length_a   14.63639342
_cell_length_b   14.61975661
_cell_length_c   14.64323989
_cell_angle_alpha   90.21164762
_cell_angle_beta   89.93633880
_cell_angle_gamma   89.96913348
_symmetry_Int_Tables_number   1
_chemical_formula_structural   Ti108Co54Ni53
_chemical_formula_sum   'Ti108 Co54 Ni53'
_cell_volume   3133.34415934
_cell_formula_units_Z   1
loop_
 _symmetry_equiv_pos_site_id
 _symmetry_equiv_pos_as_xyz
  1  'x, y, z'
loop_
 _atom_site_type_symbol
 _atom_site_label
 _atom_site_symmetry_multiplicity
 _atom_site_fract_x
 _atom_site_fract_y
 _atom_site_fract_z
 _atom_site_occupancy
  Ti  Ti0  1  0.05859630  0.03481828  0.26691417  1
  Ti  Ti1  1  0.08226974  0.13552849  0.55305290  1
  Ti  Ti2  1  0.03840148  0.06105905  0.85567871  1
  Ti  Ti3  1  0.00052452  0.46013962  0.29550037  1
  Ti  Ti4  1  0.16556488  0.40959905  0.58261192  1
  Ti  Ti5  1  0.02519038  0.39860996  0.90532375  1
  Ti  Ti6  1  0.08987929  0.70293354  0.19197664  1
  Ti  Ti7  1  0.09054723  0.79077540  0.58607046  1
  Ti  Ti8  1  0.07645447  0.80608707  0.94352036  1
  Ti  Ti9  1  0.46362285  0.06691859  0.37671388  1
  Ti  Ti10  1  0.49115005  -0.00466280  0.62258816  1
  Ti  Ti11  1  0.46250818  0.11174292  0.90083308  1
  Ti  Ti12  1  0.34963034  0.42419907  0.23456642  1
  Ti  Ti13  1  0.37530962  0.42710391  0.54801264  1
  Ti  Ti14  1  0.46094190  0.48176373  0.84463088  1
  Ti  Ti15  1  0.43484387  0.75476494  0.26425983  1
  Ti  Ti16  1  0.49118955  0.76424798  0.59014385  1
  Ti  Ti17  1  0.34329107  0.73357215  0.89774628  1
  Ti  Ti18  1  0.75417027  0.01727223  0.27705109  1
  Ti  Ti19  1  0.77796673  0.05125820  0.61738855  1
  Ti  Ti20  1  0.74474001  0.16710094  0.88881906  1
  Ti  Ti21  1  0.66172237  0.43104072  0.22114347  1
  Ti  Ti22  1  0.69311373  0.38105638  0.54598457  1
  Ti  Ti23  1  0.83006585  0.47314836  0.90307536  1
  Ti  Ti24  1  0.73596033  0.70610811  0.32695733  1
  Ti  Ti25  1  0.72709760  0.71800990  0.60588006  1
  Ti  Ti26  1  0.73850679  0.79159646  0.92943684  1
  Ti  Ti27  1  0.10893762  0.29356098  0.10747392  1
  Ti  Ti28  1  0.02677952  0.32413611  0.45064194  1
  Ti  Ti29  1  0.15201936  0.22766477  0.80951183  1
  Ti  Ti30  1  0.04672874  0.47570595  0.10832405  1
  Ti  Ti31  1  0.06569529  0.56547580  0.48411821  1
  Ti  Ti32  1  0.13020409  0.52392085  0.78251714  1
  Ti  Ti33  1  0.09170886  0.89230743  0.12922006  1
  Ti  Ti34  1  0.11099628  0.95718662  0.42084214  1
  Ti  Ti35  1  0.05529685  0.88435659  0.76948521  1
  Ti  Ti36  1  0.45904984  0.28701051  0.04634359  1
  Ti  Ti37  1  0.37638673  0.24425245  0.46605193  1
  Ti  Ti38  1  0.38139821  0.27887795  0.80826392  1
  Ti  Ti39  1  0.45606268  0.61691864  0.00292354  1
  Ti  Ti40  1  0.37988530  0.58663773  0.34658129  1
  Ti  Ti41  1  0.42837590  0.60160233  0.67690581  1
  Ti  Ti42  1  0.39099611  0.88310422  -0.00321573  1
  Ti  Ti43  1  0.36583558  0.77811395  0.43941111  1
  Ti  Ti44  1  0.38871865  0.93553298  0.79393517  1
  Ti  Ti45  1  0.79326068  0.27040969  0.04764565  1
  Ti  Ti46  1  0.74026072  0.19555897  0.34177133  1
  Ti  Ti47  1  0.73947777  0.24033108  0.69115575  1
  Ti  Ti48  1  0.78366689  0.61222612  0.05997162  1
  Ti  Ti49  1  0.69144510  0.52774592  0.38913687  1
  Ti  Ti50  1  0.78316388  0.57734425  0.73397417  1
  Ti  Ti51  1  0.69618180  0.96655491  0.06815458  1
  Ti  Ti52  1  0.77734463  0.93891883  0.45117685  1
  Ti  Ti53  1  0.69527321  0.90692266  0.76023307  1
  Ti  Ti54  1  0.17711620  0.09011173  0.09468483  1
  Ti  Ti55  1  0.25132777  0.09192470  0.39603902  1
  Ti  Ti56  1  0.17859443  0.04514307  0.72129366  1
  Ti  Ti57  1  0.25052663  0.42616719  0.06309059  1
  Ti  Ti58  1  0.25353181  0.51828475  0.45617528  1
  Ti  Ti59  1  0.30021590  0.42899589  0.72946551  1
  Ti  Ti60  1  0.23092449  0.76638752  0.06237346  1
  Ti  Ti61  1  0.12436000  0.73618004  0.37697901  1
  Ti  Ti62  1  0.19260685  0.74392090  0.75911833  1
  Ti  Ti63  1  0.59142596  0.12226249  0.07840752  1
  Ti  Ti64  1  0.63727716  0.07883188  0.47496078  1
  Ti  Ti65  1  0.57845583  0.20374049  0.78246344  1
  Ti  Ti66  1  0.59944804  0.46294109  0.03188983  1
  Ti  Ti67  1  0.49878707  0.37707471  0.36594828  1
  Ti  Ti68  1  0.62073078  0.48393614  0.75076395  1
  Ti  Ti69  1  0.52757595  0.79234518  0.10102956  1
  Ti  Ti70  1  0.58858774  0.80384982  0.41729535  1
  Ti  Ti71  1  0.58916779  0.72701581  0.76706774  1
  Ti  Ti72  1  0.98128331  0.10462741  0.07735803  1
  Ti  Ti73  1  0.95146184  0.14111175  0.40325039  1
  Ti  Ti74  1  0.87746950  -0.00828240  0.76998198  1
  Ti  Ti75  1  0.84833680  0.44229088  0.12817403  1
  Ti  Ti76  1  0.87087169  0.46418788  0.45498332  1
  Ti  Ti77  1  0.94796006  0.35247009  0.73057506  1
  Ti  Ti78  1  0.93524112  0.73561815  0.05751561  1
  Ti  Ti79  1  0.94007326  0.79649873  0.40318196  1
  Ti  Ti80  1  0.92613961  0.75294525  0.72470668  1
  Ti  Ti81  1  0.22642597  0.26699850  0.29905655  1
  Ti  Ti82  1  0.26361475  0.23766124  0.64765561  1
  Ti  Ti83  1  0.27661225  0.21883417  0.97242175  1
  Ti  Ti84  1  0.17495623  0.55456941  0.29452643  1
  Ti  Ti85  1  0.22468386  0.60277231  0.62883622  1
  Ti  Ti86  1  0.28855563  0.51994718  0.90261754  1
  Ti  Ti87  1  0.24807114  0.84577033  0.26176240  1
  Ti  Ti88  1  0.30968535  0.94942291  0.54744990  1
  Ti  Ti89  1  0.22018541  0.91616651  0.88691253  1
  Ti  Ti90  1  0.58614913  0.23495560  0.24053069  1
  Ti  Ti91  1  0.53905471  0.20354643  0.57980575  1
  Ti  Ti92  1  0.67793830  0.35536562  0.89068668  1
  Ti  Ti93  1  0.51158785  0.57436226  0.17677282  1
  Ti  Ti94  1  0.53810294  0.54156360  0.51514500  1
  Ti  Ti95  1  0.65580197  0.60008220  0.90087009  1
  Ti  Ti96  1  0.63658631  0.86225579  0.23489705  1
  Ti  Ti97  1  0.64170633  0.89571863  0.58017164  1
  Ti  Ti98  1  0.56505335  0.90875553  0.90920591  1
  Ti  Ti99  1  0.90969148  0.27686964  0.23748239  1
  Ti  Ti100  1  0.88485846  0.26721974  0.56723371  1
  Ti  Ti101  1  0.94142843  0.20710120  0.90784597  1
  Ti  Ti102  1  0.85182572  0.57950450  0.27270515  1
  Ti  Ti103  1  0.91246419  0.59897179  0.59233462  1
  Ti  Ti104  1  1.00448773  0.63795164  0.86885700  1
  Ti  Ti105  1  0.91828485  0.90137974  0.20648399  1
  Ti  Ti106  1  0.94924709  0.95158578  0.54695898  1
  Ti  Ti107  1  0.92263262  0.94931950  0.96721232  1
  Co  Co108  1  0.59870481  0.21953029  -0.04734863  1
  Co  Co109  1  0.23563696  0.88654475  0.69872113  1
  Co  Co110  1  0.81705224  0.09788746  0.46079216  1
  Co  Co111  1  0.54784625  0.02417089  0.78357809  1
  Co  Co112  1  0.84549147  0.29511687  0.41513704  1
  Co  Co113  1  0.01781426  0.01478019  0.68135239  1
  Co  Co114  1  0.33137868  0.03891840  0.68090415  1
  Co  Co115  1  0.38114036  0.62091907  0.52192869  1
  Co  Co116  1  0.62695730  0.05683971  -0.07249397  1
  Co  Co117  1  0.28188984  0.61297391  0.02855805  1
  Co  Co118  1  0.31961243  0.38009898  0.38948705  1
  Co  Co119  1  0.50448973  0.66973932  0.42166378  1
  Co  Co120  1  0.44340524  0.14037889  0.71781696  1
  Co  Co121  1  0.06967246  0.28594754  0.61496128  1
  Co  Co122  1  0.18175576  0.56297656  0.13425102  1
  Co  Co123  1  0.74964420  0.29668113  0.20568018  1
  Co  Co124  1  0.85651226  0.63383684  0.44132381  1
  Co  Co125  1  -0.05155563  0.74735774  0.25244131  1
  Co  Co126  1  0.34977301  0.56758286  0.16659070  1
  Co  Co127  1  0.47672062  0.90907346  0.29384963  1
  Co  Co128  1  0.17725021  0.41186584  0.21301281  1
  Co  Co129  1  0.39563222  0.76449388  0.74479073  1
  Co  Co130  1  0.48162933  0.44864681  0.67141643  1
  Co  Co131  1  0.69927313  0.58925342  0.19951258  1
  Co  Co132  1  0.23989847  0.10774965  0.55510541  1
  Co  Co133  1  -0.07769303  0.11571196  0.59995619  1
  Co  Co134  1  0.13425684  -0.04085100  0.58166701  1
  Co  Co135  1  0.71717772  0.06757133  0.77522254  1
  Co  Co136  1  -0.07788224  -0.02889976  0.36857521  1
  Co  Co137  1  0.30236069  0.61461613  0.77619691  1
  Co  Co138  1  0.35383885  0.36812110  -0.06339453  1
  Co  Co139  1  0.58309293  0.69030253  0.27554152  1
  Co  Co140  1  0.10975352  0.17039022  0.37784016  1
  Co  Co141  1  -0.00205740  0.43812113  0.57512660  1
  Co  Co142  1  0.84238322  0.01335898  0.12850355  1
  Co  Co143  1  0.61794963  0.63469462  0.05879263  1
  Co  Co144  1  0.75978380  -0.03806005  0.91051205  1
  Co  Co145  1  -0.04297250  0.60136137  0.15951998  1
  Co  Co146  1  0.12741602  0.51368072  -0.03759251  1
  Co  Co147  1  0.84282031  0.31725546  0.86074639  1
  Co  Co148  1  0.71953359  0.22097856  0.51596792  1
  Co  Co149  1  0.52960660  0.86881622  0.72518506  1
  Co  Co150  1  0.73059383  0.13683217  0.16525392  1
  Co  Co151  1  0.59830034  0.33525808  0.68465503  1
  Co  Co152  1  0.67979849  0.34897631  0.37375747  1
  Co  Co153  1  0.13794774  0.36937274  0.74068881  1
  Co  Co154  1  0.62385765  0.08441758  0.64913216  1
  Co  Co155  1  0.75485647  0.39138522  0.74330809  1
  Co  Co156  1  0.07044132  0.86566664  0.28956362  1
  Co  Co157  1  0.47060406  0.64283283  0.84035279  1
  Co  Co158  1  0.39837512  0.09911292  0.53343605  1
  Co  Co159  1  0.37901565  0.72410667  0.10438520  1
  Co  Co160  1  0.52983275  0.36082349  0.52581750  1
  Co  Co161  1  0.81263674  0.73065881  0.17869806  1
  Ni  Ni162  1  0.83603166  0.64585900  0.89167209  1
  Ni  Ni163  1  0.53896425  0.53080522  0.32989850  1
  Ni  Ni164  1  0.57014859  0.22726543  0.41294192  1
  Ni  Ni165  1  0.02325123  0.17405290  0.72367567  1
  Ni  Ni166  1  0.30415911  0.12961244  0.81634010  1
  Ni  Ni167  1  0.00565491  0.62099627  0.33893444  1
  Ni  Ni168  1  0.59198033  0.05772031  0.24064678  1
  Ni  Ni169  1  0.32896196  -0.05733309  0.37203687  1
  Ni  Ni170  1  0.50624974  0.38383748  0.17895081  1
  Ni  Ni171  1  0.60880956  0.60923811  0.64633724  1
  Ni  Ni172  1  -0.04990592  0.33614613  0.04096724  1
  Ni  Ni173  1  0.26330924  0.68379809  0.23421202  1
  Ni  Ni174  1  0.77290118  0.78173618  0.47061436  1
  Ni  Ni175  1  0.09399402  0.21446695  -0.03092132  1
  Ni  Ni176  1  0.42192138  0.46021470  0.05266808  1
  Ni  Ni177  1  -0.08783968  0.80053183  0.88449273  1
  Ni  Ni178  1  0.05840063  0.64678223  0.68312287  1
  Ni  Ni179  1  0.63268364  0.30595022  0.08840820  1
  Ni  Ni180  1  0.56461982  0.74337152  -0.05705030  1
  Ni  Ni181  1  0.42304985  0.29808728  0.64814712  1
  Ni  Ni182  1  0.73788792  0.55599142  0.54862214  1
  Ni  Ni183  1  0.33248150  0.03294204  -0.04316178  1
  Ni  Ni184  1  0.94142197  0.55366341  -0.00147584  1
  Ni  Ni185  1  0.06777805  0.31386460  0.28257996  1
  Ni  Ni186  1  0.60985933  -0.03946832  0.37310634  1
  Ni  Ni187  1  0.68941348  0.77798864  0.08563893  1
  Ni  Ni188  1  0.21092344  0.83960076  0.48328601  1
  Ni  Ni189  1  0.19127025  0.36372559  0.90681733  1
  Ni  Ni190  1  0.18555510  0.08515307  0.91795216  1
  Ni  Ni191  1  0.86678361  0.16470874  0.75699703  1
  Ni  Ni192  1  0.89786947  0.10674342  0.24802371  1
  Ni  Ni193  1  -0.05266386  0.52570874  0.75071823  1
  Ni  Ni194  1  0.15301884  0.40740023  0.38586149  1
  Ni  Ni195  1  0.08011914  0.65177609  0.03343567  1
  Ni  Ni196  1  0.82933630  0.09954027  0.00195946  1
  Ni  Ni197  1  0.81037799  0.87586974  0.63197808  1
  Ni  Ni198  1  0.76939036  0.74417922  0.77445312  1
  Ni  Ni199  1  0.24501654  0.94007271  0.07048410  1
  Ni  Ni200  1  0.22942278  0.67848692  0.48184621  1
  Ni  Ni201  1  0.18106961  0.66594611  0.90433493  1
  Ni  Ni202  1  0.20762878  0.26915326  0.48156586  1
  Ni  Ni203  1  0.81996564  0.41399755  0.29970763  1
  Ni  Ni204  1  0.47170677  -0.07951701  0.46766134  1
  Ni  Ni205  1  -0.08576313  0.76736608  0.55987720  1
  Ni  Ni206  1  0.37818220  0.88479722  0.16195092  1
  Ni  Ni207  1  0.21923376  0.00246880  0.24280431  1
  Ni  Ni208  1  0.05338585  0.17806561  0.20843336  1
  Ni  Ni209  1  0.09148739  -0.02538140  -0.01027170  1
  Ni  Ni210  1  0.31126176  0.76028649  0.60430916  1
  Ni  Ni211  1  0.82765004  0.85976410  0.06289760  1
  Ni  Ni212  1  0.51332214  0.34070065  0.89860939  1
  Ni  Ni213  1  0.80115751  0.85350216  0.30860601  1
  Ni  Ni214  1  0.84291694  0.44371635  0.62353385  1
