# generated using pymatgen
data_Ti108Co54Ni53
_symmetry_space_group_name_H-M   'P 1'
_cell_length_a   14.67760921
_cell_length_b   14.71336344
_cell_length_c   14.65904888
_cell_angle_alpha   89.90648203
_cell_angle_beta   90.14492680
_cell_angle_gamma   90.11225947
_symmetry_Int_Tables_number   1
_chemical_formula_structural   Ti108Co54Ni53
_chemical_formula_sum   'Ti108 Co54 Ni53'
_cell_volume   3165.70380610
_cell_formula_units_Z   1
loop_
 _symmetry_equiv_pos_site_id
 _symmetry_equiv_pos_as_xyz
  1  'x, y, z'
loop_
 _atom_site_type_symbol
 _atom_site_label
 _atom_site_symmetry_multiplicity
 _atom_site_fract_x
 _atom_site_fract_y
 _atom_site_fract_z
 _atom_site_occupancy
  Ti  Ti0  1  0.05502345  0.02027175  0.27614518  1
  Ti  Ti1  1  0.02808483  0.04442527  0.52759312  1
  Ti  Ti2  1  0.05898656  0.16814549  0.88600374  1
  Ti  Ti3  1  0.04613649  0.41999135  0.18756495  1
  Ti  Ti4  1  0.14361504  0.43659939  0.63254387  1
  Ti  Ti5  1  0.13213442  0.47229577  0.97623017  1
  Ti  Ti6  1  0.07472907  0.73455789  0.21061768  1
  Ti  Ti7  1  0.08405600  0.69896301  0.59254436  1
  Ti  Ti8  1  0.15002059  0.68204635  0.98663930  1
  Ti  Ti9  1  0.40151768  0.10069337  0.17871034  1
  Ti  Ti10  1  0.37236595  0.02435682  0.53979754  1
  Ti  Ti11  1  0.40848974  0.10351751  0.94702215  1
  Ti  Ti12  1  0.37058497  0.34710648  0.24027700  1
  Ti  Ti13  1  0.47048682  0.45334941  0.53592770  1
  Ti  Ti14  1  0.45572215  0.42950352  0.93822732  1
  Ti  Ti15  1  0.38802576  0.80827642  0.27955787  1
  Ti  Ti16  1  0.36721271  0.80297645  0.62509870  1
  Ti  Ti17  1  0.35759643  0.72381288  0.88738302  1
  Ti  Ti18  1  0.74734937  0.07157906  0.25134769  1
  Ti  Ti19  1  0.82064685  0.06813013  0.59008129  1
  Ti  Ti20  1  0.75211550  0.09783066  0.93406381  1
  Ti  Ti21  1  0.75799446  0.42121681  0.29584224  1
  Ti  Ti22  1  0.79012952  0.41291244  0.51821556  1
  Ti  Ti23  1  0.68408488  0.40455024  0.97367328  1
  Ti  Ti24  1  0.71980161  0.74279543  0.25441314  1
  Ti  Ti25  1  0.72811325  0.71681938  0.51971117  1
  Ti  Ti26  1  0.76962661  0.77770685  0.94774125  1
  Ti  Ti27  1  0.06721682  0.28528974  0.03892158  1
  Ti  Ti28  1  0.05110905  0.30394118  0.41378745  1
  Ti  Ti29  1  -0.05449566  0.30857013  0.78853974  1
  Ti  Ti30  1  0.03123852  0.57937945  0.11434865  1
  Ti  Ti31  1  0.13397735  0.58711859  0.43246620  1
  Ti  Ti32  1  0.08600587  0.62756432  0.81609155  1
  Ti  Ti33  1  0.07378600  0.98798755  0.07085261  1
  Ti  Ti34  1  0.09985511  0.77703535  0.41142025  1
  Ti  Ti35  1  0.07276717  0.94827671  0.80827307  1
  Ti  Ti36  1  0.41705409  0.27864417  0.04861356  1
  Ti  Ti37  1  0.39935687  0.19168652  0.35177032  1
  Ti  Ti38  1  0.43814577  0.36303429  0.73119378  1
  Ti  Ti39  1  0.48611538  0.64710769  0.01425718  1
  Ti  Ti40  1  0.47134664  0.59670488  0.36994744  1
  Ti  Ti41  1  0.46681746  0.55852837  0.70548332  1
  Ti  Ti42  1  0.41058790  0.84843320  0.06612993  1
  Ti  Ti43  1  0.45044061  1.00909143  0.35343551  1
  Ti  Ti44  1  0.48339725  0.85298376  0.78972400  1
  Ti  Ti45  1  0.78315359  0.31034369  0.14519305  1
  Ti  Ti46  1  0.75847249  0.19500684  0.46783014  1
  Ti  Ti47  1  0.72535617  0.28690879  0.79967177  1
  Ti  Ti48  1  0.70129403  0.61966396  0.05111080  1
  Ti  Ti49  1  0.79183995  0.57263826  0.41564613  1
  Ti  Ti50  1  0.77091283  0.63579414  0.80709701  1
  Ti  Ti51  1  0.84012951  0.95493614  0.06242243  1
  Ti  Ti52  1  0.73825034  0.90235583  0.43619659  1
  Ti  Ti53  1  0.66986955  0.97065241  0.73158338  1
  Ti  Ti54  1  0.27297705  0.00758651  0.05054191  1
  Ti  Ti55  1  0.23009050  0.10575824  0.40920005  1
  Ti  Ti56  1  0.27081072  0.01929140  0.81985922  1
  Ti  Ti57  1  0.23064198  0.33592169  0.09631074  1
  Ti  Ti58  1  0.20102155  0.42081990  0.31166212  1
  Ti  Ti59  1  0.25481967  0.45461117  0.81542171  1
  Ti  Ti60  1  0.22461264  0.81928265  0.12451761  1
  Ti  Ti61  1  0.31026787  0.74017866  0.43156347  1
  Ti  Ti62  1  0.20377920  0.76850566  0.74427803  1
  Ti  Ti63  1  0.63951742  0.04252152  0.09372606  1
  Ti  Ti64  1  0.54610557  0.11547526  0.50280733  1
  Ti  Ti65  1  0.53080191  0.12293888  0.69860527  1
  Ti  Ti66  1  0.58247053  0.35851210  0.14343023  1
  Ti  Ti67  1  0.54066826  0.40033931  0.34902023  1
  Ti  Ti68  1  0.62398922  0.43416627  0.66833662  1
  Ti  Ti69  1  0.60251212  0.79088994  0.09938615  1
  Ti  Ti70  1  0.52453694  0.77788469  0.45547140  1
  Ti  Ti71  1  0.65151344  0.76629232  0.72081024  1
  Ti  Ti72  1  0.94627688  0.13142730  0.05288506  1
  Ti  Ti73  1  0.87012423  0.04672148  0.38854733  1
  Ti  Ti74  1  0.87003334  0.01004393  0.77395972  1
  Ti  Ti75  1  0.88717889  0.46070425  0.03987117  1
  Ti  Ti76  1  0.97251764  0.47460678  0.36648128  1
  Ti  Ti77  1  0.81131535  0.44348962  0.70124931  1
  Ti  Ti78  1  0.94158494  0.72127351  0.03896897  1
  Ti  Ti79  1  0.91674178  0.77983220  0.50649997  1
  Ti  Ti80  1  0.96068363  0.77613358  0.72244849  1
  Ti  Ti81  1  0.21302867  0.20617063  0.24512521  1
  Ti  Ti82  1  0.31597413  0.34228404  0.54806466  1
  Ti  Ti83  1  0.24732139  0.21010260  0.92831916  1
  Ti  Ti84  1  0.33553986  0.58440532  0.20940997  1
  Ti  Ti85  1  0.28768203  0.54355340  0.53733071  1
  Ti  Ti86  1  0.30156010  0.55099431  1.00281381  1
  Ti  Ti87  1  0.18676363  0.88453071  0.28508782  1
  Ti  Ti88  1  0.22113390  0.88800778  0.52490174  1
  Ti  Ti89  1  0.21626177  0.86384327  0.93374055  1
  Ti  Ti90  1  0.60291367  0.20890774  0.34523265  1
  Ti  Ti91  1  0.60422559  0.29554635  0.54769360  1
  Ti  Ti92  1  0.56588326  0.20589752  0.89727226  1
  Ti  Ti93  1  0.59363242  0.59525449  0.21366337  1
  Ti  Ti94  1  0.58005532  0.61231795  0.54798388  1
  Ti  Ti95  1  0.58468246  0.55539718  0.88087124  1
  Ti  Ti96  1  0.59723912  0.91640287  0.28643123  1
  Ti  Ti97  1  0.50742718  0.92980688  0.62110560  1
  Ti  Ti98  1  0.56621389  0.99515738  0.90467671  1
  Ti  Ti99  1  0.92828936  0.19195821  0.27115558  1
  Ti  Ti100  1  0.90887940  0.27469890  0.59265768  1
  Ti  Ti101  1  0.85150394  0.27338660  0.96915382  1
  Ti  Ti102  1  0.91898979  0.63049551  0.27103222  1
  Ti  Ti103  1  0.90200906  0.58484531  0.58558516  1
  Ti  Ti104  1  0.93262456  0.52239286  0.81106521  1
  Ti  Ti105  1  0.85872180  0.88662033  0.26555928  1
  Ti  Ti106  1  0.79934620  0.87246372  0.63380322  1
  Ti  Ti107  1  0.93437384  0.86782498  0.90959167  1
  Co  Co108  1  0.91320884  0.03805558  0.18660601  1
  Co  Co109  1  0.32159614  0.86423595  0.79828428  1
  Co  Co110  1  -0.00007126  0.56557947  -0.04531218  1
  Co  Co111  1  0.13180530  -0.02401781  0.42474396  1
  Co  Co112  1  0.64696576  0.85718504  0.85571154  1
  Co  Co113  1  0.69628320  0.46893902  0.81163063  1
  Co  Co114  1  0.07392781  0.14431002  0.37334751  1
  Co  Co115  1  0.82575959  0.58477766  -0.04665683  1
  Co  Co116  1  0.94105722  0.29293444  0.12921122  1
  Co  Co117  1  0.21345439  0.04942579  0.20442772  1
  Co  Co118  1  0.73743581  0.55761937  0.58966881  1
  Co  Co119  1  0.77831667  -0.05430688  0.89231883  1
  Co  Co120  1  0.04891510  0.87660273  0.53609989  1
  Co  Co121  1  0.23852071  0.70116265  0.56977925  1
  Co  Co122  1  -0.11901110  0.48302585  0.19729075  1
  Co  Co123  1  0.81452571  0.73040196  0.37938397  1
  Co  Co124  1  0.84587896  0.62050642  0.11838003  1
  Co  Co125  1  0.19391388  0.58656449  0.68648036  1
  Co  Co126  1  0.05996442  0.14506386  0.17896883  1
  Co  Co127  1  0.67801405  0.15477023  0.62849275  1
  Co  Co128  1  0.55710690  -0.05576888  0.45483871  1
  Co  Co129  1  0.77058723  0.23945626  0.30238761  1
  Co  Co130  1  0.67459718  0.04862647  0.39593377  1
  Co  Co131  1  0.50778339  0.72727647  0.65072937  1
  Co  Co132  1  0.32603727  0.46851788  0.67083169  1
  Co  Co133  1  0.80991718  0.81950950  0.78887248  1
  Co  Co134  1  0.87296637  0.32068450  0.42118811  1
  Co  Co135  1  0.40441686  0.88059132  0.46506504  1
  Co  Co136  1  0.67119886  -0.09355749  0.00962306  1
  Co  Co137  1  0.22205805  0.71773455  0.29379603  1
  Co  Co138  1  -0.08730209  0.35157793  0.27653633  1
  Co  Co139  1  0.40508371  0.56471543  0.85859215  1
  Co  Co140  1  0.64119027  0.63906745  0.37926637  1
  Co  Co141  1  0.07518919  0.28475886  0.25137736  1
  Co  Co142  1  0.97446108  0.63765042  0.44290223  1
  Co  Co143  1  0.50961312  0.68782903  0.81383073  1
  Co  Co144  1  0.30413988  -0.05060358  0.66688802  1
  Co  Co145  1  0.89549946  -0.05608732  0.51923520  1
  Co  Co146  1  0.68970354  0.33493092  0.40855629  1
  Co  Co147  1  0.24284972  0.61175193  0.85175613  1
  Co  Co148  1  0.75396196  0.58566108  0.25075950  1
  Co  Co149  1  0.29831069  0.37625957  -0.04355815  1
  Co  Co150  1  0.81655644  0.70176073  0.66050359  1
  Co  Co151  1  -0.03420308  -0.07032302  0.66765529  1
  Co  Co152  1  0.39185728  -0.06071664  -0.07176455  1
  Co  Co153  1  0.62841925  0.70747675  -0.07529538  1
  Co  Co154  1  0.74849809  0.29854333  0.63497174  1
  Co  Co155  1  0.16864274  0.41722737  0.46757468  1
  Co  Co156  1  0.51537005  0.81716305  -0.05167901  1
  Co  Co157  1  0.14709108  0.03699308  0.92600662  1
  Co  Co158  1  -0.03345892  0.41344163  0.66011133  1
  Co  Co159  1  0.14207701  0.32853759  0.89346471  1
  Co  Co160  1  0.14215767  0.14110228  0.04797870  1
  Co  Co161  1  -0.03710410  0.77378607  0.32472252  1
  Ni  Ni162  1  0.32741781  0.70362386  0.06329050  1
  Ni  Ni163  1  0.45748110  0.25195289  0.61399377  1
  Ni  Ni164  1  0.40696165  0.27475562  0.87533020  1
  Ni  Ni165  1  0.55212076  0.74912447  0.29069488  1
  Ni  Ni166  1  0.47501391  0.48512443  0.22254753  1
  Ni  Ni167  1  0.47494605  0.00085979  0.06687719  1
  Ni  Ni168  1  0.33916499  0.65517445  0.70821057  1
  Ni  Ni169  1  0.20648847  0.48549819  0.14742635  1
  Ni  Ni170  1  0.82799125  0.41101996  0.87967747  1
  Ni  Ni171  1  -0.01061954  0.39153503  -0.07440235  1
  Ni  Ni172  1  0.68058269  0.23836319  0.01489074  1
  Ni  Ni173  1  0.49687884  0.23742019  0.21577978  1
  Ni  Ni174  1  0.36573201  0.43186749  0.39588111  1
  Ni  Ni175  1  0.07304679  0.78676293  0.87188676  1
  Ni  Ni176  1  0.13519065  0.89101465  0.66800129  1
  Ni  Ni177  1  0.26568220  0.28771816  0.39735637  1
  Ni  Ni178  1  0.45887334  0.29969266  0.45560472  1
  Ni  Ni179  1  -0.03606158  0.02630888  -0.07510864  1
  Ni  Ni180  1  0.66422409  0.00536419  0.56359097  1
  Ni  Ni181  1  0.07253015  0.82537458  0.04049920  1
  Ni  Ni182  1  0.63460609  0.47984916  0.46676741  1
  Ni  Ni183  1  0.71164956  0.90905832  0.17273662  1
  Ni  Ni184  1  -0.10657054  0.15940042  0.86159937  1
  Ni  Ni185  1  0.07953069  0.44124220  0.79027082  1
  Ni  Ni186  1  0.11571819  0.56632729  0.26788484  1
  Ni  Ni187  1  0.82582520  0.17752592  0.71676018  1
  Ni  Ni188  1  -0.06270843  0.17597961  0.46181644  1
  Ni  Ni189  1  0.45805393  0.70205763  0.17009892  1
  Ni  Ni190  1  0.43272323  0.01085648  0.77343852  1
  Ni  Ni191  1  0.78881731  0.13754620  0.09916356  1
  Ni  Ni192  1  0.19663189  0.64458431  0.14113098  1
  Ni  Ni193  1  0.53382383  0.16315725  0.06400949  1
  Ni  Ni194  1  0.79843907  0.78805796  0.11113669  1
  Ni  Ni195  1  0.35157100  0.18486017  0.51000818  1
  Ni  Ni196  1  0.63498423  0.84190912  0.56821644  1
  Ni  Ni197  1  0.03480851  0.56073023  0.67430448  1
  Ni  Ni198  1  -0.01721845  -0.08257218  0.38724441  1
  Ni  Ni199  1  0.56070813  0.08128567  0.24654615  1
  Ni  Ni200  1  0.00721062  0.88098863  0.18825446  1
  Ni  Ni201  1  0.34550587  0.94415316  0.20008329  1
  Ni  Ni202  1  0.38138790  0.44066430  0.09769442  1
  Ni  Ni203  1  0.29627808  -0.04159207  0.37319209  1
  Ni  Ni204  1  0.67532542  0.11962833  0.79253513  1
  Ni  Ni205  1  0.29082867  0.17566727  0.09266520  1
  Ni  Ni206  1  0.65658370  0.20203392  0.17861051  1
  Ni  Ni207  1  0.29794871  0.58310039  0.36878812  1
  Ni  Ni208  1  0.63271395  0.60050772  0.71365400  1
  Ni  Ni209  1  0.02298582  0.48167141  0.52019934  1
  Ni  Ni210  1  0.71745158  0.47149660  0.13173275  1
  Ni  Ni211  1  0.57053218  0.36141199  0.83220930  1
  Ni  Ni212  1  0.56151816  0.50110108  0.06047042  1
  Ni  Ni213  1  0.92296271  0.69556004  0.87189106  1
  Ni  Ni214  1  0.41480520  0.64553560  0.53350718  1
