# generated using pymatgen
data_Ti108Co54Ni53
_symmetry_space_group_name_H-M   'P 1'
_cell_length_a   14.68819945
_cell_length_b   14.64559291
_cell_length_c   14.61870164
_cell_angle_alpha   89.97911865
_cell_angle_beta   89.98214856
_cell_angle_gamma   90.18354427
_symmetry_Int_Tables_number   1
_chemical_formula_structural   Ti108Co54Ni53
_chemical_formula_sum   'Ti108 Co54 Ni53'
_cell_volume   3144.72044170
_cell_formula_units_Z   1
loop_
 _symmetry_equiv_pos_site_id
 _symmetry_equiv_pos_as_xyz
  1  'x, y, z'
loop_
 _atom_site_type_symbol
 _atom_site_label
 _atom_site_symmetry_multiplicity
 _atom_site_fract_x
 _atom_site_fract_y
 _atom_site_fract_z
 _atom_site_occupancy
  Ti  Ti0  1  0.09088523  0.12766009  0.25296596  1
  Ti  Ti1  1  0.05346196  0.05403428  0.52546293  1
  Ti  Ti2  1  0.04934321  0.11455923  0.95664220  1
  Ti  Ti3  1  0.07444025  0.33331697  0.26280488  1
  Ti  Ti4  1  0.15441762  0.46020466  0.56617499  1
  Ti  Ti5  1  0.03425842  0.37979037  0.91318199  1
  Ti  Ti6  1  0.17567596  0.76616948  0.31544708  1
  Ti  Ti7  1  0.09300334  0.79166072  0.58618795  1
  Ti  Ti8  1  0.16549362  0.79841004  0.88575891  1
  Ti  Ti9  1  0.38979733  0.01988677  0.22333694  1
  Ti  Ti10  1  0.41309198  0.09492725  0.59769395  1
  Ti  Ti11  1  0.38644834  0.09250260  0.93086887  1
  Ti  Ti12  1  0.45709730  0.35433166  0.22413017  1
  Ti  Ti13  1  0.41625183  0.41048928  0.52757443  1
  Ti  Ti14  1  0.44876551  0.39835701  0.86278685  1
  Ti  Ti15  1  0.37320396  0.69327372  0.27166027  1
  Ti  Ti16  1  0.48378847  0.78230163  0.55639035  1
  Ti  Ti17  1  0.36797518  0.75554918  0.93980218  1
  Ti  Ti18  1  0.72097605  0.08951412  0.18510837  1
  Ti  Ti19  1  0.75468221  0.08312727  0.52260902  1
  Ti  Ti20  1  0.74133644  0.06396754  0.89331711  1
  Ti  Ti21  1  0.66648797  0.40387626  0.22536744  1
  Ti  Ti22  1  0.80579351  0.46243800  0.58982850  1
  Ti  Ti23  1  0.73146946  0.49395776  0.96419711  1
  Ti  Ti24  1  0.72669185  0.77808859  0.23055878  1
  Ti  Ti25  1  0.65349930  0.81211311  0.63854460  1
  Ti  Ti26  1  0.82216543  0.76982516  0.89395648  1
  Ti  Ti27  1  0.13165960  0.30997588  0.07836404  1
  Ti  Ti28  1  0.10406658  0.20383022  0.42659509  1
  Ti  Ti29  1  0.11400416  0.18490390  0.77075770  1
  Ti  Ti30  1  0.10998022  0.53496761  0.03827903  1
  Ti  Ti31  1  0.09636227  0.56073329  0.39833118  1
  Ti  Ti32  1  0.05386837  0.56074905  0.71487476  1
  Ti  Ti33  1  0.10275221  0.90201430  0.03132635  1
  Ti  Ti34  1  0.04664936  0.89429854  0.40622811  1
  Ti  Ti35  1  0.01997166  0.89985741  0.74448960  1
  Ti  Ti36  1  0.37941365  0.20217523  0.11444459  1
  Ti  Ti37  1  0.48079684  0.21239588  0.41725655  1
  Ti  Ti38  1  0.39980419  0.27739093  0.69692689  1
  Ti  Ti39  1  0.42761474  0.64235410  0.09502506  1
  Ti  Ti40  1  0.41191628  0.62296000  0.45664761  1
  Ti  Ti41  1  0.39154551  0.60727081  0.78886283  1
  Ti  Ti42  1  0.43933327  0.84791554  0.11333425  1
  Ti  Ti43  1  0.39989929  0.94073388  0.48098473  1
  Ti  Ti44  1  0.44482843  0.95217183  0.78804265  1
  Ti  Ti45  1  0.72583391  0.21611717  0.02714619  1
  Ti  Ti46  1  0.77266728  0.26614185  0.36491932  1
  Ti  Ti47  1  0.75566611  0.24751952  0.80947707  1
  Ti  Ti48  1  0.81509939  0.62750884  0.06425505  1
  Ti  Ti49  1  0.74112724  0.60995433  0.46403772  1
  Ti  Ti50  1  0.74202082  0.65309781  0.74614157  1
  Ti  Ti51  1  0.78487003  0.92486281  0.11005401  1
  Ti  Ti52  1  0.75060937  0.86526776  0.44099353  1
  Ti  Ti53  1  0.66094468  0.92652808  0.78424189  1
  Ti  Ti54  1  0.20714122  0.12983136  0.07869991  1
  Ti  Ti55  1  0.29607977  0.11442863  0.41863547  1
  Ti  Ti56  1  0.26393236  0.05096591  0.73799501  1
  Ti  Ti57  1  0.35852302  0.44489667  0.04390228  1
  Ti  Ti58  1  0.23549481  0.33194758  0.44624825  1
  Ti  Ti59  1  0.21811348  0.36955378  0.78113204  1
  Ti  Ti60  1  0.21693463  0.72962434  0.11006859  1
  Ti  Ti61  1  0.23612372  0.68568799  0.49314319  1
  Ti  Ti62  1  0.22705068  0.71410493  0.69599146  1
  Ti  Ti63  1  0.54608787  0.15300457  0.02049101  1
  Ti  Ti64  1  0.64497616  0.10408889  0.36389806  1
  Ti  Ti65  1  0.58741735  0.08983723  0.73440276  1
  Ti  Ti66  1  0.55308077  0.47049957  0.06497056  1
  Ti  Ti67  1  0.57421345  0.39958989  0.41422186  1
  Ti  Ti68  1  0.55431728  0.40269930  0.68440836  1
  Ti  Ti69  1  0.60981123  0.68140548  0.07824664  1
  Ti  Ti70  1  0.53080829  0.75922943  0.37402356  1
  Ti  Ti71  1  0.49749856  0.76927897  0.75698498  1
  Ti  Ti72  1  0.88635012  0.11211536  0.06556924  1
  Ti  Ti73  1  0.91060375  0.15890994  0.46744353  1
  Ti  Ti74  1  0.94550292  0.08588462  0.77406492  1
  Ti  Ti75  1  0.95657477  0.40350144  0.10754722  1
  Ti  Ti76  1  0.97934131  0.32395347  0.53033048  1
  Ti  Ti77  1  0.93524752  0.38290257  0.72177549  1
  Ti  Ti78  1  0.93006372  0.79247056  0.06299170  1
  Ti  Ti79  1  0.91567038  0.78471968  0.47080003  1
  Ti  Ti80  1  0.92920517  0.72663982  0.71302822  1
  Ti  Ti81  1  0.25571831  0.25922130  0.26241874  1
  Ti  Ti82  1  0.21077842  0.19476956  0.60157311  1
  Ti  Ti83  1  0.30081770  0.27761065  0.95252204  1
  Ti  Ti84  1  0.25533560  0.55019338  0.18957130  1
  Ti  Ti85  1  0.31369307  0.55340678  0.60933921  1
  Ti  Ti86  1  0.21668579  0.62678904  0.87381369  1
  Ti  Ti87  1  0.18382287  0.94497194  0.20635621  1
  Ti  Ti88  1  0.22013478  0.97885282  0.55968457  1
  Ti  Ti89  1  0.26475004  0.94584784  0.89919987  1
  Ti  Ti90  1  0.54087056  0.15451906  0.21359514  1
  Ti  Ti91  1  0.66434001  0.21504537  0.62619187  1
  Ti  Ti92  1  0.61468486  0.33623325  0.92739252  1
  Ti  Ti93  1  0.55985698  0.57760715  0.26456761  1
  Ti  Ti94  1  0.50839895  0.58137669  0.62792084  1
  Ti  Ti95  1  0.58323489  0.55304668  0.84408415  1
  Ti  Ti96  1  0.57673617  0.94588243  0.24749983  1
  Ti  Ti97  1  0.58403462  0.93756983  0.45653216  1
  Ti  Ti98  1  0.58022882  0.86423745  0.95990054  1
  Ti  Ti99  1  0.89730368  0.18319641  0.24725053  1
  Ti  Ti100  1  0.86232080  0.21458952  0.65458731  1
  Ti  Ti101  1  0.84852216  0.34998033  0.93579923  1
  Ti  Ti102  1  0.99326526  0.62606449  0.15369699  1
  Ti  Ti103  1  0.92152083  0.62586535  0.55687566  1
  Ti  Ti104  1  0.99908394  0.63421116  0.89976926  1
  Ti  Ti105  1  0.99484099  0.90986518  0.22888830  1
  Ti  Ti106  1  0.82658254  0.91700195  0.62134326  1
  Ti  Ti107  1  0.92346874  0.95387784  0.92066257  1
  Co  Co108  1  0.39398086  0.18015723  0.28435786  1
  Co  Co109  1  0.07348689  0.77956956  0.17212074  1
  Co  Co110  1  0.72550925  0.37429177  0.07489146  1
  Co  Co111  1  0.08164194  0.73039448  0.76335431  1
  Co  Co112  1  0.72890262  0.24624057  0.19920287  1
  Co  Co113  1  0.02387724  0.18596432  0.62057444  1
  Co  Co114  1  0.01593130  0.21553023  0.13423266  1
  Co  Co115  1  0.27395447  0.86165021  0.04153350  1
  Co  Co116  1  0.79321774  0.73996723  0.57652137  1
  Co  Co117  1  0.07692320  0.39216458  0.41757206  1
  Co  Co118  1  0.37812825  0.70304398  0.63714077  1
  Co  Co119  1  -0.02670287  0.25391562  -0.01173041  1
  Co  Co120  1  0.25235001  0.09362302  0.25839793  1
  Co  Co121  1  0.56754757  0.59092028  0.44640526  1
  Co  Co122  1  0.07002025  0.05032196  0.11492733  1
  Co  Co123  1  -0.08687514  0.05679389  0.61897598  1
  Co  Co124  1  -0.03659651  0.27731344  0.36562521  1
  Co  Co125  1  0.56419527  0.26539290  0.75943623  1
  Co  Co126  1  0.25369605  0.60912952  0.34763983  1
  Co  Co127  1  0.86941638  0.16049904  -0.09424707  1
  Co  Co128  1  0.76194619  0.08642823  0.70418278  1
  Co  Co129  1  0.87856541  0.55483841  0.70888658  1
  Co  Co130  1  0.22615947  0.52658894  0.73318440  1
  Co  Co131  1  0.75067830  0.90589000  -0.06121761  1
  Co  Co132  1  0.50110236  0.00618008  0.08708747  1
  Co  Co133  1  -0.05577192  0.48951680  0.84179040  1
  Co  Co134  1  0.60696960  0.27177230  0.30416720  1
  Co  Co135  1  0.58502000  0.29082916  0.12404829  1
  Co  Co136  1  0.27080593  0.36317261  0.61960117  1
  Co  Co137  1  0.85936845  0.27482659  0.10913302  1
  Co  Co138  1  0.66843901  0.67748008  0.33547826  1
  Co  Co139  1  0.10407866  0.03710503  0.67965741  1
  Co  Co140  1  0.14136852  0.25600094  0.91795638  1
  Co  Co141  1  0.35503102  0.24292120  0.52922396  1
  Co  Co142  1  -0.03100154  0.24936888  0.81080823  1
  Co  Co143  1  0.46062266  0.31912249  0.02679702  1
  Co  Co144  1  0.87126220  0.01565623  0.22060008  1
  Co  Co145  1  0.09660054  0.47555692  0.18658423  1
  Co  Co146  1  0.30889638  0.47758048  0.86874178  1
  Co  Co147  1  0.38965558  0.44912780  0.71305266  1
  Co  Co148  1  0.11910830  0.62758946  0.24569824  1
  Co  Co149  1  0.42097249  0.91981471  -0.04106653  1
  Co  Co150  1  0.47644175  0.04290963  0.36982502  1
  Co  Co151  1  0.92207317  0.51806363  0.00346014  1
  Co  Co152  1  0.64576369  0.77144414  0.82183469  1
  Co  Co153  1  0.42266344  0.51370753  0.19513429  1
  Co  Co154  1  0.62056649  0.17358400  0.87908157  1
  Co  Co155  1  0.28449046  0.49300160  0.45336226  1
  Co  Co156  1  0.79120861  0.80929643  0.73824235  1
  Co  Co157  1  0.68097390  0.54504634  0.13183210  1
  Co  Co158  1  0.38044159  0.33339705  0.37038925  1
  Co  Co159  1  0.61838634  0.86583601  0.11728733  1
  Co  Co160  1  0.45750919  0.23542368  -0.11573112  1
  Co  Co161  1  0.55065229  0.02045473  0.90034137  1
  Ni  Ni162  1  0.09797684  0.32821864  0.66361702  1
  Ni  Ni163  1  0.68982766  0.65895100  -0.06718985  1
  Ni  Ni164  1  0.25203202  0.38560836  0.15703938  1
  Ni  Ni165  1  0.56419381  0.09283052  0.52605429  1
  Ni  Ni166  1  0.20228607  0.85228303  0.46094224  1
  Ni  Ni167  1  0.81139429  0.07837786  0.35812430  1
  Ni  Ni168  1  0.65393371  0.63983541  0.60226734  1
  Ni  Ni169  1  0.28926503  0.21082754  0.80001786  1
  Ni  Ni170  1  0.42895506  0.12386018  0.76747277  1
  Ni  Ni171  1  0.11708710  0.50253016  0.85413560  1
  Ni  Ni172  1  0.10437822  -0.00426151  0.84870522  1
  Ni  Ni173  1  0.21583289  0.10876474  -0.09252601  1
  Ni  Ni174  1  0.07761646  0.71737497  0.01896796  1
  Ni  Ni175  1  0.33061436  0.80845275  0.78670951  1
  Ni  Ni176  1  0.83118511  -0.04350586  0.78797026  1
  Ni  Ni177  1  0.44007539  0.49010847  0.36167301  1
  Ni  Ni178  1  0.88871738  -0.02849739  0.46433544  1
  Ni  Ni179  1  0.74402947  0.77763922  0.04733792  1
  Ni  Ni180  1  -0.05174572  -0.03890107  0.07836959  1
  Ni  Ni181  1  0.86453357  0.84996972  0.31405716  1
  Ni  Ni182  1  0.63961754  0.47778549  0.54503584  1
  Ni  Ni183  1  0.53767155  0.75229614  0.21313256  1
  Ni  Ni184  1  0.51177182  0.93571377  0.63000792  1
  Ni  Ni185  1  0.28361958  0.59798059  0.01842496  1
  Ni  Ni186  1  0.20202029  0.41589936  -0.03081434  1
  Ni  Ni187  1  0.32930325  0.01289273  0.06942578  1
  Ni  Ni188  1  0.20234746  0.44191962  0.31453539  1
  Ni  Ni189  1  0.67391518  0.51194041  0.70253848  1
  Ni  Ni190  1  -0.01369819  0.05303914  0.35543593  1
  Ni  Ni191  1  0.66106918  0.01740934  0.03965556  1
  Ni  Ni192  1  0.43772780  0.87830580  0.30657256  1
  Ni  Ni193  1  0.15196007  0.02522059  0.38016964  1
  Ni  Ni194  1  0.09566812  0.62637073  0.56857855  1
  Ni  Ni195  1  0.34582537  -0.08656841  0.65374932  1
  Ni  Ni196  1  0.83450158  0.59917667  0.87794023  1
  Ni  Ni197  1  -0.00245387  0.80714963  0.89594510  1
  Ni  Ni198  1  0.19242665  0.89145018  0.72606976  1
  Ni  Ni199  1  0.79260937  0.30089364  0.53074523  1
  Ni  Ni200  1  -0.00729469  0.48294918  0.56055762  1
  Ni  Ni201  1  0.64444059  0.74796303  0.48549538  1
  Ni  Ni202  1  0.29084415  -0.05490923  0.35190193  1
  Ni  Ni203  1  -0.01072372  0.91034351  0.57730579  1
  Ni  Ni204  1  0.52443777  0.69804651  0.91309328  1
  Ni  Ni205  1  0.43568577  0.56396860  -0.05513826  1
  Ni  Ni206  1  0.00184627  0.74368007  0.31610597  1
  Ni  Ni207  1  0.51665487  0.27281464  0.57169463  1
  Ni  Ni208  1  0.72539162  0.35491412  0.68238596  1
  Ni  Ni209  1  0.73065044  -0.05414942  0.29397687  1
  Ni  Ni210  1  0.30657320  0.84112146  0.21361120  1
  Ni  Ni211  1  0.66537011  -0.01859153  0.61000227  1
  Ni  Ni212  1  0.64477261  0.24041699  0.46563936  1
  Ni  Ni213  1  0.78424111  0.44609582  0.80424462  1
  Ni  Ni214  1  0.35102885  0.78794352  0.41772647  1
