# generated using pymatgen
data_Ti108Co54Ni53
_symmetry_space_group_name_H-M   'P 1'
_cell_length_a   14.69513236
_cell_length_b   14.63545433
_cell_length_c   14.62465729
_cell_angle_alpha   90.42380890
_cell_angle_beta   90.20377294
_cell_angle_gamma   90.23099444
_symmetry_Int_Tables_number   1
_chemical_formula_structural   Ti108Co54Ni53
_chemical_formula_sum   'Ti108 Co54 Ni53'
_cell_volume   3145.19231159
_cell_formula_units_Z   1
loop_
 _symmetry_equiv_pos_site_id
 _symmetry_equiv_pos_as_xyz
  1  'x, y, z'
loop_
 _atom_site_type_symbol
 _atom_site_label
 _atom_site_symmetry_multiplicity
 _atom_site_fract_x
 _atom_site_fract_y
 _atom_site_fract_z
 _atom_site_occupancy
  Ti  Ti0  1  0.07305075  0.14578993  0.24532899  1
  Ti  Ti1  1  0.04083059  0.15303846  0.59562329  1
  Ti  Ti2  1  0.01928258  0.06803203  0.92878206  1
  Ti  Ti3  1  0.02814123  0.43696421  0.33354176  1
  Ti  Ti4  1  0.05115724  0.37439727  0.55327389  1
  Ti  Ti5  1  0.06753673  0.38959493  0.85003203  1
  Ti  Ti6  1  0.11347592  0.67302926  0.20590555  1
  Ti  Ti7  1  0.18610468  0.72937546  0.58839446  1
  Ti  Ti8  1  0.11472176  0.69750745  0.87675385  1
  Ti  Ti9  1  0.45071449  0.07700243  0.31057268  1
  Ti  Ti10  1  0.44046349  0.19924613  0.54981207  1
  Ti  Ti11  1  0.40443936  0.17158401  0.93608515  1
  Ti  Ti12  1  0.45821508  0.40788052  0.23622663  1
  Ti  Ti13  1  0.39026979  0.38200974  0.61258804  1
  Ti  Ti14  1  0.37316465  0.36086450  0.88802660  1
  Ti  Ti15  1  0.37535477  0.80638510  0.29069346  1
  Ti  Ti16  1  0.43512571  0.70557523  0.61776060  1
  Ti  Ti17  1  0.36428466  0.72754216  0.90408444  1
  Ti  Ti18  1  0.75369236  0.08323546  0.32266606  1
  Ti  Ti19  1  0.72379258  0.14495256  0.56647845  1
  Ti  Ti20  1  0.70060391  -0.02143189  0.96263097  1
  Ti  Ti21  1  0.82836962  0.42446983  0.26922434  1
  Ti  Ti22  1  0.71819476  0.46995815  0.57751549  1
  Ti  Ti23  1  0.75238503  0.34684356  0.87457925  1
  Ti  Ti24  1  0.79310297  0.80825413  0.23261991  1
  Ti  Ti25  1  0.76472607  0.71957402  0.52483875  1
  Ti  Ti26  1  0.79143141  0.76012332  0.92989360  1
  Ti  Ti27  1  0.12813637  0.26383560  0.11071224  1
  Ti  Ti28  1  0.14626854  0.28729048  0.39851142  1
  Ti  Ti29  1  0.16127387  0.22601281  0.73027185  1
  Ti  Ti30  1  0.09502532  0.57112389  0.02814807  1
  Ti  Ti31  1  0.08371631  0.63412631  0.40413974  1
  Ti  Ti32  1  0.02961373  0.53569495  0.71154257  1
  Ti  Ti33  1  0.14254433  0.94923523  0.07648332  1
  Ti  Ti34  1  0.08723802  0.94683928  0.47409765  1
  Ti  Ti35  1  0.07763353  0.94868045  0.77790328  1
  Ti  Ti36  1  0.38944273  0.28337648  0.09188421  1
  Ti  Ti37  1  0.44973207  0.28050109  0.37625932  1
  Ti  Ti38  1  0.42433402  0.18297490  0.74041168  1
  Ti  Ti39  1  0.36662090  0.69388089  0.12895600  1
  Ti  Ti40  1  0.38910111  0.62659161  0.38720288  1
  Ti  Ti41  1  0.45167007  0.55374178  0.74763001  1
  Ti  Ti42  1  0.32789719  0.92302519  0.11385682  1
  Ti  Ti43  1  0.35985262  0.92957222  0.43865876  1
  Ti  Ti44  1  0.46059651  0.98764151  0.69980976  1
  Ti  Ti45  1  0.77607636  0.21073172  0.03274255  1
  Ti  Ti46  1  0.81792241  0.23352038  0.40662376  1
  Ti  Ti47  1  0.74685991  0.18841157  0.75119321  1
  Ti  Ti48  1  0.75227675  0.54300954  0.12940836  1
  Ti  Ti49  1  0.73770234  0.56094846  0.37397257  1
  Ti  Ti50  1  0.81572753  0.59112992  0.69331984  1
  Ti  Ti51  1  0.68796944  0.96232090  0.15584290  1
  Ti  Ti52  1  0.70992100  0.88754981  0.40885573  1
  Ti  Ti53  1  0.72986287  0.88410732  0.78505130  1
  Ti  Ti54  1  0.26221788  0.11653701  0.03730228  1
  Ti  Ti55  1  0.22432990  0.08587072  0.36666985  1
  Ti  Ti56  1  0.28285874  0.04199116  0.77885092  1
  Ti  Ti57  1  0.25244692  0.42419824  0.13111525  1
  Ti  Ti58  1  0.31676273  0.43715607  0.44370918  1
  Ti  Ti59  1  0.18363223  0.42464941  0.68582213  1
  Ti  Ti60  1  0.21497704  0.76772906  0.02618567  1
  Ti  Ti61  1  0.21307275  0.78293606  0.40149495  1
  Ti  Ti62  1  0.21139592  0.81457996  0.77926087  1
  Ti  Ti63  1  0.56637963  0.15266457  0.03710699  1
  Ti  Ti64  1  0.58597241  0.07307665  0.44919033  1
  Ti  Ti65  1  0.62954586  0.04284523  0.76123533  1
  Ti  Ti66  1  0.60437865  0.32156232  0.14354493  1
  Ti  Ti67  1  0.64078448  0.38053545  0.38474656  1
  Ti  Ti68  1  0.63893300  0.46262609  0.76705620  1
  Ti  Ti69  1  0.63451484  0.77002030  0.08895229  1
  Ti  Ti70  1  0.54555196  0.77020629  0.38711464  1
  Ti  Ti71  1  0.57358735  0.82091448  0.70718094  1
  Ti  Ti72  1  0.85571601  0.04128310  0.13124565  1
  Ti  Ti73  1  0.93030798  0.06525253  0.43037958  1
  Ti  Ti74  1  0.91400584  0.07446646  0.74502753  1
  Ti  Ti75  1  0.96026484  0.37580317  0.13280081  1
  Ti  Ti76  1  0.86874566  0.40570040  0.45658975  1
  Ti  Ti77  1  0.88408109  0.43887962  0.78925632  1
  Ti  Ti78  1  0.89503024  0.73313203  0.09194013  1
  Ti  Ti79  1  0.90140983  0.71737764  0.38551709  1
  Ti  Ti80  1  0.89056594  0.81333722  0.70641198  1
  Ti  Ti81  1  0.29196923  0.21861179  0.24850004  1
  Ti  Ti82  1  0.23596869  0.17276548  0.55580602  1
  Ti  Ti83  1  0.13199892  0.22010579  0.93029786  1
  Ti  Ti84  1  0.20683340  0.50995885  0.29965223  1
  Ti  Ti85  1  0.28985424  0.56421995  0.61625704  1
  Ti  Ti86  1  0.22996854  0.54570849  0.83695226  1
  Ti  Ti87  1  0.18090952  0.92454762  0.26956365  1
  Ti  Ti88  1  0.30914598  0.88832856  0.62437042  1
  Ti  Ti89  1  0.30111602  0.91903937  0.92627336  1
  Ti  Ti90  1  0.60219877  0.18710899  0.29220528  1
  Ti  Ti91  1  0.59445884  0.30474951  0.63876873  1
  Ti  Ti92  1  0.57036919  0.25830855  0.84675164  1
  Ti  Ti93  1  0.56343389  0.58244567  0.29423683  1
  Ti  Ti94  1  0.60648127  0.62332055  0.63344319  1
  Ti  Ti95  1  0.65688897  0.66604284  0.82517530  1
  Ti  Ti96  1  0.49791023  0.90253194  0.19401287  1
  Ti  Ti97  1  0.62023092  0.95003040  0.57842288  1
  Ti  Ti98  1  0.49730297  0.90553988  0.88191541  1
  Ti  Ti99  1  0.86177194  0.23273211  0.20621633  1
  Ti  Ti100  1  0.88336262  0.27593158  0.61725690  1
  Ti  Ti101  1  0.93933450  0.27209764  0.94603464  1
  Ti  Ti102  1  0.94968696  0.56614270  0.18053774  1
  Ti  Ti103  1  0.96607646  0.66910592  0.57653474  1
  Ti  Ti104  1  0.86973909  0.55903427  0.96664649  1
  Ti  Ti105  1  0.97361249  0.90676662  0.21067047  1
  Ti  Ti106  1  0.88810139  0.90864875  0.54254144  1
  Ti  Ti107  1  0.89263510  0.92056603  0.90850055  1
  Co  Co108  1  0.74779229  0.86635800  0.60453950  1
  Co  Co109  1  0.54638234  0.06209815  0.15993026  1
  Co  Co110  1  0.88345544  0.10491017  0.58128260  1
  Co  Co111  1  0.75409408  0.54019716  0.85449771  1
  Co  Co112  1  0.09076283  0.12691951  0.44117377  1
  Co  Co113  1  0.90294568  0.45657858  0.62210000  1
  Co  Co114  1  0.61785149  0.77333364  0.54785786  1
  Co  Co115  1  0.21813085  0.45741059  -0.02649595  1
  Co  Co116  1  0.46958402  0.22363628  0.21428951  1
  Co  Co117  1  0.27307096  0.19275001  0.85525325  1
  Co  Co118  1  0.16446044  0.64311684  0.72275290  1
  Co  Co119  1  0.30165662  0.37292608  0.29216269  1
  Co  Co120  1  -0.03604282  0.73084286  0.23796005  1
  Co  Co121  1  0.46996542  0.47751610  0.38000007  1
  Co  Co122  1  0.50752517  0.37314768  0.49939229  1
  Co  Co123  1  0.00788442  0.69277914  0.73189414  1
  Co  Co124  1  0.42921636  0.53544232  0.53946962  1
  Co  Co125  1  0.92153246  0.10036142  0.27423068  1
  Co  Co126  1  0.42538818  0.82676930  0.02555115  1
  Co  Co127  1  0.21867950  0.07223203  0.18770546  1
  Co  Co128  1  0.50333984  0.31413533  -0.01299670  1
  Co  Co129  1  0.76281406  0.36655385  0.13061990  1
  Co  Co130  1  0.83497058  -0.04269485  0.29062959  1
  Co  Co131  1  0.13317398  0.33614778  0.24783774  1
  Co  Co132  1  0.86755464  0.67900253  0.81380550  1
  Co  Co133  1  0.22004810  0.35161105  0.84035888  1
  Co  Co134  1  0.65394086  0.45471130  0.23385168  1
  Co  Co135  1  0.33140211  0.44753467  0.75587869  1
  Co  Co136  1  0.88059523  0.27202202  0.78564251  1
  Co  Co137  1  0.04841450  0.00097624  0.32306180  1
  Co  Co138  1  0.25811452  0.62069525  -0.01930916  1
  Co  Co139  1  0.46376671  0.01819679  0.53633576  1
  Co  Co140  1  0.36489580  0.10612167  0.44322481  1
  Co  Co141  1  0.15350669  0.46685717  0.45900431  1
  Co  Co142  1  0.77556840  0.01579297  0.66822851  1
  Co  Co143  1  -0.02412813  -0.04606705  0.04689409  1
  Co  Co144  1  0.52364642  0.65160114  0.48193471  1
  Co  Co145  1  0.30152905  0.25639846  0.42690913  1
  Co  Co146  1  0.81657468  0.64046209  0.24273983  1
  Co  Co147  1  -0.03121599  0.28946256  0.30847480  1
  Co  Co148  1  0.24155040  0.61719545  0.45763132  1
  Co  Co149  1  0.09832257  0.10229386  0.07025609  1
  Co  Co150  1  0.54425444  0.46827260  0.63234892  1
  Co  Co151  1  0.25842933  0.29757120  -0.00048396  1
  Co  Co152  1  0.76937595  0.01189385  0.48899617  1
  Co  Co153  1  0.09430341  0.48235071  0.16951588  1
  Co  Co154  1  0.31093245  0.28474129  0.71453475  1
  Co  Co155  1  0.78357787  0.03790221  0.83261020  1
  Co  Co156  1  0.23369540  0.58870353  0.13376704  1
  Co  Co157  1  0.65978061  0.30895087  -0.00923002  1
  Co  Co158  1  0.51456031  0.92357144  0.39685651  1
  Co  Co159  1  0.33627794  0.06652240  0.62427767  1
  Co  Co160  1  0.01342953  0.33929864  0.70352949  1
  Co  Co161  1  0.63112196  0.83110487  0.25771850  1
  Ni  Ni162  1  -0.03175546  0.69404376  -0.04807981  1
  Ni  Ni163  1  0.33724408  -0.02201192  0.26942220  1
  Ni  Ni164  1  -0.04205278  0.17687685  0.08122762  1
  Ni  Ni165  1  0.06815426  0.81447715  0.33073675  1
  Ni  Ni166  1  0.00614675  -0.01184745  0.62799102  1
  Ni  Ni167  1  0.12242584  0.57183087  0.57855466  1
  Ni  Ni168  1  0.26559325  0.66931304  0.28228647  1
  Ni  Ni169  1  0.56544329  -0.07762624  0.03923684  1
  Ni  Ni170  1  0.72191528  0.29017029  0.26795534  1
  Ni  Ni171  1  0.04076232  0.78805256  0.49276876  1
  Ni  Ni172  1  0.61181838  -0.00256497  0.29737034  1
  Ni  Ni173  1  0.37013547  0.54494168  0.23451097  1
  Ni  Ni174  1  0.01801700  0.19697655  0.80432998  1
  Ni  Ni175  1  0.93418806  0.88100141  0.38805277  1
  Ni  Ni176  1  0.17990338  0.03933905  0.91269195  1
  Ni  Ni177  1  0.38512438  0.09785690  0.14788604  1
  Ni  Ni178  1  0.23135683  0.00040250  0.51697517  1
  Ni  Ni179  1  0.70962567  0.63533554  -0.00316757  1
  Ni  Ni180  1  -0.00522033  0.51978678  0.49073030  1
  Ni  Ni181  1  0.16456288  0.04632430  0.65996062  1
  Ni  Ni182  1  0.43145498  0.01229399  0.00980344  1
  Ni  Ni183  1  0.84208514  0.40070649  0.00332710  1
  Ni  Ni184  1  0.59833618  0.51641491  0.47693813  1
  Ni  Ni185  1  0.81442857  0.88008634  0.06453707  1
  Ni  Ni186  1  0.56970391  0.13120181  0.63181899  1
  Ni  Ni187  1  0.68003572  0.14764445  0.90526305  1
  Ni  Ni188  1  0.61853098  0.80225212  0.92034846  1
  Ni  Ni189  1  0.23038008  0.79479664  0.18863302  1
  Ni  Ni190  1  0.73513545  0.31326866  0.53099295  1
  Ni  Ni191  1  0.22545421  0.33829765  0.55522791  1
  Ni  Ni192  1  0.13658586  0.88340487  0.62734798  1
  Ni  Ni193  1  0.70107893  0.14072458  0.16343036  1
  Ni  Ni194  1  0.73222640  0.73550789  0.69569449  1
  Ni  Ni195  1  0.90865429  0.55299550  0.35313045  1
  Ni  Ni196  1  0.34828043  0.76176601  0.49062979  1
  Ni  Ni197  1  -0.02533156  0.24803676  0.46689405  1
  Ni  Ni198  1  0.38210869  0.84713118  0.77341584  1
  Ni  Ni199  1  0.75457063  0.35253647  0.69650622  1
  Ni  Ni200  1  0.01415533  0.54732661  0.87929589  1
  Ni  Ni201  1  0.48300220  0.37085797  0.75453814  1
  Ni  Ni202  1  0.49224101  0.71345337  0.79523643  1
  Ni  Ni203  1  0.71468018  0.72280781  0.35645180  1
  Ni  Ni204  1  0.51251239  0.72101376  0.21283917  1
  Ni  Ni205  1  0.07529179  0.39268491  0.01501623  1
  Ni  Ni206  1  0.47429182  0.85641624  0.55250138  1
  Ni  Ni207  1  0.11029825  0.87480548  -0.06997707  1
  Ni  Ni208  1  0.86352569  0.08146555  -0.03119395  1
  Ni  Ni209  1  0.60022436  0.23729261  0.47106270  1
  Ni  Ni210  1  0.51538002  0.07311895  0.87224968  1
  Ni  Ni211  1  0.84061156  0.56937739  0.51120743  1
  Ni  Ni212  1  0.06245740  0.79998827  0.10405733  1
  Ni  Ni213  1  0.32314830  0.69078294  0.73982392  1
  Ni  Ni214  1  -0.01186566  0.81025012  0.83983400  1
