# generated using pymatgen
data_Ti108Co54Ni53
_symmetry_space_group_name_H-M   'P 1'
_cell_length_a   14.57245635
_cell_length_b   14.65596826
_cell_length_c   14.69894399
_cell_angle_alpha   90.09124541
_cell_angle_beta   90.01517643
_cell_angle_gamma   89.77219712
_symmetry_Int_Tables_number   1
_chemical_formula_structural   Ti108Co54Ni53
_chemical_formula_sum   'Ti108 Co54 Ni53'
_cell_volume   3139.27539379
_cell_formula_units_Z   1
loop_
 _symmetry_equiv_pos_site_id
 _symmetry_equiv_pos_as_xyz
  1  'x, y, z'
loop_
 _atom_site_type_symbol
 _atom_site_label
 _atom_site_symmetry_multiplicity
 _atom_site_fract_x
 _atom_site_fract_y
 _atom_site_fract_z
 _atom_site_occupancy
  Ti  Ti0  1  0.10439904  0.08805278  0.15330665  1
  Ti  Ti1  1  0.23448377  0.14401569  0.62249321  1
  Ti  Ti2  1  0.11869382  0.13667993  0.93538915  1
  Ti  Ti3  1  0.10495503  0.51339757  0.31174081  1
  Ti  Ti4  1  0.04963096  0.46175465  0.61752918  1
  Ti  Ti5  1  0.12439844  0.48218436  0.93958932  1
  Ti  Ti6  1  0.11335182  0.73582181  0.25560104  1
  Ti  Ti7  1  0.13218743  0.75719509  0.54860901  1
  Ti  Ti8  1  0.07800640  0.80297494  0.85244083  1
  Ti  Ti9  1  0.45532352  0.09792976  0.21218988  1
  Ti  Ti10  1  0.42470941  0.09828897  0.51018171  1
  Ti  Ti11  1  0.39088119  0.03187013  0.92936108  1
  Ti  Ti12  1  0.43342774  0.42330918  0.29968016  1
  Ti  Ti13  1  0.41540680  0.46817582  0.63087863  1
  Ti  Ti14  1  0.44559298  0.39534860  0.92732695  1
  Ti  Ti15  1  0.44925017  0.74134826  0.21150522  1
  Ti  Ti16  1  0.47213401  0.75182657  0.55747497  1
  Ti  Ti17  1  0.37155710  0.74368564  0.91998909  1
  Ti  Ti18  1  0.73760817  0.10577078  0.23367672  1
  Ti  Ti19  1  0.73768906  0.08291530  0.60092804  1
  Ti  Ti20  1  0.71250395  0.07604851  0.92585453  1
  Ti  Ti21  1  0.72128962  0.39054191  0.24664500  1
  Ti  Ti22  1  0.76385815  0.45807637  0.65105808  1
  Ti  Ti23  1  0.76789625  0.40666677  0.93158407  1
  Ti  Ti24  1  0.66257999  0.76596941  0.20019372  1
  Ti  Ti25  1  0.71243607  0.72274622  0.56289042  1
  Ti  Ti26  1  0.76500384  0.69902143  0.87408079  1
  Ti  Ti27  1  0.13684580  0.27650265  0.05452857  1
  Ti  Ti28  1  0.12347038  0.22271510  0.46510109  1
  Ti  Ti29  1  0.06044178  0.15713966  0.74344801  1
  Ti  Ti30  1  0.07548980  0.57081396  0.10797402  1
  Ti  Ti31  1  -0.00796636  0.63928099  0.42672660  1
  Ti  Ti32  1  0.09605387  0.59929270  0.76931275  1
  Ti  Ti33  1  0.01897841  0.84194330  0.02062732  1
  Ti  Ti34  1  0.08409352  0.87258803  0.39170916  1
  Ti  Ti35  1  0.11979762  0.91956713  0.69109923  1
  Ti  Ti36  1  0.44088886  0.20809969  0.05129353  1
  Ti  Ti37  1  0.46539768  0.24470274  0.38842351  1
  Ti  Ti38  1  0.37543570  0.31116354  0.74743752  1
  Ti  Ti39  1  0.43198287  0.51035458  0.09051250  1
  Ti  Ti40  1  0.39786414  0.60467133  0.43514242  1
  Ti  Ti41  1  0.41782558  0.62646457  0.74804298  1
  Ti  Ti42  1  0.46239843  0.90965704  0.10511649  1
  Ti  Ti43  1  0.39054350  0.90569927  0.41448814  1
  Ti  Ti44  1  0.44082965  0.94162517  0.76198249  1
  Ti  Ti45  1  0.75520296  0.24933192  0.08139718  1
  Ti  Ti46  1  0.70016679  0.28179646  0.41917072  1
  Ti  Ti47  1  0.72938833  0.29141288  0.76638578  1
  Ti  Ti48  1  0.72835968  0.58877105  0.15201354  1
  Ti  Ti49  1  0.70695040  0.54011933  0.42930536  1
  Ti  Ti50  1  0.64362056  0.54426319  0.80575544  1
  Ti  Ti51  1  0.82461632  0.88663252  0.08049208  1
  Ti  Ti52  1  0.73504939  0.90062251  0.44561689  1
  Ti  Ti53  1  0.71920543  0.96779256  0.77046152  1
  Ti  Ti54  1  0.29420369  0.04197353  0.09420119  1
  Ti  Ti55  1  0.22205393  0.04458847  0.42194222  1
  Ti  Ti56  1  0.23195864  0.03179886  0.78185146  1
  Ti  Ti57  1  0.25741477  0.42545397  0.06817020  1
  Ti  Ti58  1  0.18134339  0.41163298  0.46551289  1
  Ti  Ti59  1  0.17845995  0.38405487  0.75872304  1
  Ti  Ti60  1  0.27265067  0.78758439  0.13644983  1
  Ti  Ti61  1  0.19731531  0.66706074  0.40247145  1
  Ti  Ti62  1  0.25710395  0.77993338  0.75800277  1
  Ti  Ti63  1  0.55861740  0.04524843  0.02895209  1
  Ti  Ti64  1  0.57710842  0.01899554  0.42244697  1
  Ti  Ti65  1  0.51279249  0.13283517  0.81093912  1
  Ti  Ti66  1  0.57953073  0.36164820  0.06022203  1
  Ti  Ti67  1  0.52758447  0.44847348  0.47435070  1
  Ti  Ti68  1  0.58465462  0.38093760  0.66904002  1
  Ti  Ti69  1  0.53858134  0.74340796  0.02922843  1
  Ti  Ti70  1  0.64346636  0.74100029  0.38743192  1
  Ti  Ti71  1  0.58803751  0.71167605  0.72218189  1
  Ti  Ti72  1  0.86521148  0.09333517  0.02277757  1
  Ti  Ti73  1  1.01520665  0.05077454  0.46666726  1
  Ti  Ti74  1  0.93122955  0.04479412  0.66650181  1
  Ti  Ti75  1  0.89122028  0.49561250  0.08962437  1
  Ti  Ti76  1  0.90125176  0.35788571  0.34332474  1
  Ti  Ti77  1  0.89280831  0.39410033  0.78056601  1
  Ti  Ti78  1  0.89941904  0.69162350  0.04446516  1
  Ti  Ti79  1  0.91109884  0.81628232  0.48379847  1
  Ti  Ti80  1  0.90879674  0.71388524  0.72139256  1
  Ti  Ti81  1  0.22192880  0.27559000  0.25340921  1
  Ti  Ti82  1  0.32724132  0.29027564  0.53242711  1
  Ti  Ti83  1  0.26694683  0.30488127  0.91703975  1
  Ti  Ti84  1  0.25340572  0.59891930  0.19251912  1
  Ti  Ti85  1  0.24858991  0.56866821  0.57783633  1
  Ti  Ti86  1  0.31267514  0.54515161  0.90795722  1
  Ti  Ti87  1  0.19697540  0.95663025  0.25316664  1
  Ti  Ti88  1  0.31195065  0.89225098  0.59625114  1
  Ti  Ti89  1  0.18481232  0.95469588  0.94429230  1
  Ti  Ti90  1  0.55772924  0.27773573  0.22177090  1
  Ti  Ti91  1  0.57653413  0.19581833  0.64045977  1
  Ti  Ti92  1  0.61745402  0.23859941  0.93350253  1
  Ti  Ti93  1  0.57159389  0.57693957  0.30373769  1
  Ti  Ti94  1  0.59631650  0.56241022  0.61192320  1
  Ti  Ti95  1  0.61622856  0.55347451  0.99722427  1
  Ti  Ti96  1  0.54097465  0.90127778  0.28559103  1
  Ti  Ti97  1  0.61480060  0.88539620  0.61621882  1
  Ti  Ti98  1  0.66791493  0.87359647  0.94868026  1
  Ti  Ti99  1  1.01193166  0.27703373  0.19769407  1
  Ti  Ti100  1  0.89501218  0.32297144  0.56484795  1
  Ti  Ti101  1  0.93702634  0.29302968  0.97770994  1
  Ti  Ti102  1  0.93184119  0.63517483  0.23388353  1
  Ti  Ti103  1  0.87161937  0.58295038  0.55695787  1
  Ti  Ti104  1  0.94340579  0.56356228  0.90144402  1
  Ti  Ti105  1  0.89112372  0.92451368  0.28548476  1
  Ti  Ti106  1  0.82332571  0.88623068  0.63320214  1
  Ti  Ti107  1  0.89652396  0.95055660  0.87739953  1
  Co  Co108  1  0.20295394  0.21753469  0.79140010  1
  Co  Co109  1  0.55981412  0.86122850  0.46167862  1
  Co  Co110  1  0.71145825  0.72783875  0.03885113  1
  Co  Co111  1  0.10554345  0.05840234  0.60430828  1
  Co  Co112  1  0.60092676  0.70652599  0.88762533  1
  Co  Co113  1  0.32248497  0.69534628  0.30332966  1
  Co  Co114  1  0.56074036  0.62946086  0.47304059  1
  Co  Co115  1  0.30358692  0.34688562  0.37142621  1
  Co  Co116  1  0.49022212  0.30245058  0.54279966  1
  Co  Co117  1  0.41521400  0.57561587  0.24057075  1
  Co  Co118  1  0.20544201  0.66597832  0.87182023  1
  Co  Co119  1  0.02144601  0.63424977  0.60329256  1
  Co  Co120  1  0.27420116  0.52658997  0.36257588  1
  Co  Co121  1  -0.01783586  0.45453240  0.22423501  1
  Co  Co122  1  0.77999256  0.57223914  -0.01657455  1
  Co  Co123  1  0.32275490  0.46145265  0.77340198  1
  Co  Co124  1  0.79433195  0.80139326  0.32869122  1
  Co  Co125  1  0.59655382  0.02443619  0.19803756  1
  Co  Co126  1  0.43272713  0.79378950  0.71106746  1
  Co  Co127  1  0.25861738  0.60379685  0.73435238  1
  Co  Co128  1  0.79079800  0.22591451  -0.08671859  1
  Co  Co129  1  0.42167714  0.23440893  -0.09584159  1
  Co  Co130  1  0.03789719  0.44899681  0.80550188  1
  Co  Co131  1  0.58031843  0.46390353  0.18276505  1
  Co  Co132  1  0.05907582  0.66632115  -0.04724023  1
  Co  Co133  1  0.47588987  0.87905438  -0.06292442  1
  Co  Co134  1  0.25745920  0.41355561  0.62119227  1
  Co  Co135  1  0.00564745  0.18656576  0.58448887  1
  Co  Co136  1  0.11075936  0.72991134  0.09965716  1
  Co  Co137  1  0.31613258  0.89085216  0.85924732  1
  Co  Co138  1  0.47109915  -0.05200155  0.57120285  1
  Co  Co139  1  0.54016745  0.29541387  0.79721924  1
  Co  Co140  1  0.63041337  0.88567614  0.10785812  1
  Co  Co141  1  0.72969628  0.25679196  0.59702114  1
  Co  Co142  1  0.61239580  0.40574283  0.88696187  1
  Co  Co143  1  0.61735222  0.17298835  0.11301495  1
  Co  Co144  1  0.57376005  -0.00174695  0.86742774  1
  Co  Co145  1  0.80477622  0.53534610  0.81937005  1
  Co  Co146  1  0.82352942  0.75347588  0.17581591  1
  Co  Co147  1  0.67985706  0.14279688  0.77005653  1
  Co  Co148  1  0.86197796  0.19945208  0.66783803  1
  Co  Co149  1  0.38872128  0.66058428  0.06932981  1
  Co  Co150  1  0.59501391  0.39511485  0.34445132  1
  Co  Co151  1  0.11345312  0.56147961  0.49257038  1
  Co  Co152  1  0.40301770  0.05526867  0.35258352  1
  Co  Co153  1  -0.03414412  0.11258962  0.89891973  1
  Co  Co154  1  0.81698224  0.69286620  0.44467610  1
  Co  Co155  1  0.35934465  0.44848194  0.48046350  1
  Co  Co156  1  0.24062648  0.82904789  0.32778522  1
  Co  Co157  1  0.19937554  0.79070833  -0.02700773  1
  Co  Co158  1  0.67534331  0.39855609  0.52729438  1
  Co  Co159  1  0.27754224  0.14231960  -0.04787987  1
  Co  Co160  1  -0.00248168  0.16868609  0.06834028  1
  Co  Co161  1  0.32330548  -0.10877879  0.02090094  1
  Ni  Ni162  1  0.36679755  0.92844467  0.24190360  1
  Ni  Ni163  1  0.60531570  0.16894295  0.48539793  1
  Ni  Ni164  1  0.93001320  0.54717046  0.71385509  1
  Ni  Ni165  1  0.15561856  -0.09279355  0.09950506  1
  Ni  Ni166  1  0.01218415  0.31083284  0.69874049  1
  Ni  Ni167  1  0.21919224  0.62180372  0.02823076  1
  Ni  Ni168  1  0.58073827  0.03083922  0.68765190  1
  Ni  Ni169  1  0.82891963  0.44337201  0.46756497  1
  Ni  Ni170  1  -0.00378738  0.45078504  0.45275957  1
  Ni  Ni171  1  -0.04121843  0.87515379  0.73806302  1
  Ni  Ni172  1  -0.02283578  0.81136480  0.17459655  1
  Ni  Ni173  1  0.11809721  0.15445174  0.31440155  1
  Ni  Ni174  1  0.49043768  0.47024872  0.78660887  1
  Ni  Ni175  1  0.71467941  -0.06520275  0.27103974  1
  Ni  Ni176  1  0.58276759  0.85209746  0.80089379  1
  Ni  Ni177  1  0.13363455  0.40557491  0.18551812  1
  Ni  Ni178  1  0.34652429  0.14305873  0.79048566  1
  Ni  Ni179  1  0.15091652  0.28860788  0.61632396  1
  Ni  Ni180  1  0.05577749  -0.01440766  0.83516681  1
  Ni  Ni181  1  -0.04277450  0.77102427  0.33020265  1
  Ni  Ni182  1  0.07372556  0.29773351  0.87322597  1
  Ni  Ni183  1  0.31785713  0.76505498  0.46464183  1
  Ni  Ni184  1  0.86689178  0.34895150  0.15971224  1
  Ni  Ni185  1  0.55454253  0.62239500  0.14333417  1
  Ni  Ni186  1  0.83478244  0.09638074  0.80245883  1
  Ni  Ni187  1  0.75972735  0.64514435  0.29941639  1
  Ni  Ni188  1  0.02201200  0.00644476  0.01458414  1
  Ni  Ni189  1  0.92031148  0.23653049  0.81289178  1
  Ni  Ni190  1  0.86030225  -0.00550691  0.50827768  1
  Ni  Ni191  1  0.73162241  0.79771610  0.73756656  1
  Ni  Ni192  1  0.27441340  0.11094419  0.24659120  1
  Ni  Ni193  1  0.07243026  0.34133657  0.34328336  1
  Ni  Ni194  1  0.03885090  0.01242962  0.29635089  1
  Ni  Ni195  1  0.40777427  0.34845561  0.13379443  1
  Ni  Ni196  1  0.83619279  0.50051014  0.28124808  1
  Ni  Ni197  1  0.75554476  0.63032718  0.69447254  1
  Ni  Ni198  1  0.47109499  0.74580381  0.37624120  1
  Ni  Ni199  1  0.36415598  0.04046426  0.65863529  1
  Ni  Ni200  1  0.28450853  0.21737363  0.10586456  1
  Ni  Ni201  1  0.91693812  0.77393545  -0.10564861  1
  Ni  Ni202  1  0.93195779  0.02393252  0.15736663  1
  Ni  Ni203  1  0.31044923  0.71710306  0.61596972  1
  Ni  Ni204  1  0.08197195  0.74946902  0.70016839  1
  Ni  Ni205  1  0.29164297  0.43912865  0.22532798  1
  Ni  Ni206  1  0.00270838  0.91619124  0.57251317  1
  Ni  Ni207  1  0.47541576  0.59335256  -0.08583433  1
  Ni  Ni208  1  0.29853561  0.18534571  0.39855382  1
  Ni  Ni209  1  0.72379959  0.02180487  0.09100297  1
  Ni  Ni210  1  0.02972416  0.40903739  0.05848678  1
  Ni  Ni211  1  0.59409515  0.14707999  0.31727232  1
  Ni  Ni212  1  0.16397392  -0.06964658  0.52457359  1
  Ni  Ni213  1  0.73021347  0.43380164  0.08665253  1
  Ni  Ni214  1  0.41235710  0.19327512  0.64685824  1
