# generated using pymatgen
data_Ti108Co54Ni53
_symmetry_space_group_name_H-M   'P 1'
_cell_length_a   14.60697592
_cell_length_b   14.59362912
_cell_length_c   14.63086736
_cell_angle_alpha   89.89510438
_cell_angle_beta   89.99954414
_cell_angle_gamma   90.17004354
_symmetry_Int_Tables_number   1
_chemical_formula_structural   Ti108Co54Ni53
_chemical_formula_sum   'Ti108 Co54 Ni53'
_cell_volume   3118.82531489
_cell_formula_units_Z   1
loop_
 _symmetry_equiv_pos_site_id
 _symmetry_equiv_pos_as_xyz
  1  'x, y, z'
loop_
 _atom_site_type_symbol
 _atom_site_label
 _atom_site_symmetry_multiplicity
 _atom_site_fract_x
 _atom_site_fract_y
 _atom_site_fract_z
 _atom_site_occupancy
  Ti  Ti0  1  0.05325553  0.08528863  0.24268541  1
  Ti  Ti1  1  0.05199832  0.05927536  0.55597389  1
  Ti  Ti2  1  -0.00250792  0.10374653  0.92114304  1
  Ti  Ti3  1  0.02475928  0.38624988  0.17461299  1
  Ti  Ti4  1  0.04062980  0.35285412  0.59820924  1
  Ti  Ti5  1  -0.00469301  0.39516869  0.84938208  1
  Ti  Ti6  1  0.02227972  0.71868388  0.26741409  1
  Ti  Ti7  1  0.09604756  0.77005743  0.72837062  1
  Ti  Ti8  1  0.02439451  0.79452039  0.92176453  1
  Ti  Ti9  1  0.41015762  0.10707269  0.19212688  1
  Ti  Ti10  1  0.42414254  0.13191450  0.53728108  1
  Ti  Ti11  1  0.42247403  0.03045029  0.93097618  1
  Ti  Ti12  1  0.37333907  0.40339542  0.25821661  1
  Ti  Ti13  1  0.39030425  0.39483769  0.59893355  1
  Ti  Ti14  1  0.44213862  0.46730909  0.83474007  1
  Ti  Ti15  1  0.53370378  0.77473695  0.21432281  1
  Ti  Ti16  1  0.38657889  0.72748404  0.63337722  1
  Ti  Ti17  1  0.42775663  0.68625480  0.82948829  1
  Ti  Ti18  1  0.76368093  0.04548899  0.27666081  1
  Ti  Ti19  1  0.70698425  0.07546403  0.66856978  1
  Ti  Ti20  1  0.74628092  0.10764190  0.94162399  1
  Ti  Ti21  1  0.72603123  0.36099289  0.22257516  1
  Ti  Ti22  1  0.71819724  0.45954995  0.69160269  1
  Ti  Ti23  1  0.75463562  0.44044900  0.91629394  1
  Ti  Ti24  1  0.72468732  0.72442678  0.25296635  1
  Ti  Ti25  1  0.79242610  0.74419494  0.63333159  1
  Ti  Ti26  1  0.80868139  0.75847797  0.94257667  1
  Ti  Ti27  1  0.05935238  0.21423123  0.08049008  1
  Ti  Ti28  1  0.09995435  0.22259894  0.42629110  1
  Ti  Ti29  1  0.11639166  0.19398515  0.77258105  1
  Ti  Ti30  1  0.06388035  0.57037204  0.11779854  1
  Ti  Ti31  1  0.03851273  0.52217106  0.32928927  1
  Ti  Ti32  1  0.12769748  0.58723483  0.74673272  1
  Ti  Ti33  1  0.08536633  0.86974371  0.12416149  1
  Ti  Ti34  1  0.16511619  0.92424367  0.45245695  1
  Ti  Ti35  1  0.13057049  0.94396380  0.82033862  1
  Ti  Ti36  1  0.39316523  0.30018954  0.09136853  1
  Ti  Ti37  1  0.39049715  0.29757790  0.42150662  1
  Ti  Ti38  1  0.49444534  0.25014241  0.78478270  1
  Ti  Ti39  1  0.44388235  0.63373210  0.12259840  1
  Ti  Ti40  1  0.36146892  0.64379902  0.42130136  1
  Ti  Ti41  1  0.55436168  0.59932660  0.73001641  1
  Ti  Ti42  1  0.45742042  0.85650505  0.06920493  1
  Ti  Ti43  1  0.47852950  0.95638164  0.44133172  1
  Ti  Ti44  1  0.33586929  0.94489703  0.78043632  1
  Ti  Ti45  1  0.73712045  0.28579992  0.04281802  1
  Ti  Ti46  1  0.72811739  0.23217357  0.38427997  1
  Ti  Ti47  1  0.81476136  0.22460211  0.68827335  1
  Ti  Ti48  1  0.72352563  0.51674467  0.10824460  1
  Ti  Ti49  1  0.73686350  0.55483540  0.34579576  1
  Ti  Ti50  1  0.73355178  0.62961426  0.78008796  1
  Ti  Ti51  1  0.78079049  0.87667949  0.13050731  1
  Ti  Ti52  1  0.70406810  0.94906882  0.48919960  1
  Ti  Ti53  1  0.82987033  0.92616617  0.72039926  1
  Ti  Ti54  1  0.26293546  0.14489782  0.08843257  1
  Ti  Ti55  1  0.29040179  0.11910467  0.37740232  1
  Ti  Ti56  1  0.20958032  0.04102794  0.67702743  1
  Ti  Ti57  1  0.21179786  0.45274410  0.04599119  1
  Ti  Ti58  1  0.23818572  0.46981501  0.37713052  1
  Ti  Ti59  1  0.20502909  0.36466177  0.85835502  1
  Ti  Ti60  1  0.26933411  0.79322235  0.10793519  1
  Ti  Ti61  1  0.26700244  0.79691810  0.33742077  1
  Ti  Ti62  1  0.25981395  0.77166500  0.82568097  1
  Ti  Ti63  1  0.62090125  0.09757249  0.13180575  1
  Ti  Ti64  1  0.60759589  0.09173038  0.41653275  1
  Ti  Ti65  1  0.54715945  0.00917546  0.76989360  1
  Ti  Ti66  1  0.53515770  0.44384383  0.13795967  1
  Ti  Ti67  1  0.54044626  0.42566410  0.40315899  1
  Ti  Ti68  1  0.54481994  0.41736050  0.69546157  1
  Ti  Ti69  1  0.63583230  0.75601062  0.04812431  1
  Ti  Ti70  1  0.60926187  0.81271656  0.38583690  1
  Ti  Ti71  1  0.60579922  0.77387445  0.72004716  1
  Ti  Ti72  1  0.94029025  0.01916225  0.09679096  1
  Ti  Ti73  1  0.95071937  0.06320015  0.41138870  1
  Ti  Ti74  1  0.97681291  0.05316779  0.73245994  1
  Ti  Ti75  1  0.91738917  0.44291446  0.03250998  1
  Ti  Ti76  1  0.82850630  0.43014857  0.50647329  1
  Ti  Ti77  1  0.89050236  0.39915779  0.69573519  1
  Ti  Ti78  1  0.93965172  0.72307273  0.09297919  1
  Ti  Ti79  1  0.80229068  0.75942110  0.44177244  1
  Ti  Ti80  1  0.91318883  0.70486881  0.77573409  1
  Ti  Ti81  1  0.20385336  0.30811006  0.19819041  1
  Ti  Ti82  1  0.23010515  0.32545034  0.66021709  1
  Ti  Ti83  1  0.33164228  0.21157476  0.90662246  1
  Ti  Ti84  1  0.26891307  0.58347702  0.19184544  1
  Ti  Ti85  1  0.25313659  0.52678959  0.57618602  1
  Ti  Ti86  1  0.27055873  0.56073731  0.87344299  1
  Ti  Ti87  1  0.23317001  0.97708512  0.22538587  1
  Ti  Ti88  1  0.32031166  0.93413383  0.56380590  1
  Ti  Ti89  1  0.23279257  0.97646530  0.98335245  1
  Ti  Ti90  1  0.54117707  0.27202225  0.26837254  1
  Ti  Ti91  1  0.56417944  0.29822097  0.56206136  1
  Ti  Ti92  1  0.56868623  0.22447943  0.95647894  1
  Ti  Ti93  1  0.54099165  0.62469185  0.32763148  1
  Ti  Ti94  1  0.50174541  0.56012956  0.54083078  1
  Ti  Ti95  1  0.56984412  0.57082999  0.98014606  1
  Ti  Ti96  1  0.48860642  0.95894114  0.25006991  1
  Ti  Ti97  1  0.51474202  0.87134366  0.59227614  1
  Ti  Ti98  1  0.56556245  0.86614946  0.89972733  1
  Ti  Ti99  1  0.90283563  0.33502669  0.32893049  1
  Ti  Ti100  1  0.88545931  0.23381153  0.50499231  1
  Ti  Ti101  1  0.90628779  0.27175868  0.95489986  1
  Ti  Ti102  1  0.88192691  0.59561745  0.21392043  1
  Ti  Ti103  1  0.95672923  0.55990799  0.52093840  1
  Ti  Ti104  1  1.00136511  0.60879462  0.92587849  1
  Ti  Ti105  1  0.94628289  0.87230445  0.36233661  1
  Ti  Ti106  1  0.87791240  0.93379576  0.54363841  1
  Ti  Ti107  1  0.86481723  0.95663808  0.90301214  1
  Co  Co108  1  0.23195374  0.85560675  0.68039289  1
  Co  Co109  1  -0.08967864  -0.00007141  0.25732911  1
  Co  Co110  1  0.27161860  0.65296783  0.71481329  1
  Co  Co111  1  0.14965058  0.67503573  0.89993795  1
  Co  Co112  1  0.61151097  0.61752327  0.16856577  1
  Co  Co113  1  0.36953989  0.69968363  0.25172666  1
  Co  Co114  1  0.40020250  0.10880617  0.77261341  1
  Co  Co115  1  0.51308725  0.00230761  0.07341739  1
  Co  Co116  1  0.62699923  0.90478014  0.15898153  1
  Co  Co117  1  0.35969904  0.80812857  0.48622747  1
  Co  Co118  1  0.11719973  0.50437521  -0.08718663  1
  Co  Co119  1  0.68422136  0.17190983  0.54801165  1
  Co  Co120  1  0.66137357  0.79293822  0.54639829  1
  Co  Co121  1  0.09330756  0.36603976  0.33465520  1
  Co  Co122  1  0.57464602  0.02419014  0.57028590  1
  Co  Co123  1  0.61116928  0.47414901  0.26896204  1
  Co  Co124  1  0.36006345  0.24186013  0.25723275  1
  Co  Co125  1  -0.00880217  0.39792737  0.45505198  1
  Co  Co126  1  0.61455902  0.70297078  0.87496383  1
  Co  Co127  1  0.88122407  0.49299674  0.36321990  1
  Co  Co128  1  0.27434801  0.47410347  0.72954831  1
  Co  Co129  1  0.06800335  0.38333235  0.01070733  1
  Co  Co130  1  0.94573933  0.80996723  0.63272409  1
  Co  Co131  1  0.20529144  0.15230826  0.24430549  1
  Co  Co132  1  0.42989733  0.01398059  0.64962036  1
  Co  Co133  1  0.13155160  0.06023024  0.37865965  1
  Co  Co134  1  0.11124096  0.71337393  0.06495998  1
  Co  Co135  1  0.36784150  0.85995636  0.21851651  1
  Co  Co136  1  0.07467248  0.25881961  0.91377459  1
  Co  Co137  1  0.58947080  0.04535376  0.93691274  1
  Co  Co138  1  0.41220710  0.54408221  0.29149574  1
  Co  Co139  1  0.34614898  -0.02405278  0.09750140  1
  Co  Co140  1  0.16356560  0.47011367  0.22335365  1
  Co  Co141  1  0.16599463  0.13806568  -0.04498659  1
  Co  Co142  1  0.76635759  0.03365458  0.09286930  1
  Co  Co143  1  0.21719091  0.28741019  0.01530913  1
  Co  Co144  1  0.02350859  0.24201766  0.25565077  1
  Co  Co145  1  0.86674327  0.08480126  0.60225815  1
  Co  Co146  1  0.02317946  0.87798204  0.50140619  1
  Co  Co147  1  0.79354097  0.09069166  0.45122110  1
  Co  Co148  1  0.38621956  0.47394862  0.44652640  1
  Co  Co149  1  -0.13323713  0.44435604  0.19542694  1
  Co  Co150  1  -0.02085612  0.52952250  0.75250359  1
  Co  Co151  1  0.23850500  0.29054426  0.35901199  1
  Co  Co152  1  0.44678000  0.80631828  0.35527054  1
  Co  Co153  1  0.76626671  0.68581535  0.10516907  1
  Co  Co154  1  0.18217523  0.82474050  -0.03844740  1
  Co  Co155  1  0.62039906  0.39609054  0.00437716  1
  Co  Co156  1  0.62050689  0.50632013  0.84466999  1
  Co  Co157  1  0.82921083  0.09374638  0.79870035  1
  Co  Co158  1  0.54823276  0.23853899  0.42327454  1
  Co  Co159  1  -0.05226878  0.22427929  0.80221679  1
  Co  Co160  1  0.84981671  0.56416077  0.66720209  1
  Co  Co161  1  0.64757675  0.63646970  0.60920104  1
  Ni  Ni162  1  0.17401891  0.71494145  0.21956230  1
  Ni  Ni163  1  0.80012612  0.30850601  0.82906362  1
  Ni  Ni164  1  0.70811479  0.39274087  0.39126976  1
  Ni  Ni165  1  0.30943454  0.70015336  -0.01999837  1
  Ni  Ni166  1  0.70924939  -0.07759284  -0.02638385  1
  Ni  Ni167  1  0.44746094  0.15100875  0.03845396  1
  Ni  Ni168  1  0.74838242  0.19436090  0.19516760  1
  Ni  Ni169  1  0.45519794  0.11655896  0.35257351  1
  Ni  Ni170  1  0.58330627  0.27228916  0.11455204  1
  Ni  Ni171  1  0.05413268  -0.04758734  -0.02962944  1
  Ni  Ni172  1  0.88188200  0.28881721  0.14942843  1
  Ni  Ni173  1  0.22574267  0.07812734  0.51978020  1
  Ni  Ni174  1  0.91959391  0.87049463  0.02928525  1
  Ni  Ni175  1  0.87687577  0.17142992  0.31114458  1
  Ni  Ni176  1  0.24883492  0.08011291  0.83546377  1
  Ni  Ni177  1  0.14256339  0.19282827  0.60489144  1
  Ni  Ni178  1  0.47885441  0.72163964  -0.02285639  1
  Ni  Ni179  1  0.72886092  0.61065643  -0.04925901  1
  Ni  Ni180  1  0.64360216  0.15219673  0.81336285  1
  Ni  Ni181  1  0.86162496  0.54921073  0.85712408  1
  Ni  Ni182  1  0.63109312  0.34166325  0.84458163  1
  Ni  Ni183  1  0.27684136  0.23781090  0.52169227  1
  Ni  Ni184  1  0.65130234  0.48018169  0.53206752  1
  Ni  Ni185  1  0.07551548  -0.07732554  0.65184179  1
  Ni  Ni186  1  0.35333701  0.33533700  0.78090959  1
  Ni  Ni187  1  0.40297325  0.55559990  0.68205531  1
  Ni  Ni188  1  0.35867809  0.85842769  0.93582373  1
  Ni  Ni189  1  0.67465419  -0.08820095  0.66193990  1
  Ni  Ni190  1  0.34773326  0.39030272  -0.04758928  1
  Ni  Ni191  1  -0.06497466  0.85468380  0.19848572  1
  Ni  Ni192  1  0.10985599  0.86789377  0.29620786  1
  Ni  Ni193  1  0.86584977  0.15619529  0.05782963  1
  Ni  Ni194  1  0.33667412  -0.04972192  0.36309857  1
  Ni  Ni195  1  0.77916714  0.87465227  0.31274064  1
  Ni  Ni196  1  0.73081870  0.32527308  0.56651838  1
  Ni  Ni197  1  0.78542889  0.59582379  0.52154929  1
  Ni  Ni198  1  0.45298472  0.83901424  0.75625783  1
  Ni  Ni199  1  0.50773402  0.72305840  0.49686314  1
  Ni  Ni200  1  0.37278108  0.47295544  0.10312054  1
  Ni  Ni201  1  0.86778259  0.58955050  0.02709798  1
  Ni  Ni202  1  0.40286497  0.56198787  -0.02764703  1
  Ni  Ni203  1  -0.09336193  0.65395665  0.37618026  1
  Ni  Ni204  1  0.65308284  0.27031671  0.70032276  1
  Ni  Ni205  1  0.54075955  0.14998476  0.66537404  1
  Ni  Ni206  1  -0.02544206  0.87921318  0.78410727  1
  Ni  Ni207  1  -0.01706529  0.20068345  0.63937922  1
  Ni  Ni208  1  0.65627294  0.66108551  0.44627359  1
  Ni  Ni209  1  0.17360298  0.36998422  0.49478569  1
  Ni  Ni210  1  0.11030926  0.42643515  0.72978481  1
  Ni  Ni211  1  0.11780462  0.04885295  0.09062891  1
  Ni  Ni212  1  0.00190692  0.65365077  0.64367135  1
  Ni  Ni213  1  0.63383174  -0.04188165  0.32037608  1
  Ni  Ni214  1  0.73775491  0.82165384  0.81142037  1
