# generated using pymatgen
data_Ti108Co54Ni53
_symmetry_space_group_name_H-M   'P 1'
_cell_length_a   14.61813176
_cell_length_b   14.59942091
_cell_length_c   14.61414924
_cell_angle_alpha   90.18877965
_cell_angle_beta   89.72606505
_cell_angle_gamma   90.02145525
_symmetry_Int_Tables_number   1
_chemical_formula_structural   Ti108Co54Ni53
_chemical_formula_sum   'Ti108 Co54 Ni53'
_cell_volume   3118.84427366
_cell_formula_units_Z   1
loop_
 _symmetry_equiv_pos_site_id
 _symmetry_equiv_pos_as_xyz
  1  'x, y, z'
loop_
 _atom_site_type_symbol
 _atom_site_label
 _atom_site_symmetry_multiplicity
 _atom_site_fract_x
 _atom_site_fract_y
 _atom_site_fract_z
 _atom_site_occupancy
  Ti  Ti0  1  0.10015355  0.05498361  0.30044724  1
  Ti  Ti1  1  0.01387715  0.13472899  0.59828369  1
  Ti  Ti2  1  0.12732730  0.09173782  0.92482665  1
  Ti  Ti3  1  0.04086642  0.44609721  0.25463138  1
  Ti  Ti4  1  0.14692424  0.44216441  0.55565804  1
  Ti  Ti5  1  0.11314974  0.47883419  0.92670347  1
  Ti  Ti6  1  0.14918701  0.74152546  0.24312804  1
  Ti  Ti7  1  0.09058129  0.69371404  0.56308319  1
  Ti  Ti8  1  0.10798039  0.75463779  0.91671323  1
  Ti  Ti9  1  0.35616409  -0.03676854  0.28903373  1
  Ti  Ti10  1  0.35135476  0.06673794  0.64236570  1
  Ti  Ti11  1  0.34483946  0.10979896  0.98695604  1
  Ti  Ti12  1  0.39188577  0.38818872  0.22514500  1
  Ti  Ti13  1  0.33259701  0.38976465  0.61629435  1
  Ti  Ti14  1  0.42422753  0.38658660  1.01464911  1
  Ti  Ti15  1  0.45668780  0.81593449  0.33692785  1
  Ti  Ti16  1  0.41831243  0.73621934  0.68912287  1
  Ti  Ti17  1  0.47438423  0.68422336  0.86619485  1
  Ti  Ti18  1  0.81676516  0.13294564  0.21036328  1
  Ti  Ti19  1  0.69739500  0.10876158  0.65580451  1
  Ti  Ti20  1  0.74034941  0.13469625  0.91722963  1
  Ti  Ti21  1  0.75059562  0.49652691  0.19686392  1
  Ti  Ti22  1  0.73906875  0.38004782  0.59160069  1
  Ti  Ti23  1  0.80679767  0.40923603  0.92330613  1
  Ti  Ti24  1  0.74156362  0.70876772  0.24760318  1
  Ti  Ti25  1  0.70620678  0.75090168  0.59021720  1
  Ti  Ti26  1  0.77229905  0.74067761  0.85791627  1
  Ti  Ti27  1  0.09469224  0.27586151  0.00258591  1
  Ti  Ti28  1  0.09291614  0.23923492  0.43739847  1
  Ti  Ti29  1  -0.03120389  0.21907618  0.76273850  1
  Ti  Ti30  1  0.03335248  0.60576332  0.06801065  1
  Ti  Ti31  1  0.09905081  0.57205013  0.38473524  1
  Ti  Ti32  1  0.05749202  0.54617643  0.70609199  1
  Ti  Ti33  1  0.03917371  0.87219325  0.14098263  1
  Ti  Ti34  1  0.12366408  0.90526984  0.46118029  1
  Ti  Ti35  1  0.13167008  0.91181566  0.79560575  1
  Ti  Ti36  1  0.26586544  0.29095216  0.11233843  1
  Ti  Ti37  1  0.39408266  0.26654524  0.41109890  1
  Ti  Ti38  1  0.44290041  0.25558266  0.73347385  1
  Ti  Ti39  1  0.48185810  0.59661106  0.03801013  1
  Ti  Ti40  1  0.40291606  0.64461992  0.39261849  1
  Ti  Ti41  1  0.38576401  0.54223082  0.75216161  1
  Ti  Ti42  1  0.40824275  0.93331851  0.03074835  1
  Ti  Ti43  1  0.44912594  0.92516685  0.50105644  1
  Ti  Ti44  1  0.46831951  0.92153620  0.72361430  1
  Ti  Ti45  1  0.68284974  0.23542309  0.08762838  1
  Ti  Ti46  1  0.79589334  0.18691247  0.40208386  1
  Ti  Ti47  1  0.73430536  0.29867831  0.76519310  1
  Ti  Ti48  1  0.74070361  0.68389585  0.05783894  1
  Ti  Ti49  1  0.76018456  0.63532657  0.44425347  1
  Ti  Ti50  1  0.75104034  0.54910539  0.76018212  1
  Ti  Ti51  1  0.74422743  0.92199488  0.13469317  1
  Ti  Ti52  1  0.78825189  0.98056060  0.40794550  1
  Ti  Ti53  1  0.79923150  0.89439645  0.70220401  1
  Ti  Ti54  1  0.26574636  0.12129632  0.20671448  1
  Ti  Ti55  1  0.28977631  0.04271456  0.46057232  1
  Ti  Ti56  1  0.18322690  0.10557355  0.74659218  1
  Ti  Ti57  1  0.25259780  0.50272075  0.09915504  1
  Ti  Ti58  1  0.27393855  0.44996827  0.39541813  1
  Ti  Ti59  1  0.21809251  0.41605132  0.77847851  1
  Ti  Ti60  1  0.30636835  0.69842983  0.09222575  1
  Ti  Ti61  1  0.23419788  0.72732636  0.42636228  1
  Ti  Ti62  1  0.24498636  0.75070867  0.76424460  1
  Ti  Ti63  1  0.53881855  0.06931633  0.03965575  1
  Ti  Ti64  1  0.52588065  0.06221368  0.39844460  1
  Ti  Ti65  1  0.60930670  0.03720402  0.82657577  1
  Ti  Ti66  1  0.62124191  0.41452255  0.02583532  1
  Ti  Ti67  1  0.55191092  0.51858358  0.44947017  1
  Ti  Ti68  1  0.56114662  0.40475894  0.72509629  1
  Ti  Ti69  1  0.56734272  0.77634323  0.10399522  1
  Ti  Ti70  1  0.57680619  0.72241298  0.44255511  1
  Ti  Ti71  1  0.61454254  0.75044791  0.75088667  1
  Ti  Ti72  1  0.98696405  0.04642497  0.03676622  1
  Ti  Ti73  1  0.95626824  0.04719798  0.41669786  1
  Ti  Ti74  1  0.97132829  0.00947187  0.76749455  1
  Ti  Ti75  1  0.95501167  0.42181668  0.04629731  1
  Ti  Ti76  1  0.90030142  0.48627650  0.41718332  1
  Ti  Ti77  1  0.88685103  0.41443792  0.72576293  1
  Ti  Ti78  1  0.91943762  0.76801547  0.01174180  1
  Ti  Ti79  1  0.88039313  0.79841466  0.36622256  1
  Ti  Ti80  1  0.95351419  0.77557171  0.79950888  1
  Ti  Ti81  1  0.10848957  0.25511663  0.23600269  1
  Ti  Ti82  1  0.14328639  0.27638386  0.64439071  1
  Ti  Ti83  1  0.28557127  0.25232247  0.89133959  1
  Ti  Ti84  1  0.28314311  0.59748199  0.26680414  1
  Ti  Ti85  1  0.36045743  0.58389419  0.55742738  1
  Ti  Ti86  1  0.32297045  0.53196337  0.92670901  1
  Ti  Ti87  1  0.24642073  0.88880850  0.14546803  1
  Ti  Ti88  1  0.26783767  0.87985327  0.59867216  1
  Ti  Ti89  1  0.26784797  0.85126253  0.94640285  1
  Ti  Ti90  1  0.53540964  0.15919293  0.21711196  1
  Ti  Ti91  1  0.51255209  0.16643662  0.55834949  1
  Ti  Ti92  1  0.51162623  0.21078111  0.93461243  1
  Ti  Ti93  1  0.54401465  0.61787803  0.25199279  1
  Ti  Ti94  1  0.65687527  0.56225482  0.60154927  1
  Ti  Ti95  1  0.65357720  0.57546462  0.92466930  1
  Ti  Ti96  1  0.55993657  0.95938347  0.21511156  1
  Ti  Ti97  1  0.66489552  0.92782613  0.53618808  1
  Ti  Ti98  1  0.55275994  0.88163785  0.92004502  1
  Ti  Ti99  1  0.89054747  0.31558713  0.22767547  1
  Ti  Ti100  1  0.96475502  0.35717433  0.56433762  1
  Ti  Ti101  1  0.88790766  0.23176198  1.03629912  1
  Ti  Ti102  1  0.97612169  0.66245057  0.25326672  1
  Ti  Ti103  1  0.90500416  0.66999398  0.55372072  1
  Ti  Ti104  1  0.87570853  0.60177459  0.92300198  1
  Ti  Ti105  1  0.91785888  0.98434803  0.23203817  1
  Ti  Ti106  1  0.94973529  0.95427939  0.58668066  1
  Ti  Ti107  1  0.83788335  0.95549537  0.91358560  1
  Co  Co108  1  0.80298309  0.51818589  0.04321907  1
  Co  Co109  1  0.24573617  0.01736667  0.05809314  1
  Co  Co110  1  0.75006632  0.88980528  0.28364266  1
  Co  Co111  1  0.38727158  0.11614222  0.33647667  1
  Co  Co112  1  0.18112200  0.62348823  -0.00979373  1
  Co  Co113  1  0.21795971  0.15402024  0.37505896  1
  Co  Co114  1  0.93474559  0.79216414  0.64991968  1
  Co  Co115  1  0.26044130  0.28839111  0.30805218  1
  Co  Co116  1  0.39978377  0.83809907  0.85002003  1
  Co  Co117  1  0.40885742  0.05492656  0.15903296  1
  Co  Co118  1  -0.08906213  0.49633867  0.18288184  1
  Co  Co119  1  0.41295263  0.22117374  0.07426672  1
  Co  Co120  1  0.01232609  0.53352507  0.53359510  1
  Co  Co121  1  0.52992745  0.34945973  0.87502619  1
  Co  Co122  1  0.89229963  -0.08287147  0.06582080  1
  Co  Co123  1  0.10889421  0.06542235  0.47557774  1
  Co  Co124  1  0.19753196  0.59466651  0.82611776  1
  Co  Co125  1  0.82006127  0.07639981  0.05279195  1
  Co  Co126  1  0.43092330  0.76801438  0.01128414  1
  Co  Co127  1  0.39972268  0.54094329  0.15969561  1
  Co  Co128  1  0.95475286  0.17324196  0.31351616  1
  Co  Co129  1  0.87445038  0.64538662  0.12883411  1
  Co  Co130  1  0.66126451  0.43683599  0.84736547  1
  Co  Co131  1  0.27996111  0.25373934  0.72639989  1
  Co  Co132  1  0.41259266  0.43908216  0.47135763  1
  Co  Co133  1  0.68222380  0.28808267  -0.07023132  1
  Co  Co134  1  0.49496633  0.50503739  -0.10709341  1
  Co  Co135  1  0.53308533  0.30572163  0.12339700  1
  Co  Co136  1  0.42945996  0.70723502  0.19612260  1
  Co  Co137  1  0.37606491  0.39012155  0.82162088  1
  Co  Co138  1  0.25487206  0.00188354  0.89254815  1
  Co  Co139  1  0.79357353  0.36126768  0.09798371  1
  Co  Co140  1  0.13155152  0.57460205  0.19651117  1
  Co  Co141  1  0.30578275  0.78116833  0.27367517  1
  Co  Co142  1  0.54175462  0.01488092  0.59560938  1
  Co  Co143  1  0.01195379  -0.12261303  0.31672667  1
  Co  Co144  1  0.13087035  -0.07491692  -0.00501993  1
  Co  Co145  1  0.91326293  0.60492681  0.74536809  1
  Co  Co146  1  0.84286801  0.59264760  0.30625853  1
  Co  Co147  1  0.79598068  0.70250748  0.70405479  1
  Co  Co148  1  0.43646542  0.50386667  0.32500721  1
  Co  Co149  1  -0.06760287  0.21203573  0.48304978  1
  Co  Co150  1  0.16118724  0.15939516  0.08059758  1
  Co  Co151  1  0.42586279  0.86465327  0.17161475  1
  Co  Co152  1  0.80285477  0.04743278  0.77345930  1
  Co  Co153  1  0.39430019  0.23119845  0.22933018  1
  Co  Co154  1  0.44807406  0.00965605  0.88152997  1
  Co  Co155  1  0.63505758  -0.07959622  0.69879361  1
  Co  Co156  1  0.10777453  0.02222992  0.14485534  1
  Co  Co157  1  0.82516120  0.84705615  0.52900355  1
  Co  Co158  1  0.21157081  0.57856753  0.49879625  1
  Co  Co159  1  0.82663541  0.33540478  0.46384074  1
  Co  Co160  1  0.09028235  0.70880824  0.73313322  1
  Co  Co161  1  0.13310864  0.25056064  0.82357274  1
  Ni  Ni162  1  0.82877033  0.53061725  0.60102253  1
  Ni  Ni163  1  0.61350395  0.73267500  -0.05700522  1
  Ni  Ni164  1  0.62786649  0.57776123  0.10854641  1
  Ni  Ni165  1  -0.03972350  0.47993829  0.85595885  1
  Ni  Ni166  1  0.62228313  0.26472540  0.63825083  1
  Ni  Ni167  1  0.60536720  0.79713698  0.26363831  1
  Ni  Ni168  1  0.09235947  0.84558023  0.63925164  1
  Ni  Ni169  1  0.20803173  0.42467188  0.24171861  1
  Ni  Ni170  1  0.30392241  -0.12684393  0.42527217  1
  Ni  Ni171  1  0.60560399  0.91665693  0.37628761  1
  Ni  Ni172  1  0.48986224  0.49911674  0.61533281  1
  Ni  Ni173  1  -0.00417054  0.90023262  0.91217129  1
  Ni  Ni174  1  -0.01482414  0.82227816  0.49431209  1
  Ni  Ni175  1  0.35422176  0.22296380  0.57304632  1
  Ni  Ni176  1  0.05247215  0.37874199  0.73993053  1
  Ni  Ni177  1  0.83438543  0.08849230  0.54833592  1
  Ni  Ni178  1  0.49600568  0.09729373  0.72949805  1
  Ni  Ni179  1  -0.08149808  0.11122052  0.89321439  1
  Ni  Ni180  1  0.84565619  0.24734451  0.62542050  1
  Ni  Ni181  1  0.31369910  0.69340190  -0.09670663  1
  Ni  Ni182  1  0.30053442  -0.06265824  0.75269168  1
  Ni  Ni183  1  0.23225639  0.55320002  0.66876259  1
  Ni  Ni184  1  0.06601611  0.73639018  0.38844430  1
  Ni  Ni185  1  0.12533494  0.00253892  0.62842682  1
  Ni  Ni186  1  -0.00460175  0.16596312  0.15409182  1
  Ni  Ni187  1  0.71674522  0.79940318  0.41462573  1
  Ni  Ni188  1  0.18485346  0.90672058  0.30132755  1
  Ni  Ni189  1  0.70231294  0.89705864  0.84347519  1
  Ni  Ni190  1  0.20948916  0.14398184  0.57345282  1
  Ni  Ni191  1  0.51987593  0.65662226  0.58336816  1
  Ni  Ni192  1  0.67685460  -0.00911112  -0.01101186  1
  Ni  Ni193  1  0.54081004  0.82022059  0.59942993  1
  Ni  Ni194  1  0.84797779  0.25796765  0.87350014  1
  Ni  Ni195  1  0.67130779  0.09183125  0.48296242  1
  Ni  Ni196  1  0.72415302  0.47131125  0.45696568  1
  Ni  Ni197  1  0.55901742  0.58187232  0.74657839  1
  Ni  Ni198  1  0.67305771  0.07397695  0.13684098  1
  Ni  Ni199  1  0.24507283  0.38641523  -0.02912097  1
  Ni  Ni200  1  0.25283732  0.71188688  0.60390711  1
  Ni  Ni201  1  0.24154387  0.30371670  0.48261369  1
  Ni  Ni202  1  0.73435451  0.83667013  -0.00573278  1
  Ni  Ni203  1  -0.02903319  0.33549502  0.37438747  1
  Ni  Ni204  1  0.11540515  0.40824060  0.10290787  1
  Ni  Ni205  1  -0.00866951  0.32793725  -0.10887892  1
  Ni  Ni206  1  0.60462231  0.20649813  0.79287202  1
  Ni  Ni207  1  0.48684375  0.33568075  0.57404870  1
  Ni  Ni208  1  0.67388450  0.56065486  0.33009550  1
  Ni  Ni209  1  0.14727140  0.76437434  0.07342145  1
  Ni  Ni210  1  -0.12191143  0.80802624  0.19231913  1
  Ni  Ni211  1  0.03420781  0.62233161  -0.12980759  1
  Ni  Ni212  1  0.34678725  0.11451161  0.80524468  1
  Ni  Ni213  1  0.67825630  0.06116704  0.30364914  1
  Ni  Ni214  1  0.39819925  0.76299910  0.51999456  1
