# generated using pymatgen
data_Ti108Co54Ni53
_symmetry_space_group_name_H-M   'P 1'
_cell_length_a   14.67456509
_cell_length_b   14.68446750
_cell_length_c   14.59756754
_cell_angle_alpha   90.04886328
_cell_angle_beta   90.15759782
_cell_angle_gamma   89.90577650
_symmetry_Int_Tables_number   1
_chemical_formula_structural   Ti108Co54Ni53
_chemical_formula_sum   'Ti108 Co54 Ni53'
_cell_volume   3145.58589095
_cell_formula_units_Z   1
loop_
 _symmetry_equiv_pos_site_id
 _symmetry_equiv_pos_as_xyz
  1  'x, y, z'
loop_
 _atom_site_type_symbol
 _atom_site_label
 _atom_site_symmetry_multiplicity
 _atom_site_fract_x
 _atom_site_fract_y
 _atom_site_fract_z
 _atom_site_occupancy
  Ti  Ti0  1  0.00365392  0.09199939  0.28701641  1
  Ti  Ti1  1  0.08020437  0.06029083  0.54685119  1
  Ti  Ti2  1  0.07128463  0.04987834  0.83954575  1
  Ti  Ti3  1  0.15961348  0.39098255  0.25053783  1
  Ti  Ti4  1  0.07439919  0.44292885  0.54320555  1
  Ti  Ti5  1  0.07674365  0.42272464  0.95073502  1
  Ti  Ti6  1  0.13648914  0.72950686  0.17689503  1
  Ti  Ti7  1  0.15148222  0.72138101  0.66231603  1
  Ti  Ti8  1  0.12667444  0.71453299  0.98927127  1
  Ti  Ti9  1  0.44602068  0.07574729  0.20334810  1
  Ti  Ti10  1  0.39544797  0.07552792  0.55780585  1
  Ti  Ti11  1  0.46267104  0.05116772  0.89785135  1
  Ti  Ti12  1  0.41623646  0.36163798  0.25797244  1
  Ti  Ti13  1  0.38907065  0.39318281  0.62067243  1
  Ti  Ti14  1  0.33641416  0.33317184  0.86335999  1
  Ti  Ti15  1  0.41465163  0.81000553  0.30379040  1
  Ti  Ti16  1  0.47436150  0.64956256  0.60822022  1
  Ti  Ti17  1  0.43914358  0.76429351  0.93428199  1
  Ti  Ti18  1  0.80605918  0.11988790  0.26247419  1
  Ti  Ti19  1  0.72873301  0.12254882  0.48887782  1
  Ti  Ti20  1  0.75246466  0.09291638  1.07110068  1
  Ti  Ti21  1  0.76991676  0.46166386  0.30131173  1
  Ti  Ti22  1  0.74956798  0.45318053  0.55267395  1
  Ti  Ti23  1  0.76128224  0.36730205  0.90828449  1
  Ti  Ti24  1  0.79825217  0.71641264  0.31529302  1
  Ti  Ti25  1  0.79115650  0.80813190  0.59396091  1
  Ti  Ti26  1  0.79267376  0.79288924  0.94699439  1
  Ti  Ti27  1  0.06966773  0.30341432  0.10243929  1
  Ti  Ti28  1  0.13631756  0.31224440  0.41995997  1
  Ti  Ti29  1  0.15421737  0.28403232  0.80554148  1
  Ti  Ti30  1  0.06904503  0.54790400  0.11272304  1
  Ti  Ti31  1  0.14634024  0.62988416  0.47849107  1
  Ti  Ti32  1  0.03652522  0.52627488  0.78616243  1
  Ti  Ti33  1  0.04887902  0.86477260  0.08901839  1
  Ti  Ti34  1  0.13587886  0.87275884  0.45820123  1
  Ti  Ti35  1  0.05036096  0.84812010  0.76492955  1
  Ti  Ti36  1  0.39052988  0.28271619  0.04961597  1
  Ti  Ti37  1  0.43116673  0.20588272  0.38075558  1
  Ti  Ti38  1  0.43256494  0.17425673  0.73151072  1
  Ti  Ti39  1  0.40414324  0.68363229  0.10990708  1
  Ti  Ti40  1  0.36823587  0.64462279  0.42392931  1
  Ti  Ti41  1  0.40220694  0.62106384  0.79575542  1
  Ti  Ti42  1  0.39350642  0.92680901  0.08951053  1
  Ti  Ti43  1  0.30972912  0.94090187  0.42471918  1
  Ti  Ti44  1  0.50295524  0.96469856  0.69569295  1
  Ti  Ti45  1  0.83405739  0.27483004  0.05913707  1
  Ti  Ti46  1  0.72337481  0.28182469  0.35344016  1
  Ti  Ti47  1  0.77883148  0.30029279  0.71627073  1
  Ti  Ti48  1  0.74231657  0.65148619  0.05553824  1
  Ti  Ti49  1  0.69243672  0.63084324  0.47782171  1
  Ti  Ti50  1  0.79470939  0.49493152  0.76357962  1
  Ti  Ti51  1  0.67866612  0.88643168  0.08182128  1
  Ti  Ti52  1  0.75286777  0.95502250  0.36439467  1
  Ti  Ti53  1  0.74741943  0.96401192  0.81387591  1
  Ti  Ti54  1  0.23601928  0.04355335  0.10218505  1
  Ti  Ti55  1  0.25101350  0.13774314  0.43665585  1
  Ti  Ti56  1  0.21403744  0.10256497  0.70524316  1
  Ti  Ti57  1  0.25530538  0.46528097  0.06427813  1
  Ti  Ti58  1  0.28287666  0.46678786  0.39556571  1
  Ti  Ti59  1  0.19173321  0.43100449  0.69216270  1
  Ti  Ti60  1  0.25834333  0.83173778  0.01970331  1
  Ti  Ti61  1  0.23154267  0.75508028  0.34851384  1
  Ti  Ti62  1  0.26346877  0.79311448  0.82273444  1
  Ti  Ti63  1  0.55178398  0.15647169  0.04679159  1
  Ti  Ti64  1  0.56847769  0.03882228  0.40016497  1
  Ti  Ti65  1  0.62953007  0.18121857  0.67923354  1
  Ti  Ti66  1  0.61649261  0.35101438  0.07501790  1
  Ti  Ti67  1  0.56499787  0.39105756  0.41682339  1
  Ti  Ti68  1  0.60780055  0.38798186  0.69254029  1
  Ti  Ti69  1  0.60309958  0.71413561  0.16454926  1
  Ti  Ti70  1  0.54373727  0.77093581  0.46810074  1
  Ti  Ti71  1  0.61561970  0.78379432  0.67587662  1
  Ti  Ti72  1  0.93896540  0.01700687  0.10075407  1
  Ti  Ti73  1  0.90445984  0.05897104  0.45835069  1
  Ti  Ti74  1  0.89712741  0.10839766  0.75079815  1
  Ti  Ti75  1  0.87762973  0.47454373  0.08286686  1
  Ti  Ti76  1  0.95743420  0.40389568  0.39728123  1
  Ti  Ti77  1  0.94022069  0.34772825  0.78909699  1
  Ti  Ti78  1  0.93065225  0.68728914  0.07121228  1
  Ti  Ti79  1  0.98489545  0.76201074  0.40380253  1
  Ti  Ti80  1  0.86129948  0.79633258  0.77031133  1
  Ti  Ti81  1  0.18658196  0.18508934  0.25392513  1
  Ti  Ti82  1  0.17182369  0.24878221  0.59305640  1
  Ti  Ti83  1  0.17615781  0.17493280  0.96630221  1
  Ti  Ti84  1  0.19194737  0.56821064  0.25471056  1
  Ti  Ti85  1  0.29027252  0.57242334  0.60492981  1
  Ti  Ti86  1  0.22568266  0.59288731  0.79741512  1
  Ti  Ti87  1  0.22365018  0.91547924  0.24311993  1
  Ti  Ti88  1  0.30515117  0.88647546  0.63722532  1
  Ti  Ti89  1  0.26047416  0.99637244  0.90469810  1
  Ti  Ti90  1  0.59896676  0.17246136  0.27437446  1
  Ti  Ti91  1  0.50405715  0.26204206  0.56608887  1
  Ti  Ti92  1  0.59574395  0.26284459  0.85825994  1
  Ti  Ti93  1  0.60400095  0.54177008  0.28571397  1
  Ti  Ti94  1  0.65011493  0.58047461  0.67062562  1
  Ti  Ti95  1  0.58191918  0.66233083  0.82739834  1
  Ti  Ti96  1  0.54680389  0.89818809  0.22141420  1
  Ti  Ti97  1  0.64091029  0.93236845  0.54536086  1
  Ti  Ti98  1  0.57947723  0.89002051  0.89654546  1
  Ti  Ti99  1  0.88035265  0.30817850  0.24430532  1
  Ti  Ti100  1  0.93980322  0.25023156  0.55611795  1
  Ti  Ti101  1  0.97647399  0.15570892  0.98512375  1
  Ti  Ti102  1  0.95888176  0.57089247  0.29076940  1
  Ti  Ti103  1  0.88288512  0.60309239  0.61994581  1
  Ti  Ti104  1  0.88649829  0.62961435  0.86597937  1
  Ti  Ti105  1  0.91540420  0.88024362  0.25499004  1
  Ti  Ti106  1  0.96725862  0.88868238  0.57303056  1
  Ti  Ti107  1  0.94577816  0.92948869  0.91713878  1
  Co  Co108  1  0.86419933  0.07201728  -0.09078459  1
  Co  Co109  1  0.71320576  0.84063282  0.24736766  1
  Co  Co110  1  0.29749666  0.79162971  0.17130378  1
  Co  Co111  1  0.25054836  0.38989643  0.53312003  1
  Co  Co112  1  0.76506189  0.67643364  0.71473427  1
  Co  Co113  1  0.55791696  0.07775909  0.57640554  1
  Co  Co114  1  0.54304407  -0.00531279  0.06883688  1
  Co  Co115  1  0.88513920  0.84796678  0.07780647  1
  Co  Co116  1  0.27215526  0.33037940  0.16942730  1
  Co  Co117  1  0.08536354  -0.01361138  0.19714802  1
  Co  Co118  1  0.69154548  0.79798323  0.81503030  1
  Co  Co119  1  0.21116052  0.43940872  0.86339603  1
  Co  Co120  1  0.21833177  0.32472022  -0.00463176  1
  Co  Co121  1  0.46954438  0.32955043  0.75388597  1
  Co  Co122  1  0.13545859  0.88240763  0.61697207  1
  Co  Co123  1  0.08571823  0.66726501  0.32763060  1
  Co  Co124  1  0.48524513  0.51535314  0.69951421  1
  Co  Co125  1  0.01960765  0.21436355  0.84678645  1
  Co  Co126  1  0.19295547  -0.05666451  0.75969740  1
  Co  Co127  1  0.07577186  0.83987046  0.28030341  1
  Co  Co128  1  0.44008117  0.50445710  0.34417403  1
  Co  Co129  1  0.45122926  0.21725012  -0.09074151  1
  Co  Co130  1  0.72968190  0.64678801  0.87353219  1
  Co  Co131  1  0.50451094  0.25379569  0.17401013  1
  Co  Co132  1  0.75518773  0.37580255  0.16401145  1
  Co  Co133  1  0.38313279  0.09667329  0.02621389  1
  Co  Co134  1  0.71693021  0.79525293  0.44738886  1
  Co  Co135  1  0.41366197  0.04537996  0.36913813  1
  Co  Co136  1  0.41756247  0.51351399  0.50990177  1
  Co  Co137  1  0.86157553  0.86681210  0.43817609  1
  Co  Co138  1  0.60250798  0.88375123  0.37015255  1
  Co  Co139  1  0.24667475  0.63467646  0.09805697  1
  Co  Co140  1  0.32826874  0.49035739  0.20841750  1
  Co  Co141  1  -0.03528164  0.72266545  0.22032267  1
  Co  Co142  1  -0.02612260  0.68641916  0.72864453  1
  Co  Co143  1  0.40562528  0.35989226  0.44599109  1
  Co  Co144  1  0.53669112  0.60282648  0.43484952  1
  Co  Co145  1  0.61271803  0.36714923  0.24947440  1
  Co  Co146  1  0.89551250  0.94331284  0.71999732  1
  Co  Co147  1  0.23618206  0.75530055  0.52808093  1
  Co  Co148  1  0.01114059  0.58777780  -0.03646363  1
  Co  Co149  1  0.28577982  0.29488369  0.35502272  1
  Co  Co150  1  0.04366452  0.00201050  0.68944251  1
  Co  Co151  1  0.28937607  0.05976262  0.27324399  1
  Co  Co152  1  0.29977176  0.27158715  0.70751686  1
  Co  Co153  1  0.69746236  0.21678230  -0.02444375  1
  Co  Co154  1  0.62828032  0.74509946  -0.02797262  1
  Co  Co155  1  -0.04551800  0.32318721  -0.03575352  1
  Co  Co156  1  0.23106509  0.01394056  0.55465252  1
  Co  Co157  1  0.33774297  0.23776739  0.54361308  1
  Co  Co158  1  0.32675414  0.71937869  0.67542026  1
  Co  Co159  1  0.34119858  0.46316678  0.76164041  1
  Co  Co160  1  0.47229510  -0.06080177  0.48960816  1
  Co  Co161  1  0.12518518  0.87120499  -0.08960925  1
  Ni  Ni162  1  0.62639500  0.71785428  0.33063631  1
  Ni  Ni163  1  -0.02360487  0.76712956  0.92195951  1
  Ni  Ni164  1  0.59625756  0.20558180  0.44599796  1
  Ni  Ni165  1  0.83045200  0.55026400  0.42044076  1
  Ni  Ni166  1  0.30282026  0.67012954  -0.05693461  1
  Ni  Ni167  1  -0.01786807  0.57906169  0.47425231  1
  Ni  Ni168  1  0.79965460  -0.03551170  0.17725824  1
  Ni  Ni169  1  0.03603132  0.26654705  0.28323436  1
  Ni  Ni170  1  0.46515457  0.82792363  0.60926071  1
  Ni  Ni171  1  0.82578123  0.34511622  0.46397586  1
  Ni  Ni172  1  0.09613115  0.00952408  0.00490803  1
  Ni  Ni173  1  0.00098173  -0.05505782  0.39013586  1
  Ni  Ni174  1  0.90777795  0.41905092  0.60879900  1
  Ni  Ni175  1  0.17222794  0.56527634  -0.04289241  1
  Ni  Ni176  1  0.80157833  0.16338292  0.62675098  1
  Ni  Ni177  1  0.64931965  0.04348737  -0.05360498  1
  Ni  Ni178  1  0.84939289  0.22989763  0.87806500  1
  Ni  Ni179  1  0.35245568  0.02220932  0.74990016  1
  Ni  Ni180  1  -0.09185775  0.46887092  0.90362371  1
  Ni  Ni181  1  0.65309500  0.02021044  0.22351679  1
  Ni  Ni182  1  0.32749902  0.17888393  0.15955005  1
  Ni  Ni183  1  0.68634382  0.51515471  0.13755043  1
  Ni  Ni184  1  0.69150460  0.22674753  0.15602915  1
  Ni  Ni185  1  0.37642210  0.80027009  0.47667530  1
  Ni  Ni186  1  0.73126578  0.14133689  0.81423337  1
  Ni  Ni187  1  0.05774867  0.17094845  0.42757052  1
  Ni  Ni188  1  0.48436562  0.65674843  0.27705968  1
  Ni  Ni189  1  0.79308474  -0.04438247  0.98754753  1
  Ni  Ni190  1  0.08987006  0.13331379  0.11909836  1
  Ni  Ni191  1  0.59272030  0.05841008  0.79332159  1
  Ni  Ni192  1  0.64113475  0.48730256  0.82459827  1
  Ni  Ni193  1  0.57316935  0.48462052  0.55399829  1
  Ni  Ni194  1  0.04462313  0.33609173  0.66878720  1
  Ni  Ni195  1  0.89422550  0.21333028  0.38810024  1
  Ni  Ni196  1  0.00566768  0.72208861  0.56824008  1
  Ni  Ni197  1  0.70020098  0.03080513  0.66798620  1
  Ni  Ni198  1  0.14600313  0.02471496  0.36561582  1
  Ni  Ni199  1  0.09717338  0.49750196  0.37891978  1
  Ni  Ni200  1  0.30017296  0.15618798  0.84839375  1
  Ni  Ni201  1  0.52064467  0.82472443  0.06507167  1
  Ni  Ni202  1  0.39458848  0.90304796  0.85849008  1
  Ni  Ni203  1  0.46475176  0.78207459  0.76429532  1
  Ni  Ni204  1  0.69100772  0.29283878  0.55681821  1
  Ni  Ni205  1  0.75817978  0.51776384  -0.03787604  1
  Ni  Ni206  1  0.32789569  0.65162883  0.25338459  1
  Ni  Ni207  1  0.04862675  0.17022891  0.68838919  1
  Ni  Ni208  1  0.82466419  0.60340718  0.19451362  1
  Ni  Ni209  1  0.06648461  0.57806675  0.63217066  1
  Ni  Ni210  1  0.85548181  0.70092006  0.48295918  1
  Ni  Ni211  1  0.81352526  -0.02230789  0.56629082  1
  Ni  Ni212  1  0.09579470  0.68755807  0.83327868  1
  Ni  Ni213  1  -0.06264687  0.18026923  0.15473913  1
  Ni  Ni214  1  -0.00162400  0.42400151  0.21668490  1
