# generated using pymatgen
data_Ti108Co54Ni53
_symmetry_space_group_name_H-M   'P 1'
_cell_length_a   14.60525460
_cell_length_b   14.59950793
_cell_length_c   14.69139204
_cell_angle_alpha   89.64084268
_cell_angle_beta   90.17989474
_cell_angle_gamma   90.00241626
_symmetry_Int_Tables_number   1
_chemical_formula_structural   Ti108Co54Ni53
_chemical_formula_sum   'Ti108 Co54 Ni53'
_cell_volume   3132.56163753
_cell_formula_units_Z   1
loop_
 _symmetry_equiv_pos_site_id
 _symmetry_equiv_pos_as_xyz
  1  'x, y, z'
loop_
 _atom_site_type_symbol
 _atom_site_label
 _atom_site_symmetry_multiplicity
 _atom_site_fract_x
 _atom_site_fract_y
 _atom_site_fract_z
 _atom_site_occupancy
  Ti  Ti0  1  0.07348922  0.12678720  0.25663124  1
  Ti  Ti1  1  0.14038672  0.08022843  0.58078473  1
  Ti  Ti2  1  0.04694031  0.08014566  0.90000371  1
  Ti  Ti3  1  0.03887676  0.34424541  0.23618655  1
  Ti  Ti4  1  0.05692606  0.36497181  0.57436922  1
  Ti  Ti5  1  0.05811621  0.39651227  0.90034198  1
  Ti  Ti6  1  0.09063036  0.76334566  0.25113149  1
  Ti  Ti7  1  0.06731053  0.83719207  0.61833419  1
  Ti  Ti8  1  0.05864470  0.75201253  0.97376214  1
  Ti  Ti9  1  0.38509966  0.09514902  0.29149604  1
  Ti  Ti10  1  0.42538173  0.07722676  0.61431999  1
  Ti  Ti11  1  0.38589394  0.08092271  0.97176351  1
  Ti  Ti12  1  0.41471028  0.43923281  0.29277038  1
  Ti  Ti13  1  0.44381003  0.47105393  0.60065548  1
  Ti  Ti14  1  0.40886338  0.33510321  0.96937195  1
  Ti  Ti15  1  0.51342687  0.78519464  0.27238928  1
  Ti  Ti16  1  0.38566291  0.72165974  0.65281740  1
  Ti  Ti17  1  0.42168285  0.74289881  0.95906891  1
  Ti  Ti18  1  0.71086420  0.13063034  0.27387700  1
  Ti  Ti19  1  0.76959507  0.17391139  0.60506966  1
  Ti  Ti20  1  0.74058153  0.07943591  0.92879213  1
  Ti  Ti21  1  0.72283951  0.33610948  0.22008775  1
  Ti  Ti22  1  0.73917948  0.45348045  0.53889847  1
  Ti  Ti23  1  0.70219403  0.39860325  0.87264028  1
  Ti  Ti24  1  0.70896502  0.78604471  0.28104965  1
  Ti  Ti25  1  0.76315991  0.69713375  0.51183234  1
  Ti  Ti26  1  0.78028374  0.71903312  0.97165952  1
  Ti  Ti27  1  0.11058205  0.23668276  -0.01342440  1
  Ti  Ti28  1  0.11249773  0.24732659  0.41695703  1
  Ti  Ti29  1  0.09838373  0.25348769  0.75154898  1
  Ti  Ti30  1  0.07797654  0.55951184  0.00309282  1
  Ti  Ti31  1  0.08709021  0.68874744  0.45470596  1
  Ti  Ti32  1  0.08572445  0.58310736  0.69044839  1
  Ti  Ti33  1  0.13182051  0.94609411  0.03533487  1
  Ti  Ti34  1  0.07354429  0.90467586  0.38718511  1
  Ti  Ti35  1  0.01666926  0.95747157  0.75023429  1
  Ti  Ti36  1  0.45499784  0.22654700  0.12480655  1
  Ti  Ti37  1  0.46866395  0.19411819  0.43915003  1
  Ti  Ti38  1  0.39001049  0.37371529  0.77420634  1
  Ti  Ti39  1  0.43918858  0.51092254  0.06718097  1
  Ti  Ti40  1  0.45898601  0.59522800  0.37320488  1
  Ti  Ti41  1  0.42902914  0.58895704  0.80508743  1
  Ti  Ti42  1  0.46187204  0.91279458  0.05738049  1
  Ti  Ti43  1  0.35975995  0.91572504  0.39196472  1
  Ti  Ti44  1  0.40021016  0.89403917  0.71618445  1
  Ti  Ti45  1  0.78760384  0.16572111  0.09010187  1
  Ti  Ti46  1  0.79388123  0.26112391  0.41725506  1
  Ti  Ti47  1  0.79274391  0.29492762  0.74645985  1
  Ti  Ti48  1  0.73067168  0.59474080  0.10220047  1
  Ti  Ti49  1  0.82866154  0.56715673  0.36263863  1
  Ti  Ti50  1  0.78758703  0.60668286  0.80678784  1
  Ti  Ti51  1  0.74298321  0.93500885  0.12118472  1
  Ti  Ti52  1  0.73191165  0.94932045  0.44831637  1
  Ti  Ti53  1  0.75791942  0.92345523  0.77471378  1
  Ti  Ti54  1  0.24020951  0.10172257  0.14511872  1
  Ti  Ti55  1  0.27608427  0.12604028  0.45250191  1
  Ti  Ti56  1  0.28895494  0.05390050  0.74240999  1
  Ti  Ti57  1  0.23779172  0.42062305  0.01553246  1
  Ti  Ti58  1  0.26236880  0.35454926  0.42743472  1
  Ti  Ti59  1  0.19140531  0.41744254  0.71450154  1
  Ti  Ti60  1  0.23893787  0.78835562  0.05706390  1
  Ti  Ti61  1  0.29347446  0.68493857  0.44813554  1
  Ti  Ti62  1  0.19449307  0.78170544  0.76789311  1
  Ti  Ti63  1  0.58682598  0.07245229  0.09375030  1
  Ti  Ti64  1  0.60387631  0.10939121  0.55187117  1
  Ti  Ti65  1  0.57836025  0.06071005  0.75329929  1
  Ti  Ti66  1  0.59544467  0.39211455  0.03201416  1
  Ti  Ti67  1  0.57132309  0.40752868  0.45735454  1
  Ti  Ti68  1  0.60597045  0.42313847  0.69552196  1
  Ti  Ti69  1  0.53662500  0.69485712  0.09932993  1
  Ti  Ti70  1  0.48102004  0.76517259  0.46365537  1
  Ti  Ti71  1  0.65607916  0.72574633  0.69693097  1
  Ti  Ti72  1  0.99086611  0.06973940  0.09178439  1
  Ti  Ti73  1  0.90886129  0.05578946  0.38081931  1
  Ti  Ti74  1  0.90083098  0.12968967  0.77960754  1
  Ti  Ti75  1  0.77535456  0.41999814  0.06309824  1
  Ti  Ti76  1  0.92206591  0.40924799  0.44739135  1
  Ti  Ti77  1  0.95163702  0.41481216  0.72259459  1
  Ti  Ti78  1  0.88660778  0.80032832  0.11118195  1
  Ti  Ti79  1  0.88557716  0.79432338  0.35221233  1
  Ti  Ti80  1  0.86075024  0.74189958  0.68835898  1
  Ti  Ti81  1  0.29128895  0.32579048  0.18228181  1
  Ti  Ti82  1  0.28988425  0.23772556  0.68648313  1
  Ti  Ti83  1  0.25550193  0.19455170  0.86817336  1
  Ti  Ti84  1  0.26860133  0.66416812  0.22920990  1
  Ti  Ti85  1  0.27487342  0.56369974  0.60576074  1
  Ti  Ti86  1  0.25682553  0.63674091  0.93037514  1
  Ti  Ti87  1  0.27375809  0.90091532  0.21297512  1
  Ti  Ti88  1  0.24348638  0.84294980  0.55484050  1
  Ti  Ti89  1  0.31594531  0.90023697  0.89542890  1
  Ti  Ti90  1  0.56391420  0.27286528  0.30283201  1
  Ti  Ti91  1  0.50443422  0.28096616  0.60636952  1
  Ti  Ti92  1  0.58757907  0.21458236  0.94031929  1
  Ti  Ti93  1  0.60623098  0.59432953  0.24386595  1
  Ti  Ti94  1  0.59158724  0.60416556  0.52992029  1
  Ti  Ti95  1  0.59181606  0.65718552  0.90814257  1
  Ti  Ti96  1  0.61835685  0.96679631  0.27557050  1
  Ti  Ti97  1  0.56245380  0.91746636  0.57109189  1
  Ti  Ti98  1  0.53017450  0.88873978  0.86975809  1
  Ti  Ti99  1  0.89192888  0.20344822  0.24471829  1
  Ti  Ti100  1  0.95546871  0.18817024  0.51825508  1
  Ti  Ti101  1  0.90295570  0.30005622  0.98473270  1
  Ti  Ti102  1  0.91926872  0.53085110  0.19400827  1
  Ti  Ti103  1  0.88011007  0.55758833  0.61175197  1
  Ti  Ti104  1  0.87544144  0.53904529  0.96301537  1
  Ti  Ti105  1  0.96347331  0.92981749  0.23181394  1
  Ti  Ti106  1  0.87689489  0.91680930  0.61269828  1
  Ti  Ti107  1  0.90029599  0.82930690  0.86258467  1
  Co  Co108  1  -0.03893198  0.45564886  0.06234968  1
  Co  Co109  1  0.11943161  -0.04010946  0.20204578  1
  Co  Co110  1  0.36534458  0.75800826  0.31560213  1
  Co  Co111  1  -0.05685182  0.65401451  0.07980837  1
  Co  Co112  1  0.40784230  0.87851706  0.55298346  1
  Co  Co113  1  0.77976115  0.46008027  0.72534435  1
  Co  Co114  1  0.43195629  0.61966454  0.21174649  1
  Co  Co115  1  0.58807165  0.86955254  0.14476960  1
  Co  Co116  1  0.58830754  0.08600525  0.38903652  1
  Co  Co117  1  0.74818807  0.49845860  0.23794734  1
  Co  Co118  1  -0.03790924  0.26893529  0.84043557  1
  Co  Co119  1  0.69997618  0.75194216  0.12698481  1
  Co  Co120  1  0.72497492  0.27531835  -0.00243181  1
  Co  Co121  1  0.69625134  0.53947968  -0.04704092  1
  Co  Co122  1  0.34975303  0.74959624  0.81572313  1
  Co  Co123  1  0.30031325  -0.04608259  0.05011149  1
  Co  Co124  1  0.29239797  -0.00208124  0.58229208  1
  Co  Co125  1  0.87062993  0.41575165  0.86171191  1
  Co  Co126  1  0.17983152  0.26360062  0.56793037  1
  Co  Co127  1  0.73941276  0.11025667  0.44103818  1
  Co  Co128  1  0.51231883  0.74691434  0.78376856  1
  Co  Co129  1  0.53591194  0.12083267  0.23737692  1
  Co  Co130  1  0.18625013  0.93242091  0.69854714  1
  Co  Co131  1  0.44340749  0.03250380  0.46605975  1
  Co  Co132  1  0.42068124  0.36188282  0.46219642  1
  Co  Co133  1  0.42299058  0.20527040  0.87908293  1
  Co  Co134  1  0.85342267  0.05418845  0.53606529  1
  Co  Co135  1  0.70201218  0.78524881  0.84393666  1
  Co  Co136  1  0.05208644  0.83024824  0.11554572  1
  Co  Co137  1  0.15540261  0.24376538  0.14885629  1
  Co  Co138  1  0.53547712  0.92057062  0.40408660  1
  Co  Co139  1  0.62293470  0.23427324  0.13165228  1
  Co  Co140  1  0.59033005  0.44345203  0.29693677  1
  Co  Co141  1  0.42605088  0.61823809  0.53696800  1
  Co  Co142  1  -0.00348043  0.22881378  0.10793043  1
  Co  Co143  1  0.40816569  0.06297212  0.13271457  1
  Co  Co144  1  0.73265593  0.83759236  0.60627567  1
  Co  Co145  1  0.17933105  0.69696997  0.59910023  1
  Co  Co146  1  -0.03465929  0.25650982  0.36833915  1
  Co  Co147  1  0.54294304  0.06381847  -0.08305927  1
  Co  Co148  1  -0.03209498  0.66677723  0.30113376  1
  Co  Co149  1  -0.00358511  0.68746601  0.60754850  1
  Co  Co150  1  0.34659734  0.23856182  0.53863433  1
  Co  Co151  1  0.23432294  0.34629406  0.85747054  1
  Co  Co152  1  0.11172780  0.65188512  0.85334504  1
  Co  Co153  1  0.72787330  0.39555201  0.37774765  1
  Co  Co154  1  0.87449944  0.39622494  0.29862022  1
  Co  Co155  1  0.42771169  0.03026792  0.81110335  1
  Co  Co156  1  0.67154112  0.30950883  0.59447946  1
  Co  Co157  1  0.71128817  0.58393965  0.64653874  1
  Co  Co158  1  0.90866110  0.13914864  -0.03559330  1
  Co  Co159  1  0.33519765  0.50223829  0.45584270  1
  Co  Co160  1  0.29198075  0.23494732  0.03324128  1
  Co  Co161  1  0.63530449  0.24291556  0.45368059  1
  Ni  Ni162  1  0.63506603  -0.04201180  -0.01273104  1
  Ni  Ni163  1  0.30108704  0.38738502  0.59181827  1
  Ni  Ni164  1  0.61513776  0.68785503  0.38070619  1
  Ni  Ni165  1  0.64739122  0.81115814  0.46788262  1
  Ni  Ni166  1  0.30787098  0.50121217  0.16954651  1
  Ni  Ni167  1  -0.03737284  0.81819695  0.49504375  1
  Ni  Ni168  1  -0.04229450  -0.07583883  0.00128219  1
  Ni  Ni169  1  0.09262354  0.37815466  0.07713418  1
  Ni  Ni170  1  0.84988807  0.33372509  0.57981874  1
  Ni  Ni171  1  0.73888152  0.10242160  0.76061629  1
  Ni  Ni172  1  0.02016328  0.75595744  0.76615858  1
  Ni  Ni173  1  0.51730728  0.47573575  -0.09710571  1
  Ni  Ni174  1  0.16985937  0.47419995  0.52145824  1
  Ni  Ni175  1  0.20761955  -0.03415313  0.44879165  1
  Ni  Ni176  1  0.88286209  -0.00151938  0.87347377  1
  Ni  Ni177  1  0.22682838  0.21149789  0.29806596  1
  Ni  Ni178  1  0.63253903  0.54718930  0.79424038  1
  Ni  Ni179  1  0.18693167  -0.00811820  0.85744437  1
  Ni  Ni180  1  0.33497947  0.63910029  0.07548851  1
  Ni  Ni181  1  -0.01492192  0.08666364  0.64597266  1
  Ni  Ni182  1  0.52968309  0.60885503  0.67926588  1
  Ni  Ni183  1  0.25655681  0.61561204  0.76088160  1
  Ni  Ni184  1  0.34214099  0.47830140  0.89781045  1
  Ni  Ni185  1  0.12378955  0.09548992  0.74725524  1
  Ni  Ni186  1  0.00560924  -0.02119207  0.52030829  1
  Ni  Ni187  1  0.17714124  0.50405604  -0.14127803  1
  Ni  Ni188  1  0.45533912  -0.05878184  0.23174601  1
  Ni  Ni189  1  0.67053431  0.54245813  0.40074492  1
  Ni  Ni190  1  0.20508123  0.08992148  -0.01276533  1
  Ni  Ni191  1  0.07610089  0.88125517  -0.11945285  1
  Ni  Ni192  1  0.51505269  0.37716251  0.17007221  1
  Ni  Ni193  1  0.21461772  0.80951629  0.36355876  1
  Ni  Ni194  1  0.91945898  0.66114265  0.46525014  1
  Ni  Ni195  1  0.21766774  0.04262251  0.30663264  1
  Ni  Ni196  1  0.13060966  0.67272005  0.11248910  1
  Ni  Ni197  1  0.85287473  0.04814080  0.19472640  1
  Ni  Ni198  1  0.63392014  0.22872011  0.73774719  1
  Ni  Ni199  1  0.08626299  0.08043294  0.41724144  1
  Ni  Ni200  1  0.88588212  0.33990026  0.15164992  1
  Ni  Ni201  1  0.93993272  0.67121863  0.89551380  1
  Ni  Ni202  1  0.01671059  0.53506591  0.51796712  1
  Ni  Ni203  1  0.79591288  0.93553091  0.29372296  1
  Ni  Ni204  1  0.46249924  0.19010736  0.73230658  1
  Ni  Ni205  1  0.70942239  0.00077887  0.62787270  1
  Ni  Ni206  1  0.82492405  0.67779873  0.21687398  1
  Ni  Ni207  1  0.53862665  0.32761165  0.82770033  1
  Ni  Ni208  1  -0.00120251  0.53508977  0.82983226  1
  Ni  Ni209  1  0.60432145  0.88432919  0.72402382  1
  Ni  Ni210  1  0.37994567  0.27058998  0.31923788  1
  Ni  Ni211  1  0.38872124  0.78046896  0.14657023  1
  Ni  Ni212  1  -0.04949988  0.24987377  0.67225013  1
  Ni  Ni213  1  0.61500231  0.80058517  -0.00815829  1
  Ni  Ni214  1  0.78440551  0.89629466  -0.03595658  1
