# generated using pymatgen
data_Ti108Co54Ni53
_symmetry_space_group_name_H-M   'P 1'
_cell_length_a   14.61241484
_cell_length_b   14.71427299
_cell_length_c   14.63693091
_cell_angle_alpha   89.65042270
_cell_angle_beta   90.16928653
_cell_angle_gamma   90.07837296
_symmetry_Int_Tables_number   1
_chemical_formula_structural   Ti108Co54Ni53
_chemical_formula_sum   'Ti108 Co54 Ni53'
_cell_volume   3147.02686563
_cell_formula_units_Z   1
loop_
 _symmetry_equiv_pos_site_id
 _symmetry_equiv_pos_as_xyz
  1  'x, y, z'
loop_
 _atom_site_type_symbol
 _atom_site_label
 _atom_site_symmetry_multiplicity
 _atom_site_fract_x
 _atom_site_fract_y
 _atom_site_fract_z
 _atom_site_occupancy
  Ti  Ti0  1  0.11746545  -0.00517574  0.30531687  1
  Ti  Ti1  1  0.03589496  0.02712133  0.59885544  1
  Ti  Ti2  1  0.00627100  0.10769060  0.91367185  1
  Ti  Ti3  1  0.14702059  0.44319063  0.24026637  1
  Ti  Ti4  1  0.02763997  0.41446166  0.68636430  1
  Ti  Ti5  1  0.07761877  0.44283908  0.89560563  1
  Ti  Ti6  1  0.13463699  0.78357348  0.29379493  1
  Ti  Ti7  1  0.13316648  0.73325201  0.52902884  1
  Ti  Ti8  1  0.05732885  0.75262361  0.99131648  1
  Ti  Ti9  1  0.39724848  0.10061662  0.23326657  1
  Ti  Ti10  1  0.42024779  0.19308312  0.65144596  1
  Ti  Ti11  1  0.34064208  0.05420429  0.84901429  1
  Ti  Ti12  1  0.35520480  0.45902441  0.24601899  1
  Ti  Ti13  1  0.36008945  0.40402125  0.57904975  1
  Ti  Ti14  1  0.39871049  0.40959996  0.94060942  1
  Ti  Ti15  1  0.43759459  0.72915832  0.18953186  1
  Ti  Ti16  1  0.44242275  0.70872528  0.50092750  1
  Ti  Ti17  1  0.38253825  0.80482151  0.87596061  1
  Ti  Ti18  1  0.79535932  0.03266839  0.34004899  1
  Ti  Ti19  1  0.76360514  0.11261607  0.58391152  1
  Ti  Ti20  1  0.79521789  0.15107020  0.92978639  1
  Ti  Ti21  1  0.67206274  0.41671926  0.23436594  1
  Ti  Ti22  1  0.73847650  0.39578711  0.54096793  1
  Ti  Ti23  1  0.67542565  0.41929386  0.87664295  1
  Ti  Ti24  1  0.73645832  0.85969217  0.25558463  1
  Ti  Ti25  1  0.78427360  0.71739901  0.59079166  1
  Ti  Ti26  1  0.75879130  0.73403896  0.93558797  1
  Ti  Ti27  1  0.06128605  0.27365170  0.06140680  1
  Ti  Ti28  1  0.06855586  0.23633283  0.33256778  1
  Ti  Ti29  1  0.08562143  0.18355192  0.72281730  1
  Ti  Ti30  1  0.10528944  0.56922873  0.05659359  1
  Ti  Ti31  1  0.10097723  0.57889374  0.41879734  1
  Ti  Ti32  1  0.15177262  0.61572654  0.74046742  1
  Ti  Ti33  1  0.00191885  0.89873567  0.10327107  1
  Ti  Ti34  1  0.02416136  0.88144337  0.44398873  1
  Ti  Ti35  1  0.06238916  0.83911878  0.71694992  1
  Ti  Ti36  1  0.45632520  0.24196754  0.07704495  1
  Ti  Ti37  1  0.38965184  0.24104048  0.46540564  1
  Ti  Ti38  1  0.42579438  0.25290530  0.82873239  1
  Ti  Ti39  1  0.40530556  0.55017106  0.08805847  1
  Ti  Ti40  1  0.39864206  0.53065847  0.43211209  1
  Ti  Ti41  1  0.41418414  0.51701537  0.75930867  1
  Ti  Ti42  1  0.37116626  0.85370175  0.06716642  1
  Ti  Ti43  1  0.47154112  0.94001361  0.44095194  1
  Ti  Ti44  1  0.41164858  0.92033928  0.72797382  1
  Ti  Ti45  1  0.81814635  0.33686042  0.10897440  1
  Ti  Ti46  1  0.83394273  0.30321540  0.37913419  1
  Ti  Ti47  1  0.77488532  0.29228468  0.77026115  1
  Ti  Ti48  1  0.80739585  0.55300045  0.12167390  1
  Ti  Ti49  1  0.71647230  0.60237311  0.34183357  1
  Ti  Ti50  1  0.73836919  0.55271552  0.70023731  1
  Ti  Ti51  1  0.72852469  0.91582352  0.02680151  1
  Ti  Ti52  1  0.73244982  0.92834966  0.50091658  1
  Ti  Ti53  1  0.75014591  1.00823681  0.75877077  1
  Ti  Ti54  1  0.27175488  0.03548374  0.05623760  1
  Ti  Ti55  1  0.24357770  0.14306907  0.38047352  1
  Ti  Ti56  1  0.19697275  -0.01485553  0.73429768  1
  Ti  Ti57  1  0.28893438  0.36706884  0.09416891  1
  Ti  Ti58  1  0.19993118  0.34374111  0.41063503  1
  Ti  Ti59  1  0.19339763  0.33179028  0.77689370  1
  Ti  Ti60  1  0.24990747  0.71934324  0.02865298  1
  Ti  Ti61  1  0.32429010  0.80389458  0.37166364  1
  Ti  Ti62  1  0.25548782  0.79169764  0.71569193  1
  Ti  Ti63  1  0.54959772  0.04890115  0.02866812  1
  Ti  Ti64  1  0.59053261  0.09016172  0.46161907  1
  Ti  Ti65  1  0.53346209  0.08305127  0.78510184  1
  Ti  Ti66  1  0.59562385  0.47313726  0.05337786  1
  Ti  Ti67  1  0.60640121  0.49289991  0.43872773  1
  Ti  Ti68  1  0.59412899  0.41858889  0.68794039  1
  Ti  Ti69  1  0.55962489  0.74489483  -0.03511393  1
  Ti  Ti70  1  0.64088426  0.78474453  0.41005846  1
  Ti  Ti71  1  0.54509904  0.76828727  0.72796292  1
  Ti  Ti72  1  0.94398399  0.07081612  0.08168322  1
  Ti  Ti73  1  0.98771446  0.07590981  0.40744007  1
  Ti  Ti74  1  0.89638925  0.12960185  0.73586123  1
  Ti  Ti75  1  0.97962369  0.45648598  0.14942624  1
  Ti  Ti76  1  0.98475041  0.42815515  0.37588863  1
  Ti  Ti77  1  0.87545191  0.45056149  0.82874328  1
  Ti  Ti78  1  0.85318637  0.75002924  0.10491333  1
  Ti  Ti79  1  0.83976218  0.74328843  0.41113483  1
  Ti  Ti80  1  0.87786436  0.71361681  0.76821351  1
  Ti  Ti81  1  0.34138466  0.27303553  0.26372655  1
  Ti  Ti82  1  0.23283269  0.26251454  0.59877343  1
  Ti  Ti83  1  0.27428477  0.21310981  0.94775171  1
  Ti  Ti84  1  0.26253863  0.62606982  0.26172524  1
  Ti  Ti85  1  0.28812012  0.59973956  0.59755233  1
  Ti  Ti86  1  0.30616004  0.59994880  0.91109961  1
  Ti  Ti87  1  0.28396432  0.94302483  0.22478073  1
  Ti  Ti88  1  0.30298234  0.94139831  0.55495564  1
  Ti  Ti89  1  0.21756483  0.89410127  0.91500671  1
  Ti  Ti90  1  0.53271753  0.24866419  0.33422277  1
  Ti  Ti91  1  0.56529867  0.27660496  0.54868221  1
  Ti  Ti92  1  0.60899243  0.23358497  0.90992767  1
  Ti  Ti93  1  0.52876418  0.55595751  0.25396135  1
  Ti  Ti94  1  0.61312050  0.63774813  0.56020800  1
  Ti  Ti95  1  0.60911961  0.59630842  0.85054459  1
  Ti  Ti96  1  0.55915985  0.88663736  0.19622140  1
  Ti  Ti97  1  0.59857659  0.95233385  0.64433538  1
  Ti  Ti98  1  0.65464814  0.87201638  0.84388080  1
  Ti  Ti99  1  0.89607471  0.17479240  0.23891548  1
  Ti  Ti100  1  0.97517142  0.23127686  0.53906896  1
  Ti  Ti101  1  0.95816770  0.28165320  0.87008861  1
  Ti  Ti102  1  0.90989502  0.60458646  0.28018309  1
  Ti  Ti103  1  0.91855465  0.55430441  0.59898315  1
  Ti  Ti104  1  0.93185813  0.59729510  0.94873285  1
  Ti  Ti105  1  0.92929524  0.83663757  0.26885098  1
  Ti  Ti106  1  0.90330595  0.86340732  0.59089665  1
  Ti  Ti107  1  0.99274147  0.90640175  0.87401835  1
  Co  Co108  1  0.69527042  0.15317457  0.77292677  1
  Co  Co109  1  0.16373569  0.68966589  0.15010333  1
  Co  Co110  1  0.48657580  0.54982109  -0.05845279  1
  Co  Co111  1  0.28352849  0.78483605  0.20387267  1
  Co  Co112  1  0.83622359  0.41324879  0.67254197  1
  Co  Co113  1  0.17114890  0.28784916  0.20808106  1
  Co  Co114  1  0.43923322  -0.01765067  0.13478062  1
  Co  Co115  1  0.04895712  0.16136098  0.18612809  1
  Co  Co116  1  0.26610389  0.65041443  0.44079915  1
  Co  Co117  1  0.68796000  0.60290500  0.00032550  1
  Co  Co118  1  0.67411303  0.76782652  0.09926590  1
  Co  Co119  1  0.55451351  0.88926871  0.02739011  1
  Co  Co120  1  0.44995700  0.66618860  0.83442054  1
  Co  Co121  1  0.56738492  0.26081700  0.74436827  1
  Co  Co122  1  0.34382261  0.05980110  0.68427173  1
  Co  Co123  1  0.14227145  0.13581168  0.03484130  1
  Co  Co124  1  0.91859670  0.39862251  0.52210241  1
  Co  Co125  1  -0.04155304  0.00925383  0.25325832  1
  Co  Co126  1  0.02944131  0.72758685  0.83255351  1
  Co  Co127  1  -0.02858585  0.31866780  0.23480963  1
  Co  Co128  1  0.15299137  0.02533874  0.46866215  1
  Co  Co129  1  0.70259476  0.70805044  0.75127495  1
  Co  Co130  1  0.69102982  0.25849704  0.64085656  1
  Co  Co131  1  0.25762120  0.18105386  0.75896264  1
  Co  Co132  1  0.02507282  0.75276462  0.16686922  1
  Co  Co133  1  0.90969885  0.58333559  0.44083652  1
  Co  Co134  1  0.52105944  0.39974645  0.83704527  1
  Co  Co135  1  0.83039629  0.26608627  0.57438051  1
  Co  Co136  1  0.19055637  0.87734613  0.41850664  1
  Co  Co137  1  0.80138317  0.31390409  0.93838401  1
  Co  Co138  1  0.24308761  0.49845908  0.36259139  1
  Co  Co139  1  -0.03833459  0.62458429  0.10799940  1
  Co  Co140  1  0.65271604  0.35240698  0.38205747  1
  Co  Co141  1  0.88595710  0.01638162  0.52244762  1
  Co  Co142  1  0.90896160  0.22453228  0.04087255  1
  Co  Co143  1  0.41458565  0.69234057  0.00759628  1
  Co  Co144  1  0.01048246  0.71149852  0.36809958  1
  Co  Co145  1  0.84678749  0.15379956  0.43520457  1
  Co  Co146  1  0.20204542  0.74338692  0.85972503  1
  Co  Co147  1  0.43766366  0.10781459  0.39040835  1
  Co  Co148  1  -0.06432504  0.28576248  0.70359380  1
  Co  Co149  1  0.46848852  0.02416233  0.58531704  1
  Co  Co150  1  0.04476820  0.02803392  0.76947108  1
  Co  Co151  1  0.50435005  0.40075124  0.30279143  1
  Co  Co152  1  0.35369246  0.37796727  0.38927861  1
  Co  Co153  1  0.25028887  0.53584618  0.11660286  1
  Co  Co154  1  0.13351545  0.41328220  0.07063288  1
  Co  Co155  1  0.86714372  0.90569766  0.40193083  1
  Co  Co156  1  0.77540540  0.70912555  0.23931921  1
  Co  Co157  1  0.40579374  0.65695020  0.33241663  1
  Co  Co158  1  0.55460266  0.64646132  0.39189170  1
  Co  Co159  1  0.40386723  -0.02838097  -0.02970923  1
  Co  Co160  1  0.67138514  0.58872677  0.17694462  1
  Co  Co161  1  0.60761371  0.72472282  0.24815283  1
  Ni  Ni162  1  -0.05953892  0.40754369  -0.00608424  1
  Ni  Ni163  1  0.08930740  0.56138734  0.59229714  1
  Ni  Ni164  1  0.74857445  0.85739360  0.67787131  1
  Ni  Ni165  1  0.78025886  0.58615813  0.85977631  1
  Ni  Ni166  1  0.45749105  0.84720575  0.58975487  1
  Ni  Ni167  1  -0.03554046  0.71588399  0.52328120  1
  Ni  Ni168  1  0.01247902  0.68810618  0.66992827  1
  Ni  Ni169  1  0.11333835  0.01390149  0.14476233  1
  Ni  Ni170  1  0.47343227  0.39224061  0.13806777  1
  Ni  Ni171  1  0.66320354  0.04252776  -0.09546895  1
  Ni  Ni172  1  0.08773201  0.36310512  0.53505137  1
  Ni  Ni173  1  0.34997323  0.36109507  0.73625607  1
  Ni  Ni174  1  0.29694543  0.77545059  0.55263071  1
  Ni  Ni175  1  0.20338222  0.45806354  0.66707402  1
  Ni  Ni176  1  0.49254231  0.80471335  0.33785684  1
  Ni  Ni177  1  0.66551578  0.32655266  0.03988419  1
  Ni  Ni178  1  0.62842365  -0.04582404  0.36142203  1
  Ni  Ni179  1  0.82005291  0.85654316  0.82850913  1
  Ni  Ni180  1  0.54995960  0.64432014  0.09477673  1
  Ni  Ni181  1  0.51204627  -0.06227917  0.86236050  1
  Ni  Ni182  1  0.19622055  0.09792148  0.61401306  1
  Ni  Ni183  1  0.44455329  0.14019082  -0.05289236  1
  Ni  Ni184  1  0.21027215  0.47595740  0.51177051  1
  Ni  Ni185  1  0.84093391  -0.05726952  0.15135114  1
  Ni  Ni186  1  0.17323087  0.07955562  0.87538405  1
  Ni  Ni187  1  -0.09182806  -0.04553733  0.72596163  1
  Ni  Ni188  1  -0.01232054  0.56743579  0.78164231  1
  Ni  Ni189  1  0.75869189  0.56845284  0.51839003  1
  Ni  Ni190  1  0.48704006  0.51108637  0.58221680  1
  Ni  Ni191  1  0.80065918  0.46611748  0.40040203  1
  Ni  Ni192  1  0.12525715  0.18984319  0.49462092  1
  Ni  Ni193  1  0.14617033  0.89356696  0.58195902  1
  Ni  Ni194  1  0.22576186  0.37436540  -0.06161659  1
  Ni  Ni195  1  0.21073890  0.11956218  0.22355287  1
  Ni  Ni196  1  0.09940221  -0.02119378  -0.01154386  1
  Ni  Ni197  1  0.31124321  -0.00981644  0.38445497  1
  Ni  Ni198  1  0.54482571  0.60366094  0.70186345  1
  Ni  Ni199  1  0.62656395  0.80364328  0.57587286  1
  Ni  Ni200  1  0.39395006  0.70448999  0.68094938  1
  Ni  Ni201  1  0.11910096  0.23740540  0.89360818  1
  Ni  Ni202  1  0.17737960  0.86291217  0.09654325  1
  Ni  Ni203  1  0.25368259  0.48439966  0.81713818  1
  Ni  Ni204  1  0.88206198  0.85483514  -0.01661009  1
  Ni  Ni205  1  0.32997511  0.09819860  0.52032593  1
  Ni  Ni206  1  0.59395693  0.12611109  0.63474780  1
  Ni  Ni207  1  0.49181095  0.38639827  0.46548683  1
  Ni  Ni208  1  0.11546382  0.60612858  0.89946489  1
  Ni  Ni209  1  0.06943812  0.59910878  0.24857598  1
  Ni  Ni210  1  0.85083014  0.00093659  0.90112063  1
  Ni  Ni211  1  0.78511903  0.46854962  -0.01119480  1
  Ni  Ni212  1  0.84677097  0.43387673  0.25092362  1
  Ni  Ni213  1  0.70046936  0.22266213  0.46402728  1
  Ni  Ni214  1  0.29307777  0.19879231  0.11360528  1
