# generated using pymatgen
data_Ti108Co54Ni53
_symmetry_space_group_name_H-M   'P 1'
_cell_length_a   14.66808267
_cell_length_b   14.68370949
_cell_length_c   14.60985630
_cell_angle_alpha   90.25769131
_cell_angle_beta   89.74509812
_cell_angle_gamma   89.81299068
_symmetry_Int_Tables_number   1
_chemical_formula_structural   Ti108Co54Ni53
_chemical_formula_sum   'Ti108 Co54 Ni53'
_cell_volume   3146.61815964
_cell_formula_units_Z   1
loop_
 _symmetry_equiv_pos_site_id
 _symmetry_equiv_pos_as_xyz
  1  'x, y, z'
loop_
 _atom_site_type_symbol
 _atom_site_label
 _atom_site_symmetry_multiplicity
 _atom_site_fract_x
 _atom_site_fract_y
 _atom_site_fract_z
 _atom_site_occupancy
  Ti  Ti0  1  0.08336652  0.02100495  0.32956361  1
  Ti  Ti1  1  0.09855841  0.00884054  0.62222928  1
  Ti  Ti2  1  0.01086175  0.07084590  0.94112633  1
  Ti  Ti3  1  0.09858255  0.40676990  0.31401116  1
  Ti  Ti4  1  0.08974378  0.35118745  0.50822431  1
  Ti  Ti5  1  0.17404316  0.42682286  0.94607911  1
  Ti  Ti6  1  -0.02781060  0.69227225  0.27182422  1
  Ti  Ti7  1  0.07777367  0.68619863  0.56471968  1
  Ti  Ti8  1  -0.01220305  0.70320469  0.97856006  1
  Ti  Ti9  1  0.34925256  0.09967741  0.19486549  1
  Ti  Ti10  1  0.41077936  0.09877578  0.65915671  1
  Ti  Ti11  1  0.43082043  0.09104455  0.85979113  1
  Ti  Ti12  1  0.41001819  0.39767645  0.26936031  1
  Ti  Ti13  1  0.51335295  0.38342414  0.53139680  1
  Ti  Ti14  1  0.45398954  0.35954675  0.87916229  1
  Ti  Ti15  1  0.45366241  0.71198654  0.25938471  1
  Ti  Ti16  1  0.43877637  0.80595791  0.56232507  1
  Ti  Ti17  1  0.39959977  0.71086298  0.90190413  1
  Ti  Ti18  1  0.83155613  -0.00041891  0.28844908  1
  Ti  Ti19  1  0.77236557  0.12656124  0.60304643  1
  Ti  Ti20  1  0.76390832  0.13722263  0.88321428  1
  Ti  Ti21  1  0.69064833  0.43812807  0.20622427  1
  Ti  Ti22  1  0.79001935  0.42471147  0.60685077  1
  Ti  Ti23  1  0.76123477  0.51282746  0.87963932  1
  Ti  Ti24  1  0.73119190  0.81348550  0.23626875  1
  Ti  Ti25  1  0.75390929  0.78574244  0.60109197  1
  Ti  Ti26  1  0.80513628  0.79356025  0.86948706  1
  Ti  Ti27  1  0.04941531  0.25471550  0.02074443  1
  Ti  Ti28  1  0.09354812  0.21342389  0.35660572  1
  Ti  Ti29  1  0.07794508  0.34778333  0.71281034  1
  Ti  Ti30  1  0.06876566  0.55066992  0.05840977  1
  Ti  Ti31  1  0.12847523  0.61059408  0.37664553  1
  Ti  Ti32  1  0.13185607  0.66830852  0.76150588  1
  Ti  Ti33  1  0.04477821  0.96730578  0.11535538  1
  Ti  Ti34  1  0.11191255  0.82067399  0.40177963  1
  Ti  Ti35  1  -0.01837733  0.93253548  0.76764733  1
  Ti  Ti36  1  0.42627123  0.29290497  0.10120442  1
  Ti  Ti37  1  0.38219861  0.21453986  0.48577135  1
  Ti  Ti38  1  0.40761913  0.31683162  0.67167510  1
  Ti  Ti39  1  0.49221344  0.63922473  0.08716882  1
  Ti  Ti40  1  0.44979364  0.53634417  0.40197867  1
  Ti  Ti41  1  0.35456983  0.53855400  0.72302940  1
  Ti  Ti42  1  0.45018031  0.91533094  0.20211908  1
  Ti  Ti43  1  0.47090873  0.88491566  0.39524421  1
  Ti  Ti44  1  0.38724914  0.89492507  0.80291007  1
  Ti  Ti45  1  0.72843730  0.20450129  0.06107323  1
  Ti  Ti46  1  0.68569648  0.22745895  0.43325126  1
  Ti  Ti47  1  0.75773557  0.24941134  0.73291638  1
  Ti  Ti48  1  0.77342597  0.54214003  0.05935394  1
  Ti  Ti49  1  0.73945193  0.53141209  0.43166615  1
  Ti  Ti50  1  0.65837742  0.57826439  0.72199279  1
  Ti  Ti51  1  0.69015325  0.97723086  0.11439402  1
  Ti  Ti52  1  0.74956321  0.89273811  0.43437465  1
  Ti  Ti53  1  0.72307055  0.97917854  0.77967790  1
  Ti  Ti54  1  0.17063877  0.12599303  0.08300065  1
  Ti  Ti55  1  0.25806917  0.09597161  0.41236902  1
  Ti  Ti56  1  0.25208725  0.04627259  0.76098051  1
  Ti  Ti57  1  0.21879374  0.40563702  0.14719347  1
  Ti  Ti58  1  0.25057734  0.45429652  0.45173964  1
  Ti  Ti59  1  0.25233052  0.34059746  0.76679013  1
  Ti  Ti60  1  0.19153043  0.72256123  0.08832123  1
  Ti  Ti61  1  0.30645549  0.77243515  0.39269103  1
  Ti  Ti62  1  0.31580447  0.72711578  0.68634316  1
  Ti  Ti63  1  0.54535447  0.11210116  0.06071437  1
  Ti  Ti64  1  0.53298263  0.10678725  0.40003147  1
  Ti  Ti65  1  0.60784574  0.12077074  0.73750650  1
  Ti  Ti66  1  0.55921994  0.45648254  0.02488409  1
  Ti  Ti67  1  0.59558260  0.41444316  0.36409162  1
  Ti  Ti68  1  0.59892839  0.36025543  0.71774704  1
  Ti  Ti69  1  0.68092195  0.73982640  0.06019880  1
  Ti  Ti70  1  0.62236391  0.73639526  0.44734352  1
  Ti  Ti71  1  0.51791341  0.75985483  0.76070153  1
  Ti  Ti72  1  0.88685001  0.12286764  0.14181635  1
  Ti  Ti73  1  0.92363515  0.12963294  0.41078946  1
  Ti  Ti74  1  0.91385698  0.11929230  0.75843780  1
  Ti  Ti75  1  0.88739793  0.39261325  0.08026734  1
  Ti  Ti76  1  0.91528274  0.44522151  0.43458139  1
  Ti  Ti77  1  0.94719319  0.45383055  0.79427265  1
  Ti  Ti78  1  0.86681900  0.78108103  0.11025086  1
  Ti  Ti79  1  0.93594231  0.76873918  0.46336220  1
  Ti  Ti80  1  0.95126437  0.75970073  0.67585592  1
  Ti  Ti81  1  0.26617886  0.28343890  0.30491752  1
  Ti  Ti82  1  0.22118226  0.19943613  0.62230810  1
  Ti  Ti83  1  0.28323647  0.25322902  0.95343986  1
  Ti  Ti84  1  0.29464977  0.62024973  0.21825907  1
  Ti  Ti85  1  0.19228629  0.52324037  0.62110417  1
  Ti  Ti86  1  0.25082257  0.59965468  0.90941678  1
  Ti  Ti87  1  0.26447073  0.93135823  0.30428366  1
  Ti  Ti88  1  0.22523355  0.85780931  0.57204769  1
  Ti  Ti89  1  0.15786897  0.89000223  0.85591438  1
  Ti  Ti90  1  0.61045382  0.24604019  0.24190721  1
  Ti  Ti91  1  0.54958527  0.19186331  0.57906486  1
  Ti  Ti92  1  0.64838482  0.31502346  0.89888062  1
  Ti  Ti93  1  0.64346692  0.63007899  0.28931057  1
  Ti  Ti94  1  0.52610114  0.60391665  0.57834451  1
  Ti  Ti95  1  0.60873825  0.63254706  0.91877725  1
  Ti  Ti96  1  0.61861936  0.96273389  0.29571349  1
  Ti  Ti97  1  0.55321010  0.93905320  0.65826484  1
  Ti  Ti98  1  0.61765415  0.86514093  0.91795361  1
  Ti  Ti99  1  0.94938785  0.28652455  0.22990977  1
  Ti  Ti100  1  0.94961543  0.25084979  0.58016913  1
  Ti  Ti101  1  0.85586215  0.31785211  0.90204343  1
  Ti  Ti102  1  0.97149072  0.51269192  0.23608539  1
  Ti  Ti103  1  0.89311056  0.60228917  0.57265044  1
  Ti  Ti104  1  0.92014383  0.63933507  0.81222276  1
  Ti  Ti105  1  0.98354432  0.87584892  0.25879971  1
  Ti  Ti106  1  0.89635554  0.93261482  0.58859979  1
  Ti  Ti107  1  0.93866106  0.89713967  0.97278506  1
  Co  Co108  1  0.18528135  -0.00197553  0.18498855  1
  Co  Co109  1  0.50369719  0.47937485  0.68465077  1
  Co  Co110  1  0.38268406  0.36528917  0.42757390  1
  Co  Co111  1  -0.00639751  0.23114748  0.84310601  1
  Co  Co112  1  0.71286404  0.61982725  0.57552533  1
  Co  Co113  1  0.22015845  0.26772674  0.45983651  1
  Co  Co114  1  0.83224005  0.86693065  0.72677939  1
  Co  Co115  1  0.90525365  0.30983824  0.72585365  1
  Co  Co116  1  0.85943947  -0.01672427  0.86078124  1
  Co  Co117  1  -0.03690685  0.60297750  0.41585882  1
  Co  Co118  1  0.04601872  0.86275168  0.55477093  1
  Co  Co119  1  0.13965027  0.71533061  0.92494917  1
  Co  Co120  1  0.33333049  0.40463742  0.01146313  1
  Co  Co121  1  0.54322324  0.38023259  0.17884425  1
  Co  Co122  1  0.15937388  -0.03195830  0.46352036  1
  Co  Co123  1  0.34087046  0.65585127  0.04703898  1
  Co  Co124  1  0.42314996  0.21400857  0.28644272  1
  Co  Co125  1  0.81509270  0.66858838  -0.03168130  1
  Co  Co126  1  0.17537586  0.49492260  0.77916403  1
  Co  Co127  1  0.85477968  0.81515807  0.33215383  1
  Co  Co128  1  0.37937022  0.47237915  0.56540880  1
  Co  Co129  1  0.20008540  0.13851677  0.25354811  1
  Co  Co130  1  0.75471977  0.35027804  0.35044179  1
  Co  Co131  1  0.02832851  0.56099578  0.69049156  1
  Co  Co132  1  0.41795415  0.78698719  0.10276477  1
  Co  Co133  1  0.78705382  0.29452808  0.18770786  1
  Co  Co134  1  0.52186192  0.27212421  0.39945687  1
  Co  Co135  1  0.76638664  0.88553619  0.00153039  1
  Co  Co136  1  0.13109419  0.57324316  0.20910548  1
  Co  Co137  1  0.59857082  0.16579321  0.90275589  1
  Co  Co138  1  0.43638558  0.54072047  -0.05017674  1
  Co  Co139  1  0.26311713  0.76936063  0.82756831  1
  Co  Co140  1  0.46769053  0.01290979  0.52515337  1
  Co  Co141  1  0.58800850  0.47473263  0.85354935  1
  Co  Co142  1  0.83486080  0.62754145  0.32416256  1
  Co  Co143  1  0.81607263  0.19694246  0.31232865  1
  Co  Co144  1  0.89669473  0.18362982  -0.01972765  1
  Co  Co145  1  0.13258675  0.29256934  0.87094111  1
  Co  Co146  1  0.59609060  0.75207687  0.61770132  1
  Co  Co147  1  0.45574814  0.21712297  0.95561760  1
  Co  Co148  1  0.57932362  0.80058480  0.28906245  1
  Co  Co149  1  0.32848688  0.19561335  0.78231297  1
  Co  Co150  1  0.72787296  -0.04660304  0.61816482  1
  Co  Co151  1  0.49609498  0.22903614  0.77757064  1
  Co  Co152  1  0.58223654  0.27686763  0.04813810  1
  Co  Co153  1  0.23541242  0.54468212  0.07147798  1
  Co  Co154  1  0.78192768  0.69429067  0.73070278  1
  Co  Co155  1  0.12131389  0.26826039  0.18876171  1
  Co  Co156  1  0.76039978  0.40607853  0.76975356  1
  Co  Co157  1  0.57914936  0.85323421  0.12322540  1
  Co  Co158  1  0.83343376  0.54507689  0.70905117  1
  Co  Co159  1  0.52258987  0.76793470  -0.01698660  1
  Co  Co160  1  0.32946843  0.93501669  0.46538446  1
  Co  Co161  1  0.63950278  0.47282731  0.56363680  1
  Ni  Ni162  1  -0.04762152  0.08619960  0.58298773  1
  Ni  Ni163  1  0.70852845  0.07747435  0.37195498  1
  Ni  Ni164  1  -0.04700627  0.29576303  0.39247502  1
  Ni  Ni165  1  0.10064877  0.13964079  0.50985117  1
  Ni  Ni166  1  0.63494696  0.58336491  0.12897255  1
  Ni  Ni167  1  0.70834844  0.11499784  0.21053359  1
  Ni  Ni168  1  0.30315764  0.79529697  0.21530150  1
  Ni  Ni169  1  0.65681655  0.02498588  -0.04519070  1
  Ni  Ni170  1  -0.05004032  -0.06012190  0.41848800  1
  Ni  Ni171  1  0.25164174  0.48043959  0.29353653  1
  Ni  Ni172  1  0.16826361  0.13913956  -0.09126891  1
  Ni  Ni173  1  0.51484052  0.53218387  0.23759027  1
  Ni  Ni174  1  0.64041584  0.05384870  0.52418998  1
  Ni  Ni175  1  0.26317558  0.04262157  0.57881187  1
  Ni  Ni176  1  0.67065381  0.82092933  0.75241107  1
  Ni  Ni177  1  0.86450154  -0.05618638  0.13595898  1
  Ni  Ni178  1  0.25935696  0.36114987  0.59324608  1
  Ni  Ni179  1  0.04090743  0.12291433  0.20178218  1
  Ni  Ni180  1  0.82231884  0.29371878  0.49373662  1
  Ni  Ni181  1  0.15167967  0.73680591  0.26042073  1
  Ni  Ni182  1  0.91517807  0.53264203  -0.04330639  1
  Ni  Ni183  1  0.68132345  0.29435669  0.58647277  1
  Ni  Ni184  1  0.04889748  0.39883558  0.13008673  1
  Ni  Ni185  1  0.81596487  0.03149452  0.48110038  1
  Ni  Ni186  1  0.22399414  0.69395658  0.51302209  1
  Ni  Ni187  1  0.36492482  0.63165152  0.54970737  1
  Ni  Ni188  1  0.27499402  0.24423325  0.13294995  1
  Ni  Ni189  1  0.06341614  0.17729577  0.68251518  1
  Ni  Ni190  1  0.06074502  0.51911300  0.51309987  1
  Ni  Ni191  1  -0.03871661  0.42746469  0.61122487  1
  Ni  Ni192  1  0.32113906  0.45296824  0.85857921  1
  Ni  Ni193  1  0.01598485  0.78896724  0.83845252  1
  Ni  Ni194  1  0.39616220  0.49935921  0.12291161  1
  Ni  Ni195  1  0.30711971  0.61041356  0.39117312  1
  Ni  Ni196  1  0.06484071  0.55957038  0.88406082  1
  Ni  Ni197  1  0.78609298  0.70231497  0.45166820  1
  Ni  Ni198  1  0.10003471  0.85083857  0.00668068  1
  Ni  Ni199  1  0.11826125  0.82472473  0.70050987  1
  Ni  Ni200  1  0.49161729  0.60014850  0.79616687  1
  Ni  Ni201  1  0.52043666  0.08257078  0.22595469  1
  Ni  Ni202  1  0.82922659  0.46828171  0.28079427  1
  Ni  Ni203  1  0.00970611  0.39786711  -0.05285158  1
  Ni  Ni204  1  -0.08030146  0.61692673  0.11020203  1
  Ni  Ni205  1  0.77527302  0.65239482  0.18309469  1
  Ni  Ni206  1  0.59955105  0.89352560  0.50730888  1
  Ni  Ni207  1  0.71969816  0.37483815  0.04596034  1
  Ni  Ni208  1  0.40462806  0.03282757  0.34080939  1
  Ni  Ni209  1  0.08914188  0.05708866  0.79208988  1
  Ni  Ni210  1  0.46274895  0.70049846  0.42710342  1
  Ni  Ni211  1  0.54638843  -0.02322843  0.82076374  1
  Ni  Ni212  1  0.36522436  -0.06826671  0.64507677  1
  Ni  Ni213  1  -0.18106055  0.04088742  0.00980291  1
  Ni  Ni214  1  0.03509505  0.76287344  0.13410246  1
