# generated using pymatgen
data_Ti108Co54Ni53
_symmetry_space_group_name_H-M   'P 1'
_cell_length_a   14.68527295
_cell_length_b   14.61798315
_cell_length_c   14.69683594
_cell_angle_alpha   90.36598678
_cell_angle_beta   90.02669049
_cell_angle_gamma   90.08315427
_symmetry_Int_Tables_number   1
_chemical_formula_structural   Ti108Co54Ni53
_chemical_formula_sum   'Ti108 Co54 Ni53'
_cell_volume   3154.88809733
_cell_formula_units_Z   1
loop_
 _symmetry_equiv_pos_site_id
 _symmetry_equiv_pos_as_xyz
  1  'x, y, z'
loop_
 _atom_site_type_symbol
 _atom_site_label
 _atom_site_symmetry_multiplicity
 _atom_site_fract_x
 _atom_site_fract_y
 _atom_site_fract_z
 _atom_site_occupancy
  Ti  Ti0  1  0.07895166  0.11602271  0.22417655  1
  Ti  Ti1  1  0.11609711  0.08518909  0.56434553  1
  Ti  Ti2  1  0.10260284  0.09366967  0.88285941  1
  Ti  Ti3  1  0.13351415  0.41857952  0.29911187  1
  Ti  Ti4  1  0.13707421  0.48223791  0.60955945  1
  Ti  Ti5  1  0.07242029  0.34427531  0.90398899  1
  Ti  Ti6  1  0.04674082  0.77438542  0.29009308  1
  Ti  Ti7  1  0.04754904  0.66542372  0.58247887  1
  Ti  Ti8  1  0.10006159  0.79207410  0.97648606  1
  Ti  Ti9  1  0.34054476  0.09666678  0.23523154  1
  Ti  Ti10  1  0.44128936  0.12789887  0.56158638  1
  Ti  Ti11  1  0.40040054  0.01778585  0.89449517  1
  Ti  Ti12  1  0.43424225  0.45522774  0.22648117  1
  Ti  Ti13  1  0.40895271  0.33554491  0.53458322  1
  Ti  Ti14  1  0.40240501  0.42545527  1.00245025  1
  Ti  Ti15  1  0.36762101  0.74558514  0.26717680  1
  Ti  Ti16  1  0.37240540  0.79851025  0.60853284  1
  Ti  Ti17  1  0.32918074  0.77831115  0.94910063  1
  Ti  Ti18  1  0.78090790  0.00326157  0.28902181  1
  Ti  Ti19  1  0.76851152  0.08526283  0.60258676  1
  Ti  Ti20  1  0.75497971  0.17027164  0.88794050  1
  Ti  Ti21  1  0.73756409  0.36435994  0.21005765  1
  Ti  Ti22  1  0.71085521  0.45702255  0.62577825  1
  Ti  Ti23  1  0.87870520  0.34010163  0.94262409  1
  Ti  Ti24  1  0.79890500  0.72569701  0.32127062  1
  Ti  Ti25  1  0.78218176  0.73750309  0.53086052  1
  Ti  Ti26  1  0.79029176  0.71876962  0.85004042  1
  Ti  Ti27  1  0.15616600  0.22740839  0.04806316  1
  Ti  Ti28  1  0.04896558  0.25285941  0.39746991  1
  Ti  Ti29  1  0.04997145  0.27074931  0.59008264  1
  Ti  Ti30  1  0.07600766  0.59425588  0.09009558  1
  Ti  Ti31  1  0.03584335  0.53184563  0.42078771  1
  Ti  Ti32  1  0.11590741  0.63267480  0.77231408  1
  Ti  Ti33  1  0.06831578  0.91702657  0.14711500  1
  Ti  Ti34  1  0.10854051  0.92731728  0.43577807  1
  Ti  Ti35  1  0.04072360  0.92079107  0.79032706  1
  Ti  Ti36  1  0.37295179  0.23600340  0.08137250  1
  Ti  Ti37  1  0.39340462  0.19610139  0.38731634  1
  Ti  Ti38  1  0.35244951  0.26409295  0.71057099  1
  Ti  Ti39  1  0.33300994  0.59347481  0.11426394  1
  Ti  Ti40  1  0.36572794  0.64180931  0.46055284  1
  Ti  Ti41  1  0.41285093  0.45936866  0.69135430  1
  Ti  Ti42  1  0.49968508  1.04668461  0.12174804  1
  Ti  Ti43  1  0.43239976  0.83602809  0.42497149  1
  Ti  Ti44  1  0.40857159  0.98193794  0.69764924  1
  Ti  Ti45  1  0.71070213  0.31112495  0.02575368  1
  Ti  Ti46  1  0.71336329  0.30255538  0.39569487  1
  Ti  Ti47  1  0.74563577  0.34976720  0.78777260  1
  Ti  Ti48  1  0.76220207  0.63098346  0.13515671  1
  Ti  Ti49  1  0.65384578  0.60587280  0.43034728  1
  Ti  Ti50  1  0.82981092  0.59554081  0.69659533  1
  Ti  Ti51  1  0.67037462  0.89603530  0.10797951  1
  Ti  Ti52  1  0.71768283  0.92232544  0.49507018  1
  Ti  Ti53  1  0.77274663  0.98509453  0.78969999  1
  Ti  Ti54  1  0.19810003  0.03751601  0.07754640  1
  Ti  Ti55  1  0.27474417  0.04850714  0.43741240  1
  Ti  Ti56  1  0.27622408  0.10218860  0.76526901  1
  Ti  Ti57  1  0.16440103  0.41345863  0.09268647  1
  Ti  Ti58  1  0.29184441  0.44975180  0.40613952  1
  Ti  Ti59  1  0.19982179  0.38386757  0.76804301  1
  Ti  Ti60  1  0.20390934  0.74332672  0.15109862  1
  Ti  Ti61  1  0.24085112  0.77833930  0.41200832  1
  Ti  Ti62  1  0.31189461  0.69288132  0.76741452  1
  Ti  Ti63  1  0.66694579  0.11736332  0.06226762  1
  Ti  Ti64  1  0.63476601  0.11068712  0.41785896  1
  Ti  Ti65  1  0.61683536  0.10901677  0.74860701  1
  Ti  Ti66  1  0.55591586  0.36164938  0.12460789  1
  Ti  Ti67  1  0.49214479  0.49610316  0.43300364  1
  Ti  Ti68  1  0.58431263  0.47649550  0.80342922  1
  Ti  Ti69  1  0.57140769  0.71328958  0.09593057  1
  Ti  Ti70  1  0.61548314  0.78915417  0.40043531  1
  Ti  Ti71  1  0.64127195  0.83385469  0.76586754  1
  Ti  Ti72  1  0.91098446  0.01966773  0.05073560  1
  Ti  Ti73  1  0.94560690  0.08951884  0.36627290  1
  Ti  Ti74  1  0.95555076  0.09932410  0.70106141  1
  Ti  Ti75  1  0.86343326  0.45754952  0.09295162  1
  Ti  Ti76  1  0.84250327  0.41715690  0.45583574  1
  Ti  Ti77  1  0.90181630  0.45510288  0.80392075  1
  Ti  Ti78  1  0.91358412  0.73029073  0.02539322  1
  Ti  Ti79  1  0.95695296  0.79404230  0.46899120  1
  Ti  Ti80  1  0.92123337  0.77783628  0.69125053  1
  Ti  Ti81  1  0.28378817  0.30289065  0.23749669  1
  Ti  Ti82  1  0.22326104  0.25905976  0.45779692  1
  Ti  Ti83  1  0.35711757  0.24470468  0.90011057  1
  Ti  Ti84  1  0.20719462  0.60965261  0.30020171  1
  Ti  Ti85  1  0.23095809  0.66542385  0.59896688  1
  Ti  Ti86  1  0.20637393  0.51839969  0.91826403  1
  Ti  Ti87  1  0.32918255  0.91401489  0.17502632  1
  Ti  Ti88  1  0.21203725  0.89328814  0.68111107  1
  Ti  Ti89  1  0.22411503  0.94044322  0.88812202  1
  Ti  Ti90  1  0.62548819  0.21075673  0.23435346  1
  Ti  Ti91  1  0.59403519  0.29280412  0.54246538  1
  Ti  Ti92  1  0.54475946  0.26912210  0.94742143  1
  Ti  Ti93  1  0.61351594  0.53443136  0.23144053  1
  Ti  Ti94  1  0.59055474  0.62055111  0.62687965  1
  Ti  Ti95  1  0.65624854  0.58409921  0.96315996  1
  Ti  Ti96  1  0.49185780  0.93838841  0.27201327  1
  Ti  Ti97  1  0.53252815  0.95191978  0.53795707  1
  Ti  Ti98  1  0.58553647  0.96879144  0.94536028  1
  Ti  Ti99  1  0.90661407  0.26616478  0.25716973  1
  Ti  Ti100  1  0.84833168  0.26845051  0.59917424  1
  Ti  Ti101  1  0.96424429  0.18502303  0.94568411  1
  Ti  Ti102  1  0.88731434  0.52123024  0.27767943  1
  Ti  Ti103  1  0.89930233  0.57607582  0.53480108  1
  Ti  Ti104  1  0.87181970  0.56941725  0.94502558  1
  Ti  Ti105  1  0.88549576  0.85923237  0.20726261  1
  Ti  Ti106  1  0.90590371  0.95034482  0.56163276  1
  Ti  Ti107  1  0.89011040  0.88011339  0.90000424  1
  Co  Co108  1  0.72873507  0.54907409  0.80545289  1
  Co  Co109  1  0.35274310  0.07639347  0.06433539  1
  Co  Co110  1  0.29883405  0.18912422  0.56933700  1
  Co  Co111  1  0.61817382  0.25639630  0.81415469  1
  Co  Co112  1  0.36744362  0.57908894  0.30875001  1
  Co  Co113  1  -0.00003641  0.76725720  0.85113305  1
  Co  Co114  1  0.94284358  0.62859427  0.80746419  1
  Co  Co115  1  0.82556646  0.15974426  0.02802842  1
  Co  Co116  1  0.52651509  0.78557867  0.23934236  1
  Co  Co117  1  0.63867728  0.80368013  0.57890369  1
  Co  Co118  1  0.01170765  0.32153838  0.05937288  1
  Co  Co119  1  0.47463625  0.63328980  0.19962433  1
  Co  Co120  1  -0.01495427  0.40188679  0.52802551  1
  Co  Co121  1  0.05672026  0.49453250  0.83628472  1
  Co  Co122  1  0.03079861  -0.04795341  0.29945189  1
  Co  Co123  1  0.19357758  0.85033469  0.27365621  1
  Co  Co124  1  0.59765576  0.36054696  0.69526735  1
  Co  Co125  1  0.92613541  0.03464743  0.20702389  1
  Co  Co126  1  0.51285909  0.87399137  0.10750017  1
  Co  Co127  1  0.51159371  0.84946082  0.66642409  1
  Co  Co128  1  0.64889089  0.68911187  0.25689893  1
  Co  Co129  1  0.83297358  0.87229885  0.39370560  1
  Co  Co130  1  0.00913348  0.47412651  -0.00376672  1
  Co  Co131  1  0.89339360  0.25554929  0.44287715  1
  Co  Co132  1  0.57446647  0.42926718  -0.03357253  1
  Co  Co133  1  0.90527822  0.28235258  0.78601459  1
  Co  Co134  1  -0.05442161  0.66268868  0.37135783  1
  Co  Co135  1  0.27932796  0.89849896  0.51619131  1
  Co  Co136  1  0.54540841  0.24718019  0.38529496  1
  Co  Co137  1  0.08991763  0.77653672  0.69700561  1
  Co  Co138  1  0.68758907  0.47907868  0.08608164  1
  Co  Co139  1  0.46082086  0.14404412  0.80610870  1
  Co  Co140  1  0.58266780  0.38775441  0.30776889  1
  Co  Co141  1  0.24608715  0.35659131  -0.03697696  1
  Co  Co142  1  0.32564309  -0.07722627  0.34298400  1
  Co  Co143  1  0.18932858  0.56765903  0.46524568  1
  Co  Co144  1  0.85637032  0.29238964  0.10780389  1
  Co  Co145  1  0.50787622  0.11035816  0.28988616  1
  Co  Co146  1  0.78494685  0.15577975  0.18169587  1
  Co  Co147  1  0.81005780  0.58807159  0.41208257  1
  Co  Co148  1  0.03158067  0.75538662  0.13150602  1
  Co  Co149  1  0.10422565  0.09057236  0.40329466  1
  Co  Co150  1  -0.03053147  0.17455942  0.11934525  1
  Co  Co151  1  0.13525612  0.39328139  0.47187555  1
  Co  Co152  1  0.05097103  0.62682711  -0.06558800  1
  Co  Co153  1  -0.02274063  0.38878010  0.34811242  1
  Co  Co154  1  0.04396974  -0.07383407  0.62285546  1
  Co  Co155  1  0.53911733  0.46797713  0.59039022  1
  Co  Co156  1  0.50765545  0.66204302  0.36016412  1
  Co  Co157  1  0.60563826  -0.03923609  0.37510529  1
  Co  Co158  1  0.39102666  0.76128894  0.10432905  1
  Co  Co159  1  0.26309253  0.54023277  0.72895352  1
  Co  Co160  1  -0.04491350  0.12827115  0.53471653  1
  Co  Co161  1  0.33816981  0.86330609  0.79000838  1
  Ni  Ni162  1  0.51252423  0.22779176  0.67664290  1
  Ni  Ni163  1  0.21249937  0.17651627  0.31437355  1
  Ni  Ni164  1  0.21741850  0.66324955  -0.01047062  1
  Ni  Ni165  1  0.71955035  0.71010785  0.69059339  1
  Ni  Ni166  1  0.69431575  0.85936332  0.26754010  1
  Ni  Ni167  1  0.34222822  0.43475193  0.84400018  1
  Ni  Ni168  1  0.81606875  0.04959607  0.45166222  1
  Ni  Ni169  1  0.71511849  0.86395026  0.91726894  1
  Ni  Ni170  1  0.92147104  0.03923972  0.86458076  1
  Ni  Ni171  1  0.19805205  0.23658768  0.85311824  1
  Ni  Ni172  1  0.40563093  0.62514817  0.63115780  1
  Ni  Ni173  1  0.01184769  0.44285972  0.17835327  1
  Ni  Ni174  1  0.64882160  -0.03487257  0.65555390  1
  Ni  Ni175  1  0.27716370  0.03423733  0.60792855  1
  Ni  Ni176  1  0.51717115  0.53318020  0.08008733  1
  Ni  Ni177  1  0.74655118  0.44529110  -0.07179042  1
  Ni  Ni178  1  0.87514706  0.42271881  0.64440478  1
  Ni  Ni179  1  0.75939030  0.01206572  -0.03382247  1
  Ni  Ni180  1  0.65064128  0.44402797  0.47165983  1
  Ni  Ni181  1  0.30996687  0.50643005  0.56518495  1
  Ni  Ni182  1  0.39339938  -0.08508725  0.01860134  1
  Ni  Ni183  1  0.25208358  0.35406796  0.60099564  1
  Ni  Ni184  1  0.04869191  0.59703865  0.25457993  1
  Ni  Ni185  1  0.45147526  0.26220370  0.22934137  1
  Ni  Ni186  1  0.50813887  0.71778251  0.52307708  1
  Ni  Ni187  1  0.47307180  0.33792724  0.80901961  1
  Ni  Ni188  1  0.26894439  0.47466999  0.21420190  1
  Ni  Ni189  1  0.54131124  -0.03143398  0.78691045  1
  Ni  Ni190  1  0.12616393  0.04697996  0.72165969  1
  Ni  Ni191  1  0.18523687  0.21820703  0.68152266  1
  Ni  Ni192  1  0.13762461  0.80832169  0.54689651  1
  Ni  Ni193  1  0.09887709  0.69602217  0.42478458  1
  Ni  Ni194  1  0.91057848  0.67425573  0.19640768  1
  Ni  Ni195  1  0.42212691  0.35643519  0.36283293  1
  Ni  Ni196  1  0.19670742  0.01143577  0.27737998  1
  Ni  Ni197  1  0.78584077  0.16863643  0.34131994  1
  Ni  Ni198  1  0.64264860  0.03963181  0.21857952  1
  Ni  Ni199  1  0.23072793  0.87391603  0.04860599  1
  Ni  Ni200  1  0.18427274  0.78799427  0.82943561  1
  Ni  Ni201  1  0.44287464  0.02851911  0.41507340  1
  Ni  Ni202  1  0.60686681  0.11746033  0.58203073  1
  Ni  Ni203  1  -0.00409932  0.53335329  0.67829944  1
  Ni  Ni204  1  0.49928136  0.12086050  -0.02361051  1
  Ni  Ni205  1  0.78204294  0.86688392  0.66167967  1
  Ni  Ni206  1  0.82195596  0.87021166  0.05187353  1
  Ni  Ni207  1  0.08553774  0.28661162  0.20840409  1
  Ni  Ni208  1  0.80125246  0.16761270  0.73701015  1
  Ni  Ni209  1  0.03270268  0.37324085  0.72003737  1
  Ni  Ni210  1  0.73104599  0.46950488  0.33481118  1
  Ni  Ni211  1  0.05235746  0.21743289  0.77159966  1
  Ni  Ni212  1  0.05585616  -0.03946144  -0.02533906  1
  Ni  Ni213  1  0.25912073  0.11058137  -0.06059654  1
  Ni  Ni214  1  0.73216377  0.73294513  0.01048405  1
