# generated using pymatgen
data_Ti108Co54Ni53
_symmetry_space_group_name_H-M   'P 1'
_cell_length_a   14.62650773
_cell_length_b   14.61991147
_cell_length_c   14.69307000
_cell_angle_alpha   89.94334917
_cell_angle_beta   90.09602894
_cell_angle_gamma   90.21358489
_symmetry_Int_Tables_number   1
_chemical_formula_structural   Ti108Co54Ni53
_chemical_formula_sum   'Ti108 Co54 Ni53'
_cell_volume   3141.91259030
_cell_formula_units_Z   1
loop_
 _symmetry_equiv_pos_site_id
 _symmetry_equiv_pos_as_xyz
  1  'x, y, z'
loop_
 _atom_site_type_symbol
 _atom_site_label
 _atom_site_symmetry_multiplicity
 _atom_site_fract_x
 _atom_site_fract_y
 _atom_site_fract_z
 _atom_site_occupancy
  Ti  Ti0  1  0.05784998  0.09077732  0.27875171  1
  Ti  Ti1  1  0.09004626  0.09526672  0.59804871  1
  Ti  Ti2  1  0.05420044  0.03842041  0.95995743  1
  Ti  Ti3  1  0.10348161  0.38866823  0.27768172  1
  Ti  Ti4  1  0.08891838  0.42155533  0.56884253  1
  Ti  Ti5  1  0.07028954  0.35863724  0.87271308  1
  Ti  Ti6  1  0.11444810  0.74619751  0.22953175  1
  Ti  Ti7  1  0.10456844  0.72876717  0.53763622  1
  Ti  Ti8  1  0.16027197  0.80149806  0.87683624  1
  Ti  Ti9  1  0.44298733  0.11718052  0.26995021  1
  Ti  Ti10  1  0.39264856  0.02986646  0.63629782  1
  Ti  Ti11  1  0.43455323  0.04251693  0.92981699  1
  Ti  Ti12  1  0.44550204  0.43209570  0.20138574  1
  Ti  Ti13  1  0.39915302  0.44726582  0.54767027  1
  Ti  Ti14  1  0.44487554  0.40647089  0.97998975  1
  Ti  Ti15  1  0.38246200  0.77181448  0.27106626  1
  Ti  Ti16  1  0.47153310  0.77408944  0.57133091  1
  Ti  Ti17  1  0.35137362  0.73398878  0.86420604  1
  Ti  Ti18  1  0.77076711  0.06238294  0.26618572  1
  Ti  Ti19  1  0.71215212  0.09666051  0.54751726  1
  Ti  Ti20  1  0.79545480  0.16018801  0.97213438  1
  Ti  Ti21  1  0.80820329  0.36099702  0.29983070  1
  Ti  Ti22  1  0.68760248  0.39640529  0.55239402  1
  Ti  Ti23  1  0.84153491  0.35957664  0.94725679  1
  Ti  Ti24  1  0.68860906  0.77947044  0.23128994  1
  Ti  Ti25  1  0.79369224  0.80520821  0.57944746  1
  Ti  Ti26  1  0.71029340  0.73988190  0.91095898  1
  Ti  Ti27  1  0.13775540  0.30347223  0.08147956  1
  Ti  Ti28  1  0.05834106  0.26825767  0.45133686  1
  Ti  Ti29  1  0.02789587  0.22914310  0.73845766  1
  Ti  Ti30  1  0.07448909  0.57768572  0.07388670  1
  Ti  Ti31  1  0.03270812  0.62853923  0.36967137  1
  Ti  Ti32  1  0.11450341  0.66180482  0.74930616  1
  Ti  Ti33  1  -0.00820012  0.85946083  0.06990488  1
  Ti  Ti34  1  0.10351048  0.95707318  0.41733491  1
  Ti  Ti35  1  0.04278144  0.94890308  0.76020199  1
  Ti  Ti36  1  0.35637771  0.26744908  0.11043086  1
  Ti  Ti37  1  0.39125537  0.28157694  0.44727184  1
  Ti  Ti38  1  0.41750773  0.17864187  0.78805933  1
  Ti  Ti39  1  0.36387679  0.59624353  0.15299658  1
  Ti  Ti40  1  0.54797530  0.56373800  0.41946148  1
  Ti  Ti41  1  0.44321955  0.58361202  0.80308924  1
  Ti  Ti42  1  0.37098234  0.95451010  0.10210813  1
  Ti  Ti43  1  0.37082045  0.93389480  0.43956528  1
  Ti  Ti44  1  0.42660101  0.86912364  0.76702412  1
  Ti  Ti45  1  0.75326720  0.22943368  0.16444689  1
  Ti  Ti46  1  0.72502141  0.22364551  0.39850197  1
  Ti  Ti47  1  0.72077028  0.22134780  0.80644189  1
  Ti  Ti48  1  0.75794047  0.58218371  0.10269186  1
  Ti  Ti49  1  0.74801873  0.58056090  0.48662357  1
  Ti  Ti50  1  0.89056209  0.60027781  0.74093232  1
  Ti  Ti51  1  0.71707115  0.89921107  0.06458789  1
  Ti  Ti52  1  0.87972869  0.89264458  0.40382468  1
  Ti  Ti53  1  0.83631873  0.92517984  0.72178096  1
  Ti  Ti54  1  0.21998117  0.11619192  0.05075758  1
  Ti  Ti55  1  0.25906334  0.10307666  0.35951663  1
  Ti  Ti56  1  0.22761702  0.12831717  0.74267132  1
  Ti  Ti57  1  0.28623978  0.45661270  0.07217989  1
  Ti  Ti58  1  0.23473823  0.42182424  0.42274753  1
  Ti  Ti59  1  0.30374256  0.46368690  0.72375249  1
  Ti  Ti60  1  0.30764708  0.75566910  0.04224919  1
  Ti  Ti61  1  0.28075186  0.73075301  0.45048768  1
  Ti  Ti62  1  0.28261136  0.75840393  0.64852021  1
  Ti  Ti63  1  0.62263757  0.10458302  0.04637126  1
  Ti  Ti64  1  0.60950994  0.04526109  0.37657331  1
  Ti  Ti65  1  0.58996135  0.10880955  0.69957957  1
  Ti  Ti66  1  0.62717932  0.41856869  0.10576516  1
  Ti  Ti67  1  0.55693557  0.36830086  0.40064896  1
  Ti  Ti68  1  0.54707023  0.31252345  0.73866971  1
  Ti  Ti69  1  0.54401394  0.83218614  0.11438284  1
  Ti  Ti70  1  0.63574921  0.73980907  0.42955188  1
  Ti  Ti71  1  0.62429533  0.80535100  0.71316750  1
  Ti  Ti72  1  0.92371866  0.06748408  0.13267327  1
  Ti  Ti73  1  0.92764779  0.10011545  0.47737562  1
  Ti  Ti74  1  0.89755294  0.08988049  0.81683959  1
  Ti  Ti75  1  0.93181149  0.45025925  0.16641335  1
  Ti  Ti76  1  0.88465507  0.41983718  0.47859995  1
  Ti  Ti77  1  0.94654389  0.40632194  0.72555833  1
  Ti  Ti78  1  0.92280678  0.67109288  0.05413129  1
  Ti  Ti79  1  0.90768491  0.71865213  0.46468949  1
  Ti  Ti80  1  0.96088780  0.77489761  0.79316414  1
  Ti  Ti81  1  0.27830870  0.28402866  0.27759642  1
  Ti  Ti82  1  0.27816238  0.19445872  0.56257318  1
  Ti  Ti83  1  0.25227664  0.30094319  0.80829328  1
  Ti  Ti84  1  0.27953334  0.58987019  0.31375420  1
  Ti  Ti85  1  0.21584815  0.57121937  0.59473285  1
  Ti  Ti86  1  0.21382144  0.61409097  0.94398988  1
  Ti  Ti87  1  0.19034916  0.96863178  0.22010276  1
  Ti  Ti88  1  0.20928659  0.95615764  0.65930623  1
  Ti  Ti89  1  0.19123076  0.91502239  1.02085224  1
  Ti  Ti90  1  0.54414084  0.25214558  0.14450087  1
  Ti  Ti91  1  0.55782621  0.19362222  0.50816728  1
  Ti  Ti92  1  0.53697362  0.24238328  0.93618352  1
  Ti  Ti93  1  0.57912983  0.61158832  0.18526739  1
  Ti  Ti94  1  0.53867313  0.57983799  0.60477952  1
  Ti  Ti95  1  0.54469691  0.64528873  0.96619956  1
  Ti  Ti96  1  0.51660140  0.92193082  0.27573579  1
  Ti  Ti97  1  0.65083371  0.91180282  0.52113386  1
  Ti  Ti98  1  0.57715626  0.91793997  0.93310045  1
  Ti  Ti99  1  0.97078952  0.24738942  0.21953301  1
  Ti  Ti100  1  0.82850960  0.27199030  0.63660777  1
  Ti  Ti101  1  0.98333504  0.20965302  0.94672653  1
  Ti  Ti102  1  0.84401687  0.57699894  0.31369233  1
  Ti  Ti103  1  0.97591133  0.57467839  0.56120302  1
  Ti  Ti104  1  1.00382577  0.54033174  0.88976352  1
  Ti  Ti105  1  0.85301040  0.88119173  0.20913308  1
  Ti  Ti106  1  0.99045310  0.90024249  0.57210616  1
  Ti  Ti107  1  0.84832072  0.87899173  0.91189363  1
  Co  Co108  1  -0.07726346  0.02001708  0.31824207  1
  Co  Co109  1  -0.11056846  0.01711389  -0.01961260  1
  Co  Co110  1  0.86773266  0.25908020  0.46948301  1
  Co  Co111  1  0.70652578  0.45153649  0.39372158  1
  Co  Co112  1  0.26787144  0.44390568  0.23487365  1
  Co  Co113  1  0.13034797  0.23043632  0.31119398  1
  Co  Co114  1  0.66758362  0.24372973  0.63634506  1
  Co  Co115  1  0.02413922  0.88695650  0.91356804  1
  Co  Co116  1  0.32268039  -0.09662181  -0.07527695  1
  Co  Co117  1  0.68634512  -0.03478102  0.67163067  1
  Co  Co118  1  0.76719472  0.04857989  0.10418420  1
  Co  Co119  1  0.81545093  0.77748873  0.04795110  1
  Co  Co120  1  0.53997537  0.73844683  0.28520191  1
  Co  Co121  1  0.57655815  0.48033082  0.28305534  1
  Co  Co122  1  0.82876789  -0.02855022  0.56454576  1
  Co  Co123  1  0.59711353  0.10922235  0.87498759  1
  Co  Co124  1  0.88594620  0.26972302  0.81880229  1
  Co  Co125  1  0.27257119  0.63044168  0.76844033  1
  Co  Co126  1  0.37934972  0.31891350  0.67516687  1
  Co  Co127  1  0.44414946  0.59827680  0.30126754  1
  Co  Co128  1  0.64510850  0.32986388  0.25997286  1
  Co  Co129  1  0.66437575  0.71856454  0.06972938  1
  Co  Co130  1  0.52503182  0.86711682  0.42232155  1
  Co  Co131  1  0.72618173  0.48248327  0.22780202  1
  Co  Co132  1  0.46964520  0.45881100  0.69859518  1
  Co  Co133  1  0.66549909  0.95192549  0.20796621  1
  Co  Co134  1  0.41483731  0.35510326  0.83165087  1
  Co  Co135  1  0.78952619  0.38683680  0.11245007  1
  Co  Co136  1  0.87302771  0.17824415  0.32831791  1
  Co  Co137  1  0.68329795  0.61672405  0.31510015  1
  Co  Co138  1  0.12079381  0.11814444  0.44203019  1
  Co  Co139  1  0.18521343  -0.01964956  0.85984532  1
  Co  Co140  1  -0.04005817  0.34127537  0.34643964  1
  Co  Co141  1  0.07545263  -0.00341959  0.11797240  1
  Co  Co142  1  0.13374820  0.45279256  0.13392648  1
  Co  Co143  1  0.78882607  0.74282596  0.36083510  1
  Co  Co144  1  0.05200626  0.52528378  0.69964172  1
  Co  Co145  1  0.14479170  0.20826003  -0.08028213  1
  Co  Co146  1  0.81894653  0.64898746  0.61145531  1
  Co  Co147  1  0.72287555  0.01059550  -0.04909091  1
  Co  Co148  1  -0.04973244  0.04928309  0.65601236  1
  Co  Co149  1  0.61168119  0.10950080  0.21897149  1
  Co  Co150  1  0.82652488  0.70195289  0.19685095  1
  Co  Co151  1  0.78349754  0.03399231  0.42084745  1
  Co  Co152  1  -0.05591739  0.75549218  0.29169019  1
  Co  Co153  1  0.73652605  0.04740394  0.80611361  1
  Co  Co154  1  0.49286072  0.52723965  0.06916580  1
  Co  Co155  1  0.21065055  0.63137813  0.14112294  1
  Co  Co156  1  0.69894432  0.88731470  0.82781771  1
  Co  Co157  1  0.13577093  0.38174533  0.71801064  1
  Co  Co158  1  0.37871902  0.59552131  -0.02378376  1
  Co  Co159  1  0.33880235  0.01130352  0.79149925  1
  Co  Co160  1  0.25878499  0.85969878  0.77282481  1
  Co  Co161  1  -0.01841492  0.28940135  0.59093834  1
  Ni  Ni162  1  0.39269749  0.44524488  0.36560681  1
  Ni  Ni163  1  0.27233827  0.30966069  -0.02670761  1
  Ni  Ni164  1  0.52862801  -0.00176079  0.11754673  1
  Ni  Ni165  1  0.21329295  0.86945028  0.51389224  1
  Ni  Ni166  1  0.54815047  -0.02079163  0.78545836  1
  Ni  Ni167  1  0.06756657  0.79958817  0.39255934  1
  Ni  Ni168  1  0.86300396  0.67105262  0.89403547  1
  Ni  Ni169  1  0.79869338  0.11269504  0.67825306  1
  Ni  Ni170  1  0.51871207  0.02034260  0.51111219  1
  Ni  Ni171  1  0.70411531  -0.10526363  0.35786802  1
  Ni  Ni172  1  0.44258968  0.29446783  0.28329324  1
  Ni  Ni173  1  0.45169823  0.82020792  -0.02571931  1
  Ni  Ni174  1  0.79490283  0.75330871  0.75763082  1
  Ni  Ni175  1  0.15418704  0.45430233  -0.02903781  1
  Ni  Ni176  1  0.08101798  0.09834566  0.80599068  1
  Ni  Ni177  1  0.16436313  0.50764826  0.81647679  1
  Ni  Ni178  1  -0.03912645  0.73675067  0.63255900  1
  Ni  Ni179  1  0.34680777  -0.04272017  0.27292035  1
  Ni  Ni180  1  0.30527264  0.46597923  0.89475927  1
  Ni  Ni181  1  0.52688617  0.34726550  0.57764028  1
  Ni  Ni182  1  0.00264979  0.40697087  0.02350484  1
  Ni  Ni183  1  0.90446733  0.26889231  0.07642749  1
  Ni  Ni184  1  0.17223180  0.57834034  0.44083583  1
  Ni  Ni185  1  0.28906617  0.12945363  0.89900602  1
  Ni  Ni186  1  0.56263557  0.20865239  0.34149555  1
  Ni  Ni187  1  0.69209951  0.54429459  0.64407996  1
  Ni  Ni188  1  0.25266270  0.36970321  0.57903759  1
  Ni  Ni189  1  0.10927040  0.81651300  0.67966266  1
  Ni  Ni190  1  0.13999177  0.25653397  0.61768147  1
  Ni  Ni191  1  0.44328067  0.18789064  0.61733396  1
  Ni  Ni192  1  0.03352020  0.69951093  -0.07204783  1
  Ni  Ni193  1  -0.02507262  0.61321839  0.20820405  1
  Ni  Ni194  1  0.68481898  0.28422240  0.01181861  1
  Ni  Ni195  1  0.04426627  0.46782579  0.41464685  1
  Ni  Ni196  1  0.39601463  0.11323304  0.46272698  1
  Ni  Ni197  1  0.02153557  0.90350635  0.25240122  1
  Ni  Ni198  1  0.29758508  0.10916870  0.19384872  1
  Ni  Ni199  1  0.87185842  0.51345450  0.00074343  1
  Ni  Ni200  1  0.46011148  0.70245442  0.09373011  1
  Ni  Ni201  1  0.36228985  0.58293301  0.46664848  1
  Ni  Ni202  1  0.13139703  0.75106826  0.05454149  1
  Ni  Ni203  1  0.12561196  0.55368784  0.26034835  1
  Ni  Ni204  1  0.25535814  0.82372185  0.17703652  1
  Ni  Ni205  1  0.45078844  0.71509133  0.42022104  1
  Ni  Ni206  1  0.52298082  0.92209945  0.63506520  1
  Ni  Ni207  1  0.06060690  0.15923704  0.09586092  1
  Ni  Ni208  1  0.83246690  0.47044038  0.62639176  1
  Ni  Ni209  1  0.25261291  0.03343965  0.51600393  1
  Ni  Ni210  1  0.53043893  0.74967097  0.83878844  1
  Ni  Ni211  1  0.22875319  0.85138775  0.34259886  1
  Ni  Ni212  1  0.65227732  0.69994238  0.58934492  1
  Ni  Ni213  1  0.42663007  0.12431740  0.07642820  1
  Ni  Ni214  1  0.37738532  0.61274275  0.63946693  1
