# generated using pymatgen
data_Ti108Co54Ni53
_symmetry_space_group_name_H-M   'P 1'
_cell_length_a   14.65392722
_cell_length_b   14.59145269
_cell_length_c   14.66044301
_cell_angle_alpha   90.42222617
_cell_angle_beta   90.18290377
_cell_angle_gamma   89.64086036
_symmetry_Int_Tables_number   1
_chemical_formula_structural   Ti108Co54Ni53
_chemical_formula_sum   'Ti108 Co54 Ni53'
_cell_volume   3134.56429139
_cell_formula_units_Z   1
loop_
 _symmetry_equiv_pos_site_id
 _symmetry_equiv_pos_as_xyz
  1  'x, y, z'
loop_
 _atom_site_type_symbol
 _atom_site_label
 _atom_site_symmetry_multiplicity
 _atom_site_fract_x
 _atom_site_fract_y
 _atom_site_fract_z
 _atom_site_occupancy
  Ti  Ti0  1  0.04694616  0.08590766  0.28496692  1
  Ti  Ti1  1  0.10325282  0.05258317  0.57992139  1
  Ti  Ti2  1  0.01134819  0.10645187  0.99539279  1
  Ti  Ti3  1  0.04484136  0.41604702  0.26555578  1
  Ti  Ti4  1  0.16062748  0.44229562  0.55649018  1
  Ti  Ti5  1  0.05583502  0.40686216  0.96683975  1
  Ti  Ti6  1  0.07330877  0.73806444  0.28161044  1
  Ti  Ti7  1  0.13207596  0.62718458  0.59129134  1
  Ti  Ti8  1  0.11690147  0.76882664  0.92180595  1
  Ti  Ti9  1  0.43474734  0.11325810  0.27193676  1
  Ti  Ti10  1  0.38754255  -0.00401245  0.50829823  1
  Ti  Ti11  1  0.39249183  0.11441885  0.89441466  1
  Ti  Ti12  1  0.43754803  0.47018917  0.14955119  1
  Ti  Ti13  1  0.43624469  0.32307894  0.64428432  1
  Ti  Ti14  1  0.43532136  0.48276085  0.94308984  1
  Ti  Ti15  1  0.38684551  0.74235463  0.23214956  1
  Ti  Ti16  1  0.42024717  0.79785765  0.56836963  1
  Ti  Ti17  1  0.40699772  0.64857906  0.82677328  1
  Ti  Ti18  1  0.74663532  0.08892981  0.31564405  1
  Ti  Ti19  1  0.76635039  -0.00121733  0.62996493  1
  Ti  Ti20  1  0.76092178  0.08720782  0.91151126  1
  Ti  Ti21  1  0.74117445  0.40937671  0.29506944  1
  Ti  Ti22  1  0.71880466  0.46091965  0.59940477  1
  Ti  Ti23  1  0.70730807  0.47075180  0.91399482  1
  Ti  Ti24  1  0.78892054  0.74408312  0.21251801  1
  Ti  Ti25  1  0.86341793  0.80375841  0.62330601  1
  Ti  Ti26  1  0.73854484  0.82215839  0.93726214  1
  Ti  Ti27  1  0.15923968  0.31331352  0.10419992  1
  Ti  Ti28  1  0.06198624  0.26286317  0.53419210  1
  Ti  Ti29  1  0.08915905  0.16905358  0.79606849  1
  Ti  Ti30  1  0.05910661  0.65916137  0.09014842  1
  Ti  Ti31  1  0.05050142  0.55417737  0.41006427  1
  Ti  Ti32  1  0.01613303  0.53568749  0.69756939  1
  Ti  Ti33  1  0.05497886  0.88344569  0.08908354  1
  Ti  Ti34  1  0.12018006  0.88021679  0.42988005  1
  Ti  Ti35  1  0.07483591  0.83766624  0.73584251  1
  Ti  Ti36  1  0.42790897  0.28366214  0.17865316  1
  Ti  Ti37  1  0.41458393  0.18635407  0.47837528  1
  Ti  Ti38  1  0.42615390  0.29620788  0.82347540  1
  Ti  Ti39  1  0.38825166  0.64985838  0.01462664  1
  Ti  Ti40  1  0.42717285  0.55678156  0.45740747  1
  Ti  Ti41  1  0.48224307  0.49647874  0.73882651  1
  Ti  Ti42  1  0.45276583  0.92301023  0.16358062  1
  Ti  Ti43  1  0.33500577  0.91845780  0.33492489  1
  Ti  Ti44  1  0.52267045  0.83210050  0.77389018  1
  Ti  Ti45  1  0.76673718  0.27088235  0.15327486  1
  Ti  Ti46  1  0.76327061  0.21714426  0.46884726  1
  Ti  Ti47  1  0.75934380  0.24043103  0.78250499  1
  Ti  Ti48  1  0.77987724  0.57807758  0.06202182  1
  Ti  Ti49  1  0.73962367  0.58143472  0.41221095  1
  Ti  Ti50  1  0.73247409  0.57864840  0.75955827  1
  Ti  Ti51  1  0.66202992  0.96947801  0.05277035  1
  Ti  Ti52  1  0.74483586  0.84923791  0.37757027  1
  Ti  Ti53  1  0.80859160  0.92649688  0.80686116  1
  Ti  Ti54  1  0.22097058  0.08683145  0.03927450  1
  Ti  Ti55  1  0.24877950  0.09909987  0.32360206  1
  Ti  Ti56  1  0.37650992  0.12824399  0.68082318  1
  Ti  Ti57  1  0.24384687  0.48701866  0.03756407  1
  Ti  Ti58  1  0.34081782  0.41200823  0.32465445  1
  Ti  Ti59  1  0.24250704  0.37090274  0.72301521  1
  Ti  Ti60  1  0.22665385  0.72098891  0.08323272  1
  Ti  Ti61  1  0.19468058  0.70373163  0.44321288  1
  Ti  Ti62  1  0.23918496  0.72453300  0.72583900  1
  Ti  Ti63  1  0.48982582  0.08138731  0.08312036  1
  Ti  Ti64  1  0.58693337  0.12678347  0.42503516  1
  Ti  Ti65  1  0.55820294  0.06202000  0.76224123  1
  Ti  Ti66  1  0.59394960  0.40344589  0.05826021  1
  Ti  Ti67  1  0.53735916  0.42436374  0.34413128  1
  Ti  Ti68  1  0.62050603  0.36963935  0.74282705  1
  Ti  Ti69  1  0.53386001  0.76977703  0.06429876  1
  Ti  Ti70  1  0.60335338  0.73531050  0.46490260  1
  Ti  Ti71  1  0.70647242  0.77473664  0.73586002  1
  Ti  Ti72  1  0.81566527  0.07325010  0.13938962  1
  Ti  Ti73  1  0.93070976  0.12387159  0.46462189  1
  Ti  Ti74  1  0.89602112  0.10019996  0.74681165  1
  Ti  Ti75  1  0.90701733  0.42012863  0.13105754  1
  Ti  Ti76  1  0.90428736  0.36138379  0.43165471  1
  Ti  Ti77  1  0.95456913  0.33879616  0.80028946  1
  Ti  Ti78  1  0.88632771  0.74529290  0.03008626  1
  Ti  Ti79  1  0.99271905  0.74275531  0.48110826  1
  Ti  Ti80  1  0.89747352  0.72925876  0.79168255  1
  Ti  Ti81  1  0.16017934  0.27189392  0.29481807  1
  Ti  Ti82  1  0.24095901  0.28257995  0.46147774  1
  Ti  Ti83  1  0.27460485  0.28666574  0.94055246  1
  Ti  Ti84  1  0.25835557  0.59907803  0.30144379  1
  Ti  Ti85  1  0.32934851  0.55713921  0.63474822  1
  Ti  Ti86  1  0.22228265  0.59599638  0.87835376  1
  Ti  Ti87  1  0.25357851  0.89264468  0.16680736  1
  Ti  Ti88  1  0.26196275  0.91845721  0.63556136  1
  Ti  Ti89  1  0.29340430  0.90607461  0.88401072  1
  Ti  Ti90  1  0.60518345  0.19097707  0.21058976  1
  Ti  Ti91  1  0.58904459  0.31112074  0.51189554  1
  Ti  Ti92  1  0.53405863  0.23026284  0.99368883  1
  Ti  Ti93  1  0.61961898  0.55539220  0.20895226  1
  Ti  Ti94  1  0.57429694  0.60254867  0.59514941  1
  Ti  Ti95  1  0.61289928  0.68091111  0.91165040  1
  Ti  Ti96  1  0.55918501  0.83410847  0.29936911  1
  Ti  Ti97  1  0.58533437  0.93660348  0.51685269  1
  Ti  Ti98  1  0.48834216  0.93948454  0.94206755  1
  Ti  Ti99  1  0.97029998  0.22875922  0.16344697  1
  Ti  Ti100  1  0.87339612  0.31874230  0.62436891  1
  Ti  Ti101  1  0.84481318  0.35582966  0.96326448  1
  Ti  Ti102  1  0.93856387  0.59349615  0.21247134  1
  Ti  Ti103  1  0.89079289  0.58675279  0.54109327  1
  Ti  Ti104  1  0.90895163  0.52685963  0.86958936  1
  Ti  Ti105  1  0.90212852  0.92897418  0.23840216  1
  Ti  Ti106  1  0.87721196  0.92116088  0.47888237  1
  Ti  Ti107  1  0.88486973  0.95323047  1.00327466  1
  Co  Co108  1  0.82294406  0.15613235  0.60749654  1
  Co  Co109  1  0.36526547  0.17846797  0.04970373  1
  Co  Co110  1  0.95115615  0.01890711  0.86860304  1
  Co  Co111  1  0.42715791  0.56266645  0.28865785  1
  Co  Co112  1  0.74354086  0.38442912  0.46214318  1
  Co  Co113  1  0.45377990  0.84090702  0.41835015  1
  Co  Co114  1  0.93979796  0.54862565  0.02984228  1
  Co  Co115  1  0.34253249  0.24687443  0.33355855  1
  Co  Co116  1  0.10755053  0.57673211  0.25003445  1
  Co  Co117  1  0.08289509  0.66181512  0.78770885  1
  Co  Co118  1  0.27719311  0.21571159  0.78103767  1
  Co  Co119  1  0.19352556  0.45326866  0.36609387  1
  Co  Co120  1  -0.02065019  0.27848805  0.01663733  1
  Co  Co121  1  -0.01597396  0.03556407  0.13706878  1
  Co  Co122  1  0.55908063  0.60655606  0.36898520  1
  Co  Co123  1  0.01931578  0.88226956  0.57792189  1
  Co  Co124  1  0.79260012  0.86973338  0.10111079  1
  Co  Co125  1  0.19696036  0.54847284  0.71970228  1
  Co  Co126  1  -0.00469563  0.18358245  0.65264102  1
  Co  Co127  1  0.66853650  0.26673338  0.34525170  1
  Co  Co128  1  0.91649998  0.80716039  0.34816395  1
  Co  Co129  1  0.93802629  0.92019558  0.72169791  1
  Co  Co130  1  0.11286907  0.16246765  0.14263701  1
  Co  Co131  1  0.71729713  0.84375105  0.55527862  1
  Co  Co132  1  0.73964093  -0.05573658  0.23354748  1
  Co  Co133  1  0.19931866  0.89978456  0.01595580  1
  Co  Co134  1  0.28462053  0.74767893  -0.08857629  1
  Co  Co135  1  0.50696705  0.25865479  0.33968803  1
  Co  Co136  1  0.29848518  0.26764634  0.60998326  1
  Co  Co137  1  0.16118005  0.20008732  0.65531392  1
  Co  Co138  1  0.14608346  0.00948195  0.16917538  1
  Co  Co139  1  0.78721001  0.40090208  0.78372795  1
  Co  Co140  1  0.59896459  0.35976847  0.21067627  1
  Co  Co141  1  0.70390793  0.72214438  0.05792093  1
  Co  Co142  1  0.81357043  0.73663414  0.47079755  1
  Co  Co143  1  0.25682388  0.55965109  0.47310699  1
  Co  Co144  1  0.78556722  0.65589212  0.89701367  1
  Co  Co145  1  0.70916321  0.28565031  0.62649668  1
  Co  Co146  1  0.35682215  -0.00782747  0.02824179  1
  Co  Co147  1  0.73972688  0.42850481  0.10849490  1
  Co  Co148  1  0.57963656  0.77493740  0.62502600  1
  Co  Co149  1  0.09439244  0.57131487  -0.03924616  1
  Co  Co150  1  0.88682682  0.48514818  0.33466946  1
  Co  Co151  1  0.77789586  0.56980947  0.24042430  1
  Co  Co152  1  0.42886508  0.34395120  0.45330213  1
  Co  Co153  1  0.15636109  0.79772329  0.58416647  1
  Co  Co154  1  0.12517411  0.22148327  -0.02967825  1
  Co  Co155  1  0.57017007  0.53285782  0.86402207  1
  Co  Co156  1  0.67453006  0.69989318  0.31210485  1
  Co  Co157  1  0.07479329  0.37920191  0.42524256  1
  Co  Co158  1  0.32186052  0.04324712  0.18059406  1
  Co  Co159  1  0.89052719  0.32906368  0.26928945  1
  Co  Co160  1  0.74536872  0.03550704  0.47456112  1
  Co  Co161  1  0.61579698  0.49223190  0.46798596  1
  Ni  Ni162  1  0.47337672  -0.05342130  0.64536759  1
  Ni  Ni163  1  0.13788052  0.31917026  0.83969180  1
  Ni  Ni164  1  0.00016353  0.70781544  0.65060451  1
  Ni  Ni165  1  0.44822091  0.78125500  -0.08564633  1
  Ni  Ni166  1  0.83746172  0.18862681  0.02270137  1
  Ni  Ni167  1  -0.04830551  0.77792341  0.17892698  1
  Ni  Ni168  1  0.33182744  0.47813675  0.81274989  1
  Ni  Ni169  1  0.73144274  0.66861882  0.59720824  1
  Ni  Ni170  1  0.48101564  -0.00417936  0.36930811  1
  Ni  Ni171  1  0.88417566  0.16304723  0.29195556  1
  Ni  Ni172  1  -0.08309510  0.19622679  0.88017793  1
  Ni  Ni173  1  0.12347552  0.13572329  0.43382000  1
  Ni  Ni174  1  0.06790285  0.34250986  0.68446178  1
  Ni  Ni175  1  0.22246353  0.44646918  0.20174120  1
  Ni  Ni176  1  0.86410736  0.48823471  0.67846351  1
  Ni  Ni177  1  0.58961292  0.01578250  0.21029049  1
  Ni  Ni178  1  0.23636138  0.78217728  0.30123184  1
  Ni  Ni179  1  0.57527330  0.57479215  0.03540114  1
  Ni  Ni180  1  0.59911034  0.21578449  0.83767131  1
  Ni  Ni181  1  0.67537278  0.14492875  0.06061886  1
  Ni  Ni182  1  0.63627047  -0.07509803  0.68830780  1
  Ni  Ni183  1  0.49616054  0.45355376  0.57100762  1
  Ni  Ni184  1  0.32529389  0.42170717  0.53984308  1
  Ni  Ni185  1  0.41219663  0.34323067  0.02019018  1
  Ni  Ni186  1  0.48289180  0.63601157  0.15511942  1
  Ni  Ni187  1  0.09378030  0.47459471  0.82174979  1
  Ni  Ni188  1  0.36271285  0.82958103  0.74287941  1
  Ni  Ni189  1  0.69811329  0.28191870  -0.03816721  1
  Ni  Ni190  1  -0.01133366  0.44133102  0.55701232  1
  Ni  Ni191  1  0.22552990  -0.00291799  0.45677351  1
  Ni  Ni192  1  0.55143176  0.21193434  0.67766344  1
  Ni  Ni193  1  0.57563643  0.66019000  0.75314757  1
  Ni  Ni194  1  0.64303637  0.93774166  0.85861797  1
  Ni  Ni195  1  0.36593885  0.70519293  0.39922090  1
  Ni  Ni196  1  0.43527597  0.67884901  0.67232603  1
  Ni  Ni197  1  0.08181894  0.48656329  0.11227755  1
  Ni  Ni198  1  0.63997751  0.84243079  0.15939920  1
  Ni  Ni199  1  0.26424851  0.12211417  0.54632933  1
  Ni  Ni200  1  0.36076584  0.82443807  0.04717355  1
  Ni  Ni201  1  0.55850518  0.36900465  0.89616259  1
  Ni  Ni202  1  -0.03827055  0.84936658  0.89341736  1
  Ni  Ni203  1  0.65463252  0.12727877  0.58269583  1
  Ni  Ni204  1  0.28696228  0.84161504  0.47691406  1
  Ni  Ni205  1  0.39749214  -0.01039464  0.77847280  1
  Ni  Ni206  1  -0.02251254  0.67429406  -0.08015758  1
  Ni  Ni207  1  -0.00673333  -0.03582999  0.38028012  1
  Ni  Ni208  1  0.00866688  0.24116624  0.36197194  1
  Ni  Ni209  1  -0.09925878  0.64426817  0.36687921  1
  Ni  Ni210  1  0.58515181  0.07796455  -0.06780519  1
  Ni  Ni211  1  0.63746835  -0.02584271  0.36088092  1
  Ni  Ni212  1  -0.06267118  0.02839509  0.59804381  1
  Ni  Ni213  1  0.27314743  0.20472845  0.18505085  1
  Ni  Ni214  1  0.31797300  0.58568942  0.15266234  1
