# generated using pymatgen
data_Ti108Co54Ni53
_symmetry_space_group_name_H-M   'P 1'
_cell_length_a   14.63818748
_cell_length_b   14.66375587
_cell_length_c   14.59708769
_cell_angle_alpha   90.05361092
_cell_angle_beta   90.30665128
_cell_angle_gamma   89.81420198
_symmetry_Int_Tables_number   1
_chemical_formula_structural   Ti108Co54Ni53
_chemical_formula_sum   'Ti108 Co54 Ni53'
_cell_volume   3133.21398991
_cell_formula_units_Z   1
loop_
 _symmetry_equiv_pos_site_id
 _symmetry_equiv_pos_as_xyz
  1  'x, y, z'
loop_
 _atom_site_type_symbol
 _atom_site_label
 _atom_site_symmetry_multiplicity
 _atom_site_fract_x
 _atom_site_fract_y
 _atom_site_fract_z
 _atom_site_occupancy
  Ti  Ti0  1  0.12223013  0.10661169  0.17794877  1
  Ti  Ti1  1  0.15838555  0.09946218  0.56579788  1
  Ti  Ti2  1  0.09752630  0.06617705  0.93614674  1
  Ti  Ti3  1  0.05923548  0.40303596  0.23521429  1
  Ti  Ti4  1  0.04453026  0.45148736  0.61616575  1
  Ti  Ti5  1  0.05215165  0.41701627  0.90023629  1
  Ti  Ti6  1  0.08014560  0.67744449  0.23822501  1
  Ti  Ti7  1  0.02247290  0.81274855  0.60531348  1
  Ti  Ti8  1  0.03442806  0.72449416  0.88594652  1
  Ti  Ti9  1  0.44574089  0.09749141  0.21681311  1
  Ti  Ti10  1  0.47172291  0.14084509  0.56607833  1
  Ti  Ti11  1  0.39693753  0.03112294  1.01530941  1
  Ti  Ti12  1  0.40675019  0.42067005  0.17985850  1
  Ti  Ti13  1  0.36506288  0.45506036  0.57338171  1
  Ti  Ti14  1  0.41061685  0.39218230  0.96524587  1
  Ti  Ti15  1  0.35241392  0.70402454  0.18045313  1
  Ti  Ti16  1  0.36044233  0.66350620  0.57062363  1
  Ti  Ti17  1  0.38053792  0.68884774  0.87641004  1
  Ti  Ti18  1  0.79503133  0.15437891  0.26165006  1
  Ti  Ti19  1  0.75376128  0.04613671  0.61035776  1
  Ti  Ti20  1  0.72467206  0.01130448  0.91272449  1
  Ti  Ti21  1  0.84360188  0.38080887  0.27572692  1
  Ti  Ti22  1  0.69757649  0.47662052  0.55266658  1
  Ti  Ti23  1  0.72105517  0.46072207  0.95349596  1
  Ti  Ti24  1  0.77643969  0.75700542  0.21158762  1
  Ti  Ti25  1  0.78645054  0.75766463  0.62819474  1
  Ti  Ti26  1  0.70565448  0.79758538  0.93861454  1
  Ti  Ti27  1  0.14533896  0.30347117  0.10003416  1
  Ti  Ti28  1  0.08723097  0.26382188  0.47999877  1
  Ti  Ti29  1  0.05726360  0.22413005  0.78251828  1
  Ti  Ti30  1  0.10240829  0.49769091  0.06696322  1
  Ti  Ti31  1  0.07551759  0.69844153  0.43960108  1
  Ti  Ti32  1  0.12697792  0.66239574  0.71504399  1
  Ti  Ti33  1  0.13885259  0.92835160  0.09644104  1
  Ti  Ti34  1  0.08661811  0.95354259  0.43590902  1
  Ti  Ti35  1  0.06870408  0.97823815  0.76063773  1
  Ti  Ti36  1  0.43280715  0.23324600  0.06873142  1
  Ti  Ti37  1  0.37945136  0.20900069  0.38684997  1
  Ti  Ti38  1  0.40676372  0.15654255  0.75574335  1
  Ti  Ti39  1  0.42464542  0.58859207  0.05669825  1
  Ti  Ti40  1  0.45444248  0.61004357  0.36007556  1
  Ti  Ti41  1  0.47366362  0.62127879  0.72450558  1
  Ti  Ti42  1  0.36642018  0.89609910  0.13778405  1
  Ti  Ti43  1  0.43255072  0.97028589  0.47768546  1
  Ti  Ti44  1  0.46473308  0.93884401  0.70417077  1
  Ti  Ti45  1  0.75483596  0.16309051  0.06124970  1
  Ti  Ti46  1  0.69094100  0.27091556  0.35974639  1
  Ti  Ti47  1  0.73460299  0.23101539  0.71031998  1
  Ti  Ti48  1  0.69881434  0.63564227  0.06225384  1
  Ti  Ti49  1  0.77857018  0.50796403  0.39531770  1
  Ti  Ti50  1  0.79127360  0.54570800  0.79010391  1
  Ti  Ti51  1  0.82085908  0.90359545  0.05531730  1
  Ti  Ti52  1  0.68703658  0.95770141  0.43618590  1
  Ti  Ti53  1  0.76183441  0.89513828  0.76205698  1
  Ti  Ti54  1  0.24524776  0.15202376  0.04819265  1
  Ti  Ti55  1  0.19291518  0.10831164  0.36794963  1
  Ti  Ti56  1  0.22706183  0.09634813  0.74381775  1
  Ti  Ti57  1  0.27815306  0.49427799  0.05591287  1
  Ti  Ti58  1  0.24560146  0.38465820  0.45005349  1
  Ti  Ti59  1  0.31490316  0.40677357  0.76176837  1
  Ti  Ti60  1  0.12624793  0.71738854  0.04516907  1
  Ti  Ti61  1  0.25538511  0.78240448  0.44700627  1
  Ti  Ti62  1  0.31039079  0.78391736  0.72859436  1
  Ti  Ti63  1  0.57221294  0.10527641  0.04070244  1
  Ti  Ti64  1  0.57324965  0.11525443  0.38321528  1
  Ti  Ti65  1  0.60052212  0.11370926  0.82512149  1
  Ti  Ti66  1  0.57425461  0.47321080  0.10465750  1
  Ti  Ti67  1  0.56199723  0.42532294  0.42669798  1
  Ti  Ti68  1  0.59768350  0.35138952  0.77727165  1
  Ti  Ti69  1  0.54623077  0.73135159  0.09860751  1
  Ti  Ti70  1  0.59074820  0.67980419  0.54867521  1
  Ti  Ti71  1  0.61310661  0.74541318  0.76506023  1
  Ti  Ti72  1  0.94837870  0.05058252  0.11560052  1
  Ti  Ti73  1  0.98246964  0.11824479  0.33729273  1
  Ti  Ti74  1  0.94288474  0.09548777  0.66405107  1
  Ti  Ti75  1  0.89668689  0.45038666  0.08660558  1
  Ti  Ti76  1  0.92191658  0.39055176  0.46890104  1
  Ti  Ti77  1  0.91237700  0.39328491  0.75776161  1
  Ti  Ti78  1  0.93297710  0.73918963  0.09204467  1
  Ti  Ti79  1  0.87923971  0.70986165  0.46138812  1
  Ti  Ti80  1  0.92789105  0.68511626  0.72901057  1
  Ti  Ti81  1  0.25448015  0.32462352  0.27898901  1
  Ti  Ti82  1  0.31170575  0.24589160  0.58657743  1
  Ti  Ti83  1  0.28177688  0.25513198  0.88663399  1
  Ti  Ti84  1  0.18400667  0.53894051  0.33224911  1
  Ti  Ti85  1  0.19008051  0.56536630  0.54258915  1
  Ti  Ti86  1  0.18036564  0.55628144  0.87953883  1
  Ti  Ti87  1  0.23026278  0.91875036  0.28767654  1
  Ti  Ti88  1  0.20175155  0.91196856  0.62268535  1
  Ti  Ti89  1  0.26894438  0.84122555  0.95460035  1
  Ti  Ti90  1  0.58506621  0.26594023  0.19413291  1
  Ti  Ti91  1  0.61242743  0.28490970  0.55676858  1
  Ti  Ti92  1  0.61691466  0.25971888  0.93562436  1
  Ti  Ti93  1  0.66007767  0.58037494  0.25230614  1
  Ti  Ti94  1  0.54378805  0.47101248  0.64044671  1
  Ti  Ti95  1  0.54093897  0.57722129  0.92221281  1
  Ti  Ti96  1  0.66403998  0.92802883  0.23583981  1
  Ti  Ti97  1  0.62318831  0.87106332  0.60684744  1
  Ti  Ti98  1  0.53832835  0.90085363  0.98281906  1
  Ti  Ti99  1  0.94737933  0.24612489  0.17367608  1
  Ti  Ti100  1  0.85591603  0.22309201  0.55497569  1
  Ti  Ti101  1  0.90597912  0.25839687  0.92953438  1
  Ti  Ti102  1  0.87678066  0.60899457  0.27776181  1
  Ti  Ti103  1  0.87012497  0.54944059  0.60198558  1
  Ti  Ti104  1  0.85879498  0.63447070  0.93916036  1
  Ti  Ti105  1  0.91242256  0.91090955  0.25381726  1
  Ti  Ti106  1  0.86406120  0.91602003  0.51492761  1
  Ti  Ti107  1  0.91889767  0.95844229  0.87421098  1
  Co  Co108  1  0.34225385  0.54916780  0.25240813  1
  Co  Co109  1  0.89305060  0.93416501  0.67749504  1
  Co  Co110  1  0.85066242  0.37551185  0.61637379  1
  Co  Co111  1  0.51952994  -0.02702606  0.14227908  1
  Co  Co112  1  0.66706800  0.40162307  0.26674818  1
  Co  Co113  1  -0.00708716  0.30787241  0.34431625  1
  Co  Co114  1  0.56309558  0.41483526  -0.06708077  1
  Co  Co115  1  0.75886041  0.34817989  0.47536880  1
  Co  Co116  1  0.02007672  0.64561797  0.59113400  1
  Co  Co117  1  0.23936735  -0.00697269  0.00101970  1
  Co  Co118  1  -0.01849613  0.83323325  0.77602366  1
  Co  Co119  1  0.77695444  0.34621731  0.84702351  1
  Co  Co120  1  0.03741671  0.17037369  0.04527697  1
  Co  Co121  1  0.48156398  0.55975341  0.51678587  1
  Co  Co122  1  0.80370305  0.83712215  0.35752801  1
  Co  Co123  1  0.45317390  0.29912178  0.83861646  1
  Co  Co124  1  0.87915240  0.08924811  -0.02454238  1
  Co  Co125  1  -0.00147604  0.33849757  0.04282062  1
  Co  Co126  1  0.10890296  0.81711275  0.32968579  1
  Co  Co127  1  0.52475650  0.27953990  0.35628906  1
  Co  Co128  1  0.50067684  0.60577907  0.19738694  1
  Co  Co129  1  0.00722263  0.11783383  0.49697081  1
  Co  Co130  1  0.52306588  0.46816861  0.27742214  1
  Co  Co131  1  0.76398184  0.29024903  0.17345089  1
  Co  Co132  1  -0.02604549  0.84098368  0.42350746  1
  Co  Co133  1  0.28324403  0.02473981  0.16660508  1
  Co  Co134  1  0.74591780  0.62988604  0.51681849  1
  Co  Co135  1  0.30220032  0.09509664  0.88977027  1
  Co  Co136  1  0.71729055  0.79801774  0.48815971  1
  Co  Co137  1  0.14551002  0.82525071  0.75232834  1
  Co  Co138  1  0.88383531  0.23200212  0.75079992  1
  Co  Co139  1  0.22053678  0.39874541  -0.05980342  1
  Co  Co140  1  0.31860722  0.55129771  0.43140477  1
  Co  Co141  1  0.96321077  0.48294966  0.32872831  1
  Co  Co142  1  -0.05583333  0.75481928  0.29384839  1
  Co  Co143  1  -0.00045794  0.59544851  -0.00027042  1
  Co  Co144  1  0.21698580  0.45003366  0.19504276  1
  Co  Co145  1  0.10126518  0.87792719  -0.08442199  1
  Co  Co146  1  0.62105854  0.52260757  0.79554508  1
  Co  Co147  1  0.68917621  0.63335679  -0.10219551  1
  Co  Co148  1  0.84566052  0.60572462  0.11448914  1
  Co  Co149  1  0.18992700  0.73807257  0.58842828  1
  Co  Co150  1  0.75975763  0.18251690  0.88229992  1
  Co  Co151  1  0.67534173  0.82024950  0.10237055  1
  Co  Co152  1  0.21502131  0.61707020  0.16049293  1
  Co  Co153  1  0.59592231  0.89836762  0.82768053  1
  Co  Co154  1  0.41330786  0.26990652  0.23705564  1
  Co  Co155  1  0.69451279  0.15692925  0.50054625  1
  Co  Co156  1  0.30263840  0.31781481  0.09251527  1
  Co  Co157  1  0.54137155  0.73938888  0.91281170  1
  Co  Co158  1  -0.04086858  0.11121719  0.83537878  1
  Co  Co159  1  0.61874266  0.57885249  0.41692433  1
  Co  Co160  1  0.73941881  0.68188021  0.36429913  1
  Co  Co161  1  0.80104410  0.06928577  0.76931754  1
  Ni  Ni162  1  0.89015389  0.46013977  -0.08289070  1
  Ni  Ni163  1  0.34799017  0.03652830  0.33681013  1
  Ni  Ni164  1  0.31684825  0.10106307  0.49140065  1
  Ni  Ni165  1  0.16957719  0.23876875  0.66574701  1
  Ni  Ni166  1  0.40915735  0.77631312  0.02009288  1
  Ni  Ni167  1  0.66712672  -0.02039922  0.06928792  1
  Ni  Ni168  1  0.47984277  0.77437480  0.64808709  1
  Ni  Ni169  1  0.15959195  0.35601606  0.78842888  1
  Ni  Ni170  1  0.08578531  0.43659719  0.43580335  1
  Ni  Ni171  1  0.22295039  -0.04423642  0.83537809  1
  Ni  Ni172  1  0.58690706  0.02862437  0.54853032  1
  Ni  Ni173  1  0.24247619  0.69489183  0.31248462  1
  Ni  Ni174  1  0.56050189  0.20165379  0.69312959  1
  Ni  Ni175  1  0.44893844  0.32869916  0.67166665  1
  Ni  Ni176  1  0.66198625  0.34250711  0.06522880  1
  Ni  Ni177  1  0.78367778  0.72498712  0.80063733  1
  Ni  Ni178  1  0.20501315  0.78719332  0.17948130  1
  Ni  Ni179  1  0.84288035  0.07864982  0.46274551  1
  Ni  Ni180  1  0.16880556  0.50385792  0.71784717  1
  Ni  Ni181  1  0.68856301  0.60873575  0.67160763  1
  Ni  Ni182  1  0.45699377  0.16244057  -0.07975052  1
  Ni  Ni183  1  0.72356078  0.42450023  0.70316527  1
  Ni  Ni184  1  0.63559694  0.09527896  0.20716826  1
  Ni  Ni185  1  0.27706471  0.66196864  0.00769751  1
  Ni  Ni186  1  0.03733194  -0.02076725  0.59040009  1
  Ni  Ni187  1  0.11658751  0.23222097  0.28177211  1
  Ni  Ni188  1  0.78929092  0.02363722  0.16444138  1
  Ni  Ni189  1  -0.01506117  -0.10018200  0.02889183  1
  Ni  Ni190  1  0.11581308  0.26213989  -0.06586938  1
  Ni  Ni191  1  0.26081460  -0.04737120  0.46308827  1
  Ni  Ni192  1  0.47053647  0.01139416  0.85925099  1
  Ni  Ni193  1  0.74400189  0.47670092  0.14255331  1
  Ni  Ni194  1  0.39426127  0.40360304  0.36737040  1
  Ni  Ni195  1  0.30374552  0.60402029  0.73693082  1
  Ni  Ni196  1  0.20500363  0.72008006  0.86529644  1
  Ni  Ni197  1  -0.02782501  0.55676409  0.46857195  1
  Ni  Ni198  1  0.46598319  0.46302774  0.79352165  1
  Ni  Ni199  1  0.20566427  0.38649525  0.61176073  1
  Ni  Ni200  1  0.28111601  0.17402359  0.22084562  1
  Ni  Ni201  1  -0.00531418  0.55635358  0.17211277  1
  Ni  Ni202  1  0.79897860  0.00189982  0.32796677  1
  Ni  Ni203  1  0.88124009  0.80421560  -0.08086278  1
  Ni  Ni204  1  0.35348570  0.85156674  0.57265121  1
  Ni  Ni205  1  0.00116045  0.28212899  0.62871849  1
  Ni  Ni206  1  0.42662654  0.85023418  0.85217651  1
  Ni  Ni207  1  0.06681289  -0.01949089  0.26803843  1
  Ni  Ni208  1  0.86075996  0.23488850  0.39184346  1
  Ni  Ni209  1  0.44813662  0.31495064  0.50497921  1
  Ni  Ni210  1  0.34550744  0.52567949  0.89201344  1
  Ni  Ni211  1  0.33856096  0.02363026  0.63122563  1
  Ni  Ni212  1  0.04027478  0.83295608  0.17739325  1
  Ni  Ni213  1  0.62866110  0.00826163  0.71038496  1
  Ni  Ni214  1  -0.00788746  0.55680806  0.81628913  1
