# generated using pymatgen
data_Ti108Co54Ni53
_symmetry_space_group_name_H-M   'P 1'
_cell_length_a   14.64240581
_cell_length_b   14.58079302
_cell_length_c   14.66520682
_cell_angle_alpha   89.80437586
_cell_angle_beta   90.15990662
_cell_angle_gamma   90.00942213
_symmetry_Int_Tables_number   1
_chemical_formula_structural   Ti108Co54Ni53
_chemical_formula_sum   'Ti108 Co54 Ni53'
_cell_volume   3130.96021048
_cell_formula_units_Z   1
loop_
 _symmetry_equiv_pos_site_id
 _symmetry_equiv_pos_as_xyz
  1  'x, y, z'
loop_
 _atom_site_type_symbol
 _atom_site_label
 _atom_site_symmetry_multiplicity
 _atom_site_fract_x
 _atom_site_fract_y
 _atom_site_fract_z
 _atom_site_occupancy
  Ti  Ti0  1  0.08093854  0.06810363  0.25953920  1
  Ti  Ti1  1  0.12413796  0.15700287  0.55228572  1
  Ti  Ti2  1  0.08808253  0.09419597  0.97789845  1
  Ti  Ti3  1  0.01654239  0.43488626  0.29245280  1
  Ti  Ti4  1  0.11062100  0.42297841  0.60918870  1
  Ti  Ti5  1  0.07961483  0.31604813  0.88536518  1
  Ti  Ti6  1  0.03407059  0.80527879  0.21870744  1
  Ti  Ti7  1  0.09389896  0.74019804  0.53442486  1
  Ti  Ti8  1  0.15185804  0.67791109  0.94631769  1
  Ti  Ti9  1  0.39816011  0.10409029  0.25737569  1
  Ti  Ti10  1  0.40458031  -0.01523579  0.60801961  1
  Ti  Ti11  1  0.35587031  -0.01464441  0.88773405  1
  Ti  Ti12  1  0.48812842  0.46444629  0.25955725  1
  Ti  Ti13  1  0.42351099  0.38084080  0.55433552  1
  Ti  Ti14  1  0.49125118  0.42346985  0.91210476  1
  Ti  Ti15  1  0.41503506  0.79340012  0.25334224  1
  Ti  Ti16  1  0.43266589  0.72307928  0.61820135  1
  Ti  Ti17  1  0.43075128  0.80085561  0.94642923  1
  Ti  Ti18  1  0.74772299  0.08033425  0.29504403  1
  Ti  Ti19  1  0.78693175  0.07318042  0.61265283  1
  Ti  Ti20  1  0.77118685  0.03158624  0.89232790  1
  Ti  Ti21  1  0.78631498  0.48137860  0.24641014  1
  Ti  Ti22  1  0.70902029  0.37146661  0.53637156  1
  Ti  Ti23  1  0.80232881  0.43815473  0.92063554  1
  Ti  Ti24  1  0.75547448  0.80757438  0.26016834  1
  Ti  Ti25  1  0.75184966  0.76299770  0.54525521  1
  Ti  Ti26  1  0.71839599  0.79829123  0.91965708  1
  Ti  Ti27  1  0.04830726  0.27844044  0.07029484  1
  Ti  Ti28  1  0.01411685  0.30639922  0.46234126  1
  Ti  Ti29  1  0.10601313  0.16316811  0.77222654  1
  Ti  Ti30  1  0.14151353  0.56925245  0.12753950  1
  Ti  Ti31  1  0.11997216  0.61411602  0.32485790  1
  Ti  Ti32  1  0.08864172  0.61134961  0.77103626  1
  Ti  Ti33  1  0.09959650  0.96411451  0.11527706  1
  Ti  Ti34  1  0.12475420  0.94168960  0.47364687  1
  Ti  Ti35  1  0.12646112  0.97330542  0.73188255  1
  Ti  Ti36  1  0.39054834  0.27270089  0.02012875  1
  Ti  Ti37  1  0.40854476  0.25474362  0.37925789  1
  Ti  Ti38  1  0.39654026  0.34108173  0.76238745  1
  Ti  Ti39  1  0.48432631  0.66595406  0.10908494  1
  Ti  Ti40  1  0.40325008  0.56845220  0.40849595  1
  Ti  Ti41  1  0.36489808  0.54566875  0.70559827  1
  Ti  Ti42  1  0.47804005  0.96141714  0.04576402  1
  Ti  Ti43  1  0.49404190  0.89947424  0.38899777  1
  Ti  Ti44  1  0.39253133  0.83670600  0.76045859  1
  Ti  Ti45  1  0.71705837  0.29429204  0.08457004  1
  Ti  Ti46  1  0.71390986  0.23547019  0.38709698  1
  Ti  Ti47  1  0.67488790  0.22254498  0.67722095  1
  Ti  Ti48  1  0.68038386  0.50528490  0.05454205  1
  Ti  Ti49  1  0.71579847  0.56140561  0.47697904  1
  Ti  Ti50  1  0.74414217  0.46012982  0.73430288  1
  Ti  Ti51  1  0.74967205  0.96564256  0.14224050  1
  Ti  Ti52  1  0.77962575  0.93653978  0.44433654  1
  Ti  Ti53  1  0.70041078  0.86396169  0.73237538  1
  Ti  Ti54  1  0.27827837  0.03627536  0.05205915  1
  Ti  Ti55  1  0.23958512  0.06989205  0.38875681  1
  Ti  Ti56  1  0.29055242  0.12403967  0.71139106  1
  Ti  Ti57  1  0.23163080  0.39080455  0.14404201  1
  Ti  Ti58  1  0.22831437  0.38759629  0.44586043  1
  Ti  Ti59  1  0.21196918  0.45581469  0.81896089  1
  Ti  Ti60  1  0.30115299  0.72632890  0.09530891  1
  Ti  Ti61  1  0.25529755  0.80411097  0.40518012  1
  Ti  Ti62  1  0.16768208  0.79192451  0.76130226  1
  Ti  Ti63  1  0.61878333  0.09521161  0.03350872  1
  Ti  Ti64  1  0.61259528  0.04110573  0.44828179  1
  Ti  Ti65  1  0.57569460  0.05760592  0.64660612  1
  Ti  Ti66  1  0.53977597  0.35732118  0.08389835  1
  Ti  Ti67  1  0.55756075  0.44767526  0.44719569  1
  Ti  Ti68  1  0.60827728  0.34423486  0.78757492  1
  Ti  Ti69  1  0.58880173  0.83483611  0.14303860  1
  Ti  Ti70  1  0.55949903  0.68569726  0.42112187  1
  Ti  Ti71  1  0.59215121  0.64195218  0.73442774  1
  Ti  Ti72  1  0.84588877  0.10880744  0.06582979  1
  Ti  Ti73  1  0.97394829  0.09473628  0.40983567  1
  Ti  Ti74  1  0.91930822  0.16065577  0.73977056  1
  Ti  Ti75  1  0.88623684  0.35228950  0.14333763  1
  Ti  Ti76  1  0.89710883  0.47094676  0.45134340  1
  Ti  Ti77  1  0.95241963  0.45186694  0.74026031  1
  Ti  Ti78  1  0.89500347  0.78404747  0.09099017  1
  Ti  Ti79  1  0.92782988  0.78160324  0.41709592  1
  Ti  Ti80  1  0.93751670  0.85090481  0.73452785  1
  Ti  Ti81  1  0.21898077  0.23727659  0.25147005  1
  Ti  Ti82  1  0.29747760  0.26091678  0.58855395  1
  Ti  Ti83  1  0.24902982  0.18975688  0.92561264  1
  Ti  Ti84  1  0.30921147  0.55858126  0.22594280  1
  Ti  Ti85  1  0.27161450  0.65917650  0.53640659  1
  Ti  Ti86  1  0.29170611  0.52461508  1.01226621  1
  Ti  Ti87  1  0.21606563  0.88075776  0.24111841  1
  Ti  Ti88  1  0.25525699  0.84940660  0.60270320  1
  Ti  Ti89  1  0.16387753  0.89481642  0.92976699  1
  Ti  Ti90  1  0.57238296  0.27649668  0.25583654  1
  Ti  Ti91  1  0.48415072  0.18885349  0.55678148  1
  Ti  Ti92  1  0.59501695  0.13653838  0.83504907  1
  Ti  Ti93  1  0.65530236  0.64396688  0.21614683  1
  Ti  Ti94  1  0.49977346  0.55690648  0.57911799  1
  Ti  Ti95  1  0.54513689  0.63169007  0.91595961  1
  Ti  Ti96  1  0.55141655  1.00786349  0.22341473  1
  Ti  Ti97  1  0.55298099  0.84401542  0.56184819  1
  Ti  Ti98  1  0.56665024  0.94801405  0.87242801  1
  Ti  Ti99  1  1.00088033  0.23767132  0.25256211  1
  Ti  Ti100  1  0.84680148  0.31215366  0.64118406  1
  Ti  Ti101  1  0.86558728  0.26574678  0.95249795  1
  Ti  Ti102  1  0.95021938  0.58929559  0.19645792  1
  Ti  Ti103  1  0.99362490  0.58541785  0.58154086  1
  Ti  Ti104  1  0.97721990  0.56710685  0.99540567  1
  Ti  Ti105  1  0.90044119  0.94068983  0.29411505  1
  Ti  Ti106  1  0.94257269  0.95121062  0.53831896  1
  Ti  Ti107  1  0.97989631  0.99116529  0.85874763  1
  Co  Co108  1  0.77282352  0.18495931  0.79304529  1
  Co  Co109  1  0.81812395  0.89429364  0.62050503  1
  Co  Co110  1  0.83902885  0.49474137  0.60472006  1
  Co  Co111  1  0.72910772  0.70842380  0.38572122  1
  Co  Co112  1  0.66730703  -0.06391063  0.30095955  1
  Co  Co113  1  -0.00106882  0.12141673  0.11430395  1
  Co  Co114  1  0.15721097  0.14052851  0.11921386  1
  Co  Co115  1  0.20005877  0.27833613  0.04077021  1
  Co  Co116  1  0.06650823  0.87762519  0.61937605  1
  Co  Co117  1  0.55716091  0.13468053  0.32631219  1
  Co  Co118  1  -0.03919097  0.40020393  -0.02492347  1
  Co  Co119  1  0.28130023  0.77418860  0.89239402  1
  Co  Co120  1  0.21112958  0.01719269  0.58925703  1
  Co  Co121  1  0.02920661  0.72595386  0.68825612  1
  Co  Co122  1  0.07535018  0.47683793  0.44753299  1
  Co  Co123  1  0.85765368  0.64074205  0.50518083  1
  Co  Co124  1  0.42151921  0.67925007  0.80232104  1
  Co  Co125  1  0.87840895  0.32895343  0.80432000  1
  Co  Co126  1  0.65084716  0.84390693  0.43074792  1
  Co  Co127  1  0.04057577  0.80494724  0.85946530  1
  Co  Co128  1  0.05379145  -0.07250466  0.33374881  1
  Co  Co129  1  0.64922090  0.50572497  0.61534113  1
  Co  Co130  1  0.56068715  0.78261592  0.81945899  1
  Co  Co131  1  0.28532368  0.70325480  0.69809207  1
  Co  Co132  1  0.62534221  0.54701605  0.33441295  1
  Co  Co133  1  -0.01050269  0.62388919  0.41027090  1
  Co  Co134  1  -0.12222401  0.36011599  0.32978516  1
  Co  Co135  1  0.16293577  0.27345133  0.66747118  1
  Co  Co136  1  0.25508251  0.62394024  0.83184151  1
  Co  Co137  1  0.49371663  0.21616797  0.71565302  1
  Co  Co138  1  0.31428643  0.68411122  0.32077919  1
  Co  Co139  1  0.47981888  0.63583504  0.27124660  1
  Co  Co140  1  0.58634427  0.78259259  0.29281650  1
  Co  Co141  1  0.29225708  0.37642448  -0.06209799  1
  Co  Co142  1  0.67345869  -0.05908260  0.57958386  1
  Co  Co143  1  0.28876462  -0.04061384  0.73584698  1
  Co  Co144  1  0.25924590  0.23066636  0.42544373  1
  Co  Co145  1  0.89493632  0.08951047  0.22830823  1
  Co  Co146  1  0.73489343  0.79444940  0.08101252  1
  Co  Co147  1  0.87258208  0.20138231  0.33627536  1
  Co  Co148  1  -0.07433612  0.77523463  0.57694587  1
  Co  Co149  1  0.24615856  0.28605504  0.79716628  1
  Co  Co150  1  0.52380792  0.48550315  0.74634563  1
  Co  Co151  1  0.61448896  0.68334288  0.58037743  1
  Co  Co152  1  0.26925421  0.40091040  0.66393264  1
  Co  Co153  1  0.69178629  0.02742121  0.74801858  1
  Co  Co154  1  0.57747248  0.79418725  -0.00994702  1
  Co  Co155  1  0.14035701  0.44058281  0.00092699  1
  Co  Co156  1  0.30314708  -0.12352529  0.02669228  1
  Co  Co157  1  0.66243963  -0.06546958  0.00895463  1
  Co  Co158  1  0.37467136  0.64853603  -0.03672284  1
  Co  Co159  1  0.80084646  0.64313087  0.14010365  1
  Co  Co160  1  0.64718053  0.66356372  0.05150547  1
  Co  Co161  1  0.85072648  0.49447643  0.07655357  1
  Ni  Ni162  1  0.35237892  -0.05047259  0.32048129  1
  Ni  Ni163  1  0.83114530  0.91774210  -0.00242168  1
  Ni  Ni164  1  0.75657406  0.29094428  0.24028029  1
  Ni  Ni165  1  0.18583482  0.71634016  0.21591991  1
  Ni  Ni166  1  0.63897142  0.42774930  0.20195943  1
  Ni  Ni167  1  0.69009721  0.39580905  0.35897714  1
  Ni  Ni168  1  0.10990464  0.19731063  0.37746199  1
  Ni  Ni169  1  0.38927651  0.43482996  0.12320768  1
  Ni  Ni170  1  0.15678886  0.81084044  0.07895343  1
  Ni  Ni171  1  0.00157995  -0.10004642  -0.00470221  1
  Ni  Ni172  1  0.65998202  0.15307123  0.18017433  1
  Ni  Ni173  1  0.83758114  0.59924293  0.34320343  1
  Ni  Ni174  1  0.41406915  0.29064854  0.20012132  1
  Ni  Ni175  1  -0.02928647  0.16361587  0.89611546  1
  Ni  Ni176  1  0.00869042  0.29449127  0.65943475  1
  Ni  Ni177  1  0.37333584  0.93639831  0.16420341  1
  Ni  Ni178  1  0.32646203  0.11329363  0.52467193  1
  Ni  Ni179  1  0.56173762  0.28441160  0.44378613  1
  Ni  Ni180  1  0.01534026  0.05102562  0.64545516  1
  Ni  Ni181  1  0.20294524  0.04482896  0.86101393  1
  Ni  Ni182  1  0.24014689  0.55077887  0.40853612  1
  Ni  Ni183  1  0.31491500  0.17811111  0.12767388  1
  Ni  Ni184  1  0.04420546  0.69675006  0.08617505  1
  Ni  Ni185  1  0.19908700  0.55823969  0.66079401  1
  Ni  Ni186  1  0.24683221  0.04348550  0.21738467  1
  Ni  Ni187  1  0.89448266  0.72802938  0.26310660  1
  Ni  Ni188  1  0.05070017  0.48639958  0.87075398  1
  Ni  Ni189  1  0.49314495  0.52444509  0.03695272  1
  Ni  Ni190  1  0.40552122  0.76120560  0.45622295  1
  Ni  Ni191  1  0.51175962  0.25732927  0.90390520  1
  Ni  Ni192  1  0.45000025  0.04671662  0.76483730  1
  Ni  Ni193  1  0.53639318  0.91015492  0.71156239  1
  Ni  Ni194  1  0.45945048  0.10488917  -0.03819684  1
  Ni  Ni195  1  0.66408662  0.17459958  0.52628732  1
  Ni  Ni196  1  0.64451455  0.49895422  0.87034412  1
  Ni  Ni197  1  0.84727353  0.28302020  0.47705437  1
  Ni  Ni198  1  0.71868643  0.19021737  -0.05308006  1
  Ni  Ni199  1  0.37749245  0.51831647  0.86319170  1
  Ni  Ni200  1  -0.07154750  0.95836085  0.13011193  1
  Ni  Ni201  1  0.09996851  0.77453738  0.36893282  1
  Ni  Ni202  1  0.81367066  0.10738746  0.45712649  1
  Ni  Ni203  1  0.85433329  -0.00190098  0.74461867  1
  Ni  Ni204  1  -0.06150061  0.17235111  0.56141468  1
  Ni  Ni205  1  0.31845926  0.94524758  0.47681360  1
  Ni  Ni206  1  0.44155252  0.06029929  0.42465677  1
  Ni  Ni207  1  0.31627107  0.50130871  0.54590609  1
  Ni  Ni208  1  0.56590814  0.35801426  0.62485020  1
  Ni  Ni209  1  0.64853365  0.34949632  -0.05201783  1
  Ni  Ni210  1  0.02665894  0.44688761  0.12070462  1
  Ni  Ni211  1  0.17913973  0.45097441  0.29309728  1
  Ni  Ni212  1  0.49263694  0.16284288  0.12680555  1
  Ni  Ni213  1  0.38426547  0.18122616  0.83657961  1
  Ni  Ni214  1  0.33212268  0.39284782  0.30213721  1
