# generated using pymatgen
data_Ti108Co54Ni53
_symmetry_space_group_name_H-M   'P 1'
_cell_length_a   14.70373045
_cell_length_b   14.63712027
_cell_length_c   14.59560753
_cell_angle_alpha   89.89510817
_cell_angle_beta   89.77839012
_cell_angle_gamma   90.09462085
_symmetry_Int_Tables_number   1
_chemical_formula_structural   Ti108Co54Ni53
_chemical_formula_sum   'Ti108 Co54 Ni53'
_cell_volume   3141.23752730
_cell_formula_units_Z   1
loop_
 _symmetry_equiv_pos_site_id
 _symmetry_equiv_pos_as_xyz
  1  'x, y, z'
loop_
 _atom_site_type_symbol
 _atom_site_label
 _atom_site_symmetry_multiplicity
 _atom_site_fract_x
 _atom_site_fract_y
 _atom_site_fract_z
 _atom_site_occupancy
  Ti  Ti0  1  0.09838733  0.08342261  0.30964976  1
  Ti  Ti1  1  0.07735060  0.13023071  0.59867314  1
  Ti  Ti2  1  0.14746288  -0.03039152  0.95377847  1
  Ti  Ti3  1  0.07014053  0.38985417  0.11728569  1
  Ti  Ti4  1  0.11859350  0.35353316  0.58361466  1
  Ti  Ti5  1  0.05994204  0.36750896  0.91723736  1
  Ti  Ti6  1  0.05109586  0.70704178  0.24123552  1
  Ti  Ti7  1  0.13133729  0.82590564  0.56938209  1
  Ti  Ti8  1  0.08937777  0.65738757  0.88281620  1
  Ti  Ti9  1  0.44580644  0.09423895  0.27776102  1
  Ti  Ti10  1  0.50501244  0.09069592  0.58028893  1
  Ti  Ti11  1  0.41272694  0.09900644  0.96530115  1
  Ti  Ti12  1  0.34407837  0.38666754  0.20297614  1
  Ti  Ti13  1  0.43339870  0.49368787  0.55801308  1
  Ti  Ti14  1  0.36626936  0.38120117  0.88741971  1
  Ti  Ti15  1  0.38129735  0.70282773  0.23907852  1
  Ti  Ti16  1  0.42999794  0.72498732  0.56634579  1
  Ti  Ti17  1  0.42420496  0.74283539  0.97823544  1
  Ti  Ti18  1  0.79028554  0.14438618  0.23385668  1
  Ti  Ti19  1  0.75076614  0.10967648  0.71956034  1
  Ti  Ti20  1  0.72423519  0.09959774  0.92471366  1
  Ti  Ti21  1  0.73659261  0.48812513  0.25077839  1
  Ti  Ti22  1  0.77964156  0.46157571  0.61229994  1
  Ti  Ti23  1  0.72409279  0.46749702  0.93164529  1
  Ti  Ti24  1  0.75451982  0.70164401  0.28223120  1
  Ti  Ti25  1  0.93562532  0.79400451  0.64143715  1
  Ti  Ti26  1  0.82726915  0.79397721  0.84723926  1
  Ti  Ti27  1  0.06471751  0.19879189  0.04324615  1
  Ti  Ti28  1  0.12782120  0.27654580  0.38740409  1
  Ti  Ti29  1  0.06187850  0.23197845  0.75908095  1
  Ti  Ti30  1  0.15210103  0.63679861  0.06982552  1
  Ti  Ti31  1  0.04578306  0.60584465  0.42132061  1
  Ti  Ti32  1  0.12032426  0.52783949  0.73290790  1
  Ti  Ti33  1  0.03540041  0.88459241  0.11854818  1
  Ti  Ti34  1  0.06490828  0.89212408  0.33685788  1
  Ti  Ti35  1  0.09845176  0.88093581  0.77387595  1
  Ti  Ti36  1  0.41939760  0.21897083  0.12041065  1
  Ti  Ti37  1  0.39715577  0.20316138  0.43410638  1
  Ti  Ti38  1  0.44058591  0.24441644  0.70108910  1
  Ti  Ti39  1  0.42948296  0.53619070  0.06790420  1
  Ti  Ti40  1  0.43396886  0.56359743  0.37690693  1
  Ti  Ti41  1  0.46603230  0.51470070  0.81059511  1
  Ti  Ti42  1  0.46777109  0.93079244  0.04530694  1
  Ti  Ti43  1  0.25212968  0.92869573  0.42601538  1
  Ti  Ti44  1  0.40666772  0.90789104  0.69412567  1
  Ti  Ti45  1  0.77683781  0.27523765  0.04152791  1
  Ti  Ti46  1  0.72790311  0.25931001  0.39836143  1
  Ti  Ti47  1  0.73611869  0.27353024  0.62469979  1
  Ti  Ti48  1  0.71847284  0.62979987  0.10837288  1
  Ti  Ti49  1  0.81418105  0.54974858  0.42165853  1
  Ti  Ti50  1  0.76025357  0.66129061  0.68201489  1
  Ti  Ti51  1  0.80016860  0.93811918  0.00713427  1
  Ti  Ti52  1  0.73735421  0.95154898  0.46032936  1
  Ti  Ti53  1  0.73541771  0.89057636  0.70048270  1
  Ti  Ti54  1  0.23391712  0.10811176  0.03608559  1
  Ti  Ti55  1  0.22361623  0.11383196  0.46792979  1
  Ti  Ti56  1  0.26663123  0.07648816  0.83219249  1
  Ti  Ti57  1  0.23837866  0.46979537  0.05784185  1
  Ti  Ti58  1  0.25491485  0.45098049  0.45725370  1
  Ti  Ti59  1  0.28978309  0.37029360  0.69902337  1
  Ti  Ti60  1  0.20687183  0.80868254  0.10814409  1
  Ti  Ti61  1  0.27965021  0.72821834  0.41185541  1
  Ti  Ti62  1  0.26112423  0.78495787  0.70284447  1
  Ti  Ti63  1  0.58829473  0.15963937  0.03238791  1
  Ti  Ti64  1  0.55581114  0.02156769  0.41992817  1
  Ti  Ti65  1  0.44345382  0.07057318  0.76141941  1
  Ti  Ti66  1  0.54606566  0.37613028  0.14074070  1
  Ti  Ti67  1  0.62323112  0.46064973  0.42312560  1
  Ti  Ti68  1  0.63664444  0.42422489  0.74707319  1
  Ti  Ti69  1  0.60891063  0.79498160  0.03610424  1
  Ti  Ti70  1  0.66497552  0.74805329  0.45504325  1
  Ti  Ti71  1  0.63479610  0.74010286  0.80605907  1
  Ti  Ti72  1  0.88225038  0.11805737  0.06062855  1
  Ti  Ti73  1  0.88146515  0.09366910  0.39118347  1
  Ti  Ti74  1  0.94694776  0.07569734  0.74962696  1
  Ti  Ti75  1  0.85955129  0.45681052  0.09293687  1
  Ti  Ti76  1  0.96930897  0.40732367  0.44564574  1
  Ti  Ti77  1  0.94759462  0.40727634  0.75954555  1
  Ti  Ti78  1  0.84186744  0.79206609  0.13454337  1
  Ti  Ti79  1  0.87566102  0.77946315  0.43040920  1
  Ti  Ti80  1  0.94405679  0.63573124  0.74754352  1
  Ti  Ti81  1  0.25653946  0.20007707  0.22125512  1
  Ti  Ti82  1  0.25016170  0.18914808  0.66417997  1
  Ti  Ti83  1  0.24956686  0.28891993  1.01946210  1
  Ti  Ti84  1  0.14933368  0.52481119  0.24068808  1
  Ti  Ti85  1  0.20341818  0.65217743  0.58081155  1
  Ti  Ti86  1  0.29764464  0.59379950  0.91498668  1
  Ti  Ti87  1  0.24366882  0.96906220  0.20090791  1
  Ti  Ti88  1  0.21948772  0.98069056  0.63633642  1
  Ti  Ti89  1  0.24054965  0.79145411  0.91836720  1
  Ti  Ti90  1  0.60795578  0.19932452  0.23119245  1
  Ti  Ti91  1  0.56208163  0.29645655  0.55349559  1
  Ti  Ti92  1  0.67519934  0.26612303  0.85553657  1
  Ti  Ti93  1  0.56255541  0.56384833  0.21760696  1
  Ti  Ti94  1  0.55867043  0.60121507  0.66846784  1
  Ti  Ti95  1  0.57988307  0.59971980  0.97148214  1
  Ti  Ti96  1  0.63550916  0.99140967  0.23110914  1
  Ti  Ti97  1  0.57842956  0.89120128  0.58970107  1
  Ti  Ti98  1  0.57471352  0.98593511  0.87725836  1
  Ti  Ti99  1  0.90924447  0.28544293  0.19571213  1
  Ti  Ti100  1  0.90867324  0.22214947  0.53988635  1
  Ti  Ti101  1  0.89723554  0.23965757  0.88028037  1
  Ti  Ti102  1  0.94898178  0.50876562  0.26430331  1
  Ti  Ti103  1  0.95692738  0.53047814  0.59437312  1
  Ti  Ti104  1  0.90026878  0.62887415  0.98662630  1
  Ti  Ti105  1  0.91696968  0.98211262  0.22371831  1
  Ti  Ti106  1  0.89290541  0.98632112  0.56902683  1
  Ti  Ti107  1  0.96870246  0.94565503  0.91042705  1
  Co  Co108  1  0.39388532  0.37845299  0.04592660  1
  Co  Co109  1  0.60050578  0.19479150  0.69937617  1
  Co  Co110  1  0.01753918  0.54741495  0.11612166  1
  Co  Co111  1  0.05065668  0.10975819  0.90408230  1
  Co  Co112  1  0.21791851  0.67732568  0.22733319  1
  Co  Co113  1  -0.03765642  0.35487145  0.61250227  1
  Co  Co114  1  0.51912475  0.83312224  -0.12108523  1
  Co  Co115  1  0.77653921  -0.03174545  0.16271320  1
  Co  Co116  1  0.60841235  0.45532628  0.58705017  1
  Co  Co117  1  0.10085043  0.23329550  0.20575014  1
  Co  Co118  1  0.49063666  0.66726378  0.84010097  1
  Co  Co119  1  0.09327498  0.71923331  0.70968325  1
  Co  Co120  1  0.28480394  0.07447282  0.31774068  1
  Co  Co121  1  -0.09685745  -0.06269929  0.38832403  1
  Co  Co122  1  0.52027997  0.06062474  0.13138238  1
  Co  Co123  1  0.64445701  0.60666894  0.35932228  1
  Co  Co124  1  0.62825067  0.73932042  0.61486800  1
  Co  Co125  1  0.49669837  0.77080665  0.71039390  1
  Co  Co126  1  0.38621979  0.03984983  0.43479786  1
  Co  Co127  1  0.11110523  0.45812829  0.38820050  1
  Co  Co128  1  0.11071626  0.51350798  0.54917135  1
  Co  Co129  1  0.30337566  0.51200296  0.77144304  1
  Co  Co130  1  0.29923087  0.82476516  0.55035938  1
  Co  Co131  1  -0.07185958  0.81757913  0.26924702  1
  Co  Co132  1  0.67103406  0.47280890  0.08930544  1
  Co  Co133  1  -0.03289000  0.53225055  0.86812066  1
  Co  Co134  1  0.87283566  0.62157450  0.16360172  1
  Co  Co135  1  0.01131754  0.03173138  0.05255839  1
  Co  Co136  1  0.80309281  0.63058450  0.85341699  1
  Co  Co137  1  0.84460756  0.39068769  0.31562145  1
  Co  Co138  1  0.35943395  0.06100073  0.13381493  1
  Co  Co139  1  0.91452255  0.80736621  -0.01166134  1
  Co  Co140  1  0.78761603  0.34220322  0.77603993  1
  Co  Co141  1  0.12228669  0.06571140  0.15314472  1
  Co  Co142  1  0.71945186  0.10309200  0.09817388  1
  Co  Co143  1  -0.06035307  0.30720228  0.03403961  1
  Co  Co144  1  0.55963217  0.19934083  0.39762592  1
  Co  Co145  1  0.47171551  0.44398195  0.28267850  1
  Co  Co146  1  0.53495962  0.44203364  -0.04964893  1
  Co  Co147  1  0.88212908  0.08140686  -0.09823115  1
  Co  Co148  1  0.64777720  0.57468729  0.82057869  1
  Co  Co149  1  0.02740310  0.68447489  0.56195880  1
  Co  Co150  1  0.09686385  0.51646224  -0.02762758  1
  Co  Co151  1  -0.02887932  0.13355424  0.20929459  1
  Co  Co152  1  0.25539718  -0.08089294  0.80311610  1
  Co  Co153  1  0.47732058  0.40763418  0.68525637  1
  Co  Co154  1  0.64549986  0.14642396  0.53160304  1
  Co  Co155  1  0.45844671  0.26917555  0.27815805  1
  Co  Co156  1  0.13845000  0.36630549  0.75548518  1
  Co  Co157  1  0.60663291  0.35035585  0.30417470  1
  Co  Co158  1  0.38133554  0.64239622  0.70483361  1
  Co  Co159  1  0.79304060  0.11083721  0.53703562  1
  Co  Co160  1  0.22626650  0.65431684  0.78179539  1
  Co  Co161  1  0.63959278  -0.03326343  0.04899505  1
  Ni  Ni162  1  0.54520118  0.15914637  0.85697229  1
  Ni  Ni163  1  0.50400795  0.68961392  0.11759828  1
  Ni  Ni164  1  0.80636732  0.50135856  0.77155385  1
  Ni  Ni165  1  0.27141428  0.51184567  0.61281582  1
  Ni  Ni166  1  0.60498739  0.02275266  0.70564427  1
  Ni  Ni167  1  0.87236932  0.40445075  -0.07943317  1
  Ni  Ni168  1  0.21094604  0.43607237  0.88751055  1
  Ni  Ni169  1  0.21380283  0.82414453  0.28804491  1
  Ni  Ni170  1  0.31519860  0.66924818  0.08097552  1
  Ni  Ni171  1  0.03345728  0.15053964  0.44544243  1
  Ni  Ni172  1  0.37251987  0.78003828  0.81878949  1
  Ni  Ni173  1  0.34541463  0.07134978  0.59651705  1
  Ni  Ni174  1  0.38811752  0.32902957  0.55852556  1
  Ni  Ni175  1  0.73477417  0.71301369  -0.03242551  1
  Ni  Ni176  1  0.00705677  0.71491882  0.08564651  1
  Ni  Ni177  1  0.92344256  0.25449233  0.36660105  1
  Ni  Ni178  1  -0.00219004  0.86485868  0.49817111  1
  Ni  Ni179  1  0.77504888  0.81371158  0.56556953  1
  Ni  Ni180  1  0.32833258  0.34137176  0.36276296  1
  Ni  Ni181  1  0.54340405  0.62201151  0.49498489  1
  Ni  Ni182  1  0.08246312  0.81041085  -0.03102889  1
  Ni  Ni183  1  0.36017073  0.21857272  0.85157088  1
  Ni  Ni184  1  0.69895632  0.09686885  0.37409767  1
  Ni  Ni185  1  0.19002715  0.36504457  0.26177139  1
  Ni  Ni186  1  0.24693262  0.27613747  0.50671960  1
  Ni  Ni187  1  0.52080928  0.32568292  0.81995989  1
  Ni  Ni188  1  0.26584974  0.57896840  0.35271015  1
  Ni  Ni189  1  0.09919126  -0.00409552  0.48136508  1
  Ni  Ni190  1  0.68194994  0.83310799  0.17500469  1
  Ni  Ni191  1  0.48271927  0.36156547  0.42245016  1
  Ni  Ni192  1  0.12059024  0.06438049  0.75450305  1
  Ni  Ni193  1  0.73119683  0.32468341  0.19465774  1
  Ni  Ni194  1  -0.09015028  0.65724629  0.32157734  1
  Ni  Ni195  1  0.02385827  0.36345854  0.28413153  1
  Ni  Ni196  1  0.11597639  0.75513253  0.41686185  1
  Ni  Ni197  1  0.89200055  0.23311808  0.70847195  1
  Ni  Ni198  1  0.36784178  0.82812431  0.13155928  1
  Ni  Ni199  1  0.69705634  0.59383172  0.53544927  1
  Ni  Ni200  1  0.78531396  -0.02578932  0.83129591  1
  Ni  Ni201  1  0.18613008  0.22123782  -0.12355240  1
  Ni  Ni202  1  -0.01392300  0.78011164  0.83113630  1
  Ni  Ni203  1  0.81438329  0.36893390  0.48343913  1
  Ni  Ni204  1  0.91001466  0.91670908  0.74238347  1
  Ni  Ni205  1  0.68333622  0.86848892  0.90490779  1
  Ni  Ni206  1  0.76867172  0.87227040  0.31169075  1
  Ni  Ni207  1  0.48020403  0.26874056  -0.03344725  1
  Ni  Ni208  1  0.32011749  0.55069097  0.19976498  1
  Ni  Ni209  1  0.63318681  0.32881479  0.01119417  1
  Ni  Ni210  1  0.29895961  -0.05733968  0.02078800  1
  Ni  Ni211  1  0.85621220  0.65721433  0.54838904  1
  Ni  Ni212  1  0.39822934  -0.05458643  0.88090183  1
  Ni  Ni213  1  0.04243509  -0.03517615  0.63976346  1
  Ni  Ni214  1  0.42912281  -0.08180695  0.52456979  1
