# generated using pymatgen
data_Ti108Co54Ni53
_symmetry_space_group_name_H-M   'P 1'
_cell_length_a   14.64630469
_cell_length_b   14.65012076
_cell_length_c   14.64815211
_cell_angle_alpha   89.73612146
_cell_angle_beta   89.86479886
_cell_angle_gamma   89.79102768
_symmetry_Int_Tables_number   1
_chemical_formula_structural   Ti108Co54Ni53
_chemical_formula_sum   'Ti108 Co54 Ni53'
_cell_volume   3142.99307115
_cell_formula_units_Z   1
loop_
 _symmetry_equiv_pos_site_id
 _symmetry_equiv_pos_as_xyz
  1  'x, y, z'
loop_
 _atom_site_type_symbol
 _atom_site_label
 _atom_site_symmetry_multiplicity
 _atom_site_fract_x
 _atom_site_fract_y
 _atom_site_fract_z
 _atom_site_occupancy
  Ti  Ti0  1  0.10141722  0.15365074  0.24058227  1
  Ti  Ti1  1  0.06990069  0.11245418  0.60765762  1
  Ti  Ti2  1  0.14135331  0.11894233  0.83510496  1
  Ti  Ti3  1  0.09827905  0.44580765  0.27782595  1
  Ti  Ti4  1  0.09672364  0.50006458  0.62317648  1
  Ti  Ti5  1  0.07567630  0.45882069  0.83693271  1
  Ti  Ti6  1  0.03337472  0.72342044  0.24347301  1
  Ti  Ti7  1  0.11693131  0.79991432  0.63929057  1
  Ti  Ti8  1  0.02509210  0.79377722  0.90014738  1
  Ti  Ti9  1  0.43252988  0.03682052  0.29850067  1
  Ti  Ti10  1  0.40209037  0.10564510  0.55244134  1
  Ti  Ti11  1  0.39035900  0.13532676  0.86618438  1
  Ti  Ti12  1  0.48069705  0.33556291  0.29726905  1
  Ti  Ti13  1  0.40761291  0.43884311  0.55705681  1
  Ti  Ti14  1  0.45851377  0.46953991  0.89217871  1
  Ti  Ti15  1  0.36015738  0.70793371  0.24461557  1
  Ti  Ti16  1  0.43271358  0.77037672  0.63447667  1
  Ti  Ti17  1  0.49936053  0.67705530  0.92553776  1
  Ti  Ti18  1  0.62201965  0.07192812  0.29866820  1
  Ti  Ti19  1  0.73042786  0.03067314  0.58485414  1
  Ti  Ti20  1  0.78477812  0.10614766  0.97373844  1
  Ti  Ti21  1  0.76997013  0.42423106  0.23952745  1
  Ti  Ti22  1  0.77026377  0.49193474  0.59727736  1
  Ti  Ti23  1  0.73820909  0.44820103  0.93377811  1
  Ti  Ti24  1  0.76747514  0.78452591  0.33777961  1
  Ti  Ti25  1  0.69554841  0.77554853  0.58986014  1
  Ti  Ti26  1  0.69212134  0.65705385  0.95132049  1
  Ti  Ti27  1  0.10823721  0.27068258  0.04108019  1
  Ti  Ti28  1  0.14988907  0.21200724  0.41383221  1
  Ti  Ti29  1  0.00964286  0.34052203  0.71358009  1
  Ti  Ti30  1  0.11673008  0.54958293  0.10001864  1
  Ti  Ti31  1  0.12009073  0.59273030  0.44165328  1
  Ti  Ti32  1  0.02751800  0.64557360  0.75646636  1
  Ti  Ti33  1  0.11661948  0.85899099  0.08696337  1
  Ti  Ti34  1  0.04145359  0.85936629  0.39022885  1
  Ti  Ti35  1  0.13178522  0.91062579  0.79030215  1
  Ti  Ti36  1  0.41826171  0.21166303  0.06834394  1
  Ti  Ti37  1  0.34672042  0.19812648  0.38845261  1
  Ti  Ti38  1  0.41519504  0.32768439  0.78167846  1
  Ti  Ti39  1  0.43922950  0.57663708  0.09085776  1
  Ti  Ti40  1  0.42296717  0.62829712  0.44506560  1
  Ti  Ti41  1  0.34986427  0.53761181  0.73253501  1
  Ti  Ti42  1  0.44021497  0.91884861  0.08739072  1
  Ti  Ti43  1  0.41347096  0.83714705  0.42092823  1
  Ti  Ti44  1  0.41112891  0.96407442  0.71729154  1
  Ti  Ti45  1  0.72322474  0.28613826  0.05781964  1
  Ti  Ti46  1  0.75327359  0.27501327  0.40251046  1
  Ti  Ti47  1  0.68843346  0.20628228  0.64984675  1
  Ti  Ti48  1  0.76243067  0.60906708  0.12661671  1
  Ti  Ti49  1  0.80314152  0.59447376  0.33531148  1
  Ti  Ti50  1  0.82302795  0.60380344  0.82176441  1
  Ti  Ti51  1  0.79517656  0.84853303  0.11468669  1
  Ti  Ti52  1  0.71297022  0.96182189  0.40554351  1
  Ti  Ti53  1  0.71005069  0.94917438  0.74056205  1
  Ti  Ti54  1  0.26784066  0.10018018  0.13462781  1
  Ti  Ti55  1  0.15189771  0.00734888  0.39538545  1
  Ti  Ti56  1  0.27971441  0.12565747  0.69359249  1
  Ti  Ti57  1  0.29452890  0.48877531  0.02991367  1
  Ti  Ti58  1  0.21161358  0.41251265  0.44325265  1
  Ti  Ti59  1  0.22579279  0.37706185  0.71972270  1
  Ti  Ti60  1  0.29757076  0.71664334  0.04320547  1
  Ti  Ti61  1  0.21986032  0.75028696  0.35717759  1
  Ti  Ti62  1  0.32332374  0.74270983  0.82262870  1
  Ti  Ti63  1  0.60843851  0.09801441  0.11034308  1
  Ti  Ti64  1  0.54292701  0.19742647  0.42260023  1
  Ti  Ti65  1  0.56679670  0.05849372  0.79310558  1
  Ti  Ti66  1  0.60120601  0.45119018  0.13635308  1
  Ti  Ti67  1  0.60562412  0.38384683  0.48035401  1
  Ti  Ti68  1  0.63119152  0.32858616  0.80880384  1
  Ti  Ti69  1  0.61030297  0.78704086  0.05578074  1
  Ti  Ti70  1  0.56249983  0.71871884  0.31739644  1
  Ti  Ti71  1  0.62345639  0.74637365  0.77406278  1
  Ti  Ti72  1  0.90991281  0.08352416  0.17061909  1
  Ti  Ti73  1  0.86049220  0.08661292  0.45617525  1
  Ti  Ti74  1  0.84467883  0.10938878  0.77246100  1
  Ti  Ti75  1  0.88680043  0.37652842  0.08119130  1
  Ti  Ti76  1  0.87999481  0.41188413  0.40909524  1
  Ti  Ti77  1  0.82277863  0.32415219  0.72427247  1
  Ti  Ti78  1  0.94746402  0.74117396  0.07818622  1
  Ti  Ti79  1  0.93906508  0.71509059  0.42425403  1
  Ti  Ti80  1  0.88578118  0.70420224  0.63891429  1
  Ti  Ti81  1  0.24064908  0.30434743  0.25796748  1
  Ti  Ti82  1  0.25167218  0.26618762  0.55443460  1
  Ti  Ti83  1  0.29043633  0.31864855  0.94963820  1
  Ti  Ti84  1  0.27306828  0.53096390  0.22145014  1
  Ti  Ti85  1  0.25076923  0.67515182  0.61458295  1
  Ti  Ti86  1  0.18118964  0.61239516  0.90577299  1
  Ti  Ti87  1  0.28444859  0.92284157  0.27469501  1
  Ti  Ti88  1  0.22953461  0.96146836  0.59157912  1
  Ti  Ti89  1  0.28023165  0.91767035  0.95941667  1
  Ti  Ti90  1  0.66190459  0.25652986  0.24025569  1
  Ti  Ti91  1  0.51914375  0.27310439  0.61213328  1
  Ti  Ti92  1  0.59851541  0.19035715  0.94188968  1
  Ti  Ti93  1  0.46903710  0.53187706  0.27550520  1
  Ti  Ti94  1  0.58544963  0.57492646  0.57875652  1
  Ti  Ti95  1  0.61026738  0.54304247  0.79322085  1
  Ti  Ti96  1  0.61470854  0.89550707  0.21358502  1
  Ti  Ti97  1  0.56531403  0.92248708  0.54354399  1
  Ti  Ti98  1  0.57530619  0.89581827  0.90655910  1
  Ti  Ti99  1  0.93204773  0.21093495  0.32291281  1
  Ti  Ti100  1  0.95015855  0.26014712  0.52052870  1
  Ti  Ti101  1  0.93810394  0.29026734  0.90265685  1
  Ti  Ti102  1  0.94424245  0.54820762  0.16959159  1
  Ti  Ti103  1  0.92236018  0.55835061  0.51689863  1
  Ti  Ti104  1  0.98398517  0.60725363  0.94391267  1
  Ti  Ti105  1  0.88080248  0.93406328  0.30673296  1
  Ti  Ti106  1  0.89707521  0.95244991  0.63464458  1
  Ti  Ti107  1  0.87551302  0.91953196  0.85051397  1
  Co  Co108  1  0.65630026  0.80692540  0.44021592  1
  Co  Co109  1  -0.02920128  0.88704167  0.18288953  1
  Co  Co110  1  0.83670543  0.71753181  -0.02510166  1
  Co  Co111  1  0.22763700  0.10766327  0.51287200  1
  Co  Co112  1  -0.07374210  0.40474645  0.58516537  1
  Co  Co113  1  0.65179736  0.64241276  0.43363293  1
  Co  Co114  1  -0.02399608  0.81523409  0.55428555  1
  Co  Co115  1  0.53240455  0.73124764  0.51123968  1
  Co  Co116  1  0.75324997  0.46652101  0.76279306  1
  Co  Co117  1  0.13017174  0.86117411  0.25819084  1
  Co  Co118  1  0.03646437  0.65119380  0.58658073  1
  Co  Co119  1  0.46524132  0.81225159  0.80392405  1
  Co  Co120  1  0.77821182  0.33057694  0.55122899  1
  Co  Co121  1  0.45047102  0.06816585  0.14313013  1
  Co  Co122  1  0.55563482  -0.09551269  0.36032585  1
  Co  Co123  1  0.36045288  0.20283790  0.22220533  1
  Co  Co124  1  0.93321626  0.52281457  0.69798941  1
  Co  Co125  1  0.75870791  0.14137874  0.13954679  1
  Co  Co126  1  0.36426957  0.27605968  0.64766924  1
  Co  Co127  1  0.79249428  0.67927075  0.49073939  1
  Co  Co128  1  0.11597634  0.29189066  0.86380401  1
  Co  Co129  1  0.05095792  0.40096149  0.12717044  1
  Co  Co130  1  -0.00835909  0.45136262  -0.01253951  1
  Co  Co131  1  0.42859824  0.81348455  -0.03432539  1
  Co  Co132  1  0.50237263  0.03275088  0.44578582  1
  Co  Co133  1  0.77531694  0.26481320  0.90287018  1
  Co  Co134  1  0.26402022  0.23889625  0.80771819  1
  Co  Co135  1  0.21089738  0.38963332  0.12883387  1
  Co  Co136  1  0.69718258  0.15350661  0.81119035  1
  Co  Co137  1  0.39084160  -0.07558033  0.55886684  1
  Co  Co138  1  0.47364568  0.64132252  0.76666649  1
  Co  Co139  1  0.18763369  0.56482072  0.74389521  1
  Co  Co140  1  0.72844358  0.48498698  0.43307048  1
  Co  Co141  1  0.27750502  0.86026946  0.13518598  1
  Co  Co142  1  0.55112523  0.52201553  0.41267378  1
  Co  Co143  1  0.88540757  0.21383804  0.04517943  1
  Co  Co144  1  0.41909653  -0.04291674  0.88108397  1
  Co  Co145  1  0.25273703  0.10050724  0.30186286  1
  Co  Co146  1  0.27616762  0.81468669  0.52126224  1
  Co  Co147  1  0.62966060  0.40742391  0.31553822  1
  Co  Co148  1  0.14821704  0.41948738  -0.02024649  1
  Co  Co149  1  0.82698881  0.26569054  0.21298936  1
  Co  Co150  1  0.51540484  0.18335282  0.24113994  1
  Co  Co151  1  0.89436302  0.74376308  0.82883146  1
  Co  Co152  1  0.13407022  0.60433573  0.27970240  1
  Co  Co153  1  0.28145964  0.83858163  0.69207661  1
  Co  Co154  1  0.01426877  0.02321062  0.30162595  1
  Co  Co155  1  0.16541111  0.73120584  0.77822786  1
  Co  Co156  1  0.42526080  0.30754634  0.47339763  1
  Co  Co157  1  0.06248443  -0.04883962  0.61819032  1
  Co  Co158  1  0.60504461  0.37052657  -0.02973971  1
  Co  Co159  1  0.71875765  -0.00651181  0.88944240  1
  Co  Co160  1  0.42706159  0.60900689  0.60719955  1
  Co  Co161  1  -0.01962559  0.84429314  0.73035988  1
  Ni  Ni162  1  0.68740909  0.12893961  0.45611007  1
  Ni  Ni163  1  0.45693870  0.14995135  0.70936198  1
  Ni  Ni164  1  0.58920271  0.62902684  0.12442201  1
  Ni  Ni165  1  0.02463114  0.11729430  0.43774576  1
  Ni  Ni166  1  0.52239789  0.04558565  -0.02479488  1
  Ni  Ni167  1  0.45767477  0.41012299  0.04618770  1
  Ni  Ni168  1  0.57131753  0.10160074  0.58648977  1
  Ni  Ni169  1  0.37611987  0.40234035  0.18393432  1
  Ni  Ni170  1  0.67287686  -0.04550626  0.04780497  1
  Ni  Ni171  1  0.56432601  0.89108292  0.70462938  1
  Ni  Ni172  1  0.09838095  0.33098684  0.56352329  1
  Ni  Ni173  1  0.18674091  0.78942701  -0.07252550  1
  Ni  Ni174  1  -0.02576284  0.55507451  0.33912253  1
  Ni  Ni175  1  0.35902569  0.05500005  0.00484301  1
  Ni  Ni176  1  0.32475713  0.00197742  0.42866609  1
  Ni  Ni177  1  0.34846188  0.42767344  0.35294569  1
  Ni  Ni178  1  0.84759341  0.54717804  0.00401534  1
  Ni  Ni179  1  -0.00462800  0.18662848  0.77538591  1
  Ni  Ni180  1  0.27609575  0.53565451  0.53842636  1
  Ni  Ni181  1  0.35505338  0.59853603  -0.08905229  1
  Ni  Ni182  1  0.84713799  0.16740946  0.61165085  1
  Ni  Ni183  1  0.23627269  0.16625138  -0.03013638  1
  Ni  Ni184  1  0.03909731  0.44726751  0.46343648  1
  Ni  Ni185  1  0.73766912  0.81787504  0.88058163  1
  Ni  Ni186  1  0.19643148  0.72091194  0.17942500  1
  Ni  Ni187  1  0.75290325  -0.01068898  0.20470431  1
  Ni  Ni188  1  0.13858317  0.23329824  0.70121956  1
  Ni  Ni189  1  0.44536392  0.85117410  0.24475069  1
  Ni  Ni190  1  0.12000229  0.74900974  0.48672629  1
  Ni  Ni191  1  0.50341975  0.45180509  0.70683350  1
  Ni  Ni192  1  0.27967864  0.58203314  0.37492850  1
  Ni  Ni193  1  0.00111265  0.01828912  0.75857457  1
  Ni  Ni194  1  0.64638217  0.57091230  0.27177639  1
  Ni  Ni195  1  0.46018659  0.74317268  0.11629919  1
  Ni  Ni196  1  0.83145824  0.86326680  0.48178642  1
  Ni  Ni197  1  0.26955043  -0.00608005  0.80046311  1
  Ni  Ni198  1  0.80483652  0.82058599  0.71984461  1
  Ni  Ni199  1  0.10479460  0.69809235  0.03777005  1
  Ni  Ni200  1  0.93740538  0.38964222  0.25112877  1
  Ni  Ni201  1  0.55572712  0.28692106  0.10699299  1
  Ni  Ni202  1  -0.01239815  0.25002386  0.16528346  1
  Ni  Ni203  1  0.64857271  0.38784042  0.65222002  1
  Ni  Ni204  1  0.26518257  0.46337780  0.86064372  1
  Ni  Ni205  1  0.72190572  0.63168687  0.68888891  1
  Ni  Ni206  1  0.46966074  0.29307373  0.92970243  1
  Ni  Ni207  1  0.97112188  -0.02943918  0.48081240  1
  Ni  Ni208  1  0.04736018  0.32007656  0.36705160  1
  Ni  Ni209  1  0.78700787  0.11786551  0.30635631  1
  Ni  Ni210  1  0.86442750  0.71808219  0.22127725  1
  Ni  Ni211  1  -0.09862104  0.45076104  0.84746166  1
  Ni  Ni212  1  0.14818511  0.00014123  0.19078414  1
  Ni  Ni213  1  0.58452371  0.53263280  -0.01528578  1
  Ni  Ni214  1  0.68972584  0.73365983  0.20285107  1
