# generated using pymatgen
data_Ti108Co54Ni53
_symmetry_space_group_name_H-M   'P 1'
_cell_length_a   14.65482941
_cell_length_b   14.60981894
_cell_length_c   14.64662807
_cell_angle_alpha   89.88291906
_cell_angle_beta   89.72395924
_cell_angle_gamma   90.17436182
_symmetry_Int_Tables_number   1
_chemical_formula_structural   Ti108Co54Ni53
_chemical_formula_sum   'Ti108 Co54 Ni53'
_cell_volume   3135.85002289
_cell_formula_units_Z   1
loop_
 _symmetry_equiv_pos_site_id
 _symmetry_equiv_pos_as_xyz
  1  'x, y, z'
loop_
 _atom_site_type_symbol
 _atom_site_label
 _atom_site_symmetry_multiplicity
 _atom_site_fract_x
 _atom_site_fract_y
 _atom_site_fract_z
 _atom_site_occupancy
  Ti  Ti0  1  0.05203547  0.03931596  0.23119058  1
  Ti  Ti1  1  0.13049691  0.06861254  0.54916346  1
  Ti  Ti2  1  0.00898151  0.08803499  0.89387462  1
  Ti  Ti3  1  0.10792089  0.47725329  0.24454194  1
  Ti  Ti4  1  0.16267031  0.34838243  0.63446842  1
  Ti  Ti5  1  0.07499682  0.40620639  0.94767923  1
  Ti  Ti6  1  0.08666352  0.82994671  0.29277787  1
  Ti  Ti7  1  0.01872504  0.73557449  0.60840466  1
  Ti  Ti8  1  0.10132653  0.78416988  0.91019082  1
  Ti  Ti9  1  0.40752804  0.04884424  0.23170121  1
  Ti  Ti10  1  0.44756586  0.13489389  0.56544390  1
  Ti  Ti11  1  0.44927874  0.07118401  0.96167871  1
  Ti  Ti12  1  0.47640667  0.40296821  0.29620405  1
  Ti  Ti13  1  0.36709260  0.43899374  0.65344068  1
  Ti  Ti14  1  0.38828718  0.48623368  0.93795187  1
  Ti  Ti15  1  0.43233083  0.73825941  0.26446425  1
  Ti  Ti16  1  0.42327145  0.76312971  0.54785589  1
  Ti  Ti17  1  0.43034405  0.69853045  0.93754357  1
  Ti  Ti18  1  0.66202589  0.02917347  0.24875928  1
  Ti  Ti19  1  0.71782635  0.07134514  0.66977534  1
  Ti  Ti20  1  0.80646702  0.13483690  0.86050995  1
  Ti  Ti21  1  0.77891984  0.35989364  0.25187008  1
  Ti  Ti22  1  0.69946510  0.42502691  0.58088599  1
  Ti  Ti23  1  0.71205656  0.39929302  0.94709290  1
  Ti  Ti24  1  0.78284296  0.67735282  0.22024508  1
  Ti  Ti25  1  0.79845985  0.70971938  0.66618632  1
  Ti  Ti26  1  0.71739893  0.71461488  0.85397539  1
  Ti  Ti27  1  0.03522942  0.21108874  0.04520446  1
  Ti  Ti28  1  0.10846391  0.16903955  0.36068034  1
  Ti  Ti29  1  0.11329451  0.24009812  0.81445065  1
  Ti  Ti30  1  0.13183035  0.57836298  0.06570256  1
  Ti  Ti31  1  0.05537693  0.55364231  0.45330101  1
  Ti  Ti32  1  0.00525538  0.51329664  0.80118721  1
  Ti  Ti33  1  0.07751226  0.85978299  0.11390964  1
  Ti  Ti34  1  0.07756355  0.89010907  0.47349761  1
  Ti  Ti35  1  0.09640379  0.91428135  0.66415985  1
  Ti  Ti36  1  0.35677154  0.19433918  0.11081471  1
  Ti  Ti37  1  0.45342010  0.27266710  0.42155229  1
  Ti  Ti38  1  0.44181121  0.25448897  0.71611984  1
  Ti  Ti39  1  0.44230360  0.53604758  0.17220156  1
  Ti  Ti40  1  0.35585031  0.61460198  0.38689397  1
  Ti  Ti41  1  0.47643495  0.62535635  0.69050074  1
  Ti  Ti42  1  0.37201727  0.93019893  0.06134523  1
  Ti  Ti43  1  0.45083161  0.96502821  0.46803141  1
  Ti  Ti44  1  0.45755309  0.97771281  0.67883544  1
  Ti  Ti45  1  0.79228152  0.23906557  0.09988485  1
  Ti  Ti46  1  0.77421353  0.25713560  0.42212537  1
  Ti  Ti47  1  0.68201652  0.25676656  0.74137968  1
  Ti  Ti48  1  0.66049204  0.57286063  0.07745857  1
  Ti  Ti49  1  0.78802973  0.56871532  0.43233316  1
  Ti  Ti50  1  0.80766054  0.54152124  0.79330218  1
  Ti  Ti51  1  0.73646329  0.88630465  0.13067257  1
  Ti  Ti52  1  0.79222559  0.96569277  0.39783050  1
  Ti  Ti53  1  0.77437297  0.88045284  0.73436950  1
  Ti  Ti54  1  0.18004660  0.16919681  0.14854438  1
  Ti  Ti55  1  0.28508222  0.08613102  0.45327405  1
  Ti  Ti56  1  0.28281590  0.10482518  0.74593327  1
  Ti  Ti57  1  0.25091095  0.40870829  0.09119320  1
  Ti  Ti58  1  0.13848343  0.37205819  0.43352451  1
  Ti  Ti59  1  0.21361973  0.45936775  0.79107125  1
  Ti  Ti60  1  0.26968619  0.75885666  0.09227038  1
  Ti  Ti61  1  0.19862363  0.70931410  0.44816965  1
  Ti  Ti62  1  0.25581293  0.63540801  0.68122166  1
  Ti  Ti63  1  0.65875524  0.11120040  0.03491536  1
  Ti  Ti64  1  0.59536200  0.12891548  0.39208912  1
  Ti  Ti65  1  0.60385319  0.08326464  0.83888209  1
  Ti  Ti66  1  0.52348744  0.39623030  0.06292155  1
  Ti  Ti67  1  0.59122867  0.47417353  0.44038487  1
  Ti  Ti68  1  0.51715364  0.44516663  0.77399474  1
  Ti  Ti69  1  0.60357058  0.72554468  0.17729107  1
  Ti  Ti70  1  0.57533275  0.78657672  0.40324832  1
  Ti  Ti71  1  0.60012888  0.78058371  0.68384036  1
  Ti  Ti72  1  0.93062613  -0.00301831  0.06303737  1
  Ti  Ti73  1  0.91373236  0.12078368  0.46520924  1
  Ti  Ti74  1  0.91573797  0.03485189  0.72647796  1
  Ti  Ti75  1  0.84053005  0.45971413  0.09155998  1
  Ti  Ti76  1  0.93160225  0.43158046  0.38293182  1
  Ti  Ti77  1  0.86687868  0.37258005  0.69020179  1
  Ti  Ti78  1  0.89713616  0.79761348  0.07615612  1
  Ti  Ti79  1  0.94029358  0.70177982  0.38212264  1
  Ti  Ti80  1  0.95503990  0.70312279  0.79501871  1
  Ti  Ti81  1  0.23927011  0.31751824  0.26247553  1
  Ti  Ti82  1  0.30256151  0.25662410  0.56621676  1
  Ti  Ti83  1  0.32993394  0.20097875  0.90564156  1
  Ti  Ti84  1  0.26099476  0.60088422  0.20703825  1
  Ti  Ti85  1  0.24054408  0.50624167  0.52755707  1
  Ti  Ti86  1  0.24572563  0.65117340  0.88605483  1
  Ti  Ti87  1  0.22594235  0.96577000  0.19571900  1
  Ti  Ti88  1  0.26965509  0.89155227  0.52685126  1
  Ti  Ti89  1  0.18388022  1.00947253  0.89595351  1
  Ti  Ti90  1  0.53719287  0.22122961  0.21132814  1
  Ti  Ti91  1  0.61630352  0.23583420  0.54940874  1
  Ti  Ti92  1  0.52462224  0.27303315  0.89114699  1
  Ti  Ti93  1  0.65546377  0.51792496  0.26429411  1
  Ti  Ti94  1  0.64965479  0.64868821  0.54832209  1
  Ti  Ti95  1  0.60554043  0.55800402  0.88679259  1
  Ti  Ti96  1  0.53586015  0.90588710  0.16977068  1
  Ti  Ti97  1  0.70205568  0.88776315  0.55338043  1
  Ti  Ti98  1  0.60029676  0.92677337  0.97926219  1
  Ti  Ti99  1  0.92727542  0.23836306  0.28613224  1
  Ti  Ti100  1  1.00374885  0.21742445  0.61995734  1
  Ti  Ti101  1  0.91621488  0.29600221  0.92963977  1
  Ti  Ti102  1  0.96507170  0.60005181  0.18961132  1
  Ti  Ti103  1  0.94995592  0.54493298  0.62023412  1
  Ti  Ti104  1  0.94319894  0.58973919  0.97960912  1
  Ti  Ti105  1  0.89072498  0.94165987  0.24202205  1
  Ti  Ti106  1  0.89558974  0.86377610  0.54444283  1
  Ti  Ti107  1  0.89796078  0.89904051  0.88663019  1
  Co  Co108  1  0.42893565  0.11325289  0.37729498  1
  Co  Co109  1  0.82827914  0.00651492  0.57491816  1
  Co  Co110  1  0.50969725  0.63793350  0.47486634  1
  Co  Co111  1  -0.04344491  0.75923967  0.22278681  1
  Co  Co112  1  0.66199102  0.86344540  0.28199728  1
  Co  Co113  1  0.82548809  0.09978705  0.31045410  1
  Co  Co114  1  0.61281182  -0.04860212  0.70515311  1
  Co  Co115  1  -0.11731916  0.45247499  0.91620838  1
  Co  Co116  1  0.25599626  0.74274057  0.27143152  1
  Co  Co117  1  0.03268279  0.71100217  0.03679695  1
  Co  Co118  1  0.83259512  0.52724556  0.27471275  1
  Co  Co119  1  0.58635337  0.04570272  0.55723322  1
  Co  Co120  1  0.33325418  -0.03061818  0.35318643  1
  Co  Co121  1  0.39432732  0.35507880  0.16301432  1
  Co  Co122  1  0.45745244  0.34344319  0.56025301  1
  Co  Co123  1  0.10566164  0.65247610  0.74782470  1
  Co  Co124  1  -0.05011475  0.42034004  0.22505707  1
  Co  Co125  1  -0.00917632  0.01651417  0.38140311  1
  Co  Co126  1  0.38226967  0.36851671  0.82813174  1
  Co  Co127  1  0.73346426  -0.01255458  0.83861287  1
  Co  Co128  1  0.92881724  0.30625548  0.12131409  1
  Co  Co129  1  0.12566967  0.63063391  0.57548198  1
  Co  Co130  1  0.31531106  0.59681856  0.03957836  1
  Co  Co131  1  0.12524978  0.70773849  0.16765715  1
  Co  Co132  1  0.09216529  0.60401973  0.90310545  1
  Co  Co133  1  0.13616897  0.22870996  0.50890716  1
  Co  Co134  1  0.35531059  0.87395270  0.22230910  1
  Co  Co135  1  0.74596364  0.41854346  0.39719711  1
  Co  Co136  1  0.53044731  0.50361665  0.59750498  1
  Co  Co137  1  0.38118336  0.22841465  0.27197555  1
  Co  Co138  1  0.17662790  0.18337383  0.65715623  1
  Co  Co139  1  0.65302928  0.64657639  0.36697164  1
  Co  Co140  1  0.56245054  0.13376548  0.68859338  1
  Co  Co141  1  0.20212947  0.53152361  0.36953610  1
  Co  Co142  1  0.00569273  0.45498066  0.07633341  1
  Co  Co143  1  0.79954042  0.32734662  0.82743622  1
  Co  Co144  1  0.54530754  0.87664254  0.56291889  1
  Co  Co145  1  0.49418158  0.90671942  0.31963591  1
  Co  Co146  1  -0.01326290  0.02462995  0.58186604  1
  Co  Co147  1  0.57713092  0.35081158  0.66126699  1
  Co  Co148  1  0.28054637  0.06525768  0.03464207  1
  Co  Co149  1  0.49421214  0.21598031  0.03705412  1
  Co  Co150  1  -0.05651015  0.86320159  0.37958523  1
  Co  Co151  1  0.37513881  0.80425321  0.40164055  1
  Co  Co152  1  0.50854879  0.58020747  0.31727520  1
  Co  Co153  1  0.87743193  0.14051539  0.00590677  1
  Co  Co154  1  0.78849541  0.54568647  0.62302336  1
  Co  Co155  1  0.06277017  0.32539026  0.30123711  1
  Co  Co156  1  0.10212051  0.33364360  0.14365708  1
  Co  Co157  1  0.62864874  0.85639830  0.83632523  1
  Co  Co158  1  0.04052963  -0.07597420  -0.02892543  1
  Co  Co159  1  0.59918737  0.70969473  -0.01803800  1
  Co  Co160  1  0.25520120  0.11595985  0.27885952  1
  Co  Co161  1  0.44099039  0.10639593  0.79628225  1
  Ni  Ni162  1  0.74976571  0.84906795  -0.04636213  1
  Ni  Ni163  1  0.17145016  0.16911558  -0.04290079  1
  Ni  Ni164  1  0.15742165  0.00381176  0.36692217  1
  Ni  Ni165  1  0.68873947  0.23511013  0.91735500  1
  Ni  Ni166  1  0.31131002  0.38834666  0.42976567  1
  Ni  Ni167  1  0.52465104  0.06437014  0.11438261  1
  Ni  Ni168  1  0.09126452  0.07205626  0.74122177  1
  Ni  Ni169  1  0.20898591  0.90320325  0.01923789  1
  Ni  Ni170  1  0.87949672  0.66845721  0.53203287  1
  Ni  Ni171  1  0.68815757  0.43363763  0.76094926  1
  Ni  Ni172  1  -0.01623940  0.27869926  0.45044377  1
  Ni  Ni173  1  0.83652181  0.18578344  0.62759241  1
  Ni  Ni174  1  -0.06674985  0.13302387  0.16410869  1
  Ni  Ni175  1  0.81175284  0.80766032  0.30783398  1
  Ni  Ni176  1  0.68167083  0.41629209  0.12913876  1
  Ni  Ni177  1  0.86470520  0.72922021  0.92838494  1
  Ni  Ni178  1  -0.06828746  0.21824197  0.77296262  1
  Ni  Ni179  1  0.76049600  0.76011265  0.46198471  1
  Ni  Ni180  1  0.49298914  -0.04860670  0.84575262  1
  Ni  Ni181  1  0.18662973  0.77816055  0.61483568  1
  Ni  Ni182  1  0.55067330  0.70422132  0.82200105  1
  Ni  Ni183  1  0.70159428  0.20173574  0.25506781  1
  Ni  Ni184  1  0.22393857  0.85884274  0.37130170  1
  Ni  Ni185  1  0.73313881  0.10986702  0.49273813  1
  Ni  Ni186  1  0.77874902  0.00500962  -0.01045320  1
  Ni  Ni187  1  0.63724588  0.27794820  0.06811260  1
  Ni  Ni188  1  0.37286730  0.60094699  0.56094887  1
  Ni  Ni189  1  0.77245438  0.57962358  -0.04371036  1
  Ni  Ni190  1  0.03001178  0.36408944  0.73644305  1
  Ni  Ni191  1  0.21657047  0.49766587  -0.05036592  1
  Ni  Ni192  1  0.27119427  0.28422333  0.74876117  1
  Ni  Ni193  1  0.26920834  0.23560874  0.40039090  1
  Ni  Ni194  1  0.01685082  0.40122892  0.56241717  1
  Ni  Ni195  1  0.31701056  0.46107400  0.27524646  1
  Ni  Ni196  1  0.62217693  -0.04009481  0.41600498  1
  Ni  Ni197  1  0.11265049  0.50227288  0.66465150  1
  Ni  Ni198  1  0.11062620  0.04329937  0.05850780  1
  Ni  Ni199  1  0.74580767  0.71967570  0.05739501  1
  Ni  Ni200  1  0.50483517  0.57196507  0.02227368  1
  Ni  Ni201  1  0.36388134  0.55564291  0.79216932  1
  Ni  Ni202  1  0.49289824  0.81619634  0.03794421  1
  Ni  Ni203  1  0.85469608  0.38488521  0.52290705  1
  Ni  Ni204  1  0.09568609  0.65210264  0.31452823  1
  Ni  Ni205  1  0.30666133  0.02902148  0.60723308  1
  Ni  Ni206  1  0.22854875  0.33472529  0.91349192  1
  Ni  Ni207  1  0.43141577  0.48466523  0.46326672  1
  Ni  Ni208  1  0.04831451  0.92586716  0.81524300  1
  Ni  Ni209  1  0.61603030  0.30929781  0.36221493  1
  Ni  Ni210  1  0.93742816  0.84756901  0.71402349  1
  Ni  Ni211  1  0.78556252  0.06715311  0.14246187  1
  Ni  Ni212  1  0.37798996  0.33030471  -0.00252408  1
  Ni  Ni213  1  0.43047220  0.68881021  0.10957390  1
  Ni  Ni214  1  0.64928035  0.59851848  0.71755128  1
