# generated using pymatgen
data_Ti108Co54Ni53
_symmetry_space_group_name_H-M   'P 1'
_cell_length_a   14.64341246
_cell_length_b   14.68007865
_cell_length_c   14.60426502
_cell_angle_alpha   90.16397218
_cell_angle_beta   90.01973411
_cell_angle_gamma   89.95642412
_symmetry_Int_Tables_number   1
_chemical_formula_structural   Ti108Co54Ni53
_chemical_formula_sum   'Ti108 Co54 Ni53'
_cell_volume   3139.41300895
_cell_formula_units_Z   1
loop_
 _symmetry_equiv_pos_site_id
 _symmetry_equiv_pos_as_xyz
  1  'x, y, z'
loop_
 _atom_site_type_symbol
 _atom_site_label
 _atom_site_symmetry_multiplicity
 _atom_site_fract_x
 _atom_site_fract_y
 _atom_site_fract_z
 _atom_site_occupancy
  Ti  Ti0  1  0.07598135  0.10117805  0.29693736  1
  Ti  Ti1  1  0.10611937  0.10767791  0.50092944  1
  Ti  Ti2  1  0.02955027  0.00391688  0.89273461  1
  Ti  Ti3  1  0.10706257  0.50697949  0.22378196  1
  Ti  Ti4  1  0.05174809  0.37724651  0.61527248  1
  Ti  Ti5  1  0.03717865  0.36896429  0.91257111  1
  Ti  Ti6  1  0.08143057  0.77007033  0.22810339  1
  Ti  Ti7  1  0.09560256  0.72654109  0.50513163  1
  Ti  Ti8  1  0.03346181  0.80347483  0.91508790  1
  Ti  Ti9  1  0.33666166  0.06130272  0.27761412  1
  Ti  Ti10  1  0.40155243  0.05267633  0.59050438  1
  Ti  Ti11  1  0.45459767  0.10750831  0.83920167  1
  Ti  Ti12  1  0.45266274  0.40812043  0.21442326  1
  Ti  Ti13  1  0.40805264  0.50316048  0.59251029  1
  Ti  Ti14  1  0.38828801  0.43006099  0.93112739  1
  Ti  Ti15  1  0.40811442  0.75906089  0.27239619  1
  Ti  Ti16  1  0.33843691  0.77221421  0.64886525  1
  Ti  Ti17  1  0.45735960  0.64372974  0.91266676  1
  Ti  Ti18  1  0.80547677  0.13709963  0.28154015  1
  Ti  Ti19  1  0.72253886  0.08662695  0.52739264  1
  Ti  Ti20  1  0.75436570  0.03098462  0.99083476  1
  Ti  Ti21  1  0.68518606  0.37880722  0.27602018  1
  Ti  Ti22  1  0.78507409  0.44672777  0.49135956  1
  Ti  Ti23  1  0.74421993  0.39059332  0.94295063  1
  Ti  Ti24  1  0.87432695  0.77278686  0.26490009  1
  Ti  Ti25  1  0.75632831  0.66142406  0.60883666  1
  Ti  Ti26  1  0.67101913  0.71350913  0.93822473  1
  Ti  Ti27  1  0.10050899  0.19660570  0.13749470  1
  Ti  Ti28  1  0.14131922  0.30515444  0.36546735  1
  Ti  Ti29  1  0.08877232  0.18286884  0.80221034  1
  Ti  Ti30  1  0.03253331  0.53663432  0.04601345  1
  Ti  Ti31  1  0.00015359  0.55951056  0.38249598  1
  Ti  Ti32  1  0.19110849  0.60292798  0.78153009  1
  Ti  Ti33  1  0.10628512  0.95508188  0.07545880  1
  Ti  Ti34  1  0.01857703  0.89420236  0.40900927  1
  Ti  Ti35  1  0.13193542  0.89575310  0.74224020  1
  Ti  Ti36  1  0.38175033  0.30413738  0.05928571  1
  Ti  Ti37  1  0.37976780  0.25444162  0.39004868  1
  Ti  Ti38  1  0.38055385  0.22402224  0.70758940  1
  Ti  Ti39  1  0.38355437  0.67580327  0.09693308  1
  Ti  Ti40  1  0.47160502  0.61436455  0.38233243  1
  Ti  Ti41  1  0.45530355  0.64118168  0.71793424  1
  Ti  Ti42  1  0.44563410  0.97684024  0.04227398  1
  Ti  Ti43  1  0.46152341  0.95081765  0.40881055  1
  Ti  Ti44  1  0.44492201  0.94884962  0.72902989  1
  Ti  Ti45  1  0.81583711  0.20263751  0.06893337  1
  Ti  Ti46  1  0.81607248  0.25153066  0.45554585  1
  Ti  Ti47  1  0.75153210  0.18555682  0.86594626  1
  Ti  Ti48  1  0.81637387  0.57598019  0.01282813  1
  Ti  Ti49  1  0.72648220  0.67732510  0.38778912  1
  Ti  Ti50  1  0.75694516  0.57060700  0.80299435  1
  Ti  Ti51  1  0.78028078  0.89170753  0.13262166  1
  Ti  Ti52  1  0.66224285  0.90953560  0.42437107  1
  Ti  Ti53  1  0.74269610  0.93022375  0.67821414  1
  Ti  Ti54  1  0.30142415  0.11283698  -0.00101329  1
  Ti  Ti55  1  0.29596431  0.05465665  0.45536966  1
  Ti  Ti56  1  0.21029222  0.07923551  0.67540596  1
  Ti  Ti57  1  0.20045279  0.42756435  0.04590810  1
  Ti  Ti58  1  0.32047857  0.41746633  0.43956468  1
  Ti  Ti59  1  0.23871393  0.44499809  0.68571987  1
  Ti  Ti60  1  0.21227758  0.77229836  0.06529904  1
  Ti  Ti61  1  0.28049960  0.73304133  0.45443377  1
  Ti  Ti62  1  0.24541911  0.76673991  0.84533617  1
  Ti  Ti63  1  0.58937247  0.10926080  0.10253032  1
  Ti  Ti64  1  0.61143561  0.06056010  0.29891999  1
  Ti  Ti65  1  0.62767367  0.03168279  0.79387683  1
  Ti  Ti66  1  0.58948675  0.40836215  0.06789739  1
  Ti  Ti67  1  0.51415241  0.42480835  0.39368001  1
  Ti  Ti68  1  0.55001794  0.47316080  0.84864113  1
  Ti  Ti69  1  0.54430407  0.80127577  0.08963056  1
  Ti  Ti70  1  0.56988178  0.76297990  0.52681019  1
  Ti  Ti71  1  0.59124249  0.82256787  0.78527820  1
  Ti  Ti72  1  0.93599378  0.04022325  0.10665020  1
  Ti  Ti73  1  0.92758687  0.09160588  0.46497743  1
  Ti  Ti74  1  0.98228186  0.02674842  0.69839731  1
  Ti  Ti75  1  0.90586450  0.38788958  0.07168631  1
  Ti  Ti76  1  0.95483415  0.37872976  0.40285172  1
  Ti  Ti77  1  0.93948670  0.45973965  0.75561781  1
  Ti  Ti78  1  0.90009051  0.74939993  0.05726871  1
  Ti  Ti79  1  0.89203135  0.75845295  0.48376365  1
  Ti  Ti80  1  0.90080288  0.71228588  0.75788139  1
  Ti  Ti81  1  0.28617168  0.24293636  0.22499381  1
  Ti  Ti82  1  0.24458466  0.22365813  0.53663584  1
  Ti  Ti83  1  0.22022306  0.28076652  0.90373579  1
  Ti  Ti84  1  0.29107825  0.57218794  0.26624250  1
  Ti  Ti85  1  0.15217387  0.54334360  0.52185787  1
  Ti  Ti86  1  0.27156168  0.59109276  0.96372808  1
  Ti  Ti87  1  0.23513001  0.90834737  0.23203484  1
  Ti  Ti88  1  0.21059915  0.90312800  0.53513660  1
  Ti  Ti89  1  0.31445342  0.95024330  0.88109294  1
  Ti  Ti90  1  0.54536989  0.24388350  0.29774785  1
  Ti  Ti91  1  0.57377084  0.22103260  0.53330734  1
  Ti  Ti92  1  0.55387092  0.27915278  0.90475149  1
  Ti  Ti93  1  0.61845346  0.55117809  0.25824991  1
  Ti  Ti94  1  0.58021941  0.57279461  0.53901466  1
  Ti  Ti95  1  0.60572948  0.61265315  1.08017071  1
  Ti  Ti96  1  0.56517714  0.87009744  0.26192923  1
  Ti  Ti97  1  0.57602666  0.95311084  0.60160572  1
  Ti  Ti98  1  0.62530344  0.91783554  0.96109471  1
  Ti  Ti99  1  0.85157424  0.31291195  0.24786899  1
  Ti  Ti100  1  0.92900966  0.20383442  0.62992031  1
  Ti  Ti101  1  0.98767677  0.20411090  0.98228343  1
  Ti  Ti102  1  0.90981740  0.60054945  0.19452557  1
  Ti  Ti103  1  0.96466185  0.63300291  0.61121547  1
  Ti  Ti104  1  0.98706210  0.61262914  0.87725761  1
  Ti  Ti105  1  0.90162077  0.97287414  0.28385231  1
  Ti  Ti106  1  0.86974613  0.93923723  0.53747031  1
  Ti  Ti107  1  0.83951643  0.89958530  0.84725477  1
  Co  Co108  1  -0.03837629  0.87316930  0.15149433  1
  Co  Co109  1  0.30910935  -0.10975108  0.38326438  1
  Co  Co110  1  0.15633917  0.81127733  0.37227619  1
  Co  Co111  1  0.80191113  0.04688525  0.79572876  1
  Co  Co112  1  0.35196625  0.80050421  -0.02373842  1
  Co  Co113  1  0.48947510  -0.05153085  0.88277236  1
  Co  Co114  1  0.60611450  0.11001588  0.93341310  1
  Co  Co115  1  0.72572628  -0.05247537  0.27131573  1
  Co  Co116  1  0.70435966  0.78446938  0.25828260  1
  Co  Co117  1  -0.07546124  -0.08534647  -0.00211216  1
  Co  Co118  1  0.07122128  -0.05073162  0.24105778  1
  Co  Co119  1  0.75415566  0.63508566  0.21807623  1
  Co  Co120  1  0.75081285  0.05877685  0.15366597  1
  Co  Co121  1  0.17157689  0.88714495  -0.06721069  1
  Co  Co122  1  0.30468678  0.39950427  0.27721031  1
  Co  Co123  1  0.46478730  0.11706821  0.38277271  1
  Co  Co124  1  0.61567833  0.68216911  0.67386217  1
  Co  Co125  1  0.59720817  0.63215003  0.82110481  1
  Co  Co126  1  0.90032437  0.47383094  -0.08216389  1
  Co  Co127  1  0.68346600  0.21697206  0.20064058  1
  Co  Co128  1  0.13065883  0.67136998  0.94480289  1
  Co  Co129  1  0.74888094  0.34444746  0.11583069  1
  Co  Co130  1  0.88873731  0.35433272  0.58549994  1
  Co  Co131  1  0.17528720  0.02663757  0.83210814  1
  Co  Co132  1  0.56316754  0.70023188  0.21414232  1
  Co  Co133  1  0.67446735  0.18220802  0.38516112  1
  Co  Co134  1  0.78432173  0.02708009  0.39681908  1
  Co  Co135  1  0.56592503  0.06397109  0.48907625  1
  Co  Co136  1  0.15910773  0.63658314  0.36293265  1
  Co  Co137  1  0.11774428  0.37270305  0.77203826  1
  Co  Co138  1  0.52106122  0.11901818  0.67224066  1
  Co  Co139  1  0.49621700  0.80447181  0.65797160  1
  Co  Co140  1  0.42006738  0.66166696  0.54431997  1
  Co  Co141  1  0.83538332  0.07471045  0.64296220  1
  Co  Co142  1  0.22530030  0.25385358  0.06370985  1
  Co  Co143  1  0.39047308  0.89422713  0.55000430  1
  Co  Co144  1  0.51246755  0.79055819  -0.06432316  1
  Co  Co145  1  0.65846193  0.53374334  0.94767005  1
  Co  Co146  1  0.41229037  0.20003680  0.54012822  1
  Co  Co147  1  0.47654477  0.35345983  0.52331053  1
  Co  Co148  1  0.06326738  0.34692720  0.08075425  1
  Co  Co149  1  0.56942961  0.52516480  0.69514608  1
  Co  Co150  1  0.58065097  0.74250689  0.36588821  1
  Co  Co151  1  -0.05573855  0.18359591  0.17730491  1
  Co  Co152  1  0.21857381  0.16031915  0.36249232  1
  Co  Co153  1  0.17569049  0.35899354  0.19669211  1
  Co  Co154  1  0.10544547  0.51073289  0.89950117  1
  Co  Co155  1  0.27445363  -0.05559555  0.05112634  1
  Co  Co156  1  0.17362145  0.47262071  0.36850910  1
  Co  Co157  1  0.81583397  0.86218911  0.38522974  1
  Co  Co158  1  -0.02395524  0.30239229  0.75015577  1
  Co  Co159  1  0.62011093  -0.04491548  0.12937048  1
  Co  Co160  1  0.20242514  0.61060827  0.11422455  1
  Co  Co161  1  0.73217746  0.73334506  0.09884848  1
  Ni  Ni162  1  0.89142733  0.07669661  -0.06185786  1
  Ni  Ni163  1  0.65882006  0.50926952  0.40882891  1
  Ni  Ni164  1  0.02682221  0.31322493  0.24272957  1
  Ni  Ni165  1  0.17629322  0.37416154  0.51402684  1
  Ni  Ni166  1  0.87885164  0.30736728  0.89151511  1
  Ni  Ni167  1  0.05066922  -0.03160879  0.55799761  1
  Ni  Ni168  1  0.83720784  0.70693377  0.90586142  1
  Ni  Ni169  1  0.06884095  0.72306134  0.75683369  1
  Ni  Ni170  1  0.33483801  0.34385018  0.59945136  1
  Ni  Ni171  1  0.16590517  -0.02110296  0.37909160  1
  Ni  Ni172  1  0.46586834  0.16605950  -0.00200449  1
  Ni  Ni173  1  -0.02698714  0.86890042  0.76192662  1
  Ni  Ni174  1  0.73679683  0.74807189  0.77045535  1
  Ni  Ni175  1  0.52874868  0.26487364  0.12948000  1
  Ni  Ni176  1  0.07418822  0.53730483  0.68835009  1
  Ni  Ni177  1  0.68591906  0.13140591  0.68160527  1
  Ni  Ni178  1  0.81346496  0.51064781  0.32759563  1
  Ni  Ni179  1  0.24565599  0.73493362  0.23947568  1
  Ni  Ni180  1  0.66121023  0.24587742  0.02168988  1
  Ni  Ni181  1  0.47027928  0.52588762  0.03671537  1
  Ni  Ni182  1  0.00954890  0.81758803  0.61120318  1
  Ni  Ni183  1  0.65697533  0.33895757  0.43743331  1
  Ni  Ni184  1  0.28432396  -0.07131081  0.69058310  1
  Ni  Ni185  1  0.73385663  0.81505285  0.53372232  1
  Ni  Ni186  1  0.21899689  0.07474480  0.14990809  1
  Ni  Ni187  1  0.10564269  0.21731361  0.63969467  1
  Ni  Ni188  1  0.46660167  -0.01078905  0.20600640  1
  Ni  Ni189  1  0.38695161  0.25968579  0.88431371  1
  Ni  Ni190  1  0.40347576  0.14236727  0.14511815  1
  Ni  Ni191  1  0.77252553  0.84064175  -0.02182302  1
  Ni  Ni192  1  0.01530789  0.25360009  0.49493472  1
  Ni  Ni193  1  0.83219376  0.51634156  0.64255087  1
  Ni  Ni194  1  0.85638809  0.59551312  0.47248697  1
  Ni  Ni195  1  -0.05363995  0.45290100  0.24169475  1
  Ni  Ni196  1  -0.03312758  0.49121081  0.53647415  1
  Ni  Ni197  1  0.28202117  0.14396916  0.82377010  1
  Ni  Ni198  1  -0.08029572  0.16134616  0.80452688  1
  Ni  Ni199  1  0.17920693  0.76494251  0.64490480  1
  Ni  Ni200  1  0.05011476  0.69213970  0.08837228  1
  Ni  Ni201  1  0.00490572  0.71687406  0.35870436  1
  Ni  Ni202  1  0.84971021  0.81066432  0.64792992  1
  Ni  Ni203  1  0.95302826  0.20990071  0.34725373  1
  Ni  Ni204  1  0.13519008  0.12103726  -0.02276108  1
  Ni  Ni205  1  0.27348685  0.61190869  0.62236632  1
  Ni  Ni206  1  0.43463807  0.78588941  0.43079128  1
  Ni  Ni207  1  0.30716665  0.57620308  0.44428214  1
  Ni  Ni208  1  0.24066130  0.44131183  -0.13914686  1
  Ni  Ni209  1  0.33340786  0.49124122  0.11750415  1
  Ni  Ni210  1  0.72965635  0.49849758  0.12764731  1
  Ni  Ni211  1  0.40588854  0.80397745  0.81095304  1
  Ni  Ni212  1  0.45701709  0.57583134  0.20682207  1
  Ni  Ni213  1  0.35854761  0.52878429  0.78922288  1
  Ni  Ni214  1  0.37519529  0.84763542  0.13807668  1
