# generated using pymatgen
data_Ti108Co54Ni53
_symmetry_space_group_name_H-M   'P 1'
_cell_length_a   14.67425466
_cell_length_b   14.66857394
_cell_length_c   14.56046129
_cell_angle_alpha   90.17293240
_cell_angle_beta   90.45021001
_cell_angle_gamma   89.70346831
_symmetry_Int_Tables_number   1
_chemical_formula_structural   Ti108Co54Ni53
_chemical_formula_sum   'Ti108 Co54 Ni53'
_cell_volume   3133.99234177
_cell_formula_units_Z   1
loop_
 _symmetry_equiv_pos_site_id
 _symmetry_equiv_pos_as_xyz
  1  'x, y, z'
loop_
 _atom_site_type_symbol
 _atom_site_label
 _atom_site_symmetry_multiplicity
 _atom_site_fract_x
 _atom_site_fract_y
 _atom_site_fract_z
 _atom_site_occupancy
  Ti  Ti0  1  0.05881486  0.11417761  0.25418053  1
  Ti  Ti1  1  0.10253321  0.05090368  0.54566726  1
  Ti  Ti2  1  0.05261669  0.01621065  0.89882403  1
  Ti  Ti3  1  -0.00400027  0.42411679  0.25760385  1
  Ti  Ti4  1  0.07525682  0.48242493  0.55357968  1
  Ti  Ti5  1  0.12104430  0.45335702  0.88389073  1
  Ti  Ti6  1  0.04245054  0.78044076  0.22191895  1
  Ti  Ti7  1  0.17029394  0.75083871  0.52620381  1
  Ti  Ti8  1  0.08079619  0.72457165  0.86243476  1
  Ti  Ti9  1  0.40992344  0.08607505  0.30419374  1
  Ti  Ti10  1  0.33880722  0.13415806  0.60943903  1
  Ti  Ti11  1  0.41869020  0.01644770  0.92041292  1
  Ti  Ti12  1  0.51416551  0.42335828  0.22954656  1
  Ti  Ti13  1  0.33115432  0.34161907  0.56401361  1
  Ti  Ti14  1  0.42718771  0.41977594  0.90906852  1
  Ti  Ti15  1  0.46801490  0.77439155  0.22602670  1
  Ti  Ti16  1  0.43486127  0.70056158  0.60970208  1
  Ti  Ti17  1  0.38927322  0.74656887  0.99850914  1
  Ti  Ti18  1  0.76743020  0.10378490  0.24314523  1
  Ti  Ti19  1  0.73679024  -0.00622531  0.57031815  1
  Ti  Ti20  1  0.75779386  0.07577675  0.88780961  1
  Ti  Ti21  1  0.69849513  0.36927961  0.23584600  1
  Ti  Ti22  1  0.74280893  0.41352033  0.54178359  1
  Ti  Ti23  1  0.70309741  0.37920112  0.95505595  1
  Ti  Ti24  1  0.82800662  0.79641831  0.26531041  1
  Ti  Ti25  1  0.76034494  0.79027545  0.48860296  1
  Ti  Ti26  1  0.76307651  0.72812384  0.92367652  1
  Ti  Ti27  1  0.07735715  0.21326718  0.08112920  1
  Ti  Ti28  1  0.07907737  0.32407195  0.42067205  1
  Ti  Ti29  1  0.07282980  0.18877708  0.84149759  1
  Ti  Ti30  1  0.11335306  0.52992257  0.09666621  1
  Ti  Ti31  1  0.14590206  0.58774620  0.43068101  1
  Ti  Ti32  1  -0.00276378  0.59252486  0.72944813  1
  Ti  Ti33  1  0.06399179  0.86628524  0.01370832  1
  Ti  Ti34  1  0.03207003  0.87917071  0.52340160  1
  Ti  Ti35  1  0.17016867  0.87710221  0.67822583  1
  Ti  Ti36  1  0.42640050  0.26598438  0.03882579  1
  Ti  Ti37  1  0.39983095  0.32048521  0.36016626  1
  Ti  Ti38  1  0.42937686  0.28651532  0.75593089  1
  Ti  Ti39  1  0.40729895  0.58136424  0.17801052  1
  Ti  Ti40  1  0.39929170  0.65701372  0.37285699  1
  Ti  Ti41  1  0.46435168  0.54230227  0.77074044  1
  Ti  Ti42  1  0.38143937  0.92039683  0.11577536  1
  Ti  Ti43  1  0.46505563  0.92045101  0.41333851  1
  Ti  Ti44  1  0.39026088  0.99027067  0.73516350  1
  Ti  Ti45  1  0.78024768  0.26705229  0.11039677  1
  Ti  Ti46  1  0.68507328  0.22313438  0.49015853  1
  Ti  Ti47  1  0.73319794  0.26687370  0.67739563  1
  Ti  Ti48  1  0.78742832  0.53397048  0.07971213  1
  Ti  Ti49  1  0.74498874  0.55548554  0.41549136  1
  Ti  Ti50  1  0.80939624  0.56721628  0.81139617  1
  Ti  Ti51  1  0.75678465  0.83305391  0.08702478  1
  Ti  Ti52  1  0.77897004  0.95738085  0.37442926  1
  Ti  Ti53  1  0.73588195  0.91584001  0.76751389  1
  Ti  Ti54  1  0.22427324  0.05200538  0.10485918  1
  Ti  Ti55  1  0.27976125  0.03910186  0.44508536  1
  Ti  Ti56  1  0.22684042  0.05583758  0.81352539  1
  Ti  Ti57  1  0.28092139  0.43763270  0.05500475  1
  Ti  Ti58  1  0.29959958  0.48021809  0.42436164  1
  Ti  Ti59  1  0.21196185  0.34835987  0.71408851  1
  Ti  Ti60  1  0.22249910  0.81458042  0.11572549  1
  Ti  Ti61  1  0.22042603  0.74361568  0.33385986  1
  Ti  Ti62  1  0.28590824  0.76861911  0.79601876  1
  Ti  Ti63  1  0.48690918  0.08057239  0.10644503  1
  Ti  Ti64  1  0.61428938  0.05916709  0.42395062  1
  Ti  Ti65  1  0.58199821  0.14417243  0.79613808  1
  Ti  Ti66  1  0.59466044  0.51122458  0.07975620  1
  Ti  Ti67  1  0.59061793  0.35312208  0.39546728  1
  Ti  Ti68  1  0.61035222  0.40067136  0.76861552  1
  Ti  Ti69  1  0.57637685  0.83265120  0.07133321  1
  Ti  Ti70  1  0.57588307  0.76531018  0.40014702  1
  Ti  Ti71  1  0.57309064  0.81184427  0.83660004  1
  Ti  Ti72  1  0.90876878  0.08761493  0.09343432  1
  Ti  Ti73  1  0.94353083  0.04771920  0.43522909  1
  Ti  Ti74  1  0.87855848  0.16630992  0.76713915  1
  Ti  Ti75  1  0.97260446  0.38021540  0.05804854  1
  Ti  Ti76  1  0.92162181  0.39759892  0.47920947  1
  Ti  Ti77  1  0.91768173  0.36738622  0.67938481  1
  Ti  Ti78  1  0.90673789  0.70731191  0.10465003  1
  Ti  Ti79  1  1.01101393  0.70309965  0.40462053  1
  Ti  Ti80  1  0.97712663  0.80045436  0.69561594  1
  Ti  Ti81  1  0.22920128  0.25120980  0.26689936  1
  Ti  Ti82  1  0.18533720  0.21865566  0.54776490  1
  Ti  Ti83  1  0.26751381  0.26781616  0.89564128  1
  Ti  Ti84  1  0.23112381  0.55763960  0.25013567  1
  Ti  Ti85  1  0.25561533  0.54008747  0.62555906  1
  Ti  Ti86  1  0.30621196  0.59778848  0.89787225  1
  Ti  Ti87  1  0.20080084  0.93032735  0.28055361  1
  Ti  Ti88  1  0.34834792  0.89485347  0.58564830  1
  Ti  Ti89  1  0.26841845  0.91503499  0.94995199  1
  Ti  Ti90  1  0.51628608  0.23740698  0.21864680  1
  Ti  Ti91  1  0.49788479  0.23781527  0.55421885  1
  Ti  Ti92  1  0.63386116  0.19678268  0.99492352  1
  Ti  Ti93  1  0.57830896  0.59557163  0.29144649  1
  Ti  Ti94  1  0.56810978  0.51709536  0.60627423  1
  Ti  Ti95  1  0.55039934  0.63329733  0.92687246  1
  Ti  Ti96  1  0.64227031  0.89522239  0.27349724  1
  Ti  Ti97  1  0.55525866  0.98173625  0.61671662  1
  Ti  Ti98  1  0.60300586  1.00453130  0.96931255  1
  Ti  Ti99  1  0.86434026  0.26929816  0.32075100  1
  Ti  Ti100  1  0.97381609  0.19864770  0.58294412  1
  Ti  Ti101  1  0.91862082  0.31208315  0.89083476  1
  Ti  Ti102  1  0.87577079  0.58644565  0.26525064  1
  Ti  Ti103  1  0.90089198  0.59110942  0.54455478  1
  Ti  Ti104  1  0.96327256  0.59040470  0.94647288  1
  Ti  Ti105  1  0.95789401  0.95519949  0.26069373  1
  Ti  Ti106  1  0.92117323  1.00644371  0.64585818  1
  Ti  Ti107  1  0.86811496  0.93370612  0.96303550  1
  Co  Co108  1  0.40573878  0.86540091  0.83082437  1
  Co  Co109  1  0.85191414  0.41046349  0.17995274  1
  Co  Co110  1  0.17032713  0.13377300  -0.03525843  1
  Co  Co111  1  0.83080976  0.43580704  0.34485611  1
  Co  Co112  1  0.05745851  0.04850242  0.06103806  1
  Co  Co113  1  0.31947049  0.72067322  0.20614549  1
  Co  Co114  1  0.06261969  0.27621812  0.25765504  1
  Co  Co115  1  0.45807954  0.49764446  0.36734906  1
  Co  Co116  1  0.10265698  0.46841020  0.71100652  1
  Co  Co117  1  0.64496009  0.17280366  0.15357141  1
  Co  Co118  1  0.33264878  0.62142336  0.73557418  1
  Co  Co119  1  0.35050786  0.15307967  0.16116372  1
  Co  Co120  1  0.71461928  0.52663397  0.24075795  1
  Co  Co121  1  0.15106025  0.16673911  0.39621781  1
  Co  Co122  1  0.57921812  0.08128264  0.27031086  1
  Co  Co123  1  0.34265716  0.44622969  0.24993277  1
  Co  Co124  1  0.63312019  0.13518601  0.61211350  1
  Co  Co125  1  0.21404724  0.75959219  -0.04040601  1
  Co  Co126  1  0.67571084  0.67107673  0.04263968  1
  Co  Co127  1  0.38053197  0.14278564  0.81198177  1
  Co  Co128  1  0.44185949  0.42063298  0.08745519  1
  Co  Co129  1  0.92422622  0.77526736  -0.03094658  1
  Co  Co130  1  0.42516273  0.42408700  0.67243547  1
  Co  Co131  1  0.73771436  0.07587577  0.72617292  1
  Co  Co132  1  0.63032999  0.90339045  0.46794832  1
  Co  Co133  1  0.33653844  0.19349624  0.44278900  1
  Co  Co134  1  0.44582583  0.70736207  0.81566322  1
  Co  Co135  1  0.35662874  0.31149787  0.18039876  1
  Co  Co136  1  0.55413843  -0.03209568  0.79297672  1
  Co  Co137  1  0.10137145  0.01039827  0.38503401  1
  Co  Co138  1  0.09087469  -0.06276797  0.16542047  1
  Co  Co139  1  -0.07000821  0.11452133  0.92278954  1
  Co  Co140  1  -0.08628257  0.75969330  0.54429206  1
  Co  Co141  1  0.09032763  0.84740281  0.37107909  1
  Co  Co142  1  0.76355451  0.66945976  0.17432947  1
  Co  Co143  1  0.15883140  0.68006226  0.17675077  1
  Co  Co144  1  0.48359716  0.12130735  0.67286481  1
  Co  Co145  1  0.85484092  0.68135669  0.41081494  1
  Co  Co146  1  0.24155313  0.32454697  0.41980226  1
  Co  Co147  1  0.70112582  0.88803867  0.92776823  1
  Co  Co148  1  0.60262526  0.35432057  0.60102465  1
  Co  Co149  1  0.59843603  0.33488329  0.08965322  1
  Co  Co150  1  0.28207785  0.73619519  0.63303180  1
  Co  Co151  1  -0.07011769  0.88365772  0.11297288  1
  Co  Co152  1  0.11102698  0.30697954  -0.04925884  1
  Co  Co153  1  -0.04864706  0.46447569  0.81175017  1
  Co  Co154  1  0.48085121  0.87713726  -0.03497252  1
  Co  Co155  1  0.82799454  0.85342424  0.65288154  1
  Co  Co156  1  -0.02097606  0.19931305  0.41033295  1
  Co  Co157  1  0.29062310  0.64531635  0.48891083  1
  Co  Co158  1  0.60391401  0.49357620  0.45029133  1
  Co  Co159  1  0.22798584  0.02242776  0.64055874  1
  Co  Co160  1  0.48804077  0.16023594  -0.06775597  1
  Co  Co161  1  0.13669450  0.45156037  0.34417075  1
  Ni  Ni162  1  0.83058495  0.50244367  0.66253192  1
  Ni  Ni163  1  0.35174612  0.86599610  0.29819691  1
  Ni  Ni164  1  0.92443442  0.84366003  0.38507034  1
  Ni  Ni165  1  0.17376962  0.59816689  0.78134205  1
  Ni  Ni166  1  0.47417035  0.40279011  0.50743476  1
  Ni  Ni167  1  0.07272950  0.32848177  0.61186938  1
  Ni  Ni168  1  0.05009188  0.33335776  0.78006571  1
  Ni  Ni169  1  0.42396281  0.56136248  0.00942804  1
  Ni  Ni170  1  0.15234729  0.59858645  -0.04706010  1
  Ni  Ni171  1  0.53245288  0.63163871  0.47854252  1
  Ni  Ni172  1  0.04561529  0.66759702  0.58773507  1
  Ni  Ni173  1  -0.07034407  0.24238721  0.16975557  1
  Ni  Ni174  1  0.74996572  0.07515908  0.05935664  1
  Ni  Ni175  1  0.14785146  -0.12124987  0.84290488  1
  Ni  Ni176  1  0.88810934  -0.00331335  0.80285882  1
  Ni  Ni177  1  0.55105559  0.30939571  0.89557861  1
  Ni  Ni178  1  -0.04489101  0.53784596  0.12056459  1
  Ni  Ni179  1  0.48658725  0.84361879  0.68744468  1
  Ni  Ni180  1  0.10408404  0.14694990  0.68587591  1
  Ni  Ni181  1  -0.01811625  0.86888278  0.84755433  1
  Ni  Ni182  1  0.29687671  0.46245015  0.79725187  1
  Ni  Ni183  1  -0.02955879  0.53186890  0.39689385  1
  Ni  Ni184  1  0.71264821  0.25044310  0.83968770  1
  Ni  Ni185  1  0.06666482  0.70334986  0.04279050  1
  Ni  Ni186  1  0.79950868  -0.04406286  0.18783343  1
  Ni  Ni187  1  0.67696397  0.21775580  0.31979205  1
  Ni  Ni188  1  0.51812660  0.19223561  0.38859001  1
  Ni  Ni189  1  0.34154942  0.80032170  0.45282250  1
  Ni  Ni190  1  0.87098974  -0.08212436  0.51348978  1
  Ni  Ni191  1  0.27520850  0.62753195  0.06835450  1
  Ni  Ni192  1  0.79030901  0.39413516  0.79438521  1
  Ni  Ni193  1  0.71360422  0.69953311  0.33449768  1
  Ni  Ni194  1  0.81346591  0.13776754  0.59845932  1
  Ni  Ni195  1  0.69700526  0.54547530  0.93078500  1
  Ni  Ni196  1  0.40670158  0.54200712  0.54572962  1
  Ni  Ni197  1  0.81213267  0.21438076  -0.03560644  1
  Ni  Ni198  1  0.17905578  0.38940873  0.18264412  1
  Ni  Ni199  1  0.63507960  -0.00762006  0.13985613  1
  Ni  Ni200  1  0.79814937  0.12624583  0.41598934  1
  Ni  Ni201  1  0.48966551  0.94897537  0.23653930  1
  Ni  Ni202  1  0.24183993  0.08708287  0.28025160  1
  Ni  Ni203  1  0.90546930  0.71057368  0.82156295  1
  Ni  Ni204  1  0.05575027  0.59170657  0.26634970  1
  Ni  Ni205  1  0.32789373  0.13296589  -0.00922849  1
  Ni  Ni206  1  0.84129720  0.26674984  0.50905769  1
  Ni  Ni207  1  0.06345614  -0.01046303  0.73101953  1
  Ni  Ni208  1  0.44882021  0.07153606  0.49062544  1
  Ni  Ni209  1  0.25281134  0.19712170  0.73033457  1
  Ni  Ni210  1  0.85409062  0.46025581  -0.05619261  1
  Ni  Ni211  1  0.19885741  -0.09074981  0.49053743  1
  Ni  Ni212  1  0.52100630  0.66981025  0.09616077  1
  Ni  Ni213  1  0.62834264  0.74279753  0.20444899  1
  Ni  Ni214  1  0.23959475  0.26290878  0.06654719  1
