# generated using pymatgen
data_Ti108Co54Ni53
_symmetry_space_group_name_H-M   'P 1'
_cell_length_a   14.63429168
_cell_length_b   14.64734340
_cell_length_c   14.65450015
_cell_angle_alpha   89.65521841
_cell_angle_beta   89.59089658
_cell_angle_gamma   89.86049837
_symmetry_Int_Tables_number   1
_chemical_formula_structural   Ti108Co54Ni53
_chemical_formula_sum   'Ti108 Co54 Ni53'
_cell_volume   3141.09740128
_cell_formula_units_Z   1
loop_
 _symmetry_equiv_pos_site_id
 _symmetry_equiv_pos_as_xyz
  1  'x, y, z'
loop_
 _atom_site_type_symbol
 _atom_site_label
 _atom_site_symmetry_multiplicity
 _atom_site_fract_x
 _atom_site_fract_y
 _atom_site_fract_z
 _atom_site_occupancy
  Ti  Ti0  1  0.10713238  0.02814028  0.27418806  1
  Ti  Ti1  1  0.05733291  0.03807732  0.60263507  1
  Ti  Ti2  1  0.01080851  0.15536538  0.99346894  1
  Ti  Ti3  1  0.14350771  0.36065281  0.31120066  1
  Ti  Ti4  1  0.14752838  0.42550094  0.57185337  1
  Ti  Ti5  1  0.13820259  0.46058215  0.85125700  1
  Ti  Ti6  1  0.07650056  0.80267506  0.30149223  1
  Ti  Ti7  1  -0.00510469  0.71111735  0.59067382  1
  Ti  Ti8  1  0.07668710  0.66515875  0.91822894  1
  Ti  Ti9  1  0.44835433  0.12951055  0.26027446  1
  Ti  Ti10  1  0.42883140  0.14393888  0.51676375  1
  Ti  Ti11  1  0.38310027  0.12162109  0.91526976  1
  Ti  Ti12  1  0.49847116  0.42594385  0.24099023  1
  Ti  Ti13  1  0.43543197  0.44111589  0.53683569  1
  Ti  Ti14  1  0.42256311  0.46526368  0.96733771  1
  Ti  Ti15  1  0.43941241  0.73797917  0.25505029  1
  Ti  Ti16  1  0.41429608  0.69927956  0.58109820  1
  Ti  Ti17  1  0.38786221  0.69519879  0.93032963  1
  Ti  Ti18  1  0.66955236  0.10228294  0.20398152  1
  Ti  Ti19  1  0.72355366  0.15139769  0.60332231  1
  Ti  Ti20  1  0.72610396  0.02232369  0.87261818  1
  Ti  Ti21  1  0.81200512  0.45138978  0.24002144  1
  Ti  Ti22  1  0.78160050  0.46053815  0.53846742  1
  Ti  Ti23  1  0.77649698  0.38188015  0.86537187  1
  Ti  Ti24  1  0.72484689  0.80575716  0.26946875  1
  Ti  Ti25  1  0.78860619  0.71157789  0.59762776  1
  Ti  Ti26  1  0.71013918  0.72356980  0.95621141  1
  Ti  Ti27  1  0.09663313  0.32530562  -0.00226541  1
  Ti  Ti28  1  0.05106399  0.19418969  0.35139830  1
  Ti  Ti29  1  0.01884166  0.34601516  0.71156745  1
  Ti  Ti30  1  0.10004373  0.59079637  0.11812762  1
  Ti  Ti31  1  0.02005846  0.59218978  0.41944485  1
  Ti  Ti32  1  0.05616955  0.59858037  0.73288333  1
  Ti  Ti33  1  0.08653027  0.96725370  0.08682804  1
  Ti  Ti34  1  0.02167924  0.94859589  0.41861521  1
  Ti  Ti35  1  0.13430198  0.90575884  0.79773995  1
  Ti  Ti36  1  0.47154615  0.24284221  0.04747265  1
  Ti  Ti37  1  0.40572525  0.28791578  0.36827976  1
  Ti  Ti38  1  0.40563071  0.18951715  0.71306995  1
  Ti  Ti39  1  0.47925651  0.57989830  0.11469479  1
  Ti  Ti40  1  0.34529135  0.62315863  0.42549037  1
  Ti  Ti41  1  0.49672053  0.59480478  0.78595995  1
  Ti  Ti42  1  0.40904244  0.93312004  0.02423829  1
  Ti  Ti43  1  0.41133684  0.86979149  0.40023679  1
  Ti  Ti44  1  0.37247077  0.94832960  0.79853835  1
  Ti  Ti45  1  0.80452081  0.24027464  0.02264189  1
  Ti  Ti46  1  0.73283772  0.20915453  0.41144273  1
  Ti  Ti47  1  0.67792135  0.24147528  0.76543888  1
  Ti  Ti48  1  0.79357797  0.58907312  0.08940265  1
  Ti  Ti49  1  0.73913601  0.56625459  0.37841736  1
  Ti  Ti50  1  0.73481451  0.54782191  0.73429310  1
  Ti  Ti51  1  0.77405597  0.90697720  0.05029588  1
  Ti  Ti52  1  0.73465965  0.99596195  0.49294722  1
  Ti  Ti53  1  0.69259962  0.85853404  0.78131825  1
  Ti  Ti54  1  0.19036236  0.13968607  0.09297488  1
  Ti  Ti55  1  0.25518729  0.16114845  0.39122433  1
  Ti  Ti56  1  0.18261095  0.10736720  0.78326984  1
  Ti  Ti57  1  0.19295687  0.40446368  0.13450110  1
  Ti  Ti58  1  0.27948355  0.42640594  0.42512030  1
  Ti  Ti59  1  0.31792379  0.39449574  0.81953501  1
  Ti  Ti60  1  0.24455644  0.81440175  0.05893751  1
  Ti  Ti61  1  0.25982192  0.76478828  0.31828980  1
  Ti  Ti62  1  0.27486463  0.76322865  0.76370936  1
  Ti  Ti63  1  0.56489825  0.07864688  0.02192953  1
  Ti  Ti64  1  0.55389775  0.04079354  0.38879584  1
  Ti  Ti65  1  0.56772353  0.06393413  0.75274358  1
  Ti  Ti66  1  0.59310308  0.42673663  0.07533632  1
  Ti  Ti67  1  0.57340916  0.34127491  0.39713000  1
  Ti  Ti68  1  0.50452297  0.35699481  0.73510974  1
  Ti  Ti69  1  0.51534799  0.75965570  0.06446318  1
  Ti  Ti70  1  0.60651390  0.73297222  0.44214394  1
  Ti  Ti71  1  0.60058546  0.72429991  0.66567163  1
  Ti  Ti72  1  0.88315677  0.07023901  0.11732269  1
  Ti  Ti73  1  0.90850694  0.09501810  0.45174486  1
  Ti  Ti74  1  0.97235983  0.05949311  0.77388541  1
  Ti  Ti75  1  0.96866205  0.44097811  0.11410444  1
  Ti  Ti76  1  0.90924931  0.31106189  0.42505249  1
  Ti  Ti77  1  0.94536672  0.47098501  0.83399285  1
  Ti  Ti78  1  0.93428580  0.77475604  0.00866455  1
  Ti  Ti79  1  0.85559519  0.73790859  0.38212148  1
  Ti  Ti80  1  0.89650088  0.79362755  0.74369865  1
  Ti  Ti81  1  0.32419695  0.25447802  0.19228964  1
  Ti  Ti82  1  0.20878978  0.20757323  0.60469896  1
  Ti  Ti83  1  0.29212599  0.28280210  0.99160465  1
  Ti  Ti84  1  0.22646014  0.55795916  0.27051454  1
  Ti  Ti85  1  0.19542365  0.65160571  0.59387749  1
  Ti  Ti86  1  0.24209236  0.60116105  0.98406622  1
  Ti  Ti87  1  0.30375581  1.00429620  0.25890882  1
  Ti  Ti88  1  0.13585077  0.85026280  0.55376664  1
  Ti  Ti89  1  0.24250406  1.00161376  0.94840490  1
  Ti  Ti90  1  0.68787832  0.31042422  0.21749386  1
  Ti  Ti91  1  0.62985070  0.32970769  0.57000352  1
  Ti  Ti92  1  0.60103858  0.32178097  0.92260928  1
  Ti  Ti93  1  0.55700024  0.58691008  0.31882599  1
  Ti  Ti94  1  0.57649756  0.51871612  0.62679303  1
  Ti  Ti95  1  0.68298052  0.53186850  0.93246538  1
  Ti  Ti96  1  0.59661907  0.91424565  0.16844552  1
  Ti  Ti97  1  0.58644807  0.91501925  0.61689164  1
  Ti  Ti98  1  0.60545200  0.88873148  0.95730245  1
  Ti  Ti99  1  0.87919627  0.19736627  0.26074958  1
  Ti  Ti100  1  0.91530143  0.18696572  0.62479098  1
  Ti  Ti101  1  0.89875237  0.23427036  0.84037237  1
  Ti  Ti102  1  0.93451751  0.61846043  0.23722089  1
  Ti  Ti103  1  0.96649437  0.51416309  0.58616429  1
  Ti  Ti104  1  0.87895081  0.64434744  0.88381147  1
  Ti  Ti105  1  0.92073184  0.88271501  0.24426682  1
  Ti  Ti106  1  0.90235970  0.88867066  0.55419798  1
  Ti  Ti107  1  0.94233647  0.94584064  0.91961673  1
  Co  Co108  1  -0.05751814  0.34283025  -0.04631878  1
  Co  Co109  1  0.18177233  0.17138585  -0.06435522  1
  Co  Co110  1  0.04858382  0.42267472  0.43325898  1
  Co  Co111  1  0.61439359  0.45277700  0.80828124  1
  Co  Co112  1  0.59260777  0.71403948  0.21331741  1
  Co  Co113  1  0.86727265  0.03115721  0.61702154  1
  Co  Co114  1  0.17675249  0.55043101  0.44232739  1
  Co  Co115  1  0.19681728  0.62699576  0.80316618  1
  Co  Co116  1  0.36026068  0.11992168  0.08521023  1
  Co  Co117  1  0.32334178  0.33813286  0.66059867  1
  Co  Co118  1  0.70553628  0.39323478  0.69152366  1
  Co  Co119  1  0.06690989  0.18628675  0.70013410  1
  Co  Co120  1  0.81663902  0.83413423  -0.11106700  1
  Co  Co121  1  -0.06694035  -0.08568658  0.09249139  1
  Co  Co122  1  0.63590821  0.61902841  0.08322090  1
  Co  Co123  1  0.06045377  0.49523252  0.25066898  1
  Co  Co124  1  0.36185125  0.85722120  0.18099874  1
  Co  Co125  1  0.23878097  0.43970848  -0.01953584  1
  Co  Co126  1  0.16523599  0.29622292  0.46248283  1
  Co  Co127  1  0.01404253  -0.09855270  0.68428512  1
  Co  Co128  1  0.77831031  -0.02896769  0.20208325  1
  Co  Co129  1  0.69016382  0.77722719  0.10382298  1
  Co  Co130  1  0.65702270  0.49970551  0.20532602  1
  Co  Co131  1  0.53837477  0.16679796  -0.12593120  1
  Co  Co132  1  0.61541166  0.47793494  0.46324904  1
  Co  Co133  1  0.79653105  0.29566849  0.54559244  1
  Co  Co134  1  0.26598119  -0.01578230  0.10599311  1
  Co  Co135  1  0.02632742  0.12887675  0.17297026  1
  Co  Co136  1  -0.04813164  0.35769410  0.56839724  1
  Co  Co137  1  0.31986231  0.28066681  0.50828977  1
  Co  Co138  1  0.53352727  0.88403790  0.76387573  1
  Co  Co139  1  0.56043194  0.19323272  0.65291485  1
  Co  Co140  1  0.70519391  0.17952262  0.91327364  1
  Co  Co141  1  -0.04774046  0.62160055  0.05569341  1
  Co  Co142  1  0.00808439  0.79418471  0.84753488  1
  Co  Co143  1  0.09656428  0.64851050  0.29230120  1
  Co  Co144  1  0.50772406  -0.00152702  0.88813718  1
  Co  Co145  1  0.58664160  0.18340741  0.48970272  1
  Co  Co146  1  0.80608029  0.12249611  0.76373616  1
  Co  Co147  1  0.84796525  0.92133980  0.38302633  1
  Co  Co148  1  0.05459651  0.49906611  0.98584315  1
  Co  Co149  1  0.46735273  0.29051297  0.56948882  1
  Co  Co150  1  -0.06007488  0.04244635  0.29284169  1
  Co  Co151  1  0.29690032  0.53056768  0.56468884  1
  Co  Co152  1  0.85232792  -0.05144213  0.76194254  1
  Co  Co153  1  0.51366782  0.60543089  0.48900297  1
  Co  Co154  1  0.33471013  0.62571112  0.69795632  1
  Co  Co155  1  0.40506710  0.48291750  0.69559200  1
  Co  Co156  1  0.28365741  0.84665772  0.90222969  1
  Co  Co157  1  0.72295573  0.06555693  0.05088237  1
  Co  Co158  1  0.82786531  0.29156640  0.70559949  1
  Co  Co159  1  0.86563470  0.44391348  0.69833303  1
  Co  Co160  1  0.55466597  0.83846289  0.31085002  1
  Co  Co161  1  0.44327849  0.47625915  0.38221932  1
  Ni  Ni162  1  0.38426916  0.03512775  0.39934186  1
  Ni  Ni163  1  0.75405243  0.86795189  0.62750306  1
  Ni  Ni164  1  -0.03240326  0.36578114  0.28172134  1
  Ni  Ni165  1  0.05384489  0.79851294  0.12785440  1
  Ni  Ni166  1  0.19046699  0.71519271  0.17610938  1
  Ni  Ni167  1  0.34718000  0.69045605  0.11920287  1
  Ni  Ni168  1  0.11121889  0.75994199  0.70934012  1
  Ni  Ni169  1  0.04787049  0.20723147  0.52887172  1
  Ni  Ni170  1  0.85791571  0.09694988  -0.06304753  1
  Ni  Ni171  1  -0.00732717  0.78600261  0.44697905  1
  Ni  Ni172  1  0.05787104  0.28863007  0.16722844  1
  Ni  Ni173  1  0.74510870  0.38130491  0.39046126  1
  Ni  Ni174  1  0.75416560  0.40119053  0.05989565  1
  Ni  Ni175  1  0.74574822  0.70087686  0.78690824  1
  Ni  Ni176  1  0.10987367  0.85661867  -0.03895214  1
  Ni  Ni177  1  0.86059697  0.60908667  0.49084211  1
  Ni  Ni178  1  0.31212051  0.52286781  0.11513055  1
  Ni  Ni179  1  0.12505189  0.07473167  0.45472644  1
  Ni  Ni180  1  0.17958947  0.32220012  0.73326882  1
  Ni  Ni181  1  -0.11311254  0.61811374  0.71313896  1
  Ni  Ni182  1  0.86122372  0.74731676  0.15886742  1
  Ni  Ni183  1  0.74311069  0.64302286  0.23323458  1
  Ni  Ni184  1  0.78015217  0.07231918  0.33630258  1
  Ni  Ni185  1  0.68212016  0.60925824  0.53723106  1
  Ni  Ni186  1  0.52097857  0.27138320  0.19948250  1
  Ni  Ni187  1  0.20831405  0.91884877  0.38483387  1
  Ni  Ni188  1  0.73659960  0.83040036  0.46767895  1
  Ni  Ni189  1  0.38910653  0.57522838  0.25877894  1
  Ni  Ni190  1  0.89220176  0.47974685  0.38799583  1
  Ni  Ni191  1  0.45350611  0.83693715  -0.10359891  1
  Ni  Ni192  1  0.32280854  0.41438043  0.25920253  1
  Ni  Ni193  1  0.53538868  0.61139538  -0.04431688  1
  Ni  Ni194  1  0.64261812  0.23377658  0.07404070  1
  Ni  Ni195  1  0.86873640  0.31505681  0.15210785  1
  Ni  Ni196  1  0.58018421  0.73908377  0.84809982  1
  Ni  Ni197  1  0.43432429  0.29130238  0.88546842  1
  Ni  Ni198  1  0.22625070  0.49042587  0.70730218  1
  Ni  Ni199  1  0.14589822  0.71761648  0.44397610  1
  Ni  Ni200  1  0.28913188  0.78485559  0.49086458  1
  Ni  Ni201  1  0.33761538  0.55622902  0.84526102  1
  Ni  Ni202  1  0.71494518  0.00875743  0.68781046  1
  Ni  Ni203  1  0.86789596  0.49236091  -0.02403715  1
  Ni  Ni204  1  0.67974140  -0.05361057  0.33590167  1
  Ni  Ni205  1  0.28773216  0.23115316  0.81917880  1
  Ni  Ni206  1  0.06713731  0.25749965  0.85082831  1
  Ni  Ni207  1  0.45752107  0.00212886  0.16073853  1
  Ni  Ni208  1  0.57592073  -0.10531008  0.46041568  1
  Ni  Ni209  1  0.40520105  0.38439820  0.11277264  1
  Ni  Ni210  1  0.18998128  -0.11468906  0.21246904  1
  Ni  Ni211  1  0.44428815  0.74821115  0.74735806  1
  Ni  Ni212  1  0.17902631  0.19515806  0.24442252  1
  Ni  Ni213  1  0.58970850  0.19500465  0.32369571  1
  Ni  Ni214  1  0.08821486  0.03140719  0.91108798  1
