# generated using pymatgen
data_Ti108Co54Ni53
_symmetry_space_group_name_H-M   'P 1'
_cell_length_a   14.59176135
_cell_length_b   14.59675527
_cell_length_c   14.60357018
_cell_angle_alpha   89.99056714
_cell_angle_beta   89.84997244
_cell_angle_gamma   89.93186131
_symmetry_Int_Tables_number   1
_chemical_formula_structural   Ti108Co54Ni53
_chemical_formula_sum   'Ti108 Co54 Ni53'
_cell_volume   3110.43610922
_cell_formula_units_Z   1
loop_
 _symmetry_equiv_pos_site_id
 _symmetry_equiv_pos_as_xyz
  1  'x, y, z'
loop_
 _atom_site_type_symbol
 _atom_site_label
 _atom_site_symmetry_multiplicity
 _atom_site_fract_x
 _atom_site_fract_y
 _atom_site_fract_z
 _atom_site_occupancy
  Ti  Ti0  1  0.02598149  0.11120628  0.20607237  1
  Ti  Ti1  1  0.13217740  0.04809111  0.66213191  1
  Ti  Ti2  1  0.09737973  0.04082998  0.99434998  1
  Ti  Ti3  1  0.09183094  0.47024043  0.23748063  1
  Ti  Ti4  1  -0.02881520  0.40016176  0.59739837  1
  Ti  Ti5  1  0.07405969  0.39909921  0.86908078  1
  Ti  Ti6  1  0.10561362  0.78244155  0.24064311  1
  Ti  Ti7  1  0.12342601  0.78862499  0.54288499  1
  Ti  Ti8  1  0.05771565  0.73371953  0.84405001  1
  Ti  Ti9  1  0.41874293  0.11120937  0.29642655  1
  Ti  Ti10  1  0.36034082  0.02667703  0.54499287  1
  Ti  Ti11  1  0.52358402  0.12657169  0.95311020  1
  Ti  Ti12  1  0.42233269  0.33011916  0.28467753  1
  Ti  Ti13  1  0.41558490  0.38857498  0.60769230  1
  Ti  Ti14  1  0.36125719  0.37880017  0.95616864  1
  Ti  Ti15  1  0.42906509  0.75464130  0.28632391  1
  Ti  Ti16  1  0.43400416  0.68337572  0.61937168  1
  Ti  Ti17  1  0.34908348  0.72167650  0.93899414  1
  Ti  Ti18  1  0.76510623  0.20307733  0.24719326  1
  Ti  Ti19  1  0.80790439  0.04564474  0.55184896  1
  Ti  Ti20  1  0.71197038  0.06178424  0.95874232  1
  Ti  Ti21  1  0.79728375  0.40947651  0.30606997  1
  Ti  Ti22  1  0.74776364  0.41820824  0.52099717  1
  Ti  Ti23  1  0.73922635  0.44914684  0.93305981  1
  Ti  Ti24  1  0.76580825  0.75404966  0.22661145  1
  Ti  Ti25  1  0.81651441  0.75064876  0.56646008  1
  Ti  Ti26  1  0.67957314  0.75211855  0.88584379  1
  Ti  Ti27  1  0.09816946  0.22718052  0.04544826  1
  Ti  Ti28  1  0.11596097  0.30268457  0.50709520  1
  Ti  Ti29  1  0.05029985  0.21403442  0.78895985  1
  Ti  Ti30  1  0.08533564  0.64099687  0.10750258  1
  Ti  Ti31  1  0.06607271  0.54111447  0.43132747  1
  Ti  Ti32  1  0.13978022  0.63830988  0.68417978  1
  Ti  Ti33  1  0.12485019  0.85719755  0.05736885  1
  Ti  Ti34  1  0.00997219  0.84919655  0.39406442  1
  Ti  Ti35  1  0.09357989  0.92953997  0.84326144  1
  Ti  Ti36  1  0.46711925  0.27719707  0.06866573  1
  Ti  Ti37  1  0.24964812  0.26725877  0.36910256  1
  Ti  Ti38  1  0.45109549  0.25113105  0.76983943  1
  Ti  Ti39  1  0.35226234  0.58530718  0.07310332  1
  Ti  Ti40  1  0.52810026  0.60791360  0.36996486  1
  Ti  Ti41  1  0.38366387  0.58939207  0.78132527  1
  Ti  Ti42  1  0.44503932  0.94699947  0.04597154  1
  Ti  Ti43  1  0.48374766  0.88318942  0.44446793  1
  Ti  Ti44  1  0.42674324  0.93771932  0.71979294  1
  Ti  Ti45  1  0.77489113  0.25608359  0.02889083  1
  Ti  Ti46  1  0.68402707  0.23874727  0.44750251  1
  Ti  Ti47  1  0.85776335  0.20954203  0.72498264  1
  Ti  Ti48  1  0.67723217  0.62433071  0.07071044  1
  Ti  Ti49  1  0.76566171  0.60109350  0.35273563  1
  Ti  Ti50  1  0.72830769  0.58357467  0.73040785  1
  Ti  Ti51  1  0.79912816  0.92754701  0.10112668  1
  Ti  Ti52  1  0.70285546  0.91668808  0.38376821  1
  Ti  Ti53  1  0.74834212  0.92351036  0.79876569  1
  Ti  Ti54  1  0.31966563  0.11489998  0.05149874  1
  Ti  Ti55  1  0.20830597  0.04657830  0.40486719  1
  Ti  Ti56  1  0.30091168  0.11651860  0.76030308  1
  Ti  Ti57  1  0.21555674  0.45087054  0.09398862  1
  Ti  Ti58  1  0.33544146  0.46082136  0.41957944  1
  Ti  Ti59  1  0.22921845  0.46258306  0.73185051  1
  Ti  Ti60  1  0.27435212  0.75351253  0.11580996  1
  Ti  Ti61  1  0.30987216  0.70235932  0.44694658  1
  Ti  Ti62  1  0.32515620  0.77765183  0.75559894  1
  Ti  Ti63  1  0.62773327  0.03792810  0.14177068  1
  Ti  Ti64  1  0.62778543  0.08822176  0.35069552  1
  Ti  Ti65  1  0.58116432  0.08963969  0.75402908  1
  Ti  Ti66  1  0.53963902  0.47567145  0.03612675  1
  Ti  Ti67  1  0.53689740  0.40175517  0.44542189  1
  Ti  Ti68  1  0.54185189  0.46472913  0.82467338  1
  Ti  Ti69  1  0.53592004  0.77737652  0.12674502  1
  Ti  Ti70  1  0.66622770  0.73641302  0.44453238  1
  Ti  Ti71  1  0.51551137  0.76558794  0.78408982  1
  Ti  Ti72  1  0.91370067  0.09934082  0.04199385  1
  Ti  Ti73  1  0.97820783  0.04718248  0.42162773  1
  Ti  Ti74  1  0.92574690  0.02733581  0.74857035  1
  Ti  Ti75  1  0.86438933  0.40072925  0.11963790  1
  Ti  Ti76  1  0.97757436  0.38260473  0.39681973  1
  Ti  Ti77  1  0.89561621  0.49422356  0.80164011  1
  Ti  Ti78  1  0.85364401  0.72667501  0.03886213  1
  Ti  Ti79  1  0.92002320  0.64393814  0.42958351  1
  Ti  Ti80  1  0.85270391  0.73264146  0.77518549  1
  Ti  Ti81  1  0.21364887  0.16714379  0.21982792  1
  Ti  Ti82  1  0.29008036  0.21355330  0.56838073  1
  Ti  Ti83  1  0.23171940  0.29277567  0.84842045  1
  Ti  Ti84  1  0.34370040  0.57219934  0.26417477  1
  Ti  Ti85  1  0.29837467  0.55014070  0.58681845  1
  Ti  Ti86  1  0.23583181  0.52940967  0.90950031  1
  Ti  Ti87  1  0.23525295  0.92133978  0.23628385  1
  Ti  Ti88  1  0.24366615  0.90323102  0.61180246  1
  Ti  Ti89  1  0.27050212  0.99817992  0.92113263  1
  Ti  Ti90  1  0.56962619  0.22061932  0.21971201  1
  Ti  Ti91  1  0.50316154  0.19831409  0.55391085  1
  Ti  Ti92  1  0.67372798  0.24298346  0.86660425  1
  Ti  Ti93  1  0.63707959  0.51216374  0.23956314  1
  Ti  Ti94  1  0.60031751  0.60842971  0.57456310  1
  Ti  Ti95  1  0.51759662  0.64782248  0.95218184  1
  Ti  Ti96  1  0.50721221  0.94678726  0.25715264  1
  Ti  Ti97  1  0.55409029  0.97706353  0.58943514  1
  Ti  Ti98  1  0.56203916  0.93863439  0.87427503  1
  Ti  Ti99  1  0.93721984  0.22282641  0.31345070  1
  Ti  Ti100  1  0.93728949  0.21125363  0.52060777  1
  Ti  Ti101  1  0.93883139  0.29386326  0.94472094  1
  Ti  Ti102  1  0.94783211  0.67642969  0.25081059  1
  Ti  Ti103  1  0.95570551  0.59792387  0.62055657  1
  Ti  Ti104  1  0.96355176  0.59274215  0.94656441  1
  Ti  Ti105  1  0.88919730  0.91855265  0.27335548  1
  Ti  Ti106  1  0.94647404  0.90848330  0.58286085  1
  Ti  Ti107  1  0.94763170  0.89316304  0.96769816  1
  Co  Co108  1  0.83537659  0.77083968  0.37177721  1
  Co  Co109  1  0.39178129  0.31027475  0.46242567  1
  Co  Co110  1  0.38209165  0.86475910  0.17901626  1
  Co  Co111  1  0.25546493  -0.05821248  0.77236292  1
  Co  Co112  1  -0.02568059  0.74962484  0.52020340  1
  Co  Co113  1  0.09759885  0.70784286  0.38538087  1
  Co  Co114  1  -0.07056413  0.87173277  0.79593691  1
  Co  Co115  1  -0.08004808  0.23519826  0.13345802  1
  Co  Co116  1  0.65481314  0.51747897  0.42818604  1
  Co  Co117  1  0.60736146  0.88878309  0.72190346  1
  Co  Co118  1  0.77586401  0.10890858  0.11764698  1
  Co  Co119  1  0.44178979  0.55638370  0.50281222  1
  Co  Co120  1  0.40625292  0.52961716  -0.07038695  1
  Co  Co121  1  0.63098810  0.34136451  0.01534940  1
  Co  Co122  1  0.43667372  0.10809201  0.67189564  1
  Co  Co123  1  0.18182403  0.67156259  -0.01622522  1
  Co  Co124  1  0.70449443  0.46408544  0.09589527  1
  Co  Co125  1  0.38256714  0.41896457  0.79698960  1
  Co  Co126  1  0.20947213  0.61483879  0.19296486  1
  Co  Co127  1  0.26697242  0.72705305  0.60995731  1
  Co  Co128  1  0.83912291  0.17460618  -0.10794161  1
  Co  Co129  1  0.81257939  0.88479954  0.66288654  1
  Co  Co130  1  0.34656062  0.02630484  0.18304837  1
  Co  Co131  1  0.66183458  0.87822364  0.20654970  1
  Co  Co132  1  0.40077767  0.43969632  0.13454381  1
  Co  Co133  1  0.47923743  0.47826635  0.28246979  1
  Co  Co134  1  0.48257950  0.10746620  0.11884366  1
  Co  Co135  1  0.85098892  -0.08995417  0.45094532  1
  Co  Co136  1  0.83904476  0.48622754  0.64609255  1
  Co  Co137  1  0.09321995  0.15157619  0.36173602  1
  Co  Co138  1  0.14611045  0.08263179  0.82020098  1
  Co  Co139  1  0.47635022  0.51831003  0.66620010  1
  Co  Co140  1  0.70879669  0.33021195  0.17439906  1
  Co  Co141  1  0.63122154  0.18881675  0.06722549  1
  Co  Co142  1  0.22104903  0.66376363  0.82319777  1
  Co  Co143  1  0.52032335  0.80588751  -0.03785961  1
  Co  Co144  1  0.69834017  0.01222427  0.66347955  1
  Co  Co145  1  0.55214650  0.79741419  0.59757756  1
  Co  Co146  1  0.57667196  0.80742663  0.32937028  1
  Co  Co147  1  0.37425757  0.20436500  0.91614158  1
  Co  Co148  1  -0.11442283  0.49046061  0.47559559  1
  Co  Co149  1  0.81478261  0.33241436  0.84770097  1
  Co  Co150  1  0.27288832  -0.07646363  0.06269897  1
  Co  Co151  1  0.78214050  0.86571259  -0.05171700  1
  Co  Co152  1  0.36482660  0.21316818  0.18570632  1
  Co  Co153  1  0.20946193  0.16623367  -0.06258923  1
  Co  Co154  1  0.56877526  0.62438309  0.74733894  1
  Co  Co155  1  0.62161199  0.68711338  0.24282041  1
  Co  Co156  1  0.25144924  0.38332705  0.54927223  1
  Co  Co157  1  0.48065237  0.72472644  0.46800740  1
  Co  Co158  1  0.15358430  0.31994871  0.16777177  1
  Co  Co159  1  0.52324896  0.22524535  0.39053434  1
  Co  Co160  1  0.97544724  0.08369652  0.60662359  1
  Co  Co161  1  0.55635271  0.38241184  0.17248945  1
  Ni  Ni162  1  0.42073917  0.04551123  0.85448730  1
  Ni  Ni163  1  0.11917987  0.48749752  0.59168607  1
  Ni  Ni164  1  0.09382991  0.50996249  -0.00524128  1
  Ni  Ni165  1  0.06518159  -0.09560844  0.68454287  1
  Ni  Ni166  1  0.69649520  0.78612132  0.06657250  1
  Ni  Ni167  1  0.26749791  0.27599837  0.05421875  1
  Ni  Ni168  1  0.16178518  0.03265025  0.13860817  1
  Ni  Ni169  1  0.26915310  0.40708343  0.25386432  1
  Ni  Ni170  1  0.69332887  0.87889725  0.55274835  1
  Ni  Ni171  1  0.22057817  0.82545787  -0.09044955  1
  Ni  Ni172  1  0.75412305  0.01849465  0.25473717  1
  Ni  Ni173  1  0.76868413  0.59317675  0.53691308  1
  Ni  Ni174  1  0.17617472  0.20188868  0.68471147  1
  Ni  Ni175  1  0.64833462  0.57969361  0.88861901  1
  Ni  Ni176  1  0.01966348  0.74579801  -0.00031023  1
  Ni  Ni177  1  0.80444170  0.62026821  0.88821939  1
  Ni  Ni178  1  0.16945824  0.63006475  0.51483498  1
  Ni  Ni179  1  0.80835422  0.56828258  0.19405219  1
  Ni  Ni180  1  0.17170522  0.42229668  0.39297936  1
  Ni  Ni181  1  -0.00676223  0.75418126  0.68286558  1
  Ni  Ni182  1  0.63686992  0.34890040  0.32488119  1
  Ni  Ni183  1  -0.04616534  0.80710671  0.14575976  1
  Ni  Ni184  1  0.10360926  -0.03678364  0.51269597  1
  Ni  Ni185  1  0.11575824  0.13723996  0.52233826  1
  Ni  Ni186  1  0.51280447  0.31243191  0.90689168  1
  Ni  Ni187  1  0.83170073  0.55104642  0.03518070  1
  Ni  Ni188  1  0.11552767  0.35068919  0.69198619  1
  Ni  Ni189  1  0.07305515  -0.03617905  0.28264459  1
  Ni  Ni190  1  0.26148037  0.74782117  0.29360897  1
  Ni  Ni191  1  0.29980349  0.31011702  0.70137656  1
  Ni  Ni192  1  0.81093557  0.10583893  0.39082578  1
  Ni  Ni193  1  0.35411077  -0.05817577  0.35092661  1
  Ni  Ni194  1  0.36116891  0.15223371  0.43614040  1
  Ni  Ni195  1  0.07530167  0.55787499  0.81870177  1
  Ni  Ni196  1  -0.03341808  0.53019756  0.13290803  1
  Ni  Ni197  1  -0.04690841  0.34636990  0.75361784  1
  Ni  Ni198  1  0.65148105  0.09351031  0.52140353  1
  Ni  Ni199  1  0.39022495  0.87882715  0.88244519  1
  Ni  Ni200  1  0.62709043  -0.07783052  0.02477078  1
  Ni  Ni201  1  -0.00535162  -0.03550769  0.12667550  1
  Ni  Ni202  1  0.49379461  0.60951543  0.16986195  1
  Ni  Ni203  1  -0.01006973  0.10643802  0.89077628  1
  Ni  Ni204  1  0.16758520  0.79841296  0.73606827  1
  Ni  Ni205  1  0.09159722  0.29975414  0.30832416  1
  Ni  Ni206  1  0.39218471  0.84371434  0.57879162  1
  Ni  Ni207  1  0.85629074  0.00859792  0.90009410  1
  Ni  Ni208  1  0.83232224  0.29493414  0.42310933  1
  Ni  Ni209  1  0.02951099  0.37973155  0.07041836  1
  Ni  Ni210  1  0.74785034  0.09607006  0.78908192  1
  Ni  Ni211  1  0.18859438  0.86556793  0.39721365  1
  Ni  Ni212  1  0.69120371  0.74762054  0.68425757  1
  Ni  Ni213  1  0.49614659  0.05616669  0.44318244  1
  Ni  Ni214  1  0.92984795  0.51534876  0.30298223  1
