# generated using pymatgen
data_Ti108Co54Ni53
_symmetry_space_group_name_H-M   'P 1'
_cell_length_a   14.70002972
_cell_length_b   14.80407470
_cell_length_c   14.74980407
_cell_angle_alpha   89.72124909
_cell_angle_beta   90.19826255
_cell_angle_gamma   89.76887319
_symmetry_Int_Tables_number   1
_chemical_formula_structural   Ti108Co54Ni53
_chemical_formula_sum   'Ti108 Co54 Ni53'
_cell_volume   3209.77380859
_cell_formula_units_Z   1
loop_
 _symmetry_equiv_pos_site_id
 _symmetry_equiv_pos_as_xyz
  1  'x, y, z'
loop_
 _atom_site_type_symbol
 _atom_site_label
 _atom_site_symmetry_multiplicity
 _atom_site_fract_x
 _atom_site_fract_y
 _atom_site_fract_z
 _atom_site_occupancy
  Ti  Ti0  1  0.07144285  0.09307397  0.17400545  1
  Ti  Ti1  1  0.09968862  0.07691016  0.62069689  1
  Ti  Ti2  1  -0.01118381  0.10384501  0.95171515  1
  Ti  Ti3  1  0.08334594  0.40759566  0.18882928  1
  Ti  Ti4  1  0.18109528  0.45615986  0.61559847  1
  Ti  Ti5  1  0.04385997  0.43550471  0.89649498  1
  Ti  Ti6  1  0.08238687  0.72643669  0.16681725  1
  Ti  Ti7  1  0.08107562  0.73075522  0.50531064  1
  Ti  Ti8  1  0.00031434  0.76353344  0.80158063  1
  Ti  Ti9  1  0.42064032  0.12819403  0.23485211  1
  Ti  Ti10  1  0.42499640  0.17860001  0.54032135  1
  Ti  Ti11  1  0.48034150  0.04627238  0.99710652  1
  Ti  Ti12  1  0.48119517  0.41441994  0.28935234  1
  Ti  Ti13  1  0.35343588  0.42274944  0.49730916  1
  Ti  Ti14  1  0.47961561  0.40149050  0.95233704  1
  Ti  Ti15  1  0.45268036  0.70441703  0.26936699  1
  Ti  Ti16  1  0.51206840  0.75065958  0.57492476  1
  Ti  Ti17  1  0.51456546  0.63197150  0.92329146  1
  Ti  Ti18  1  0.70567238  0.02678890  0.24264232  1
  Ti  Ti19  1  0.71175676  0.12105306  0.58708859  1
  Ti  Ti20  1  0.78719326  0.05122999  0.88506257  1
  Ti  Ti21  1  0.75358338  0.36974479  0.28105247  1
  Ti  Ti22  1  0.68481606  0.34061287  0.55831031  1
  Ti  Ti23  1  0.76056650  0.39671587  0.84401214  1
  Ti  Ti24  1  0.79211165  0.73087398  0.23296054  1
  Ti  Ti25  1  0.78170927  0.80874520  0.51748769  1
  Ti  Ti26  1  0.73682015  0.68297724  0.92074356  1
  Ti  Ti27  1  0.07059964  0.26471112  0.04278212  1
  Ti  Ti28  1  0.07403588  0.19980784  0.42607286  1
  Ti  Ti29  1  0.06605516  0.24116481  0.83059978  1
  Ti  Ti30  1  0.05373360  0.58182810  0.02722563  1
  Ti  Ti31  1  0.03887725  0.53746436  0.42333938  1
  Ti  Ti32  1  0.04075875  0.54314271  0.73025166  1
  Ti  Ti33  1  0.06179747  0.90646412  0.19750054  1
  Ti  Ti34  1  0.06038150  0.85663264  0.37301860  1
  Ti  Ti35  1  0.11854529  0.91719017  0.74427082  1
  Ti  Ti36  1  0.39695884  0.22189674  0.05646538  1
  Ti  Ti37  1  0.42198647  0.25816244  0.36877695  1
  Ti  Ti38  1  0.38531658  0.20274923  0.74135417  1
  Ti  Ti39  1  0.40077224  0.54518565  0.16196485  1
  Ti  Ti40  1  0.44376037  0.60101297  0.46435729  1
  Ti  Ti41  1  0.35152476  0.55855162  0.65993548  1
  Ti  Ti42  1  0.37474000  0.95866856  0.14250519  1
  Ti  Ti43  1  0.44137843  0.94007659  0.45997034  1
  Ti  Ti44  1  0.43350510  1.00527740  0.65481109  1
  Ti  Ti45  1  0.75477618  0.25914711  0.10322658  1
  Ti  Ti46  1  0.76471300  0.22125824  0.41020956  1
  Ti  Ti47  1  0.77621564  0.26226298  0.72771535  1
  Ti  Ti48  1  0.79235498  0.60223673  0.08024193  1
  Ti  Ti49  1  0.73205416  0.56339628  0.37405284  1
  Ti  Ti50  1  0.78166788  0.58248073  0.71978333  1
  Ti  Ti51  1  0.69618582  0.91247878  0.00851730  1
  Ti  Ti52  1  0.78160996  1.01346470  0.44223542  1
  Ti  Ti53  1  0.74094346  0.96178384  0.73243548  1
  Ti  Ti54  1  0.25065781  0.13275611  0.15503759  1
  Ti  Ti55  1  0.28707856  0.08319765  0.44454694  1
  Ti  Ti56  1  0.25717916  0.06331112  0.77373900  1
  Ti  Ti57  1  0.31762502  0.40436807  0.05095296  1
  Ti  Ti58  1  0.16195809  0.38691841  0.43798808  1
  Ti  Ti59  1  0.24242224  0.35782649  0.78260828  1
  Ti  Ti60  1  0.25247814  0.81670590  0.14233372  1
  Ti  Ti61  1  0.25854047  0.82817189  0.45817445  1
  Ti  Ti62  1  0.14134704  0.71464057  0.69606464  1
  Ti  Ti63  1  0.67940941  0.10254835  0.05775445  1
  Ti  Ti64  1  0.60113068  0.13178869  0.36563397  1
  Ti  Ti65  1  0.64522895  0.13957995  0.77243017  1
  Ti  Ti66  1  0.63285932  0.40304022  0.13066511  1
  Ti  Ti67  1  0.58956320  0.46932916  0.45084736  1
  Ti  Ti68  1  0.51119283  0.47880798  0.77093238  1
  Ti  Ti69  1  0.58763386  0.78789914  0.14195131  1
  Ti  Ti70  1  0.59690369  0.80649041  0.39597495  1
  Ti  Ti71  1  0.64257921  0.73497433  0.77682163  1
  Ti  Ti72  1  0.88506511  0.11291542  0.16895966  1
  Ti  Ti73  1  0.98013490  0.01303057  0.46927264  1
  Ti  Ti74  1  0.95852287  0.03761538  0.76540989  1
  Ti  Ti75  1  0.82474630  0.42472944  0.07413665  1
  Ti  Ti76  1  0.93431470  0.34758102  0.46189210  1
  Ti  Ti77  1  0.86696746  0.40926107  0.65461909  1
  Ti  Ti78  1  0.90846248  0.84239018  0.09147416  1
  Ti  Ti79  1  0.91504583  0.69468977  0.39932037  1
  Ti  Ti80  1  0.90761403  0.69923409  0.63406679  1
  Ti  Ti81  1  0.21861206  0.28166823  0.28520351  1
  Ti  Ti82  1  0.25516464  0.27129363  0.59920047  1
  Ti  Ti83  1  0.22401082  0.17943299  0.93409800  1
  Ti  Ti84  1  0.24424884  0.63791344  0.24132354  1
  Ti  Ti85  1  0.22907481  0.58039038  0.44253927  1
  Ti  Ti86  1  0.22480289  0.52021907  0.91577306  1
  Ti  Ti87  1  0.21257934  0.96204280  0.29039326  1
  Ti  Ti88  1  0.24724361  0.95482642  0.60086656  1
  Ti  Ti89  1  0.21742469  0.95329363  0.94460653  1
  Ti  Ti90  1  0.57875013  0.24490403  0.22106798  1
  Ti  Ti91  1  0.53312910  0.31473453  0.66205157  1
  Ti  Ti92  1  0.53331535  0.21240908  0.90312657  1
  Ti  Ti93  1  0.61710292  0.57565577  0.18638134  1
  Ti  Ti94  1  0.60380898  0.58002331  0.62843392  1
  Ti  Ti95  1  0.65291063  0.50281488  0.96526923  1
  Ti  Ti96  1  0.51568091  0.94452182  0.27103557  1
  Ti  Ti97  1  0.64444500  0.91900524  0.56171364  1
  Ti  Ti98  1  0.57619992  0.92153289  0.84321982  1
  Ti  Ti99  1  0.92695711  0.24888247  0.29112654  1
  Ti  Ti100  1  0.96932874  0.22819113  0.65276070  1
  Ti  Ti101  1  0.89737062  0.30466622  0.94909301  1
  Ti  Ti102  1  0.97063903  0.57706898  0.22761819  1
  Ti  Ti103  1  0.87811913  0.53251219  0.52033594  1
  Ti  Ti104  1  0.92901529  0.62441534  0.89562654  1
  Ti  Ti105  1  0.88513775  0.92746936  0.27791555  1
  Ti  Ti106  1  0.95507638  0.88667000  0.63751907  1
  Ti  Ti107  1  1.02823315  0.91089460  0.91639386  1
  Co  Co108  1  0.14263864  0.55865623  0.15332827  1
  Co  Co109  1  0.07626784  0.23847205  0.22464958  1
  Co  Co110  1  0.44749028  0.33329453  0.80575608  1
  Co  Co111  1  0.28736980  0.11303298  0.61917737  1
  Co  Co112  1  0.35736118  0.47153457  0.82795887  1
  Co  Co113  1  0.15595021  0.20028102  0.70585764  1
  Co  Co114  1  0.15004890  0.44023346  0.04525177  1
  Co  Co115  1  0.52830609  0.56340231  0.32537857  1
  Co  Co116  1  0.07608597  0.36360307  0.71753723  1
  Co  Co117  1  0.75064711  0.72087515  0.38823680  1
  Co  Co118  1  0.34161093  0.30925071  -0.08516199  1
  Co  Co119  1  0.78061914  0.82438384  0.68240886  1
  Co  Co120  1  -0.08270522  0.16995860  0.46205651  1
  Co  Co121  1  0.20023260  0.61458260  0.59649812  1
  Co  Co122  1  -0.07403608  0.08233680  0.60109684  1
  Co  Co123  1  0.48804941  0.47265261  0.59338911  1
  Co  Co124  1  0.77034918  0.39904774  0.43692718  1
  Co  Co125  1  0.61666231  0.65233591  0.47026554  1
  Co  Co126  1  0.62503634  0.65572235  0.04770026  1
  Co  Co127  1  0.07966677  0.67160089  0.33785447  1
  Co  Co128  1  0.93054659  0.33005183  0.78866294  1
  Co  Co129  1  0.53223919  0.15407865  0.65869846  1
  Co  Co130  1  0.09898735  0.62118440  0.85746453  1
  Co  Co131  1  0.62343985  0.05923382  -0.08719201  1
  Co  Co132  1  0.88046538  0.77739770  -0.05854186  1
  Co  Co133  1  0.01352962  0.04629232  0.31497034  1
  Co  Co134  1  0.75078944  0.88033295  0.35690703  1
  Co  Co135  1  0.14425275  0.51219307  0.30798364  1
  Co  Co136  1  0.47071925  0.67577959  0.09121008  1
  Co  Co137  1  0.83445779  0.72509022  0.79043162  1
  Co  Co138  1  0.21083767  0.54771983  0.75245557  1
  Co  Co139  1  0.77495606  0.64706282  0.53364055  1
  Co  Co140  1  0.66906021  0.73484294  0.61454714  1
  Co  Co141  1  0.59060124  0.01189159  0.68729529  1
  Co  Co142  1  0.20821957  -0.02917461  0.11744790  1
  Co  Co143  1  -0.10451737  0.88750952  0.80247798  1
  Co  Co144  1  0.31601563  0.39276464  0.34810207  1
  Co  Co145  1  0.31336931  0.06105906  0.02096053  1
  Co  Co146  1  0.36224170  0.28952460  0.20788743  1
  Co  Co147  1  0.73755240  0.18939202  0.25037673  1
  Co  Co148  1  0.11168706  0.05861094  0.84218482  1
  Co  Co149  1  -0.01591338  0.42731082  0.05432317  1
  Co  Co150  1  0.45767777  0.08953198  0.39656838  1
  Co  Co151  1  0.72376738  0.50009732  0.55830433  1
  Co  Co152  1  0.03672303  0.36668258  0.33979609  1
  Co  Co153  1  0.38363740  0.54748202  -0.02319560  1
  Co  Co154  1  0.81703647  0.10789484  0.71245787  1
  Co  Co155  1  0.43572968  0.78340702  0.43605938  1
  Co  Co156  1  0.74303480  0.84899193  0.86645880  1
  Co  Co157  1  0.10479088  0.86157362  0.05019532  1
  Co  Co158  1  -0.04778840  0.76520855  0.25221575  1
  Co  Co159  1  0.37427131  0.14776651  0.89451053  1
  Co  Co160  1  0.36184788  -0.00183396  0.31208273  1
  Co  Co161  1  0.82273412  -0.03616688  0.58670481  1
  Ni  Ni162  1  0.78848210  0.52097285  0.22050598  1
  Ni  Ni163  1  0.64578621  0.56500094  0.81208043  1
  Ni  Ni164  1  0.47300225  0.37048210  0.12428611  1
  Ni  Ni165  1  0.19345862  0.78758234  0.29977354  1
  Ni  Ni166  1  0.16644970  0.11978782  0.32026608  1
  Ni  Ni167  1  -0.01663999  -0.01020083  0.07070591  1
  Ni  Ni168  1  0.21345035  0.29294604  0.11677128  1
  Ni  Ni169  1  -0.08228865  0.86316940  0.45571398  1
  Ni  Ni170  1  0.59205595  0.21105431  0.50779659  1
  Ni  Ni171  1  0.49770033  0.34140420  0.49454250  1
  Ni  Ni172  1  0.61178433  0.31506685  0.37539249  1
  Ni  Ni173  1  0.01765552  0.43517702  0.57492255  1
  Ni  Ni174  1  0.62539010  0.68998432  0.29331280  1
  Ni  Ni175  1  0.55156664  0.05342273  0.52867288  1
  Ni  Ni176  1  0.14544212  -0.00047619  0.44707461  1
  Ni  Ni177  1  0.61857850  0.31842000  0.80980500  1
  Ni  Ni178  1  0.48615044  0.06948996  0.80796989  1
  Ni  Ni179  1  0.03054883  0.59979604  0.58038842  1
  Ni  Ni180  1  0.81208080  0.52057692  -0.06895489  1
  Ni  Ni181  1  0.18175622  0.33795748  0.93399409  1
  Ni  Ni182  1  0.57564339  0.85440247  0.69058563  1
  Ni  Ni183  1  0.67484267  0.43225128  0.70161730  1
  Ni  Ni184  1  0.84454397  0.14883209  0.01091221  1
  Ni  Ni185  1  0.52292892  0.52226809  0.05891529  1
  Ni  Ni186  1  0.37701994  0.85041856  0.58500231  1
  Ni  Ni187  1  0.72773681  0.21323623  0.90733357  1
  Ni  Ni188  1  0.85620177  0.09634463  0.32793396  1
  Ni  Ni189  1  0.88954458  0.49115335  0.35485487  1
  Ni  Ni190  1  0.59530379  0.78733862  -0.04635842  1
  Ni  Ni191  1  0.35940748  0.54253526  0.32829068  1
  Ni  Ni192  1  0.13249374  0.07197933  0.01753419  1
  Ni  Ni193  1  0.09520310  0.28989078  0.56577454  1
  Ni  Ni194  1  0.54718211  0.06576585  0.15184551  1
  Ni  Ni195  1  -0.11293598  0.18246175  0.83904897  1
  Ni  Ni196  1  0.56436146  0.23371045  0.06348939  1
  Ni  Ni197  1  0.25824723  0.44556729  0.20478117  1
  Ni  Ni198  1  -0.07042624  0.68275116  0.08709337  1
  Ni  Ni199  1  0.31758514  0.69919960  0.37658449  1
  Ni  Ni200  1  0.33703790  0.69447569  0.54897692  1
  Ni  Ni201  1  -0.08598849  0.40958249  0.21696593  1
  Ni  Ni202  1  0.92871709  0.27640102  0.12126020  1
  Ni  Ni203  1  0.82935396  0.26114024  0.56369152  1
  Ni  Ni204  1  -0.09735621  0.48509193  0.80181859  1
  Ni  Ni205  1  0.74783020  0.76481406  0.06784243  1
  Ni  Ni206  1  0.27053056  0.25161587  0.44076375  1
  Ni  Ni207  1  0.81433832  -0.00753972  0.09669931  1
  Ni  Ni208  1  0.35289787  0.83929431  0.28681212  1
  Ni  Ni209  1  0.65824799  0.33921922  -0.02305492  1
  Ni  Ni210  1  0.62075882  -0.02766756  0.39888309  1
  Ni  Ni211  1  0.87275148  -0.05874276  0.95375982  1
  Ni  Ni212  1  0.73004681  0.87867993  0.18163370  1
  Ni  Ni213  1  0.36738259  0.38572990  0.66872485  1
  Ni  Ni214  1  0.10208670  0.88572798  0.55981866  1
