# generated using pymatgen
data_Ti108Co54Ni53
_symmetry_space_group_name_H-M   'P 1'
_cell_length_a   14.60830421
_cell_length_b   14.53513491
_cell_length_c   14.52606019
_cell_angle_alpha   90.27041919
_cell_angle_beta   89.94796957
_cell_angle_gamma   90.12961570
_symmetry_Int_Tables_number   1
_chemical_formula_structural   Ti108Co54Ni53
_chemical_formula_sum   'Ti108 Co54 Ni53'
_cell_volume   3084.32822128
_cell_formula_units_Z   1
loop_
 _symmetry_equiv_pos_site_id
 _symmetry_equiv_pos_as_xyz
  1  'x, y, z'
loop_
 _atom_site_type_symbol
 _atom_site_label
 _atom_site_symmetry_multiplicity
 _atom_site_fract_x
 _atom_site_fract_y
 _atom_site_fract_z
 _atom_site_occupancy
  Ti  Ti0  1  0.07731328  0.05385003  0.28621740  1
  Ti  Ti1  1  0.14514167  0.12230120  0.57165682  1
  Ti  Ti2  1  0.02838290  0.08011049  0.95225153  1
  Ti  Ti3  1  0.14194427  0.39328594  0.21277540  1
  Ti  Ti4  1  0.10678018  0.37960452  0.55012642  1
  Ti  Ti5  1  0.10121611  0.40151000  0.92837185  1
  Ti  Ti6  1  0.07187154  0.73972947  0.23513320  1
  Ti  Ti7  1  0.13210591  0.71516787  0.54558531  1
  Ti  Ti8  1  0.07684384  0.76201120  0.88468933  1
  Ti  Ti9  1  0.44108646  0.12338243  0.30507282  1
  Ti  Ti10  1  0.34242692  0.12535777  0.63691443  1
  Ti  Ti11  1  0.46489582  0.03379592  0.98417652  1
  Ti  Ti12  1  0.39693708  0.44889745  0.20420180  1
  Ti  Ti13  1  0.47131388  0.41272976  0.59123278  1
  Ti  Ti14  1  0.43621496  0.38019853  0.94229332  1
  Ti  Ti15  1  0.40235747  0.79692228  0.23310354  1
  Ti  Ti16  1  0.42717650  0.75648380  0.54804152  1
  Ti  Ti17  1  0.39345022  0.75370619  0.94930230  1
  Ti  Ti18  1  0.80634969  0.12399664  0.23358358  1
  Ti  Ti19  1  0.79345251  0.03646071  0.60547404  1
  Ti  Ti20  1  0.76263724  0.15022232  0.90504284  1
  Ti  Ti21  1  0.71789529  0.38831788  0.29817849  1
  Ti  Ti22  1  0.78006256  0.44379317  0.60528237  1
  Ti  Ti23  1  0.74289261  0.45070993  0.96124337  1
  Ti  Ti24  1  0.71685607  0.70119874  0.15248067  1
  Ti  Ti25  1  0.76001020  0.79928256  0.65348736  1
  Ti  Ti26  1  0.69485396  0.73668143  0.93930206  1
  Ti  Ti27  1  0.07260823  0.20714584  0.09292392  1
  Ti  Ti28  1  0.03115187  0.20343263  0.43787612  1
  Ti  Ti29  1  0.03601032  0.30410793  0.73395513  1
  Ti  Ti30  1  0.03006815  0.55020049  0.11341848  1
  Ti  Ti31  1  0.05834819  0.55650545  0.48167928  1
  Ti  Ti32  1  0.13104442  0.61636995  0.76098850  1
  Ti  Ti33  1  0.13994687  0.88090430  0.06150065  1
  Ti  Ti34  1  0.04239754  0.99685539  0.45769170  1
  Ti  Ti35  1  0.13826647  1.00113974  0.75645056  1
  Ti  Ti36  1  0.47447537  0.28664698  0.13960211  1
  Ti  Ti37  1  0.34608808  0.24043588  0.47026727  1
  Ti  Ti38  1  0.37229991  0.24385066  0.79371346  1
  Ti  Ti39  1  0.39407576  0.55581970  0.02880316  1
  Ti  Ti40  1  0.42601646  0.53991637  0.40913006  1
  Ti  Ti41  1  0.39009645  0.66719055  0.74370828  1
  Ti  Ti42  1  0.36376789  0.99374357  0.15362579  1
  Ti  Ti43  1  0.39895826  0.91857561  0.43185928  1
  Ti  Ti44  1  0.40706735  0.92647247  0.64432836  1
  Ti  Ti45  1  0.76101138  0.30057487  0.06057426  1
  Ti  Ti46  1  0.70913766  0.21312781  0.38881775  1
  Ti  Ti47  1  0.72314114  0.21997809  0.71143212  1
  Ti  Ti48  1  0.83433279  0.60579179  0.03230008  1
  Ti  Ti49  1  0.76585082  0.54642951  0.43670411  1
  Ti  Ti50  1  0.86818713  0.56774086  0.71966018  1
  Ti  Ti51  1  0.77954574  0.86105348  0.05762099  1
  Ti  Ti52  1  0.75412902  0.91457225  0.34019443  1
  Ti  Ti53  1  0.69333525  1.00595505  0.76702981  1
  Ti  Ti54  1  0.22686989  0.08834056  0.05068673  1
  Ti  Ti55  1  0.22979782  0.13227309  0.36840766  1
  Ti  Ti56  1  0.33024941  0.01131403  0.79724391  1
  Ti  Ti57  1  0.21192593  0.49769476  0.06997962  1
  Ti  Ti58  1  0.28292910  0.38237244  0.34279623  1
  Ti  Ti59  1  0.32851675  0.43318754  0.73196650  1
  Ti  Ti60  1  0.22241394  0.69424620  0.02637532  1
  Ti  Ti61  1  0.24291666  0.75279368  0.38922802  1
  Ti  Ti62  1  0.24775127  0.81706397  0.70241567  1
  Ti  Ti63  1  0.59467323  0.16915094  0.02570367  1
  Ti  Ti64  1  0.64791195  0.02453241  0.47297765  1
  Ti  Ti65  1  0.50107608  0.10171380  0.75386803  1
  Ti  Ti66  1  0.55919063  0.48452222  0.08697574  1
  Ti  Ti67  1  0.60691189  0.42137332  0.44519230  1
  Ti  Ti68  1  0.64255443  0.42743688  0.74541313  1
  Ti  Ti69  1  0.53074564  0.69666087  0.08875255  1
  Ti  Ti70  1  0.60796878  0.73481261  0.54740332  1
  Ti  Ti71  1  0.63746763  0.66790990  0.74227128  1
  Ti  Ti72  1  0.85406749  0.04020963  0.02858724  1
  Ti  Ti73  1  0.87933671  0.07882183  0.38696041  1
  Ti  Ti74  1  0.89821803  0.05087987  0.79511494  1
  Ti  Ti75  1  0.88053788  0.44752755  0.15547088  1
  Ti  Ti76  1  0.93152189  0.39038678  0.48145199  1
  Ti  Ti77  1  0.85498792  0.39591485  0.80018663  1
  Ti  Ti78  1  0.94374519  0.78730651  0.10992925  1
  Ti  Ti79  1  0.88718030  0.77113135  0.37986512  1
  Ti  Ti80  1  0.93139488  0.74816662  0.75455626  1
  Ti  Ti81  1  0.27891697  0.23934466  0.18506152  1
  Ti  Ti82  1  0.22896781  0.28580841  0.64039004  1
  Ti  Ti83  1  0.27000551  0.25896305  0.95030069  1
  Ti  Ti84  1  0.16791870  0.58382740  0.29574952  1
  Ti  Ti85  1  0.23850933  0.53336592  0.59480954  1
  Ti  Ti86  1  0.26226501  0.53599097  0.87740678  1
  Ti  Ti87  1  0.21393534  0.89685216  0.25179062  1
  Ti  Ti88  1  0.11984393  0.90429868  0.58827662  1
  Ti  Ti89  1  0.23799857  0.87287084  0.89143461  1
  Ti  Ti90  1  0.62837393  0.18719169  0.21729626  1
  Ti  Ti91  1  0.51826235  0.20487458  0.54030636  1
  Ti  Ti92  1  0.58036635  0.25934530  0.84863820  1
  Ti  Ti93  1  0.62971090  0.56034055  0.25750307  1
  Ti  Ti94  1  0.59865186  0.55305959  0.58022850  1
  Ti  Ti95  1  0.54906157  0.60751442  0.90645435  1
  Ti  Ti96  1  0.56183343  0.96457655  0.19986828  1
  Ti  Ti97  1  0.59481684  0.91347475  0.62719146  1
  Ti  Ti98  1  0.58032376  0.88768851  0.94137621  1
  Ti  Ti99  1  0.96344203  0.27683002  0.23682222  1
  Ti  Ti100  1  0.84289116  0.21919540  0.53879961  1
  Ti  Ti101  1  0.94152586  0.26750073  0.92315825  1
  Ti  Ti102  1  0.92976047  0.58618998  0.33623664  1
  Ti  Ti103  1  0.90537024  0.70089225  0.55675095  1
  Ti  Ti104  1  0.95871364  0.58727954  0.89147690  1
  Ti  Ti105  1  0.90041366  0.96001432  0.20265151  1
  Ti  Ti106  1  0.93009444  0.90747011  0.62741197  1
  Ti  Ti107  1  0.91036392  0.88490438  0.90749858  1
  Co  Co108  1  0.47158764  0.59804354  0.21178294  1
  Co  Co109  1  0.10741405  0.86091207  0.37044892  1
  Co  Co110  1  0.08124217  0.92894851  -0.08913310  1
  Co  Co111  1  0.61494506  0.07939565  0.64353974  1
  Co  Co112  1  0.87057097  0.25548451  0.37214171  1
  Co  Co113  1  0.05451534  0.89744796  0.20794015  1
  Co  Co114  1  0.72669873  0.47769646  0.13248410  1
  Co  Co115  1  0.49898292  0.10448873  0.14607821  1
  Co  Co116  1  0.48030507  0.38214133  0.76979520  1
  Co  Co117  1  0.34227594  0.11441134  0.91559633  1
  Co  Co118  1  0.58155002  0.45014603  -0.10811180  1
  Co  Co119  1  0.39373009  0.28538048  0.63889017  1
  Co  Co120  1  0.52910244  0.44277118  0.29395516  1
  Co  Co121  1  -0.05791726  0.08878804  0.54169025  1
  Co  Co122  1  0.11678844  0.22531306  -0.07902433  1
  Co  Co123  1  0.73311742  0.30822107  0.88008672  1
  Co  Co124  1  0.45965246  0.22002586  -0.05121717  1
  Co  Co125  1  0.66707971  0.59213747  0.02750801  1
  Co  Co126  1  0.76723409  0.36223701  0.45719412  1
  Co  Co127  1  0.82422068  0.90231588  0.76244844  1
  Co  Co128  1  0.79835795  0.28592724  0.21469897  1
  Co  Co129  1  -0.03809389  0.10989508  0.18200939  1
  Co  Co130  1  0.23679200  0.72736018  0.21103361  1
  Co  Co131  1  0.52883584  0.75931056  0.85243765  1
  Co  Co132  1  0.19277842  0.05914230  0.89861112  1
  Co  Co133  1  0.89694807  0.20508447  0.06742855  1
  Co  Co134  1  0.37349763  0.16465172  0.07532314  1
  Co  Co135  1  -0.02222688  -0.06002379  0.05268455  1
  Co  Co136  1  0.51441563  0.78884482  0.69572456  1
  Co  Co137  1  0.62194817  0.35806065  0.17505518  1
  Co  Co138  1  0.28841099  0.55957903  0.19372980  1
  Co  Co139  1  0.20688570  -0.02700964  0.43199306  1
  Co  Co140  1  0.56071676  0.14095121  0.40004389  1
  Co  Co141  1  0.36313465  0.68483482  0.11879508  1
  Co  Co142  1  0.17539820  0.32529459  0.06387755  1
  Co  Co143  1  0.66734238  0.83432164  0.78913255  1
  Co  Co144  1  0.87560975  0.21757173  0.77685745  1
  Co  Co145  1  -0.11954146  0.32460825  0.65235810  1
  Co  Co146  1  0.01486225  0.04553051  0.66650852  1
  Co  Co147  1  0.05041598  0.34634267  0.37054091  1
  Co  Co148  1  0.73081570  -0.03903429  0.18080772  1
  Co  Co149  1  0.68359469  0.18029273  0.54598516  1
  Co  Co150  1  -0.10059368  0.54426795  0.53473778  1
  Co  Co151  1  0.00866144  0.46269727  0.80908990  1
  Co  Co152  1  0.25871969  0.59088129  0.44654487  1
  Co  Co153  1  0.18669745  0.27732876  0.45626585  1
  Co  Co154  1  0.25212467  0.70769967  0.84500896  1
  Co  Co155  1  0.02877720  0.47854607  0.28264783  1
  Co  Co156  1  0.55295488  0.26002780  0.68881519  1
  Co  Co157  1  0.00350962  0.90469343  0.76956338  1
  Co  Co158  1  -0.04767387  -0.08600521  0.34309294  1
  Co  Co159  1  0.66119624  0.04696847  0.30817424  1
  Co  Co160  1  0.32150933  -0.04135904  -0.01059825  1
  Co  Co161  1  0.56530091  0.28980593  0.32581010  1
  Ni  Ni162  1  0.74207370  0.13840706  0.08862968  1
  Ni  Ni163  1  0.80746849  0.68521848  0.83572223  1
  Ni  Ni164  1  0.74993513  0.71618714  0.46734195  1
  Ni  Ni165  1  0.40417202  0.28238000  0.29719693  1
  Ni  Ni166  1  0.34369465  0.07039326  0.47371313  1
  Ni  Ni167  1  0.45612562  0.86574928  0.06850883  1
  Ni  Ni168  1  0.13223204  0.23125720  0.27544118  1
  Ni  Ni169  1  0.38636162  0.83719220  0.80300567  1
  Ni  Ni170  1  0.49866353  0.54195802  0.71384384  1
  Ni  Ni171  1  0.28617445  0.69214656  0.59360006  1
  Ni  Ni172  1  0.65544396  0.00298940  0.04149088  1
  Ni  Ni173  1  0.16288942  0.45620488  0.40947418  1
  Ni  Ni174  1  0.41905939  0.59033947  0.57317110  1
  Ni  Ni175  1  0.60456461  0.61042291  0.42062770  1
  Ni  Ni176  1  0.74870995  -0.05335171  0.91054540  1
  Ni  Ni177  1  0.05625672  0.69540279  0.04186091  1
  Ni  Ni178  1  0.48961018  0.03023301  0.53751589  1
  Ni  Ni179  1  0.86123161  -0.06021294  0.47837072  1
  Ni  Ni180  1  0.25621231  -0.00876000  0.60399749  1
  Ni  Ni181  1  0.88654495  0.64891492  0.18949889  1
  Ni  Ni182  1  0.35166515  0.65128333  0.31221179  1
  Ni  Ni183  1  0.71406032  0.87160198  0.50737517  1
  Ni  Ni184  1  0.52022177  -0.06388617  0.78874985  1
  Ni  Ni185  1  0.64981855  0.34269314  0.58503202  1
  Ni  Ni186  1  0.88113168  0.41537506  0.32552043  1
  Ni  Ni187  1  0.32456494  0.00281702  0.31525745  1
  Ni  Ni188  1  0.71461615  0.55912097  0.84799370  1
  Ni  Ni189  1  0.44886521  0.36864024  0.42722410  1
  Ni  Ni190  1  0.33000429  0.37297334  0.06936339  1
  Ni  Ni191  1  0.07740358  0.77190830  0.69381707  1
  Ni  Ni192  1  0.05135979  0.70044631  0.39575253  1
  Ni  Ni193  1  0.62047198  0.83917651  0.10308167  1
  Ni  Ni194  1  0.01254390  0.36461391  0.08055057  1
  Ni  Ni195  1  0.30239584  0.40729938  0.50973367  1
  Ni  Ni196  1  0.29761732  0.83631547  0.09631506  1
  Ni  Ni197  1  0.20888934  0.16315217  0.76863110  1
  Ni  Ni198  1  0.02125967  0.61248551  0.64422187  1
  Ni  Ni199  1  0.14701556  0.44609353  0.71084008  1
  Ni  Ni200  1  0.09338763  0.03329966  0.12392002  1
  Ni  Ni201  1  0.27492288  0.84605659  0.52722128  1
  Ni  Ni202  1  0.11524371  0.58115134  -0.05965223  1
  Ni  Ni203  1  0.92062160  0.44275018  -0.03104930  1
  Ni  Ni204  1  0.98326725  0.44979715  0.64663533  1
  Ni  Ni205  1  0.20591691  0.32892924  0.80832831  1
  Ni  Ni206  1  0.75017126  0.62785213  0.61045239  1
  Ni  Ni207  1  0.42196951  0.52001792  0.85425792  1
  Ni  Ni208  1  0.76569015  0.65958804  0.31116049  1
  Ni  Ni209  1  0.60096359  0.06497078  0.88947692  1
  Ni  Ni210  1  0.90332331  0.73355858  -0.04243154  1
  Ni  Ni211  1  0.03765739  0.15094951  0.79449863  1
  Ni  Ni212  1  0.59792288  0.33616289  0.01041659  1
  Ni  Ni213  1  0.82426866  0.80291480  0.23106909  1
  Ni  Ni214  1  -0.00086107  0.82843650  0.49250505  1
