# generated using pymatgen
data_Ti108Co54Ni53
_symmetry_space_group_name_H-M   'P 1'
_cell_length_a   14.68689084
_cell_length_b   14.64373557
_cell_length_c   14.58171388
_cell_angle_alpha   89.78114726
_cell_angle_beta   89.86668285
_cell_angle_gamma   89.98628640
_symmetry_Int_Tables_number   1
_chemical_formula_structural   Ti108Co54Ni53
_chemical_formula_sum   'Ti108 Co54 Ni53'
_cell_volume   3136.07154457
_cell_formula_units_Z   1
loop_
 _symmetry_equiv_pos_site_id
 _symmetry_equiv_pos_as_xyz
  1  'x, y, z'
loop_
 _atom_site_type_symbol
 _atom_site_label
 _atom_site_symmetry_multiplicity
 _atom_site_fract_x
 _atom_site_fract_y
 _atom_site_fract_z
 _atom_site_occupancy
  Ti  Ti0  1  0.03698618  0.02634136  0.30851251  1
  Ti  Ti1  1  0.13137353  0.05736318  0.63224596  1
  Ti  Ti2  1  0.06355673  0.15165620  0.90849839  1
  Ti  Ti3  1  0.03291832  0.39523231  0.25278211  1
  Ti  Ti4  1  0.12032929  0.37133956  0.62587403  1
  Ti  Ti5  1  0.01435770  0.46079929  0.99585336  1
  Ti  Ti6  1  0.10462494  0.73071963  0.23612665  1
  Ti  Ti7  1  0.10360266  0.85796821  0.67177839  1
  Ti  Ti8  1  0.03973698  0.73544240  0.89305280  1
  Ti  Ti9  1  0.44248963  0.16318886  0.20016876  1
  Ti  Ti10  1  0.45487874  0.04992825  0.57912792  1
  Ti  Ti11  1  0.45472252  0.08534708  0.80748908  1
  Ti  Ti12  1  0.35343557  0.35835714  0.21519914  1
  Ti  Ti13  1  0.40318705  0.46438839  0.58515577  1
  Ti  Ti14  1  0.39197604  0.38106727  0.82851099  1
  Ti  Ti15  1  0.46348997  0.74397907  0.36291054  1
  Ti  Ti16  1  0.46261202  0.75138598  0.66393667  1
  Ti  Ti17  1  0.39635342  0.67038042  0.93680206  1
  Ti  Ti18  1  0.68451414  0.10066946  0.23703306  1
  Ti  Ti19  1  0.81946457  0.12812312  0.61512380  1
  Ti  Ti20  1  0.72806719  0.11609453  0.95360023  1
  Ti  Ti21  1  0.75347391  0.48422248  0.26059546  1
  Ti  Ti22  1  0.77364354  0.39146280  0.59153638  1
  Ti  Ti23  1  0.73141093  0.42617044  0.91890526  1
  Ti  Ti24  1  0.67300221  0.73375055  0.14534591  1
  Ti  Ti25  1  0.69458060  0.75288591  0.60645559  1
  Ti  Ti26  1  0.84491354  0.77218848  0.88139514  1
  Ti  Ti27  1  0.01579698  0.28218651  0.08179805  1
  Ti  Ti28  1  0.02817850  0.23426038  0.36721855  1
  Ti  Ti29  1  0.19582996  0.27830975  0.79417167  1
  Ti  Ti30  1  0.13079455  0.62722825  0.03884072  1
  Ti  Ti31  1  0.11733130  0.65090841  0.43147634  1
  Ti  Ti32  1  0.12592935  0.66003154  0.72433556  1
  Ti  Ti33  1  0.04169420  0.83484496  0.06560909  1
  Ti  Ti34  1  0.04502254  0.90161419  0.49146336  1
  Ti  Ti35  1  -0.07928983  0.95435142  0.67235460  1
  Ti  Ti36  1  0.41693169  0.25904807  0.00634758  1
  Ti  Ti37  1  0.40808969  0.26070629  0.37788950  1
  Ti  Ti38  1  0.36589337  0.23494295  0.69177449  1
  Ti  Ti39  1  0.48201962  0.62101040  0.08769535  1
  Ti  Ti40  1  0.48091827  0.56213258  0.43856805  1
  Ti  Ti41  1  0.35044665  0.59171544  0.74535655  1
  Ti  Ti42  1  0.45838539  0.81358818  0.06932659  1
  Ti  Ti43  1  0.42472661  0.92394901  0.40320922  1
  Ti  Ti44  1  0.39956314  0.92071194  0.72026276  1
  Ti  Ti45  1  0.73504476  0.25851868  0.07922916  1
  Ti  Ti46  1  0.73244634  0.23592970  0.44020786  1
  Ti  Ti47  1  0.70216587  0.28958902  0.76420869  1
  Ti  Ti48  1  0.67472020  0.56396009  0.07374807  1
  Ti  Ti49  1  0.79057996  0.55930045  0.44350222  1
  Ti  Ti50  1  0.69211374  0.50443461  0.74027106  1
  Ti  Ti51  1  0.76151728  0.92644159  0.14531177  1
  Ti  Ti52  1  0.76728240  0.92584766  0.35683925  1
  Ti  Ti53  1  0.76780441  0.99623020  0.80106617  1
  Ti  Ti54  1  0.22742823  0.09816056  0.19099749  1
  Ti  Ti55  1  0.28294893  0.07143580  0.43046580  1
  Ti  Ti56  1  0.23998568  0.08990623  0.79980431  1
  Ti  Ti57  1  0.19117159  0.44925509  0.14126890  1
  Ti  Ti58  1  0.21779678  0.47215416  0.37402213  1
  Ti  Ti59  1  0.18994673  0.46675418  0.80613718  1
  Ti  Ti60  1  0.27599001  0.72808121  0.09924483  1
  Ti  Ti61  1  0.30328302  0.74576571  0.46773785  1
  Ti  Ti62  1  0.27879559  0.76277900  0.66389644  1
  Ti  Ti63  1  0.59640170  0.04668113  0.08502992  1
  Ti  Ti64  1  0.59299795  0.01380959  0.41482145  1
  Ti  Ti65  1  0.63397959  0.09690220  0.68529886  1
  Ti  Ti66  1  0.56165860  0.38254503  0.08426933  1
  Ti  Ti67  1  0.56910859  0.36994876  0.41013989  1
  Ti  Ti68  1  0.56572174  0.37693806  0.64669170  1
  Ti  Ti69  1  0.68822303  0.82979059  -0.01350664  1
  Ti  Ti70  1  0.68411869  0.71520151  0.36583829  1
  Ti  Ti71  1  0.67121278  0.69877283  0.79732317  1
  Ti  Ti72  1  0.95620875  0.05294922  0.09597871  1
  Ti  Ti73  1  0.89497868  0.11607072  0.41904606  1
  Ti  Ti74  1  0.95796169  0.12347181  0.75076249  1
  Ti  Ti75  1  0.88691012  0.51772837  0.14184003  1
  Ti  Ti76  1  0.95174772  0.40698223  0.46648260  1
  Ti  Ti77  1  0.99004841  0.41083582  0.79681848  1
  Ti  Ti78  1  0.84507162  0.71135766  0.07265416  1
  Ti  Ti79  1  0.89593757  0.75283737  0.37621795  1
  Ti  Ti80  1  0.94001229  0.73370680  0.67889537  1
  Ti  Ti81  1  0.22113628  0.28170483  0.32676522  1
  Ti  Ti82  1  0.27528516  0.33348341  0.51956318  1
  Ti  Ti83  1  0.21296472  0.28647990  0.98968626  1
  Ti  Ti84  1  0.35798237  0.57858579  0.26522081  1
  Ti  Ti85  1  0.22263857  0.55282114  0.58357280  1
  Ti  Ti86  1  0.22452292  0.64689750  0.88545384  1
  Ti  Ti87  1  0.27479035  0.86769713  0.28151387  1
  Ti  Ti88  1  0.25074829  0.92121874  0.54157480  1
  Ti  Ti89  1  0.14946652  0.92367085  0.87980778  1
  Ti  Ti90  1  0.69231594  0.29508614  0.25467646  1
  Ti  Ti91  1  0.55638583  0.19105196  0.50593277  1
  Ti  Ti92  1  0.60376212  0.27712190  0.93612644  1
  Ti  Ti93  1  0.56545796  0.59653672  0.25200217  1
  Ti  Ti94  1  0.56496187  0.59561848  0.61414701  1
  Ti  Ti95  1  0.55989692  0.54269331  0.90093438  1
  Ti  Ti96  1  0.60605227  0.87984302  0.27878709  1
  Ti  Ti97  1  0.57261903  0.91208511  0.58701489  1
  Ti  Ti98  1  0.51385656  0.84130795  0.87277797  1
  Ti  Ti99  1  0.88480592  0.19166084  0.22356069  1
  Ti  Ti100  1  1.01757827  0.21237104  0.57286815  1
  Ti  Ti101  1  0.88698008  0.27209190  0.87720128  1
  Ti  Ti102  1  0.95669773  0.58786171  0.30659020  1
  Ti  Ti103  1  0.91010208  0.53851367  0.62928799  1
  Ti  Ti104  1  0.88431396  0.57470510  0.83864571  1
  Ti  Ti105  1  0.93989577  0.88020081  0.21825294  1
  Ti  Ti106  1  0.83545521  0.85318209  0.53958998  1
  Ti  Ti107  1  0.94827385  0.95154964  0.90641815  1
  Co  Co108  1  0.05059524  0.63599764  0.58879188  1
  Co  Co109  1  0.21499632  0.60386560  0.19012782  1
  Co  Co110  1  -0.13148373  0.28907743  0.35024135  1
  Co  Co111  1  0.78725805  0.80170234  0.24728301  1
  Co  Co112  1  0.80505611  0.65856067  0.72151543  1
  Co  Co113  1  0.78700147  0.15792502  0.78927658  1
  Co  Co114  1  0.87311513  0.27052678  0.52184829  1
  Co  Co115  1  0.57063710  -0.02589718  0.76507113  1
  Co  Co116  1  0.30138818  0.23479365  0.12758959  1
  Co  Co117  1  0.06872338  0.00637384  0.77276344  1
  Co  Co118  1  0.86965118  0.26995159  0.69775264  1
  Co  Co119  1  0.45155111  0.31695195  0.53724888  1
  Co  Co120  1  0.82571456  0.41860397  0.76634948  1
  Co  Co121  1  0.67584597  0.06727657  0.53806815  1
  Co  Co122  1  0.08157502  0.49680072  0.52193983  1
  Co  Co123  1  0.35842754  0.76760393  0.81055024  1
  Co  Co124  1  0.03891249  0.26255779  0.74682490  1
  Co  Co125  1  0.81795779  0.00263771  0.51094314  1
  Co  Co126  1  0.73654339  0.09115872  0.38373025  1
  Co  Co127  1  0.17783455  0.47131704  -0.03136890  1
  Co  Co128  1  0.73170622  0.41895036  0.10241519  1
  Co  Co129  1  0.46214841  0.43875623  -0.02887131  1
  Co  Co130  1  0.40511460  0.86367405  0.55297552  1
  Co  Co131  1  -0.04749779  0.59175434  0.46547199  1
  Co  Co132  1  0.19586109  0.78896448  0.80557553  1
  Co  Co133  1  0.57375547  0.39753894  0.82710472  1
  Co  Co134  1  0.51564972  0.30294485  0.24163938  1
  Co  Co135  1  0.33025526  0.21426637  0.86966779  1
  Co  Co136  1  0.58618975  0.89208099  0.11661502  1
  Co  Co137  1  0.89346466  0.44322251  0.32294318  1
  Co  Co138  1  0.81815815  0.83234122  0.73555276  1
  Co  Co139  1  0.68812957  0.86551031  0.83272852  1
  Co  Co140  1  0.57266169  0.21497939  0.10458281  1
  Co  Co141  1  0.31969232  0.39748379  0.04079770  1
  Co  Co142  1  -0.01226403  0.76045024  0.51773229  1
  Co  Co143  1  0.36945587  0.41988624  0.41675295  1
  Co  Co144  1  0.30270300  0.56928897  0.05641748  1
  Co  Co145  1  0.44169225  0.88819669  0.23201808  1
  Co  Co146  1  0.15651883  0.75883543  0.55350347  1
  Co  Co147  1  0.63562675  0.46933005  0.53241079  1
  Co  Co148  1  0.72533012  -0.06147126  0.65141725  1
  Co  Co149  1  0.06266963  0.51193143  0.69338230  1
  Co  Co150  1  -0.02875227  0.05281183  0.55471591  1
  Co  Co151  1  0.24882183  0.69306870  0.32003346  1
  Co  Co152  1  0.11320651  0.55112650  0.29296502  1
  Co  Co153  1  0.04856829  0.16013594  0.21206539  1
  Co  Co154  1  0.23549703  0.93961363  0.72604185  1
  Co  Co155  1  0.69641996  0.24437614  0.60378349  1
  Co  Co156  1  0.07113822  0.32325077  0.91106872  1
  Co  Co157  1  -0.05933337  0.71544819  0.19745798  1
  Co  Co158  1  0.62147791  0.13563351  0.83499721  1
  Co  Co159  1  0.31563893  0.58465868  0.43834918  1
  Co  Co160  1  0.58738961  0.81999101  0.72116668  1
  Co  Co161  1  -0.04553702  0.38350591  0.63274942  1
  Ni  Ni162  1  0.30766044  0.06716362  0.64567743  1
  Ni  Ni163  1  0.35653763  0.02376959  0.27771991  1
  Ni  Ni164  1  0.88425400  0.20117562  0.03437649  1
  Ni  Ni165  1  0.39140517  0.63417628  0.57378530  1
  Ni  Ni166  1  0.87488137  0.87412822  0.03555160  1
  Ni  Ni167  1  0.20649757  0.20685634  0.64306087  1
  Ni  Ni168  1  0.83999468  0.68650030  0.53871572  1
  Ni  Ni169  1  0.16124340  0.12995089  0.33497629  1
  Ni  Ni170  1  0.28312514  0.39733904  0.68293282  1
  Ni  Ni171  1  0.60658361  0.44026782  0.22291009  1
  Ni  Ni172  1  0.52095474  0.12840984  -0.03698171  1
  Ni  Ni173  1  0.52964721  0.75048947  0.20958238  1
  Ni  Ni174  1  0.78883799  0.64136155  0.24212959  1
  Ni  Ni175  1  0.72971654  0.58347303  0.59710819  1
  Ni  Ni176  1  0.37316721  0.74085535  0.21979486  1
  Ni  Ni177  1  0.35527901  0.18209389  0.52861394  1
  Ni  Ni178  1  0.18096363  0.78671943  -0.02338902  1
  Ni  Ni179  1  0.47024951  0.45349072  0.29973063  1
  Ni  Ni180  1  0.83079588  0.53018876  -0.00562612  1
  Ni  Ni181  1  0.52328778  0.02793663  0.25716739  1
  Ni  Ni182  1  0.15518588  0.28135343  0.17557879  1
  Ni  Ni183  1  -0.13237226  0.36900782  0.01766388  1
  Ni  Ni184  1  0.12636139  0.14929743  0.06712505  1
  Ni  Ni185  1  -0.03409196  0.62787474  -0.00058472  1
  Ni  Ni186  1  0.53443755  0.73308571  0.51008060  1
  Ni  Ni187  1  0.06100193  0.56788404  0.86464220  1
  Ni  Ni188  1  0.32914247  0.51256503  0.90563263  1
  Ni  Ni189  1  0.17157169  0.20425738  0.48225630  1
  Ni  Ni190  1  0.63613706  0.52239078  0.37876986  1
  Ni  Ni191  1  0.50356694  0.67621997  0.80495678  1
  Ni  Ni192  1  0.73230347  0.64353478  -0.06352846  1
  Ni  Ni193  1  0.52609294  0.21605703  0.66667957  1
  Ni  Ni194  1  0.85912912  0.03227405  0.25981586  1
  Ni  Ni195  1  0.11416438  0.35616834  0.44398036  1
  Ni  Ni196  1  -0.07641882  -0.06712874  0.38882684  1
  Ni  Ni197  1  0.43085394  0.47906534  0.13809103  1
  Ni  Ni198  1  0.65438761  0.84633130  0.45845069  1
  Ni  Ni199  1  0.48989864  0.24706750  0.82337266  1
  Ni  Ni200  1  0.11766067  0.04730809  0.46685033  1
  Ni  Ni201  1  0.08339287  0.00363565  0.00298413  1
  Ni  Ni202  1  -0.00780871  0.84839199  0.78977277  1
  Ni  Ni203  1  0.58014013  0.18557164  0.33766296  1
  Ni  Ni204  1  0.57317735  0.70345607  -0.03168250  1
  Ni  Ni205  1  0.44747109  0.09836764  0.39979931  1
  Ni  Ni206  1  0.49848543  0.51508921  0.74050803  1
  Ni  Ni207  1  0.88932259  0.09951055  0.90965215  1
  Ni  Ni208  1  0.61808499  -0.01319668  -0.07660577  1
  Ni  Ni209  1  0.04144913  0.55679306  0.15092208  1
  Ni  Ni210  1  0.78789367  0.08831904  0.10905300  1
  Ni  Ni211  1  0.09544708  -0.02332371  0.16306994  1
  Ni  Ni212  1  0.15596318  0.81836906  0.39350922  1
  Ni  Ni213  1  0.75195310  0.39818487  0.41258788  1
  Ni  Ni214  1  0.86051030  0.35044201  0.18524722  1
