# generated using pymatgen
data_Ti108Co54Ni53
_symmetry_space_group_name_H-M   'P 1'
_cell_length_a   14.71002513
_cell_length_b   14.63302693
_cell_length_c   14.69607440
_cell_angle_alpha   89.93120781
_cell_angle_beta   90.59139671
_cell_angle_gamma   90.22148873
_symmetry_Int_Tables_number   1
_chemical_formula_structural   Ti108Co54Ni53
_chemical_formula_sum   'Ti108 Co54 Ni53'
_cell_volume   3163.16797897
_cell_formula_units_Z   1
loop_
 _symmetry_equiv_pos_site_id
 _symmetry_equiv_pos_as_xyz
  1  'x, y, z'
loop_
 _atom_site_type_symbol
 _atom_site_label
 _atom_site_symmetry_multiplicity
 _atom_site_fract_x
 _atom_site_fract_y
 _atom_site_fract_z
 _atom_site_occupancy
  Ti  Ti0  1  0.10275482  -0.00536452  0.26559454  1
  Ti  Ti1  1  0.08139232  0.09254492  0.63225837  1
  Ti  Ti2  1  0.02494002  0.16516605  0.94042639  1
  Ti  Ti3  1  0.10304814  0.43005834  0.21711350  1
  Ti  Ti4  1  0.11171087  0.38988240  0.66083124  1
  Ti  Ti5  1  0.08388419  0.37061470  0.97098732  1
  Ti  Ti6  1  0.06552810  0.79065818  0.23497700  1
  Ti  Ti7  1  0.07257562  0.72010401  0.53272545  1
  Ti  Ti8  1  0.07329028  0.79768811  0.91700153  1
  Ti  Ti9  1  0.33673758  0.03226683  0.27223518  1
  Ti  Ti10  1  0.39838802  0.07706221  0.47197349  1
  Ti  Ti11  1  0.41610665  0.13992644  0.87632743  1
  Ti  Ti12  1  0.41784235  0.33063417  0.16428462  1
  Ti  Ti13  1  0.39532463  0.45503526  0.63842285  1
  Ti  Ti14  1  0.43910880  0.43522650  0.95323568  1
  Ti  Ti15  1  0.40516276  0.67374069  0.24628098  1
  Ti  Ti16  1  0.42559953  0.75883481  0.54601333  1
  Ti  Ti17  1  0.42232665  0.74833002  1.06712213  1
  Ti  Ti18  1  0.67968151  0.07847338  0.30368734  1
  Ti  Ti19  1  0.77179945  0.08410206  0.59846926  1
  Ti  Ti20  1  0.71757217  0.07530326  0.88114495  1
  Ti  Ti21  1  0.73059951  0.40690012  0.21995198  1
  Ti  Ti22  1  0.72837268  0.40535497  0.55946458  1
  Ti  Ti23  1  0.72806904  0.41210329  0.90230048  1
  Ti  Ti24  1  0.76328488  0.72183748  0.27020929  1
  Ti  Ti25  1  0.77707530  0.77076875  0.52455910  1
  Ti  Ti26  1  0.73006449  0.73464807  0.97043917  1
  Ti  Ti27  1  0.06143953  0.19892091  0.14677747  1
  Ti  Ti28  1  0.08588696  0.20553407  0.43934901  1
  Ti  Ti29  1  0.09210481  0.23388095  0.76915739  1
  Ti  Ti30  1  0.03433582  0.55285254  0.08201476  1
  Ti  Ti31  1  0.12261562  0.52449170  0.51846236  1
  Ti  Ti32  1  0.07111214  0.51513227  0.80090089  1
  Ti  Ti33  1  0.02811816  0.95875835  0.08314594  1
  Ti  Ti34  1  0.07925878  0.94393364  0.49411695  1
  Ti  Ti35  1  0.11381278  0.92395754  0.75931323  1
  Ti  Ti36  1  0.44180166  0.16309065  0.06367638  1
  Ti  Ti37  1  0.46696293  0.25375785  0.40315758  1
  Ti  Ti38  1  0.43605915  0.26077888  0.72100957  1
  Ti  Ti39  1  0.37687052  0.53909916  0.11479954  1
  Ti  Ti40  1  0.48944245  0.58435629  0.47857532  1
  Ti  Ti41  1  0.51410122  0.63187295  0.68071374  1
  Ti  Ti42  1  0.38078326  0.96276971  0.08558544  1
  Ti  Ti43  1  0.43572375  0.91465714  0.39877288  1
  Ti  Ti44  1  0.46348176  1.00068904  0.73277152  1
  Ti  Ti45  1  0.72177570  0.22162700  0.03386011  1
  Ti  Ti46  1  0.74243130  0.29504754  0.37542489  1
  Ti  Ti47  1  0.77440499  0.27444135  0.69596427  1
  Ti  Ti48  1  0.69465455  0.59640827  0.12242683  1
  Ti  Ti49  1  0.81267935  0.59377653  0.42906821  1
  Ti  Ti50  1  0.68075225  0.57383387  0.77629580  1
  Ti  Ti51  1  0.76756617  0.88023871  0.10526941  1
  Ti  Ti52  1  0.75995896  0.96755962  0.43673180  1
  Ti  Ti53  1  0.67075652  0.94743937  0.73647470  1
  Ti  Ti54  1  0.25745570  0.14146937  0.12750117  1
  Ti  Ti55  1  0.21894730  0.09314276  0.50236894  1
  Ti  Ti56  1  0.25811114  0.15792220  0.73153601  1
  Ti  Ti57  1  0.26446977  0.41831086  0.00137460  1
  Ti  Ti58  1  0.21105356  0.36433629  0.41789638  1
  Ti  Ti59  1  0.29254107  0.47786392  0.80341643  1
  Ti  Ti60  1  0.21240143  0.68552820  0.14356386  1
  Ti  Ti61  1  0.18656772  0.67460041  0.36194691  1
  Ti  Ti62  1  0.20304349  0.69408891  0.66801878  1
  Ti  Ti63  1  0.60697865  0.04930145  0.06159371  1
  Ti  Ti64  1  0.59606331  0.08220791  0.47209640  1
  Ti  Ti65  1  0.61672144  0.13643891  0.70515036  1
  Ti  Ti66  1  0.55451613  0.45485964  0.13045144  1
  Ti  Ti67  1  0.56843432  0.42002908  0.43365864  1
  Ti  Ti68  1  0.54880705  0.43023281  0.78606489  1
  Ti  Ti69  1  0.60273016  0.76329838  0.16253401  1
  Ti  Ti70  1  0.52753352  0.75519433  0.36116957  1
  Ti  Ti71  1  0.64669124  0.76572783  0.76090850  1
  Ti  Ti72  1  0.88230867  0.13219425  0.10403258  1
  Ti  Ti73  1  0.93237363  0.07071166  0.43523972  1
  Ti  Ti74  1  0.96370279  0.06576995  0.78056933  1
  Ti  Ti75  1  0.85353735  0.50083216  0.06590932  1
  Ti  Ti76  1  0.94961263  0.44171674  0.37115881  1
  Ti  Ti77  1  0.92233972  0.40332995  0.66909286  1
  Ti  Ti78  1  0.97340575  0.74353420  0.06554153  1
  Ti  Ti79  1  0.94071892  0.74787794  0.41158745  1
  Ti  Ti80  1  0.96741444  0.71715795  0.75687265  1
  Ti  Ti81  1  0.21754103  0.26784976  0.26320791  1
  Ti  Ti82  1  0.32517654  0.25348112  0.55370177  1
  Ti  Ti83  1  0.21918543  0.21625254  0.94155221  1
  Ti  Ti84  1  0.29335627  0.51687599  0.30189296  1
  Ti  Ti85  1  0.29648170  0.56487343  0.50120374  1
  Ti  Ti86  1  0.15956464  0.57497667  0.94779915  1
  Ti  Ti87  1  0.25556312  0.85249612  0.23484364  1
  Ti  Ti88  1  0.27695543  0.89719345  0.53639250  1
  Ti  Ti89  1  0.20447780  0.94226853  0.95743849  1
  Ti  Ti90  1  0.56595612  0.20660816  0.23586622  1
  Ti  Ti91  1  0.63663543  0.24613340  0.53443270  1
  Ti  Ti92  1  0.61963961  0.25322605  0.83655290  1
  Ti  Ti93  1  0.60322361  0.56538265  0.29153665  1
  Ti  Ti94  1  0.67027745  0.57437290  0.56489615  1
  Ti  Ti95  1  0.60083039  0.55751166  0.95929470  1
  Ti  Ti96  1  0.54284296  0.93494837  0.22260701  1
  Ti  Ti97  1  0.60185432  0.87062878  0.53375922  1
  Ti  Ti98  1  0.62635808  0.90121512  0.92877187  1
  Ti  Ti99  1  0.90651353  0.28676742  0.24399068  1
  Ti  Ti100  1  0.94697943  0.22466052  0.59795897  1
  Ti  Ti101  1  0.90061092  0.30158500  0.96463128  1
  Ti  Ti102  1  0.94284521  0.63016211  0.24520104  1
  Ti  Ti103  1  0.94688965  0.54622384  0.54366970  1
  Ti  Ti104  1  0.87170419  0.54711064  0.79828031  1
  Ti  Ti105  1  0.88176280  0.98569546  0.24406072  1
  Ti  Ti106  1  0.95057274  0.87454501  0.63316325  1
  Ti  Ti107  1  0.88352204  0.93933226  0.94627877  1
  Co  Co108  1  0.14028833  0.50475522  0.36189379  1
  Co  Co109  1  0.20563502  -0.00360149  0.64395841  1
  Co  Co110  1  0.14951703  0.24655919  0.59270480  1
  Co  Co111  1  0.74231908  0.07339579  0.16526292  1
  Co  Co112  1  0.90698192  0.69540876  0.59218497  1
  Co  Co113  1  0.49742285  0.07847404  0.34101861  1
  Co  Co114  1  0.55371997  0.66327528  0.84537666  1
  Co  Co115  1  0.79603599  0.69310469  0.82381530  1
  Co  Co116  1  0.26695958  0.32346219  0.70121208  1
  Co  Co117  1  0.60351774  0.31126985  0.67781519  1
  Co  Co118  1  0.72360567  0.42888457  0.72210151  1
  Co  Co119  1  0.29828836  0.20713662  0.39850420  1
  Co  Co120  1  0.58502777  0.36422771  0.28182188  1
  Co  Co121  1  0.76912997  0.86418418  0.85788529  1
  Co  Co122  1  0.12256905  0.82777790  0.08883487  1
  Co  Co123  1  -0.07038757  0.03615301  0.59485509  1
  Co  Co124  1  0.15015432  0.08915859  0.83682797  1
  Co  Co125  1  0.58810240  0.36585329  -0.03545785  1
  Co  Co126  1  0.81779877  0.53324283  0.63229199  1
  Co  Co127  1  0.59709784  0.71849983  0.57472424  1
  Co  Co128  1  0.37185110  0.66544536  0.40190174  1
  Co  Co129  1  0.41663807  0.83392758  0.22052227  1
  Co  Co130  1  0.24160400  0.73271418  0.51150319  1
  Co  Co131  1  0.29720879  0.07556115  -0.01873847  1
  Co  Co132  1  0.35457172  0.34555291  0.32226026  1
  Co  Co133  1  -0.07197083  0.23082307  0.78068145  1
  Co  Co134  1  0.13240493  0.84907017  0.61592342  1
  Co  Co135  1  0.35456441  0.28131921  0.00797840  1
  Co  Co136  1  0.57051333  0.18553524  -0.02681241  1
  Co  Co137  1  0.56168034  0.05829486  0.85910833  1
  Co  Co138  1  0.87111828  0.12530411  -0.06344177  1
  Co  Co139  1  0.01220582  0.36346717  0.81728893  1
  Co  Co140  1  0.57126385  0.73458257  -0.00984052  1
  Co  Co141  1  0.21714900  0.52969306  0.67181978  1
  Co  Co142  1  0.31831052  0.30332211  0.84908193  1
  Co  Co143  1  -0.04441345  0.87697462  0.80704165  1
  Co  Co144  1  0.73209320  0.23953352  0.21468117  1
  Co  Co145  1  0.82367420  0.81098739  0.71278383  1
  Co  Co146  1  0.43509057  -0.07145476  0.57081436  1
  Co  Co147  1  0.52836644  0.62198867  0.11974585  1
  Co  Co148  1  0.52635162  0.84397436  0.67997277  1
  Co  Co149  1  0.82797502  0.32713111  0.10603258  1
  Co  Co150  1  -0.09541109  0.90923138  0.48636961  1
  Co  Co151  1  0.10360560  0.60686378  0.23583822  1
  Co  Co152  1  0.19609575  0.52911958  0.11175278  1
  Co  Co153  1  0.05242558  0.31925146  0.32858158  1
  Co  Co154  1  0.59943348  0.29726417  0.11160334  1
  Co  Co155  1  0.46919993  0.29331081  0.88422622  1
  Co  Co156  1  0.47680707  0.06916072  0.18259525  1
  Co  Co157  1  0.70274765  0.43117768  0.05962490  1
  Co  Co158  1  0.76341138  -0.07937689  0.59577659  1
  Co  Co159  1  0.01150541  0.60044863  0.39556028  1
  Co  Co160  1  0.71649722  0.46604641  0.39165363  1
  Co  Co161  1  0.77025354  0.02254382  0.02332012  1
  Ni  Ni162  1  -0.00958495  -0.09868892  0.34587546  1
  Ni  Ni163  1  0.27748274  0.40701615  0.18149394  1
  Ni  Ni164  1  0.84123941  0.14038143  0.29731650  1
  Ni  Ni165  1  0.75597385  0.67693229  0.66418034  1
  Ni  Ni166  1  0.79443552  0.55328242  0.26789397  1
  Ni  Ni167  1  0.31434263  0.81199035  0.38253226  1
  Ni  Ni168  1  -0.08146194  0.45967391  0.20776198  1
  Ni  Ni169  1  0.20979922  -0.02632632  0.12870030  1
  Ni  Ni170  1  0.27871254  0.82659073  0.06076123  1
  Ni  Ni171  1  0.03683083  0.35749727  0.50492103  1
  Ni  Ni172  1  0.82862995  0.68958979  0.11816478  1
  Ni  Ni173  1  0.71070886  0.90966430  0.25342930  1
  Ni  Ni174  1  0.13188497  0.07895403  0.02656278  1
  Ni  Ni175  1  0.38943372  0.19043768  0.25743714  1
  Ni  Ni176  1  0.76942373  0.14772752  0.44619320  1
  Ni  Ni177  1  0.04438453  -0.01715396  -0.08856224  1
  Ni  Ni178  1  0.78043700  0.24084724  0.86551121  1
  Ni  Ni179  1  0.57486376  0.00744745  0.61342488  1
  Ni  Ni180  1  0.56097021  0.46577202  0.61945467  1
  Ni  Ni181  1  0.68243189  0.80593890  0.38554321  1
  Ni  Ni182  1  0.17914433  0.11970191  0.32594830  1
  Ni  Ni183  1  0.89981673  0.76915884  -0.08164411  1
  Ni  Ni184  1  0.48444165  0.32569139  0.56248842  1
  Ni  Ni185  1  0.44083145  0.54866424  0.81035230  1
  Ni  Ni186  1  0.39407870  0.42548662  0.46144189  1
  Ni  Ni187  1  0.12363346  0.67738314  0.81127925  1
  Ni  Ni188  1  -0.04386461  0.47329310  0.93735975  1
  Ni  Ni189  1  0.87253362  0.37610521  0.50419711  1
  Ni  Ni190  1  0.14258426  0.83375629  0.38520819  1
  Ni  Ni191  1  0.17915966  0.30325071  0.09891334  1
  Ni  Ni192  1  0.00039431  0.63464533  -0.08025025  1
  Ni  Ni193  1  0.59793593  -0.05816010  0.37658669  1
  Ni  Ni194  1  -0.09706157  0.81397647  0.20806182  1
  Ni  Ni195  1  0.45851452  0.47808237  0.28847465  1
  Ni  Ni196  1  0.77121294  0.57472083  -0.05570994  1
  Ni  Ni197  1  0.64869148  0.65153108  0.42264591  1
  Ni  Ni198  1  0.80529577  0.12449026  0.75322078  1
  Ni  Ni199  1  0.17357646  0.37322407  0.83677598  1
  Ni  Ni200  1  0.05490013  0.59639001  0.66190746  1
  Ni  Ni201  1  0.85762922  0.37939004  0.81719681  1
  Ni  Ni202  1  0.23720447  -0.03102831  0.38677128  1
  Ni  Ni203  1  -0.00872169  0.36395627  0.10201105  1
  Ni  Ni204  1  0.25077154  0.40754999  0.56562596  1
  Ni  Ni205  1  0.35481240  0.62387665  0.64633836  1
  Ni  Ni206  1  0.83380920  0.85420326  0.34798638  1
  Ni  Ni207  1  0.29471655  0.63541388  0.00926470  1
  Ni  Ni208  1  -0.08156761  0.24615661  0.41329324  1
  Ni  Ni209  1  0.35172701  0.07040888  0.63081309  1
  Ni  Ni210  1  0.44743365  0.61026814  -0.03264435  1
  Ni  Ni211  1  0.83791113  -0.03187849  0.73819077  1
  Ni  Ni212  1  0.48981382  0.15999252  0.59114064  1
  Ni  Ni213  1  0.00802486  0.14657113  0.29291225  1
  Ni  Ni214  1  0.53080487  0.88194738  0.06097730  1
