# generated using pymatgen
data_Ti108Co54Ni53
_symmetry_space_group_name_H-M   'P 1'
_cell_length_a   14.55502771
_cell_length_b   14.66148856
_cell_length_c   14.68704921
_cell_angle_alpha   89.76176388
_cell_angle_beta   90.14702542
_cell_angle_gamma   89.93019976
_symmetry_Int_Tables_number   1
_chemical_formula_structural   Ti108Co54Ni53
_chemical_formula_sum   'Ti108 Co54 Ni53'
_cell_volume   3134.15261594
_cell_formula_units_Z   1
loop_
 _symmetry_equiv_pos_site_id
 _symmetry_equiv_pos_as_xyz
  1  'x, y, z'
loop_
 _atom_site_type_symbol
 _atom_site_label
 _atom_site_symmetry_multiplicity
 _atom_site_fract_x
 _atom_site_fract_y
 _atom_site_fract_z
 _atom_site_occupancy
  Ti  Ti0  1  0.14957682  0.01959130  0.30940016  1
  Ti  Ti1  1  0.10710836  0.03403242  0.63881660  1
  Ti  Ti2  1  0.07782516  0.11338268  0.97374077  1
  Ti  Ti3  1  0.07295380  0.42482733  0.26837929  1
  Ti  Ti4  1  0.09217407  0.38202000  0.59071702  1
  Ti  Ti5  1  0.14038173  0.47381476  0.92765348  1
  Ti  Ti6  1  0.13043145  0.75396124  0.25953296  1
  Ti  Ti7  1  0.02217335  0.73494335  0.55353418  1
  Ti  Ti8  1  0.07827138  0.74897278  0.89558926  1
  Ti  Ti9  1  0.35450745  -0.00758130  0.27457319  1
  Ti  Ti10  1  0.44062815  0.10501557  0.53218545  1
  Ti  Ti11  1  0.35146162  0.01718809  0.89523086  1
  Ti  Ti12  1  0.37662452  0.46093833  0.25839111  1
  Ti  Ti13  1  0.35779199  0.53441117  0.68937497  1
  Ti  Ti14  1  0.44123012  0.30771662  0.91963984  1
  Ti  Ti15  1  0.46593677  0.70965717  0.22713003  1
  Ti  Ti16  1  0.40003087  0.66473175  0.55354166  1
  Ti  Ti17  1  0.47535289  0.78510427  0.91027143  1
  Ti  Ti18  1  0.79411690  0.07029059  0.24180133  1
  Ti  Ti19  1  0.71089288  0.05102774  0.56038992  1
  Ti  Ti20  1  0.63784564  0.12622514  0.90354656  1
  Ti  Ti21  1  0.77865543  0.43803100  0.22993389  1
  Ti  Ti22  1  0.79970886  0.43254037  0.56316289  1
  Ti  Ti23  1  0.76543604  0.41845441  1.01374433  1
  Ti  Ti24  1  0.80615277  0.73867941  0.16242294  1
  Ti  Ti25  1  0.83215390  0.77181486  0.52998736  1
  Ti  Ti26  1  0.75613249  0.79431944  0.95703361  1
  Ti  Ti27  1  0.11992355  0.31574605  0.06549059  1
  Ti  Ti28  1  0.02322697  0.24825440  0.43563209  1
  Ti  Ti29  1  0.08280290  0.16950973  0.77881986  1
  Ti  Ti30  1  0.07655272  0.51480681  0.09165610  1
  Ti  Ti31  1  0.07924555  0.60176248  0.40894327  1
  Ti  Ti32  1  0.04513594  0.54722143  0.72104609  1
  Ti  Ti33  1  0.03990710  0.96333237  0.13107077  1
  Ti  Ti34  1  0.11495883  0.92674584  0.48139477  1
  Ti  Ti35  1  0.07024894  0.91754970  0.79851128  1
  Ti  Ti36  1  0.32325509  0.31575945  0.07610947  1
  Ti  Ti37  1  0.46909273  0.26007635  0.36695112  1
  Ti  Ti38  1  0.39834692  0.32220950  0.72243056  1
  Ti  Ti39  1  0.44801651  0.62789279  0.03472320  1
  Ti  Ti40  1  0.38513381  0.60146059  0.37921415  1
  Ti  Ti41  1  0.42594510  0.71354831  0.74382238  1
  Ti  Ti42  1  0.39884271  0.89647327  0.04801048  1
  Ti  Ti43  1  0.43835634  0.93861095  0.44668759  1
  Ti  Ti44  1  0.46576961  0.89861581  0.66769425  1
  Ti  Ti45  1  0.71595708  0.19761453  0.11132500  1
  Ti  Ti46  1  0.84118607  0.21259727  0.47608177  1
  Ti  Ti47  1  0.74722269  0.17959105  0.74588343  1
  Ti  Ti48  1  0.75216074  0.60535538  -0.01875583  1
  Ti  Ti49  1  0.69623822  0.51876779  0.41914275  1
  Ti  Ti50  1  0.75430244  0.52185418  0.72318031  1
  Ti  Ti51  1  0.73494687  0.92488356  0.09796004  1
  Ti  Ti52  1  0.79132609  0.91912551  0.41139886  1
  Ti  Ti53  1  0.76358153  0.90685205  0.79972565  1
  Ti  Ti54  1  0.36363125  0.09686163  0.08931948  1
  Ti  Ti55  1  0.28848316  0.15561584  0.39618622  1
  Ti  Ti56  1  0.27054223  0.12284061  0.72746389  1
  Ti  Ti57  1  0.27531926  0.51649832  0.07164736  1
  Ti  Ti58  1  0.22386988  0.45377060  0.41090445  1
  Ti  Ti59  1  0.21766273  0.42295518  0.76527278  1
  Ti  Ti60  1  0.27696912  0.72976632  0.08811188  1
  Ti  Ti61  1  0.28117788  0.80160059  0.46749521  1
  Ti  Ti62  1  0.23571597  0.76608175  0.77044514  1
  Ti  Ti63  1  0.56476542  0.02935099  0.04398876  1
  Ti  Ti64  1  0.61066506  0.01641078  0.35612420  1
  Ti  Ti65  1  0.56610078  0.07920509  0.70309464  1
  Ti  Ti66  1  0.50700620  0.41499303  0.11113712  1
  Ti  Ti67  1  0.46777700  0.44131787  0.53310266  1
  Ti  Ti68  1  0.56008516  0.47734316  0.72630794  1
  Ti  Ti69  1  0.62223871  0.70550875  0.09707083  1
  Ti  Ti70  1  0.55609100  0.70546528  0.40726867  1
  Ti  Ti71  1  0.63822332  0.65458359  0.78803099  1
  Ti  Ti72  1  0.92625210  0.16474723  0.07779224  1
  Ti  Ti73  1  0.96650848  0.04867930  0.37973293  1
  Ti  Ti74  1  0.91778021  0.01790329  0.73704013  1
  Ti  Ti75  1  0.95263838  0.38070203  0.00601719  1
  Ti  Ti76  1  0.91206370  0.49849751  0.38343329  1
  Ti  Ti77  1  0.86514953  0.35221975  0.80514706  1
  Ti  Ti78  1  0.95166725  0.70293244  0.02508316  1
  Ti  Ti79  1  0.93193527  0.72631560  0.35966890  1
  Ti  Ti80  1  0.91306906  0.79333898  0.73752957  1
  Ti  Ti81  1  0.21682084  0.25948024  0.23704650  1
  Ti  Ti82  1  0.28895381  0.34542363  0.56838511  1
  Ti  Ti83  1  0.26210121  0.20160839  0.91264117  1
  Ti  Ti84  1  0.20511076  0.57455819  0.25741626  1
  Ti  Ti85  1  0.20109209  0.67116420  0.59930264  1
  Ti  Ti86  1  0.30434611  0.57942770  0.87934737  1
  Ti  Ti87  1  0.21821056  0.91227966  0.14352633  1
  Ti  Ti88  1  0.29103810  0.97422771  0.59194131  1
  Ti  Ti89  1  0.22907508  0.87006891  0.94072915  1
  Ti  Ti90  1  0.51940658  0.21253270  0.14115316  1
  Ti  Ti91  1  0.58114510  0.28580591  0.64498728  1
  Ti  Ti92  1  0.61186307  0.29812072  0.98287789  1
  Ti  Ti93  1  0.66236959  0.61043664  0.25497983  1
  Ti  Ti94  1  0.68277301  0.63407411  0.57949187  1
  Ti  Ti95  1  0.57894102  0.49685851  0.93852873  1
  Ti  Ti96  1  0.54452843  0.90405807  0.18470407  1
  Ti  Ti97  1  0.64463611  0.84346670  0.54054470  1
  Ti  Ti98  1  0.53812004  0.95450883  0.85055925  1
  Ti  Ti99  1  0.97025504  0.28155595  0.21918804  1
  Ti  Ti100  1  0.93697723  0.25620330  0.64733450  1
  Ti  Ti101  1  0.81932336  0.22108202  0.94427598  1
  Ti  Ti102  1  0.96268997  0.60753632  0.21343747  1
  Ti  Ti103  1  0.88190352  0.62196068  0.64516967  1
  Ti  Ti104  1  0.88244085  0.54488827  0.85628028  1
  Ti  Ti105  1  0.89639222  0.89729405  0.25210764  1
  Ti  Ti106  1  0.91126406  0.97988831  0.54768419  1
  Ti  Ti107  1  0.90514070  0.98780678  0.95132840  1
  Co  Co108  1  0.11708597  0.77288810  0.42527463  1
  Co  Co109  1  0.07662821  -0.07221543  -0.02980788  1
  Co  Co110  1  0.11625413  0.21582201  0.60937352  1
  Co  Co111  1  0.17495551  0.60825484  0.78671984  1
  Co  Co112  1  0.71763280  0.69777901  0.42677432  1
  Co  Co113  1  0.63072463  0.81214220  0.83080675  1
  Co  Co114  1  0.21588696  0.41539214  0.18564298  1
  Co  Co115  1  0.71252562  0.45333605  0.86126251  1
  Co  Co116  1  0.32619893  0.80523183  0.63621704  1
  Co  Co117  1  0.18033572  0.64542254  -0.02621159  1
  Co  Co118  1  0.22728059  0.08512007  0.19237358  1
  Co  Co119  1  0.78125270  0.77967483  0.31331817  1
  Co  Co120  1  0.56253656  -0.01217139  0.54946194  1
  Co  Co121  1  0.32579833  0.73394925  -0.07864671  1
  Co  Co122  1  0.40390352  0.02665037  0.73287453  1
  Co  Co123  1  0.51095120  0.56206484  0.17443787  1
  Co  Co124  1  0.16597408  0.85073124  0.61974618  1
  Co  Co125  1  0.92730375  0.43919500  0.68103218  1
  Co  Co126  1  0.28926037  0.71635946  0.29208795  1
  Co  Co127  1  0.71704029  0.36590810  0.70982845  1
  Co  Co128  1  0.27423307  -0.00350678  0.43603133  1
  Co  Co129  1  0.36382165  0.16840649  0.24390004  1
  Co  Co130  1  0.23357203  0.64486856  0.43696156  1
  Co  Co131  1  0.45542657  0.09926795  0.36743031  1
  Co  Co132  1  0.75526677  0.07294341  0.03035146  1
  Co  Co133  1  0.37330381  0.87239293  0.81682368  1
  Co  Co134  1  0.35173259  0.60810474  0.18427484  1
  Co  Co135  1  0.21358359  0.18550285  0.06628067  1
  Co  Co136  1  0.70694478  0.29114424  0.85367851  1
  Co  Co137  1  0.63708112  0.45786809  0.58365316  1
  Co  Co138  1  0.55603351  0.21526235  0.79412212  1
  Co  Co139  1  0.64018538  0.85367501  0.38590826  1
  Co  Co140  1  -0.08200642  0.83246563  0.89415359  1
  Co  Co141  1  0.42835748  0.27525889  0.53306737  1
  Co  Co142  1  0.68193983  -0.04341571  -0.06637667  1
  Co  Co143  1  0.78525745  0.07758749  0.40826922  1
  Co  Co144  1  0.12809553  0.65327480  0.12915075  1
  Co  Co145  1  0.88572229  0.01574941  0.12052781  1
  Co  Co146  1  0.83573995  0.31094958  0.11447657  1
  Co  Co147  1  0.40741317  0.31389633  0.21366782  1
  Co  Co148  1  0.83768191  0.60337486  0.48795948  1
  Co  Co149  1  0.00462387  -0.11665845  0.63726810  1
  Co  Co150  1  0.71396607  -0.08007093  0.25674691  1
  Co  Co151  1  0.11816731  0.80013030  0.06676117  1
  Co  Co152  1  0.43491453  0.18070417  0.66950870  1
  Co  Co153  1  0.55116769  0.56647807  0.48558336  1
  Co  Co154  1  0.00694444  0.43597287  0.84358357  1
  Co  Co155  1  0.64318873  0.05784868  0.18479525  1
  Co  Co156  1  0.56595625  0.36391180  0.82498608  1
  Co  Co157  1  0.21891261  0.27576398  0.71504946  1
  Co  Co158  1  0.05271160  -0.11000700  0.30437768  1
  Co  Co159  1  0.81664914  0.61018801  0.31165398  1
  Co  Co160  1  0.52879652  0.54117814  0.33146867  1
  Co  Co161  1  0.80206265  0.57808601  0.14325417  1
  Ni  Ni162  1  0.07389411  0.73594983  0.71683973  1
  Ni  Ni163  1  0.36122042  0.84007654  0.20552017  1
  Ni  Ni164  1  0.40752150  0.16113182  0.82863224  1
  Ni  Ni165  1  0.57258732  0.76195957  0.67167158  1
  Ni  Ni166  1  -0.06814729  0.44499913  0.16679116  1
  Ni  Ni167  1  0.93758592  0.36843523  0.51839147  1
  Ni  Ni168  1  0.52465740  0.60636827  0.64168797  1
  Ni  Ni169  1  0.41336162  0.45014654  0.82345570  1
  Ni  Ni170  1  -0.06383762  0.13019518  0.85516383  1
  Ni  Ni171  1  0.89110673  0.18157206  0.31749710  1
  Ni  Ni172  1  0.31631986  0.32521605  0.36260569  1
  Ni  Ni173  1  0.47873637  0.15358242  -0.02586661  1
  Ni  Ni174  1  0.48480170  0.84658263  0.32611065  1
  Ni  Ni175  1  0.65921477  0.35264232  0.14451294  1
  Ni  Ni176  1  0.62939426  0.77465886  0.24694556  1
  Ni  Ni177  1  0.80235858  0.69552636  0.82739821  1
  Ni  Ni178  1  0.23554390  0.87298892  0.32587953  1
  Ni  Ni179  1  0.05606295  0.32901176  0.73995154  1
  Ni  Ni180  1  0.59708430  0.67817899  -0.05768405  1
  Ni  Ni181  1  0.47247223  0.60221823  0.85777351  1
  Ni  Ni182  1  -0.00798683  0.12497606  0.54953277  1
  Ni  Ni183  1  -0.01466819  0.53547605  0.54026160  1
  Ni  Ni184  1  0.78696644  0.06085842  0.85930981  1
  Ni  Ni185  1  -0.03715339  0.86408245  0.44033858  1
  Ni  Ni186  1  0.28757283  0.38697533  -0.08012221  1
  Ni  Ni187  1  0.48882908  0.06325965  0.21031768  1
  Ni  Ni188  1  0.27863568  0.17339815  0.56980576  1
  Ni  Ni189  1  0.74250004  0.75716556  0.68468038  1
  Ni  Ni190  1  0.47318040  0.80421028  0.52930578  1
  Ni  Ni191  1  0.22163557  0.02593236  0.01987582  1
  Ni  Ni192  1  0.79257158  0.90886052  0.63140735  1
  Ni  Ni193  1  0.19358332  0.50985256  0.62777909  1
  Ni  Ni194  1  0.63526571  -0.07998366  0.69329250  1
  Ni  Ni195  1  0.23898656  -0.06023451  0.74728452  1
  Ni  Ni196  1  -0.01323952  0.77602031  0.17631727  1
  Ni  Ni197  1  0.65200792  0.51888790  0.10003420  1
  Ni  Ni198  1  0.91001510  0.54148228  0.02891031  1
  Ni  Ni199  1  0.58381239  0.85416192  0.01455172  1
  Ni  Ni200  1  0.18239790  0.27996217  0.45522899  1
  Ni  Ni201  1  0.89612005  0.85912900  0.06427418  1
  Ni  Ni202  1  0.07593425  0.15196362  0.15343045  1
  Ni  Ni203  1  0.14725646  0.30900248  0.87751534  1
  Ni  Ni204  1  0.09970006  0.17694217  0.31507311  1
  Ni  Ni205  1  0.06241862  0.42335714  0.43090293  1
  Ni  Ni206  1  0.41250914  0.47045415  -0.01624764  1
  Ni  Ni207  1  0.03007146  0.59160071  -0.08749507  1
  Ni  Ni208  1  -0.11932674  0.34129692  0.36023534  1
  Ni  Ni209  1  0.31763716  0.52163866  0.52472617  1
  Ni  Ni210  1  0.74158316  0.25066032  0.59739726  1
  Ni  Ni211  1  -0.00465747  0.26709968  -0.09688520  1
  Ni  Ni212  1  0.17632930  0.04164283  0.85864018  1
  Ni  Ni213  1  0.84648682  0.11818230  0.62625419  1
  Ni  Ni214  1  0.13989711  0.10463078  0.47227977  1
