# generated using pymatgen
data_Ti108Co54Ni53
_symmetry_space_group_name_H-M   'P 1'
_cell_length_a   14.63843865
_cell_length_b   14.61552307
_cell_length_c   14.67157140
_cell_angle_alpha   89.98615891
_cell_angle_beta   89.54082928
_cell_angle_gamma   90.13876590
_symmetry_Int_Tables_number   1
_chemical_formula_structural   Ti108Co54Ni53
_chemical_formula_sum   'Ti108 Co54 Ni53'
_cell_volume   3138.84966804
_cell_formula_units_Z   1
loop_
 _symmetry_equiv_pos_site_id
 _symmetry_equiv_pos_as_xyz
  1  'x, y, z'
loop_
 _atom_site_type_symbol
 _atom_site_label
 _atom_site_symmetry_multiplicity
 _atom_site_fract_x
 _atom_site_fract_y
 _atom_site_fract_z
 _atom_site_occupancy
  Ti  Ti0  1  0.12261548  0.08018581  0.24333911  1
  Ti  Ti1  1  0.01807844  0.13169919  0.61323995  1
  Ti  Ti2  1  0.07102667  0.12129980  0.93791818  1
  Ti  Ti3  1  0.10155677  0.38499275  0.24355959  1
  Ti  Ti4  1  0.03644956  0.40693509  0.61455496  1
  Ti  Ti5  1  0.05727431  0.41088012  0.91139694  1
  Ti  Ti6  1  0.04999077  0.70488513  0.17681643  1
  Ti  Ti7  1  0.03073466  0.80827318  0.64041206  1
  Ti  Ti8  1  0.13751447  0.69571628  0.97050315  1
  Ti  Ti9  1  0.43398850  0.01798652  0.23783338  1
  Ti  Ti10  1  0.37721839  0.03847882  0.59271565  1
  Ti  Ti11  1  0.42024993  0.07707634  0.93857107  1
  Ti  Ti12  1  0.44463931  0.47837062  0.18303432  1
  Ti  Ti13  1  0.43825819  0.46479785  0.50495678  1
  Ti  Ti14  1  0.40495298  0.37248961  0.90250419  1
  Ti  Ti15  1  0.46811403  0.74266515  0.21223507  1
  Ti  Ti16  1  0.46533992  0.66308049  0.58117476  1
  Ti  Ti17  1  0.46734839  0.71399594  1.01055104  1
  Ti  Ti18  1  0.75896763  0.17192531  0.27025174  1
  Ti  Ti19  1  0.80030469  0.10597720  0.59071472  1
  Ti  Ti20  1  0.73268036  0.10367879  0.94150724  1
  Ti  Ti21  1  0.77616592  0.40654513  0.28939859  1
  Ti  Ti22  1  0.71519576  0.42463237  0.65183336  1
  Ti  Ti23  1  0.74346006  0.41366962  0.93193987  1
  Ti  Ti24  1  0.80453698  0.74521393  0.31533688  1
  Ti  Ti25  1  0.65431382  0.71395191  0.52180156  1
  Ti  Ti26  1  0.81039461  0.75587859  0.94226416  1
  Ti  Ti27  1  0.11232954  0.25508932  0.08281338  1
  Ti  Ti28  1  0.08720655  0.30153666  0.42750628  1
  Ti  Ti29  1  0.13494852  0.23300791  0.76311205  1
  Ti  Ti30  1  0.02974069  0.54609450  0.05661908  1
  Ti  Ti31  1  0.05576279  0.61286363  0.40982133  1
  Ti  Ti32  1  0.13548502  0.63601654  0.69138022  1
  Ti  Ti33  1  0.07785753  0.88548868  0.11818479  1
  Ti  Ti34  1  0.08274752  0.82537132  0.34749268  1
  Ti  Ti35  1  0.10988462  0.79588795  0.81527907  1
  Ti  Ti36  1  0.43096857  0.19388064  0.14514093  1
  Ti  Ti37  1  0.48105771  0.29274253  0.40665231  1
  Ti  Ti38  1  0.31732546  0.21642721  0.69521828  1
  Ti  Ti39  1  0.34622398  0.62047942  0.14630442  1
  Ti  Ti40  1  0.38441511  0.59385984  0.34791134  1
  Ti  Ti41  1  0.41914245  0.59200130  0.81532246  1
  Ti  Ti42  1  0.35652193  0.93600320  0.04614766  1
  Ti  Ti43  1  0.42328370  0.90854318  0.40257146  1
  Ti  Ti44  1  0.48560896  0.91400385  0.79296092  1
  Ti  Ti45  1  0.78396005  0.25367009  0.09134106  1
  Ti  Ti46  1  0.70506402  0.29383961  0.52070007  1
  Ti  Ti47  1  0.76545637  0.26878004  0.77734472  1
  Ti  Ti48  1  0.71345475  0.56776242  0.06611386  1
  Ti  Ti49  1  0.72346470  0.58701112  0.39315772  1
  Ti  Ti50  1  0.81386683  0.57480279  0.72905895  1
  Ti  Ti51  1  0.77997966  0.92100380  0.07897230  1
  Ti  Ti52  1  0.73940810  0.88204280  0.43150404  1
  Ti  Ti53  1  0.77350587  0.96059668  0.72746845  1
  Ti  Ti54  1  0.25952499  0.11793365  0.09166209  1
  Ti  Ti55  1  0.28175916  0.21304320  0.35657724  1
  Ti  Ti56  1  0.23877796  0.06987928  0.79697512  1
  Ti  Ti57  1  0.28403236  0.44461411  0.04228839  1
  Ti  Ti58  1  0.29355943  0.41564611  0.35441183  1
  Ti  Ti59  1  0.21059264  0.39459019  0.68972186  1
  Ti  Ti60  1  0.27291357  0.77566339  0.08015041  1
  Ti  Ti61  1  0.29220939  0.73900633  0.46657728  1
  Ti  Ti62  1  0.27836172  0.71883595  0.79814607  1
  Ti  Ti63  1  0.58692532  0.12162239  0.05568730  1
  Ti  Ti64  1  0.56754296  0.09416904  0.37637751  1
  Ti  Ti65  1  0.58283672  0.05694389  0.67893463  1
  Ti  Ti66  1  0.58703756  0.39282583  0.05473339  1
  Ti  Ti67  1  0.62221193  0.42280370  0.40529580  1
  Ti  Ti68  1  0.53393600  0.37021717  0.73839510  1
  Ti  Ti69  1  0.61770449  0.81254135  0.10682744  1
  Ti  Ti70  1  0.49719415  0.74817820  0.40835724  1
  Ti  Ti71  1  0.62151752  0.80573868  0.71670271  1
  Ti  Ti72  1  0.93952849  0.03020169  0.11563232  1
  Ti  Ti73  1  0.94229429  0.10481407  0.32137674  1
  Ti  Ti74  1  0.89177772  0.07378240  0.85959509  1
  Ti  Ti75  1  0.93445468  0.40575134  0.14242307  1
  Ti  Ti76  1  0.88351040  0.36960304  0.44610616  1
  Ti  Ti77  1  0.89866745  0.41637006  0.78314871  1
  Ti  Ti78  1  0.82749053  0.73339924  0.12720994  1
  Ti  Ti79  1  0.85286307  0.73026425  0.49789015  1
  Ti  Ti80  1  0.86900527  0.76579008  0.69507381  1
  Ti  Ti81  1  0.26938086  0.30733017  0.18051128  1
  Ti  Ti82  1  0.30794469  0.30172285  0.52751283  1
  Ti  Ti83  1  0.23564517  0.22230344  0.91833008  1
  Ti  Ti84  1  0.20485430  0.63739059  0.29222346  1
  Ti  Ti85  1  0.30259866  0.53996627  0.61980580  1
  Ti  Ti86  1  0.22945272  0.54152431  0.82710750  1
  Ti  Ti87  1  0.25376173  0.92520162  0.31064922  1
  Ti  Ti88  1  0.32806189  0.87852082  0.69132491  1
  Ti  Ti89  1  0.29499515  0.90516456  0.87256296  1
  Ti  Ti90  1  0.58438100  0.31753178  0.23248624  1
  Ti  Ti91  1  0.51436602  0.22011440  0.56560232  1
  Ti  Ti92  1  0.57067966  0.19040441  0.84167791  1
  Ti  Ti93  1  0.58346300  0.60704947  0.27167456  1
  Ti  Ti94  1  0.59577662  0.60342105  0.72503320  1
  Ti  Ti95  1  0.57525557  0.55059881  0.92210062  1
  Ti  Ti96  1  0.64204450  0.99763572  0.21295475  1
  Ti  Ti97  1  0.54704876  0.87746637  0.56455015  1
  Ti  Ti98  1  0.63826299  0.84861107  0.91019806  1
  Ti  Ti99  1  0.93738973  0.28034702  0.29163559  1
  Ti  Ti100  1  0.87605229  0.28543450  0.60794562  1
  Ti  Ti101  1  0.96217563  0.24979425  0.85833481  1
  Ti  Ti102  1  0.89892084  0.57477664  0.25242480  1
  Ti  Ti103  1  0.96832422  0.60496892  0.58194350  1
  Ti  Ti104  1  0.89003374  0.58003862  0.90955116  1
  Ti  Ti105  1  0.83056308  0.96097859  0.27280167  1
  Ti  Ti106  1  0.89478449  0.91630132  0.55586355  1
  Ti  Ti107  1  0.94348879  0.89821240  0.83371673  1
  Co  Co108  1  0.49170054  0.90659027  -0.04575334  1
  Co  Co109  1  0.76439388  0.81088044  0.79767672  1
  Co  Co110  1  0.57511845  0.37708450  0.89396813  1
  Co  Co111  1  0.59329355  0.92882171  0.39784434  1
  Co  Co112  1  0.53471105  0.87559533  0.26505217  1
  Co  Co113  1  0.91382704  0.87533574  0.38387576  1
  Co  Co114  1  0.88860856  0.14969858  0.71922851  1
  Co  Co115  1  0.14174791  0.48152509  0.36353826  1
  Co  Co116  1  0.91898661  0.86223098  0.02725676  1
  Co  Co117  1  0.03942173  0.09503231  0.77759185  1
  Co  Co118  1  0.35400987  0.44162935  0.76565705  1
  Co  Co119  1  0.87698512  0.45838127  0.59818432  1
  Co  Co120  1  0.65320252  0.24575958  0.37144571  1
  Co  Co121  1  0.72363848  0.69363486  0.67250739  1
  Co  Co122  1  0.13662855  0.23094597  0.27171325  1
  Co  Co123  1  0.47221731  0.50819999  0.66307185  1
  Co  Co124  1  0.29027027  0.09771056  0.24542475  1
  Co  Co125  1  0.31286315  0.69736713  0.63791299  1
  Co  Co126  1  0.38171413  0.20280403  0.84980680  1
  Co  Co127  1  0.58786109  0.02621689  0.86743438  1
  Co  Co128  1  0.43686657  0.35594785  0.08990633  1
  Co  Co129  1  0.10132513  0.06518847  0.08872700  1
  Co  Co130  1  -0.03913855  0.74267777  0.86506373  1
  Co  Co131  1  -0.00096705  0.28042390  0.70710763  1
  Co  Co132  1  0.89323091  0.43161841  -0.02105505  1
  Co  Co133  1  0.65950771  0.25813682  -0.03320753  1
  Co  Co134  1  0.63910850  -0.02574522  0.01941900  1
  Co  Co135  1  0.00254601  0.77544826  0.48693014  1
  Co  Co136  1  0.16789718  0.52200290  -0.03182894  1
  Co  Co137  1  0.56324224  0.38039700  0.57228874  1
  Co  Co138  1  0.75201375  0.45229314  0.48758738  1
  Co  Co139  1  0.24887631  0.49031808  0.21477084  1
  Co  Co140  1  0.36862121  0.87143616  0.20403552  1
  Co  Co141  1  -0.06120920  -0.01298870  0.69011237  1
  Co  Co142  1  0.74328382  0.83920430  0.59884512  1
  Co  Co143  1  0.07116528  0.54751649  0.22415698  1
  Co  Co144  1  0.05290667  0.59999147  0.87823430  1
  Co  Co145  1  0.19993984  0.79292410  0.22048099  1
  Co  Co146  1  0.33459173  0.75026810  0.30718282  1
  Co  Co147  1  0.01859408  0.46221464  0.46917949  1
  Co  Co148  1  0.43546555  0.16674728  0.31063044  1
  Co  Co149  1  0.40238560  0.35798166  0.63919826  1
  Co  Co150  1  0.71357518  0.64802968  0.84926805  1
  Co  Co151  1  0.39801078  0.82610433  0.55681947  1
  Co  Co152  1  -0.03387238  0.44668919  0.31980505  1
  Co  Co153  1  0.12818733  0.41941349  0.09040031  1
  Co  Co154  1  0.12943669  0.54336362  0.56379127  1
  Co  Co155  1  0.63928296  0.74411902  0.34438447  1
  Co  Co156  1  0.47428266  0.18986855  0.71223877  1
  Co  Co157  1  0.17620689  0.85974361  -0.02645813  1
  Co  Co158  1  0.73170474  0.05149260  0.38237959  1
  Co  Co159  1  0.89770590  0.14188803  0.01110494  1
  Co  Co160  1  0.38882310  0.16394890  0.48775341  1
  Co  Co161  1  0.32696666  0.26069893  0.02842382  1
  Ni  Ni162  1  0.48873471  0.24037722  -0.01899009  1
  Ni  Ni163  1  0.22642517  -0.04864683  0.14553969  1
  Ni  Ni164  1  0.03405998  -0.03658200  -0.02715747  1
  Ni  Ni165  1  0.41196999  0.32203381  0.25886146  1
  Ni  Ni166  1  0.61919375  0.54171833  0.56689086  1
  Ni  Ni167  1  0.43392658  0.52392273  0.00698182  1
  Ni  Ni168  1  0.25880719  0.55787789  0.45530851  1
  Ni  Ni169  1  0.14452388  0.26365573  0.59372817  1
  Ni  Ni170  1  0.30730946  0.63259454  -0.03259033  1
  Ni  Ni171  1  0.52104073  0.03423535  0.51719583  1
  Ni  Ni172  1  0.11961342  -0.03874309  0.83464081  1
  Ni  Ni173  1  0.79054715  -0.06489288  0.90895666  1
  Ni  Ni174  1  -0.02158748  0.19088808  0.15933536  1
  Ni  Ni175  1  0.18755780  0.40873935  0.50644444  1
  Ni  Ni176  1  0.01378226  -0.04092832  0.27592138  1
  Ni  Ni177  1  0.64055913  0.23616143  0.67535259  1
  Ni  Ni178  1  0.06914569  0.48689982  0.75670514  1
  Ni  Ni179  1  0.87808017  0.03978524  0.45487732  1
  Ni  Ni180  1  0.54935424  0.59855913  0.10473204  1
  Ni  Ni181  1  0.48030210  0.45339442  0.33697370  1
  Ni  Ni182  1  0.78291506  0.59216162  0.56142875  1
  Ni  Ni183  1  0.75987819  0.08387615  0.11846601  1
  Ni  Ni184  1  0.68388627  0.48183934  0.80115356  1
  Ni  Ni185  1  0.87222946  0.57291751  0.08703972  1
  Ni  Ni186  1  0.14123099  0.70365621  0.52997644  1
  Ni  Ni187  1  0.18601687  0.61043254  0.11162950  1
  Ni  Ni188  1  0.44987549  0.75586982  0.71871871  1
  Ni  Ni189  1  -0.02448172  0.63879887  0.74414989  1
  Ni  Ni190  1  0.70704190  0.84708175  0.23738311  1
  Ni  Ni191  1  0.34112869  0.04757555  0.39628702  1
  Ni  Ni192  1  0.21687637  0.37556601  0.86186033  1
  Ni  Ni193  1  0.50841000  -0.06046891  0.11255976  1
  Ni  Ni194  1  0.80752264  0.19518928  0.42862749  1
  Ni  Ni195  1  0.64215176  0.69659474  -0.00669061  1
  Ni  Ni196  1  0.65605553  0.13872111  0.51390491  1
  Ni  Ni197  1  0.82104189  0.26664627  0.93206718  1
  Ni  Ni198  1  0.58837828  0.15667503  0.21998721  1
  Ni  Ni199  1  0.40020636  0.04978403  0.76107498  1
  Ni  Ni200  1  -0.03710738  0.29144259  0.02345201  1
  Ni  Ni201  1  0.21251856  0.02147928  -0.03352327  1
  Ni  Ni202  1  0.64013983  0.47217664  0.20491161  1
  Ni  Ni203  1  -0.03885092  0.19836781  0.46975929  1
  Ni  Ni204  1  0.68641914  -0.01610491  0.55039161  1
  Ni  Ni205  1  0.40113946  0.78002099  0.88271598  1
  Ni  Ni206  1  0.53940026  0.58698900  0.43290073  1
  Ni  Ni207  1  -0.06663276  0.83692126  0.20379668  1
  Ni  Ni208  1  -0.04038746  0.71774220  0.32777030  1
  Ni  Ni209  1  -0.03576350  0.70182923  0.02122986  1
  Ni  Ni210  1  0.19074380  0.80077678  0.65814468  1
  Ni  Ni211  1  0.54834726  0.71384280  0.85128708  1
  Ni  Ni212  1  0.71652332  0.10952593  0.76827284  1
  Ni  Ni213  1  0.76932815  0.41861249  0.11639548  1
  Ni  Ni214  1  0.88406444  0.55647646  0.42878354  1
