# generated using pymatgen
data_Ti108Co54Ni53
_symmetry_space_group_name_H-M   'P 1'
_cell_length_a   14.55307905
_cell_length_b   14.64316754
_cell_length_c   14.57280959
_cell_angle_alpha   90.03199218
_cell_angle_beta   89.83395103
_cell_angle_gamma   89.99077590
_symmetry_Int_Tables_number   1
_chemical_formula_structural   Ti108Co54Ni53
_chemical_formula_sum   'Ti108 Co54 Ni53'
_cell_volume   3105.49842114
_cell_formula_units_Z   1
loop_
 _symmetry_equiv_pos_site_id
 _symmetry_equiv_pos_as_xyz
  1  'x, y, z'
loop_
 _atom_site_type_symbol
 _atom_site_label
 _atom_site_symmetry_multiplicity
 _atom_site_fract_x
 _atom_site_fract_y
 _atom_site_fract_z
 _atom_site_occupancy
  Ti  Ti0  1  0.04604704  0.04285857  0.24621216  1
  Ti  Ti1  1  0.05104191  0.09318550  0.53081496  1
  Ti  Ti2  1  0.09005683  0.13306963  0.96747052  1
  Ti  Ti3  1  0.07437407  0.39296143  0.21926712  1
  Ti  Ti4  1  0.10393839  0.35999875  0.58059272  1
  Ti  Ti5  1  0.09798042  0.44160130  0.87751709  1
  Ti  Ti6  1  0.14519528  0.71597134  0.29252434  1
  Ti  Ti7  1  0.12087429  0.77407209  0.63574392  1
  Ti  Ti8  1  0.12217012  0.62151252  0.95748942  1
  Ti  Ti9  1  0.39368367  0.13334650  0.26248125  1
  Ti  Ti10  1  0.42309715  0.04243993  0.56425273  1
  Ti  Ti11  1  0.47752398  0.08460360  0.93172191  1
  Ti  Ti12  1  0.40898690  0.44878535  0.27320093  1
  Ti  Ti13  1  0.38349984  0.43366409  0.59664965  1
  Ti  Ti14  1  0.50608263  0.45085887  0.87563115  1
  Ti  Ti15  1  0.43951102  0.80040569  0.20510421  1
  Ti  Ti16  1  0.43894469  0.71106563  0.57357595  1
  Ti  Ti17  1  0.43474881  0.77441461  0.88143448  1
  Ti  Ti18  1  0.74975698  0.05635501  0.26511310  1
  Ti  Ti19  1  0.75664295  0.12837604  0.58271100  1
  Ti  Ti20  1  0.72947045  0.10305936  0.96730775  1
  Ti  Ti21  1  0.75663119  0.45240624  0.25313305  1
  Ti  Ti22  1  0.73804302  0.36911333  0.52829378  1
  Ti  Ti23  1  0.68864181  0.44522732  0.93669030  1
  Ti  Ti24  1  0.79767871  0.76933835  0.28371294  1
  Ti  Ti25  1  0.84051294  0.71383869  0.57164268  1
  Ti  Ti26  1  0.73558483  0.69074454  0.91322158  1
  Ti  Ti27  1  0.02372882  0.23405221  0.11640577  1
  Ti  Ti28  1  0.05839496  0.28894073  0.40846410  1
  Ti  Ti29  1  0.14432232  0.27543452  0.77517521  1
  Ti  Ti30  1  0.06813302  0.59947606  0.14589255  1
  Ti  Ti31  1  0.05092227  0.65434267  0.45251466  1
  Ti  Ti32  1  0.01782299  0.61479774  0.77779566  1
  Ti  Ti33  1  0.14210184  0.89656356  0.14983372  1
  Ti  Ti34  1  0.17765639  0.97333251  0.44220208  1
  Ti  Ti35  1  0.09871834  0.91251947  0.78053609  1
  Ti  Ti36  1  0.36933127  0.29262238  0.14233441  1
  Ti  Ti37  1  0.44066062  0.31482132  0.42690355  1
  Ti  Ti38  1  0.34565754  0.29679283  0.76499184  1
  Ti  Ti39  1  0.40475391  0.64889371  0.04793612  1
  Ti  Ti40  1  0.38422910  0.63353702  0.36597103  1
  Ti  Ti41  1  0.32747703  0.61771961  0.71159934  1
  Ti  Ti42  1  0.41802093  0.92203562  0.01765173  1
  Ti  Ti43  1  0.42532798  0.81643217  0.40393566  1
  Ti  Ti44  1  0.47194068  0.87518003  0.72712309  1
  Ti  Ti45  1  0.76498424  0.28722715  0.05922266  1
  Ti  Ti46  1  0.69964457  0.19834069  0.41051675  1
  Ti  Ti47  1  0.67490447  0.30808514  0.77401707  1
  Ti  Ti48  1  0.80958101  0.51685250  0.07064903  1
  Ti  Ti49  1  0.70967494  0.60615487  0.37145328  1
  Ti  Ti50  1  0.80947376  0.60364752  0.73161548  1
  Ti  Ti51  1  0.72136821  0.88688542  0.10703543  1
  Ti  Ti52  1  0.75808042  0.94134147  0.48013585  1
  Ti  Ti53  1  0.68407364  0.89502516  0.72483625  1
  Ti  Ti54  1  0.25097119  0.06384428  0.11371290  1
  Ti  Ti55  1  0.29811718  0.12742764  0.42267185  1
  Ti  Ti56  1  0.22424373  0.06933253  0.79551844  1
  Ti  Ti57  1  0.21697567  0.37716153  0.06263358  1
  Ti  Ti58  1  0.26148233  0.44313024  0.41113679  1
  Ti  Ti59  1  0.21648145  0.45093173  0.71359737  1
  Ti  Ti60  1  0.23636126  0.72523977  0.10650792  1
  Ti  Ti61  1  0.25070266  0.76636356  0.47274588  1
  Ti  Ti62  1  0.19730137  0.73924202  0.81810606  1
  Ti  Ti63  1  0.58535581  0.03466569  0.07820545  1
  Ti  Ti64  1  0.59989463  0.04605446  0.43701676  1
  Ti  Ti65  1  0.52197363  0.06542312  0.73563533  1
  Ti  Ti66  1  0.54454136  0.35269720  0.04479093  1
  Ti  Ti67  1  0.60836607  0.38226314  0.36560574  1
  Ti  Ti68  1  0.64327481  0.46923266  0.65816530  1
  Ti  Ti69  1  0.58492106  0.70769152  0.11708388  1
  Ti  Ti70  1  0.64892008  0.77209840  0.41446229  1
  Ti  Ti71  1  0.52213602  0.60864781  0.73674662  1
  Ti  Ti72  1  0.88332277  0.08914824  0.10114332  1
  Ti  Ti73  1  0.91058718  0.08044597  0.38998003  1
  Ti  Ti74  1  0.92945164  0.09729827  0.70705671  1
  Ti  Ti75  1  0.94780614  0.36236512  -0.00147122  1
  Ti  Ti76  1  0.97813793  0.48852261  0.37911356  1
  Ti  Ti77  1  0.82674328  0.41557717  0.71638713  1
  Ti  Ti78  1  0.87085440  0.72220542  0.11712023  1
  Ti  Ti79  1  0.91787285  0.81048648  0.43766064  1
  Ti  Ti80  1  0.92853948  0.80060520  0.73443227  1
  Ti  Ti81  1  0.18893307  0.22169374  0.25228675  1
  Ti  Ti82  1  0.21089130  0.15722682  0.59725300  1
  Ti  Ti83  1  0.28557606  0.21595243  0.94523281  1
  Ti  Ti84  1  0.25977122  0.55944562  0.22478081  1
  Ti  Ti85  1  0.16166714  0.58401129  0.58991192  1
  Ti  Ti86  1  0.31797567  0.50312099  0.94386641  1
  Ti  Ti87  1  0.32435647  0.94411706  0.28863599  1
  Ti  Ti88  1  0.22535026  0.94509482  0.62274002  1
  Ti  Ti89  1  0.15946729  0.95144422  0.95666620  1
  Ti  Ti90  1  0.55928473  0.20474386  0.18492115  1
  Ti  Ti91  1  0.48933457  0.24674604  0.63953692  1
  Ti  Ti92  1  0.50494341  0.25727827  0.86323694  1
  Ti  Ti93  1  0.57971811  0.54882146  0.23691272  1
  Ti  Ti94  1  0.65319823  0.64794889  0.57794011  1
  Ti  Ti95  1  0.55689001  0.62657803  0.92754278  1
  Ti  Ti96  1  0.55825480  0.99948876  0.25298789  1
  Ti  Ti97  1  0.54493099  0.88026912  0.54464889  1
  Ti  Ti98  1  0.58700957  0.92751660  0.89735962  1
  Ti  Ti99  1  0.84266859  0.22129251  0.24518613  1
  Ti  Ti100  1  0.91339486  0.35873136  0.51335730  1
  Ti  Ti101  1  0.94794621  0.26875352  0.81883505  1
  Ti  Ti102  1  0.88883444  0.57516833  0.24833860  1
  Ti  Ti103  1  0.95627493  0.52074310  0.58506390  1
  Ti  Ti104  1  0.94607011  0.55712914  0.95862917  1
  Ti  Ti105  1  0.98208737  0.85547854  0.24981038  1
  Ti  Ti106  1  1.00355800  0.91191373  0.58517574  1
  Ti  Ti107  1  0.97249216  0.88113201  1.01235182  1
  Co  Co108  1  0.33097437  -0.06135687  0.46879117  1
  Co  Co109  1  0.04890316  0.75870939  0.13432458  1
  Co  Co110  1  0.05588230  0.46499721  0.70518089  1
  Co  Co111  1  0.42912683  0.61201186  0.19831652  1
  Co  Co112  1  0.55625738  0.89848516  0.37765977  1
  Co  Co113  1  0.58390421  0.14238216  0.56557316  1
  Co  Co114  1  0.55751943  0.21200792  0.33872635  1
  Co  Co115  1  0.46537361  0.15732116  0.45161887  1
  Co  Co116  1  0.10454431  0.29192811  -0.04871783  1
  Co  Co117  1  0.81427955  0.52978620  -0.12283706  1
  Co  Co118  1  0.36907740  0.45881447  0.11283318  1
  Co  Co119  1  -0.03186525  0.33441826  0.67255497  1
  Co  Co120  1  0.11024371  0.47532109  0.46599220  1
  Co  Co121  1  0.42268254  -0.00736717  0.16460785  1
  Co  Co122  1  0.35737286  0.23725985  0.54146483  1
  Co  Co123  1  0.88661333  0.70204850  0.85725560  1
  Co  Co124  1  0.67351299  0.27365514  -0.07481644  1
  Co  Co125  1  0.40475475  -0.04863503  0.85311445  1
  Co  Co126  1  0.44288609  0.01215865  0.38211990  1
  Co  Co127  1  0.21635709  0.56676503  0.82542974  1
  Co  Co128  1  0.35393951  0.00217086  0.71014500  1
  Co  Co129  1  0.53766430  0.65647484  0.45238489  1
  Co  Co130  1  0.27814535  0.67951155  -0.05372884  1
  Co  Co131  1  0.25623926  0.32112132  0.62288340  1
  Co  Co132  1  0.24305651  0.39550672  0.23391643  1
  Co  Co133  1  0.40358978  0.61319187  0.85794993  1
  Co  Co134  1  0.75979080  0.75398231  0.72809962  1
  Co  Co135  1  0.34957151  0.15349122  0.67180869  1
  Co  Co136  1  0.21183310  0.60486469  0.40929325  1
  Co  Co137  1  0.86815084  0.93490934  0.33462533  1
  Co  Co138  1  0.27734786  0.86520760  0.75890793  1
  Co  Co139  1  0.24756235  0.37132114  0.87636983  1
  Co  Co140  1  0.67263018  0.43201024  0.11715806  1
  Co  Co141  1  0.10543426  0.54746956  0.29900309  1
  Co  Co142  1  0.69121987  0.29466975  0.22532227  1
  Co  Co143  1  0.37153443  0.86347966  0.59930909  1
  Co  Co144  1  0.84006084  0.88696960  0.62371080  1
  Co  Co145  1  0.82038264  0.25850806  0.67194195  1
  Co  Co146  1  0.04021025  0.78138475  0.85786829  1
  Co  Co147  1  0.05840248  0.13589923  0.81025814  1
  Co  Co148  1  0.37562963  0.13358327  0.82260424  1
  Co  Co149  1  0.23040797  0.56144066  0.06730619  1
  Co  Co150  1  -0.05555088  0.44640120  0.82203269  1
  Co  Co151  1  -0.06890893  0.35297640  0.31497997  1
  Co  Co152  1  0.53527514  0.69108625  0.29953506  1
  Co  Co153  1  0.27313809  0.74277519  0.63801880  1
  Co  Co154  1  0.19638003  0.21703407  0.08688649  1
  Co  Co155  1  0.08863113  0.46279843  0.03883153  1
  Co  Co156  1  0.82095981  0.35388988  0.89486089  1
  Co  Co157  1  0.60138909  0.79121142  -0.02185591  1
  Co  Co158  1  0.60735686  0.76476672  0.82249598  1
  Co  Co159  1  0.09078276  0.04041215  0.68339637  1
  Co  Co160  1  0.05970496  0.20060746  0.66144059  1
  Co  Co161  1  0.21091923  0.05074490  0.27467872  1
  Ni  Ni162  1  0.87479778  0.63879561  0.41865630  1
  Ni  Ni163  1  -0.00781859  0.67671502  0.62242846  1
  Ni  Ni164  1  0.32260874  0.59149871  0.53450279  1
  Ni  Ni165  1  0.71202875  0.14530269  0.13298645  1
  Ni  Ni166  1  0.86109783  0.36408802  0.16607599  1
  Ni  Ni167  1  0.81362602  0.48333919  0.41601900  1
  Ni  Ni168  1  0.48186970  0.49718103  0.41897962  1
  Ni  Ni169  1  0.28985128  0.78109425  0.27588574  1
  Ni  Ni170  1  -0.02197278  0.69688488  0.29285032  1
  Ni  Ni171  1  0.39010425  0.34782686  -0.02964443  1
  Ni  Ni172  1  0.86453951  -0.06017863  0.17186248  1
  Ni  Ni173  1  0.58028865  0.76002509  0.66955958  1
  Ni  Ni174  1  0.87304744  0.22666424  0.41886174  1
  Ni  Ni175  1  0.64178260  0.50642498  0.48063768  1
  Ni  Ni176  1  0.90463494  0.19732259  -0.02294027  1
  Ni  Ni177  1  0.71121752  -0.08973479  0.31913081  1
  Ni  Ni178  1  0.00436185  0.00004293  0.88456410  1
  Ni  Ni179  1  0.57678763  0.18882030  0.01765387  1
  Ni  Ni180  1  0.30098079  0.87608084  0.11901385  1
  Ni  Ni181  1  0.70482531  0.81031826  0.57438071  1
  Ni  Ni182  1  0.66904130  0.58751181  0.04805740  1
  Ni  Ni183  1  -0.07236904  0.19743669  0.56564435  1
  Ni  Ni184  1  0.30485886  0.04624062  -0.04867964  1
  Ni  Ni185  1  0.65760458  0.26996373  0.61745582  1
  Ni  Ni186  1  0.01338984  -0.04765146  0.40958163  1
  Ni  Ni187  1  0.11560645  0.12866554  0.38394581  1
  Ni  Ni188  1  0.61479174  0.81747850  0.23890918  1
  Ni  Ni189  1  0.51025820  0.39213132  0.71816456  1
  Ni  Ni190  1  0.28760513  0.84638366  0.93927786  1
  Ni  Ni191  1  0.50220342  0.54877766  0.57743403  1
  Ni  Ni192  1  0.32726304  0.28619582  0.31701095  1
  Ni  Ni193  1  0.37295038  0.46574648  0.77871978  1
  Ni  Ni194  1  0.14603632  0.88465261  0.31397055  1
  Ni  Ni195  1  0.81875171  0.81355079  -0.01212800  1
  Ni  Ni196  1  0.53933256  0.37555032  0.20993901  1
  Ni  Ni197  1  0.78590539  0.53684542  0.56997578  1
  Ni  Ni198  1  -0.04062766  0.47924697  0.12971493  1
  Ni  Ni199  1  0.54359860  0.38663513  0.54211508  1
  Ni  Ni200  1  0.52329400  0.51852504  0.07312018  1
  Ni  Ni201  1  0.66011043  0.54370501  0.80566663  1
  Ni  Ni202  1  0.62518162  0.13572142  0.84582508  1
  Ni  Ni203  1  -0.02147304  0.71462604  -0.00747691  1
  Ni  Ni204  1  0.22007444  0.27825463  0.45567913  1
  Ni  Ni205  1  0.73419690  0.63382515  0.19672992  1
  Ni  Ni206  1  0.77554424  0.33605008  0.36517371  1
  Ni  Ni207  1  0.62614635  0.00332721  0.61688946  1
  Ni  Ni208  1  0.00769519  0.20262053  0.27939207  1
  Ni  Ni209  1  0.55009085  -0.12083666  0.10311057  1
  Ni  Ni210  1  0.13432423  0.79086696  -0.00755247  1
  Ni  Ni211  1  0.09226460  0.81754720  0.46291246  1
  Ni  Ni212  1  0.89012067  0.02870964  0.54650162  1
  Ni  Ni213  1  0.40879903  0.13684505  0.07950750  1
  Ni  Ni214  1  0.03623467  0.01948519  0.07974849  1
