# generated using pymatgen
data_Ti108Co54Ni53
_symmetry_space_group_name_H-M   'P 1'
_cell_length_a   14.60561123
_cell_length_b   14.63052357
_cell_length_c   14.61391375
_cell_angle_alpha   90.12294478
_cell_angle_beta   90.06502071
_cell_angle_gamma   90.04905774
_symmetry_Int_Tables_number   1
_chemical_formula_structural   Ti108Co54Ni53
_chemical_formula_sum   'Ti108 Co54 Ni53'
_cell_volume   3122.80384211
_cell_formula_units_Z   1
loop_
 _symmetry_equiv_pos_site_id
 _symmetry_equiv_pos_as_xyz
  1  'x, y, z'
loop_
 _atom_site_type_symbol
 _atom_site_label
 _atom_site_symmetry_multiplicity
 _atom_site_fract_x
 _atom_site_fract_y
 _atom_site_fract_z
 _atom_site_occupancy
  Ti  Ti0  1  0.02742181  0.11852213  0.21236407  1
  Ti  Ti1  1  0.13851015  0.03268855  0.62836905  1
  Ti  Ti2  1  0.02319291  0.08125947  0.97918183  1
  Ti  Ti3  1  0.04789193  0.39494937  0.29619093  1
  Ti  Ti4  1  0.13597767  0.43037968  0.59039617  1
  Ti  Ti5  1  0.09102375  0.48183055  0.95140981  1
  Ti  Ti6  1  0.10802436  0.74756077  0.29509278  1
  Ti  Ti7  1  0.14324958  0.76987242  0.55618744  1
  Ti  Ti8  1  0.03777759  0.73153910  0.85029812  1
  Ti  Ti9  1  0.40308337  0.12872661  0.24998066  1
  Ti  Ti10  1  0.40525280  0.16613326  0.56006414  1
  Ti  Ti11  1  0.35653933  0.06202944  0.91517728  1
  Ti  Ti12  1  0.46664449  0.46585753  0.23827040  1
  Ti  Ti13  1  0.43659765  0.48047920  0.56199800  1
  Ti  Ti14  1  0.42870582  0.37028395  0.94530839  1
  Ti  Ti15  1  0.45929755  0.69793085  0.26669190  1
  Ti  Ti16  1  0.43940197  0.81956170  0.54901907  1
  Ti  Ti17  1  0.34330917  0.78143083  0.87593908  1
  Ti  Ti18  1  0.69745170  0.01283388  0.26779449  1
  Ti  Ti19  1  0.72277081  0.07369772  0.64895469  1
  Ti  Ti20  1  0.76279322  0.03094305  0.95988356  1
  Ti  Ti21  1  0.72021347  0.40329622  0.28844357  1
  Ti  Ti22  1  0.75097237  0.39504463  0.53246930  1
  Ti  Ti23  1  0.74949863  0.38136983  0.97956769  1
  Ti  Ti24  1  0.79700246  0.72838041  0.35255868  1
  Ti  Ti25  1  0.82149171  0.74504373  0.55155851  1
  Ti  Ti26  1  0.70421199  0.79079217  0.97606316  1
  Ti  Ti27  1  0.13963795  0.20812055  0.08308874  1
  Ti  Ti28  1  0.11491688  0.15637766  0.40081934  1
  Ti  Ti29  1  0.12027488  0.21773027  0.86439807  1
  Ti  Ti30  1  0.04975461  0.66354462  0.13886221  1
  Ti  Ti31  1  0.02123370  0.57374377  0.36498143  1
  Ti  Ti32  1  0.06371610  0.62358049  0.68970172  1
  Ti  Ti33  1  0.08748422  0.88705519  0.03013278  1
  Ti  Ti34  1  0.07765044  0.91932290  0.38343615  1
  Ti  Ti35  1  0.10222930  0.97684872  0.82796492  1
  Ti  Ti36  1  0.46509611  0.25781947  0.11307183  1
  Ti  Ti37  1  0.47909143  0.21308378  0.39004083  1
  Ti  Ti38  1  0.41165869  0.23961969  0.78635902  1
  Ti  Ti39  1  0.32993619  0.59220268  0.14165044  1
  Ti  Ti40  1  0.36864646  0.56558473  0.37852603  1
  Ti  Ti41  1  0.37461976  0.61501797  0.75947737  1
  Ti  Ti42  1  0.44183898  0.89560035  0.07812042  1
  Ti  Ti43  1  0.37824841  0.88485414  0.37408592  1
  Ti  Ti44  1  0.44205660  0.91831849  0.74607202  1
  Ti  Ti45  1  0.75781209  0.27427835  0.13038696  1
  Ti  Ti46  1  0.67501743  0.25836609  0.38488667  1
  Ti  Ti47  1  0.80124658  0.17759850  0.81742725  1
  Ti  Ti48  1  0.76754790  0.57817701  0.02693309  1
  Ti  Ti49  1  0.67229178  0.60049235  0.46922986  1
  Ti  Ti50  1  0.67853922  0.58680351  0.72590433  1
  Ti  Ti51  1  0.77866307  0.92500695  0.10927465  1
  Ti  Ti52  1  0.74710758  0.90878673  0.41960061  1
  Ti  Ti53  1  0.74102179  0.85458562  0.78057704  1
  Ti  Ti54  1  0.29798597  0.06688193  0.10497167  1
  Ti  Ti55  1  0.27432506  0.04284020  0.37431619  1
  Ti  Ti56  1  0.34731988  0.07169571  0.71408589  1
  Ti  Ti57  1  0.24254783  0.39652409  0.06531042  1
  Ti  Ti58  1  0.30913879  0.38878188  0.40374031  1
  Ti  Ti59  1  0.31838444  0.42703579  0.75198382  1
  Ti  Ti60  1  0.18749779  0.70006733  -0.00863437  1
  Ti  Ti61  1  0.20656407  0.65070420  0.42426459  1
  Ti  Ti62  1  0.22664205  0.73064923  0.72740263  1
  Ti  Ti63  1  0.58302986  0.10846852  0.00625612  1
  Ti  Ti64  1  0.62274136  0.09563683  0.46716821  1
  Ti  Ti65  1  0.54548768  0.12068659  0.69105079  1
  Ti  Ti66  1  0.57690852  0.47018989  0.04572646  1
  Ti  Ti67  1  0.55881239  0.42588038  0.42017373  1
  Ti  Ti68  1  0.66157010  0.40302319  0.71147207  1
  Ti  Ti69  1  0.60779867  0.77488905  0.14348437  1
  Ti  Ti70  1  0.62914104  0.78077013  0.49744954  1
  Ti  Ti71  1  0.54121167  0.75864204  0.81190968  1
  Ti  Ti72  1  0.87110134  0.13389775  0.07005250  1
  Ti  Ti73  1  0.91938884  0.03247862  0.36590272  1
  Ti  Ti74  1  0.89584487  0.00886746  0.76982984  1
  Ti  Ti75  1  0.92056544  0.40927900  0.07266746  1
  Ti  Ti76  1  0.87857355  0.44764825  0.39791415  1
  Ti  Ti77  1  0.85592378  0.47292758  0.74555721  1
  Ti  Ti78  1  0.86954125  0.75522721  0.10045961  1
  Ti  Ti79  1  0.98719642  0.72140820  0.47215999  1
  Ti  Ti80  1  0.86926097  0.68958661  0.73954586  1
  Ti  Ti81  1  0.20706802  0.28533123  0.27018688  1
  Ti  Ti82  1  0.27573265  0.30270700  0.58335492  1
  Ti  Ti83  1  0.28970959  0.23180717  0.95880804  1
  Ti  Ti84  1  0.17758095  0.54928940  0.24652470  1
  Ti  Ti85  1  0.33015748  0.65379297  0.57269688  1
  Ti  Ti86  1  0.28761840  0.53709954  0.92951039  1
  Ti  Ti87  1  0.21975443  0.88872770  0.20268331  1
  Ti  Ti88  1  0.26932297  0.89377910  0.65216963  1
  Ti  Ti89  1  0.26094022  0.91548790  0.99196704  1
  Ti  Ti90  1  0.61163274  0.18106888  0.21555112  1
  Ti  Ti91  1  0.58522026  0.28347683  0.55406665  1
  Ti  Ti92  1  0.62372562  0.28378949  0.86131315  1
  Ti  Ti93  1  0.62629920  0.57692813  0.20251888  1
  Ti  Ti94  1  0.53177460  0.66111406  0.62793942  1
  Ti  Ti95  1  0.57111140  0.59059354  0.89633703  1
  Ti  Ti96  1  0.54082769  0.89423800  0.26384648  1
  Ti  Ti97  1  0.51971586  0.98154778  0.56717950  1
  Ti  Ti98  1  0.59015707  0.93982658  0.89982009  1
  Ti  Ti99  1  0.88227126  0.22922645  0.27381043  1
  Ti  Ti100  1  0.90868297  0.16975274  0.49259196  1
  Ti  Ti101  1  0.92592669  0.27041917  0.93482829  1
  Ti  Ti102  1  0.87740797  0.56513595  0.21545224  1
  Ti  Ti103  1  0.94020476  0.53998962  0.57226303  1
  Ti  Ti104  1  0.94858443  0.59754697  0.98675453  1
  Ti  Ti105  1  0.90069469  0.88351338  0.25515380  1
  Ti  Ti106  1  0.89413996  0.96271847  0.55355529  1
  Ti  Ti107  1  0.91070482  0.90306924  0.94447109  1
  Co  Co108  1  0.63761377  0.70911879  0.31689182  1
  Co  Co109  1  0.22551343  0.56055003  0.67682882  1
  Co  Co110  1  0.27595364  0.93831939  0.81354415  1
  Co  Co111  1  0.54913301  0.06239970  0.31645247  1
  Co  Co112  1  0.36244570  0.80484733  0.19848187  1
  Co  Co113  1  0.02942453  0.43038997  0.46649449  1
  Co  Co114  1  0.16914094  0.47972181  0.39604810  1
  Co  Co115  1  0.18932985  0.08187503  -0.03613430  1
  Co  Co116  1  0.83122937  0.29780225  0.41246827  1
  Co  Co117  1  0.50905052  0.78491115  0.39334638  1
  Co  Co118  1  0.07541442  0.32340523  -0.01423686  1
  Co  Co119  1  0.29578665  0.44455439  0.24805393  1
  Co  Co120  1  0.63618033  0.65324803  0.03964318  1
  Co  Co121  1  0.42876045  -0.08674064  -0.08959893  1
  Co  Co122  1  0.56289553  0.26677942  0.70978228  1
  Co  Co123  1  0.16809796  0.55712038  0.07568191  1
  Co  Co124  1  0.43735770  0.50984138  0.86192366  1
  Co  Co125  1  0.42627776  0.52230451  0.02261945  1
  Co  Co126  1  0.63409997  0.12413511  0.84394742  1
  Co  Co127  1  0.47511976  0.65317953  0.47865000  1
  Co  Co128  1  0.74259165  0.20251471  -0.02666034  1
  Co  Co129  1  0.21173573  0.72155721  0.15016700  1
  Co  Co130  1  0.91259023  0.85033063  0.41638273  1
  Co  Co131  1  0.22027137  0.83700470  0.36747123  1
  Co  Co132  1  0.84766828  0.85460998  0.66591848  1
  Co  Co133  1  0.42630933  0.32052125  0.49544532  1
  Co  Co134  1  0.02277612  0.82009553  0.16077988  1
  Co  Co135  1  0.29090883  0.80431189  0.50384946  1
  Co  Co136  1  0.43205093  0.34301186  0.65475021  1
  Co  Co137  1  -0.01588860  0.56761008  0.82422551  1
  Co  Co138  1  0.23347765  0.16331222  0.64825547  1
  Co  Co139  1  -0.01343740  0.76563528  0.64548313  1
  Co  Co140  1  0.03999565  0.88692246  0.53650656  1
  Co  Co141  1  0.79316921  0.34060189  0.82464828  1
  Co  Co142  1  0.00288253  -0.05092035  0.67661068  1
  Co  Co143  1  0.77737625  0.05190186  0.49472556  1
  Co  Co144  1  0.15714593  0.31859134  0.44491556  1
  Co  Co145  1  0.62409717  -0.06841969  0.06178051  1
  Co  Co146  1  0.70859138  0.08868447  0.11267519  1
  Co  Co147  1  0.40182829  0.76508601  0.70090559  1
  Co  Co148  1  0.50484820  0.38451709  0.79953700  1
  Co  Co149  1  0.57511683  -0.06674285  0.42201412  1
  Co  Co150  1  0.39300606  0.39950630  0.11426805  1
  Co  Co151  1  0.74828240  0.21140656  0.52816269  1
  Co  Co152  1  0.49082700  0.06272947  0.83406107  1
  Co  Co153  1  -0.00070183  0.75536508  0.00410411  1
  Co  Co154  1  0.43487733  0.05205906  0.42530078  1
  Co  Co155  1  -0.05381514  0.84761139  0.79387813  1
  Co  Co156  1  0.04359053  0.04791498  0.49367350  1
  Co  Co157  1  0.75977361  0.45790764  0.13687590  1
  Co  Co158  1  0.21603725  0.09788291  0.80247425  1
  Co  Co159  1  0.28758401  0.68963061  0.29017243  1
  Co  Co160  1  0.42328135  0.65403520  0.92883843  1
  Co  Co161  1  0.11376963  0.84809545  0.71542681  1
  Ni  Ni162  1  0.20021972  0.11858613  0.23951924  1
  Ni  Ni163  1  0.10632564  0.58136868  0.53085594  1
  Ni  Ni164  1  0.17356417  0.82318995  -0.12818619  1
  Ni  Ni165  1  0.54727810  0.57679106  0.35410742  1
  Ni  Ni166  1  0.34487666  0.00370333  0.55298506  1
  Ni  Ni167  1  0.13404043  0.03024133  0.10734074  1
  Ni  Ni168  1  0.05960719  -0.04004566  0.23124388  1
  Ni  Ni169  1  -0.02548408  0.25860632  0.11861020  1
  Ni  Ni170  1  0.52850624  0.03572424  0.15385656  1
  Ni  Ni171  1  0.17747632  0.61625088  0.83514818  1
  Ni  Ni172  1  0.88538885  0.38608783  0.23032376  1
  Ni  Ni173  1  0.84597205  0.60229034  0.44915878  1
  Ni  Ni174  1  0.51131804  0.51831227  0.71260157  1
  Ni  Ni175  1  0.25217131  0.26935591  0.76977869  1
  Ni  Ni176  1  0.60470150  -0.03155799  0.72972230  1
  Ni  Ni177  1  -0.05489402  0.71220937  0.27733654  1
  Ni  Ni178  1  0.81937636  0.58473636  0.86563171  1
  Ni  Ni179  1  0.29874038  0.21493427  0.41843059  1
  Ni  Ni180  1  0.02191531  0.50579714  0.15411462  1
  Ni  Ni181  1  0.61244318  0.48962554  0.57619049  1
  Ni  Ni182  1  0.54187488  0.32353063  0.28804538  1
  Ni  Ni183  1  0.87130247  0.13924954  0.65137417  1
  Ni  Ni184  1  -0.04912084  -0.02535789  0.10261052  1
  Ni  Ni185  1  0.70907524  0.70350651  0.83559802  1
  Ni  Ni186  1  0.70439660  0.91044368  0.58803063  1
  Ni  Ni187  1  -0.00071335  0.27634887  0.39525701  1
  Ni  Ni188  1  0.27060786  0.50366081  0.52853851  1
  Ni  Ni189  1  0.52462132  0.78022230  -0.01760273  1
  Ni  Ni190  1  0.46538990  0.20226825  -0.05661054  1
  Ni  Ni191  1  0.60055503  0.28508857  0.02269913  1
  Ni  Ni192  1  0.72258161  0.84129419  0.25011465  1
  Ni  Ni193  1  0.37899127  0.30123700  0.26866509  1
  Ni  Ni194  1  0.30190399  0.23304625  0.13772143  1
  Ni  Ni195  1  0.72748254  0.25229593  0.68349838  1
  Ni  Ni196  1  0.77692618  0.13179966  0.35720683  1
  Ni  Ni197  1  0.85027771  0.05754287  0.21445223  1
  Ni  Ni198  1  0.10503469  0.36967514  0.14341643  1
  Ni  Ni199  1  0.38174818  -0.03284510  0.22288035  1
  Ni  Ni200  1  -0.02641148  0.13834665  0.82929340  1
  Ni  Ni201  1  0.77676882  0.55744010  0.59879238  1
  Ni  Ni202  1  0.35568350  0.73992378  0.04914281  1
  Ni  Ni203  1  0.75126956  0.68561945  0.18975884  1
  Ni  Ni204  1  0.73702011  0.01246412  0.80635641  1
  Ni  Ni205  1  0.56662233  0.83035921  0.66013213  1
  Ni  Ni206  1  0.85560166  0.74447458  -0.09043834  1
  Ni  Ni207  1  0.69292381  0.47614385  0.86167031  1
  Ni  Ni208  1  0.61974228  0.36806286  0.16052934  1
  Ni  Ni209  1  0.90199190  0.44570755  -0.09002436  1
  Ni  Ni210  1  0.49074660  0.64119531  0.10917029  1
  Ni  Ni211  1  0.74131944  0.56425182  0.32169363  1
  Ni  Ni212  1  0.22048736  0.37473009  0.89393859  1
  Ni  Ni213  1  0.70029200  0.73684227  0.66041265  1
  Ni  Ni214  1  0.20090375  -0.05237697  0.49390953  1
