# generated using pymatgen
data_Ti108Co54Ni53
_symmetry_space_group_name_H-M   'P 1'
_cell_length_a   14.66420684
_cell_length_b   14.73588314
_cell_length_c   14.65267110
_cell_angle_alpha   90.16239682
_cell_angle_beta   89.91773091
_cell_angle_gamma   89.99167032
_symmetry_Int_Tables_number   1
_chemical_formula_structural   Ti108Co54Ni53
_chemical_formula_sum   'Ti108 Co54 Ni53'
_cell_volume   3166.28024238
_cell_formula_units_Z   1
loop_
 _symmetry_equiv_pos_site_id
 _symmetry_equiv_pos_as_xyz
  1  'x, y, z'
loop_
 _atom_site_type_symbol
 _atom_site_label
 _atom_site_symmetry_multiplicity
 _atom_site_fract_x
 _atom_site_fract_y
 _atom_site_fract_z
 _atom_site_occupancy
  Ti  Ti0  1  0.13685046  0.12604329  0.20810397  1
  Ti  Ti1  1  0.13135010  0.02888347  0.57070551  1
  Ti  Ti2  1  0.10866086  0.12584960  0.85986551  1
  Ti  Ti3  1  0.06031534  0.36696821  0.21875030  1
  Ti  Ti4  1  0.10041180  0.43073641  0.58476422  1
  Ti  Ti5  1  0.02778284  0.45690930  0.91742586  1
  Ti  Ti6  1  0.07779590  0.79391088  0.19137922  1
  Ti  Ti7  1  0.08384495  0.76545765  0.61508742  1
  Ti  Ti8  1  0.04604299  0.81841156  0.95917681  1
  Ti  Ti9  1  0.32555068  0.10325960  0.27458360  1
  Ti  Ti10  1  0.48400480  0.03170606  0.61424469  1
  Ti  Ti11  1  0.48798800  0.12081751  0.95274106  1
  Ti  Ti12  1  0.44838390  0.28184382  0.22031121  1
  Ti  Ti13  1  0.42425656  0.36257942  0.62172924  1
  Ti  Ti14  1  0.46687990  0.50099896  0.94058246  1
  Ti  Ti15  1  0.39094144  0.72407874  0.19836198  1
  Ti  Ti16  1  0.36480263  0.78008124  0.60120347  1
  Ti  Ti17  1  0.35168682  0.69319596  0.96527984  1
  Ti  Ti18  1  0.76066586  0.00897873  0.26946908  1
  Ti  Ti19  1  0.75755331  0.13853932  0.57919114  1
  Ti  Ti20  1  0.78549291  0.12379694  0.78154196  1
  Ti  Ti21  1  0.72522943  0.36940551  0.23538166  1
  Ti  Ti22  1  0.76919622  0.45490359  0.58457447  1
  Ti  Ti23  1  0.77518243  0.38332065  0.90550970  1
  Ti  Ti24  1  0.75664663  0.69635266  0.30651628  1
  Ti  Ti25  1  0.66648239  0.68781848  0.55790437  1
  Ti  Ti26  1  0.78683972  0.74961313  0.90099612  1
  Ti  Ti27  1  -0.00296780  0.20049712  0.09965898  1
  Ti  Ti28  1  0.03139196  0.22102105  0.36863350  1
  Ti  Ti29  1  0.11686719  0.25276969  0.65638155  1
  Ti  Ti30  1  0.10397095  0.57967873  0.14655984  1
  Ti  Ti31  1  0.06942165  0.55929906  0.44025494  1
  Ti  Ti32  1  0.06689089  0.64044372  0.76943148  1
  Ti  Ti33  1  0.01600268  0.98419133  0.09512324  1
  Ti  Ti34  1  0.01895251  0.89916093  0.46939692  1
  Ti  Ti35  1  0.14812489  0.95818094  0.75166919  1
  Ti  Ti36  1  0.39872924  0.28585935  0.02699283  1
  Ti  Ti37  1  0.34482318  0.27274922  0.39115215  1
  Ti  Ti38  1  0.40192590  0.27438331  0.79892667  1
  Ti  Ti39  1  0.46173043  0.56476761  0.12669844  1
  Ti  Ti40  1  0.39825623  0.62182372  0.42628134  1
  Ti  Ti41  1  0.40104488  0.60152374  0.77916978  1
  Ti  Ti42  1  0.37609644  0.88399387  0.08277735  1
  Ti  Ti43  1  0.47785861  0.97671012  0.38292197  1
  Ti  Ti44  1  0.34200417  0.92247361  0.74212646  1
  Ti  Ti45  1  0.71621996  0.26507841  0.06025727  1
  Ti  Ti46  1  0.74644826  0.22987706  0.38747453  1
  Ti  Ti47  1  0.73905344  0.30983505  0.70839254  1
  Ti  Ti48  1  0.81779306  0.57536041  0.14597834  1
  Ti  Ti49  1  0.78936070  0.56845148  0.44422097  1
  Ti  Ti50  1  0.79773131  0.53399746  0.76674394  1
  Ti  Ti51  1  0.78613758  0.79659121  0.11254364  1
  Ti  Ti52  1  0.81352231  0.87499774  0.41009408  1
  Ti  Ti53  1  0.67174798  0.86793414  0.70044012  1
  Ti  Ti54  1  0.29451687  0.06720090  0.05217229  1
  Ti  Ti55  1  0.20790228  0.11883304  0.42921348  1
  Ti  Ti56  1  0.36024481  0.09943556  0.76146029  1
  Ti  Ti57  1  0.23904232  0.43448928  0.07204721  1
  Ti  Ti58  1  0.22511865  0.41964847  0.42320436  1
  Ti  Ti59  1  0.25751913  0.41286278  0.74845966  1
  Ti  Ti60  1  0.21236801  0.75965629  0.07264161  1
  Ti  Ti61  1  0.25939122  0.77903640  0.37199287  1
  Ti  Ti62  1  0.23730166  0.74471511  0.74810561  1
  Ti  Ti63  1  0.57669106  0.10672180  0.18249603  1
  Ti  Ti64  1  0.61168022  0.10627194  0.39439812  1
  Ti  Ti65  1  0.58074449  0.15562268  0.74844110  1
  Ti  Ti66  1  0.56281839  0.39788467  0.11954277  1
  Ti  Ti67  1  0.47795244  0.43024067  0.45493329  1
  Ti  Ti68  1  0.61564769  0.44751316  0.79420332  1
  Ti  Ti69  1  0.60285166  0.70177380  0.17505195  1
  Ti  Ti70  1  0.55375723  0.78164293  0.35662189  1
  Ti  Ti71  1  0.52536288  0.72497896  0.70551279  1
  Ti  Ti72  1  0.83195883  0.10584270  0.10612542  1
  Ti  Ti73  1  0.92642927  0.07203357  0.49716315  1
  Ti  Ti74  1  0.97634521  0.07117758  0.68762778  1
  Ti  Ti75  1  0.90232312  0.36345158  0.05747725  1
  Ti  Ti76  1  0.86503273  0.38498453  0.38154524  1
  Ti  Ti77  1  0.95904293  0.35343329  0.74734549  1
  Ti  Ti78  1  0.94483947  0.69358492  0.04963239  1
  Ti  Ti79  1  0.95101986  0.73078085  0.38589703  1
  Ti  Ti80  1  0.91086356  0.81350646  0.73840780  1
  Ti  Ti81  1  0.27910514  0.24928468  0.16227975  1
  Ti  Ti82  1  0.30534495  0.20593081  0.58378306  1
  Ti  Ti83  1  0.21083871  0.27392126  0.94183946  1
  Ti  Ti84  1  0.31118122  0.54168079  0.25763403  1
  Ti  Ti85  1  0.22192617  0.59992773  0.56160442  1
  Ti  Ti86  1  0.17129860  0.59050409  0.96118361  1
  Ti  Ti87  1  0.15839452  0.95935820  0.28098221  1
  Ti  Ti88  1  0.33193804  0.94103332  0.51006778  1
  Ti  Ti89  1  0.25179521  0.87919922  0.91995458  1
  Ti  Ti90  1  0.56791117  0.30195293  0.36113651  1
  Ti  Ti91  1  0.61249436  0.29587061  0.55041791  1
  Ti  Ti92  1  0.55161061  0.31184839  0.91339934  1
  Ti  Ti93  1  0.60169072  0.50836811  0.31639404  1
  Ti  Ti94  1  0.50039085  0.54449330  0.61937871  1
  Ti  Ti95  1  0.63163147  0.63552280  0.83393549  1
  Ti  Ti96  1  0.56277818  0.90785017  0.20321083  1
  Ti  Ti97  1  0.53725834  0.85833730  0.54165723  1
  Ti  Ti98  1  0.48494420  0.85759727  0.89515572  1
  Ti  Ti99  1  0.88039745  0.25162974  0.23384754  1
  Ti  Ti100  1  0.95723963  0.30997919  0.53841306  1
  Ti  Ti101  1  1.00855582  0.27032697  0.92810712  1
  Ti  Ti102  1  0.95356432  0.53931134  0.29340182  1
  Ti  Ti103  1  0.89894784  0.63975315  0.62000439  1
  Ti  Ti104  1  0.86922789  0.55594525  0.95244169  1
  Ti  Ti105  1  0.95936894  0.94687152  0.28602679  1
  Ti  Ti106  1  0.82786338  0.93940596  0.59843469  1
  Ti  Ti107  1  0.94985291  0.96550370  0.86162927  1
  Co  Co108  1  0.89304784  0.67119630  0.80853464  1
  Co  Co109  1  0.17226737  0.73453786  0.89539415  1
  Co  Co110  1  0.85235661  0.21559031  -0.01963762  1
  Co  Co111  1  0.61402992  0.25834410  0.21485963  1
  Co  Co112  1  0.40973095  0.80852832  0.43272439  1
  Co  Co113  1  0.09722607  0.47104591  0.73990675  1
  Co  Co114  1  0.48322352  0.61691664  0.28643850  1
  Co  Co115  1  0.44779394  0.43373854  0.78349967  1
  Co  Co116  1  0.25346473  0.36517306  0.58300536  1
  Co  Co117  1  0.18298338  0.42817765  -0.09676079  1
  Co  Co118  1  0.06177529  0.59187695  0.61113725  1
  Co  Co119  1  0.59540976  0.13995154  0.56257096  1
  Co  Co120  1  0.47218133  0.14830803  0.31876425  1
  Co  Co121  1  0.29270094  0.04674873  0.61478685  1
  Co  Co122  1  0.37016714  0.09686326  0.45419358  1
  Co  Co123  1  0.73808520  0.16739880  0.22979251  1
  Co  Co124  1  0.42226106  0.85688670  0.27180954  1
  Co  Co125  1  0.46073854  0.20257810  0.64180974  1
  Co  Co126  1  0.80858066  0.72375662  0.47798555  1
  Co  Co127  1  0.47089742  0.23301742  0.47971075  1
  Co  Co128  1  0.70149237  0.84427775  0.52082415  1
  Co  Co129  1  0.55528952  0.31147575  0.73372421  1
  Co  Co130  1  0.17975909  -0.07829353  0.44556218  1
  Co  Co131  1  0.88438849  0.86123351  -0.02293693  1
  Co  Co132  1  0.49522142  0.68922859  0.89590703  1
  Co  Co133  1  0.55094656  0.22941067  0.06479367  1
  Co  Co134  1  0.83980535  -0.05101145  0.14413971  1
  Co  Co135  1  0.62328535  0.79846035  0.83586738  1
  Co  Co136  1  0.38710351  0.77186342  0.79553052  1
  Co  Co137  1  0.04984822  0.16666527  0.53279997  1
  Co  Co138  1  -0.04934002  0.83926027  0.12199496  1
  Co  Co139  1  0.86497215  0.82676139  0.26097681  1
  Co  Co140  1  0.38718395  0.41802862  0.12682402  1
  Co  Co141  1  0.78933105  0.77125067  0.63579764  1
  Co  Co142  1  -0.07270567  0.80056734  0.55703140  1
  Co  Co143  1  0.49325983  0.87989751  0.70487411  1
  Co  Co144  1  0.69887576  0.39843572  0.41671390  1
  Co  Co145  1  0.61555688  0.44505627  -0.02279197  1
  Co  Co146  1  0.01981686  0.63228148  -0.07625093  1
  Co  Co147  1  0.09702330  0.82196009  0.34449264  1
  Co  Co148  1  0.36449794  0.62930373  0.62388802  1
  Co  Co149  1  0.71918394  0.54532005  0.92397818  1
  Co  Co150  1  -0.03016543  0.52140070  0.09333841  1
  Co  Co151  1  0.68620028  0.24935729  0.85436539  1
  Co  Co152  1  -0.04630550  0.52703684  0.79521479  1
  Co  Co153  1  0.07803708  0.40124916  0.05698610  1
  Co  Co154  1  0.11445722  0.31590581  0.80675807  1
  Co  Co155  1  0.15957355  0.27712954  0.48101050  1
  Co  Co156  1  0.61903963  0.64622019  0.39393906  1
  Co  Co157  1  0.84890360  0.27097661  0.82705754  1
  Co  Co158  1  0.42027001  0.14427871  0.12691144  1
  Co  Co159  1  0.60468607  0.42472825  0.63236167  1
  Co  Co160  1  0.34219993  0.48723217  0.52172362  1
  Co  Co161  1  0.24257259  0.03402509  0.86346581  1
  Ni  Ni162  1  0.62482520  0.52275125  0.50248940  1
  Ni  Ni163  1  0.88210232  0.42217466  0.20721725  1
  Ni  Ni164  1  0.42307334  -0.00066164  0.19547826  1
  Ni  Ni165  1  -0.02362808  0.10084475  0.23404895  1
  Ni  Ni166  1  0.30518898  0.53377911  0.88694775  1
  Ni  Ni167  1  0.13388768  0.11022326  0.03261172  1
  Ni  Ni168  1  0.31251129  -0.04865421  0.34483156  1
  Ni  Ni169  1  0.07168241  0.82414988  0.79042511  1
  Ni  Ni170  1  0.18081609  -0.05847573  0.09117946  1
  Ni  Ni171  1  0.87239214  0.12850648  0.35235796  1
  Ni  Ni172  1  0.65143920  0.54158188  0.15664599  1
  Ni  Ni173  1  0.44757677  0.44212343  0.28523858  1
  Ni  Ni174  1  0.89727728  0.21379854  0.66568851  1
  Ni  Ni175  1  0.76899620  0.51726004  0.29320766  1
  Ni  Ni176  1  0.67391697  0.03422482  0.68372477  1
  Ni  Ni177  1  0.04606566  0.39100641  0.40284923  1
  Ni  Ni178  1  0.63635021  -0.00892647  0.52945250  1
  Ni  Ni179  1  0.79180969  0.29823170  0.53418724  1
  Ni  Ni180  1  0.21473531  0.87669165  0.61782432  1
  Ni  Ni181  1  0.11691743  0.71833065  0.46438650  1
  Ni  Ni182  1  0.34531302  0.38270517  -0.08919843  1
  Ni  Ni183  1  0.33003332  0.16213358  0.91282020  1
  Ni  Ni184  1  0.19007918  0.25349490  0.31238098  1
  Ni  Ni185  1  0.93305629  0.68324067  0.21664851  1
  Ni  Ni186  1  -0.06804403  0.49243211  0.48672148  1
  Ni  Ni187  1  0.22714424  0.60655962  0.38869462  1
  Ni  Ni188  1  0.38589019  -0.00877810  -0.07427735  1
  Ni  Ni189  1  0.10776492  0.97478802  -0.05933371  1
  Ni  Ni190  1  0.81005400  -0.03937319  0.76074782  1
  Ni  Ni191  1  0.05897161  0.05490340  0.38860012  1
  Ni  Ni192  1  0.75027724  0.43916056  0.06870943  1
  Ni  Ni193  1  0.26268057  0.84904908  0.20916195  1
  Ni  Ni194  1  0.14235504  0.26661738  0.09187594  1
  Ni  Ni195  1  0.76750806  0.03726216  0.44111130  1
  Ni  Ni196  1  -0.02503247  0.09080486  -0.02497157  1
  Ni  Ni197  1  0.08146444  0.65655051  0.30238817  1
  Ni  Ni198  1  0.48761134  0.75357464  0.05739898  1
  Ni  Ni199  1  0.93710348  0.47586735  0.64277920  1
  Ni  Ni200  1  0.73272560  0.66076307  0.03527332  1
  Ni  Ni201  1  0.50432015  0.01252677  0.80276352  1
  Ni  Ni202  1  0.66480437  0.57336162  0.67289650  1
  Ni  Ni203  1  0.22343334  0.68587180  0.23049273  1
  Ni  Ni204  1  0.14019965  0.49437230  0.29001122  1
  Ni  Ni205  1  0.64232101  -0.06857657  0.37640932  1
  Ni  Ni206  1  0.57950995  0.60858486  0.01601783  1
  Ni  Ni207  1  0.70335623  0.84216285  0.25172279  1
  Ni  Ni208  1  0.50178931  0.69280012  0.52510354  1
  Ni  Ni209  1  -0.05692023  0.14599420  0.82788957  1
  Ni  Ni210  1  0.22648389  0.57706814  0.72901014  1
  Ni  Ni211  1  0.28432450  0.60025370  0.09819856  1
  Ni  Ni212  1  0.01197269  -0.08269716  0.64601451  1
  Ni  Ni213  1  0.28523969  0.38138382  0.26097204  1
  Ni  Ni214  1  0.18812597  0.11972621  0.71305093  1
