# generated using pymatgen
data_Ti108Co54Ni53
_symmetry_space_group_name_H-M   'P 1'
_cell_length_a   14.64936955
_cell_length_b   14.59215351
_cell_length_c   14.54879855
_cell_angle_alpha   89.92938227
_cell_angle_beta   89.90763904
_cell_angle_gamma   90.30598000
_symmetry_Int_Tables_number   1
_chemical_formula_structural   Ti108Co54Ni53
_chemical_formula_sum   'Ti108 Co54 Ni53'
_cell_volume   3109.98549420
_cell_formula_units_Z   1
loop_
 _symmetry_equiv_pos_site_id
 _symmetry_equiv_pos_as_xyz
  1  'x, y, z'
loop_
 _atom_site_type_symbol
 _atom_site_label
 _atom_site_symmetry_multiplicity
 _atom_site_fract_x
 _atom_site_fract_y
 _atom_site_fract_z
 _atom_site_occupancy
  Ti  Ti0  1  0.02840280  0.10482805  0.28044764  1
  Ti  Ti1  1  0.11694403  0.07821489  0.61880420  1
  Ti  Ti2  1  0.07332119  0.11073834  0.90477597  1
  Ti  Ti3  1  0.05855295  0.40824757  0.17526724  1
  Ti  Ti4  1  0.00481895  0.39985016  0.59082321  1
  Ti  Ti5  1  0.07420558  0.49395793  0.87490409  1
  Ti  Ti6  1  0.06899176  0.71428035  0.26421257  1
  Ti  Ti7  1  0.10327143  0.74955053  0.53996331  1
  Ti  Ti8  1  0.10728704  0.70272192  0.90614825  1
  Ti  Ti9  1  0.36804247  0.05470794  0.23904921  1
  Ti  Ti10  1  0.44373939  0.11621863  0.55559006  1
  Ti  Ti11  1  0.47753008  0.12777155  0.91449496  1
  Ti  Ti12  1  0.42181557  0.46430703  0.31337036  1
  Ti  Ti13  1  0.35870353  0.46126452  0.62883289  1
  Ti  Ti14  1  0.37636192  0.41411488  0.86894930  1
  Ti  Ti15  1  0.50781206  0.74737572  0.25633512  1
  Ti  Ti16  1  0.41797493  0.79248484  0.59468066  1
  Ti  Ti17  1  0.32756108  0.71909796  0.87911309  1
  Ti  Ti18  1  0.78877805  0.13231880  0.28170418  1
  Ti  Ti19  1  0.75044361  0.08501823  0.66269442  1
  Ti  Ti20  1  0.76309231  0.03341504  0.87235430  1
  Ti  Ti21  1  0.83237566  0.41000966  0.21108957  1
  Ti  Ti22  1  0.80085898  0.41359725  0.53805072  1
  Ti  Ti23  1  0.76107098  0.38560797  0.90191834  1
  Ti  Ti24  1  0.68617719  0.83651462  0.28038011  1
  Ti  Ti25  1  0.72270033  0.68128461  0.56594829  1
  Ti  Ti26  1  0.78720110  0.77359685  0.93351896  1
  Ti  Ti27  1  0.03891129  0.18924201  0.08079268  1
  Ti  Ti28  1  0.05630008  0.19175561  0.46251408  1
  Ti  Ti29  1  0.15281063  0.24388292  0.77632347  1
  Ti  Ti30  1  0.12614881  0.59292798  0.10016820  1
  Ti  Ti31  1  0.11535094  0.50690032  0.44118121  1
  Ti  Ti32  1  0.08527544  0.56603821  0.66008628  1
  Ti  Ti33  1  0.06414180  0.98869940  0.10294700  1
  Ti  Ti34  1  0.06727094  0.92660152  0.29806718  1
  Ti  Ti35  1  0.09014263  0.96068725  0.78403715  1
  Ti  Ti36  1  0.41482110  0.25166397  0.03531140  1
  Ti  Ti37  1  0.39633360  0.21872419  0.39325126  1
  Ti  Ti38  1  0.45075229  0.28339111  0.67141893  1
  Ti  Ti39  1  0.42672729  0.58203517  -0.00560362  1
  Ti  Ti40  1  0.47552286  0.53072840  0.48257032  1
  Ti  Ti41  1  0.48444293  0.60199470  0.78121941  1
  Ti  Ti42  1  0.45529149  0.85677512  0.06777502  1
  Ti  Ti43  1  0.44459037  0.89307283  0.36507441  1
  Ti  Ti44  1  0.44619126  0.96371810  0.70130497  1
  Ti  Ti45  1  0.72742203  0.28230487  0.10279567  1
  Ti  Ti46  1  0.76516107  0.26883007  0.41339939  1
  Ti  Ti47  1  0.70936280  0.24751417  0.77088622  1
  Ti  Ti48  1  0.76089518  0.57989040  0.16888515  1
  Ti  Ti49  1  0.70164750  0.60416075  0.35725346  1
  Ti  Ti50  1  0.80426297  0.67349391  0.74807356  1
  Ti  Ti51  1  0.75741231  0.96659723  0.17017957  1
  Ti  Ti52  1  0.77133669  0.92947108  0.44950233  1
  Ti  Ti53  1  0.73999128  0.86100201  0.69040963  1
  Ti  Ti54  1  0.25556932  0.14299536  0.08752059  1
  Ti  Ti55  1  0.19606171  0.06078954  0.39608471  1
  Ti  Ti56  1  0.29866078  0.14119410  0.67967111  1
  Ti  Ti57  1  0.27716617  0.38653834  0.15114936  1
  Ti  Ti58  1  0.29111705  0.38600021  0.45130944  1
  Ti  Ti59  1  0.21150175  0.46047233  0.74290656  1
  Ti  Ti60  1  0.26586303  0.71545227  0.20341018  1
  Ti  Ti61  1  0.34674077  0.70768184  0.39626767  1
  Ti  Ti62  1  0.19074196  0.79332153  0.73064377  1
  Ti  Ti63  1  0.62132693  0.08075842  0.04123720  1
  Ti  Ti64  1  0.55229143  0.06167745  0.41271457  1
  Ti  Ti65  1  0.54795997  0.12936969  0.72071866  1
  Ti  Ti66  1  0.46525420  0.40832625  0.11560627  1
  Ti  Ti67  1  0.59896855  0.40330620  0.38474024  1
  Ti  Ti68  1  0.58538685  0.41066263  0.78781478  1
  Ti  Ti69  1  0.58909292  0.70479130  0.06460437  1
  Ti  Ti70  1  0.55113186  0.72167679  0.45775586  1
  Ti  Ti71  1  0.54904970  0.81103522  0.77291634  1
  Ti  Ti72  1  0.81239839  0.10045055  0.06018572  1
  Ti  Ti73  1  0.87868561  0.09750602  0.45647682  1
  Ti  Ti74  1  0.92220242  0.08395465  0.77476405  1
  Ti  Ti75  1  0.96748131  0.45635011  0.02179401  1
  Ti  Ti76  1  0.96932971  0.37494762  0.35536749  1
  Ti  Ti77  1  0.86795691  0.45973551  0.73708161  1
  Ti  Ti78  1  0.91500289  0.72214013  0.09970006  1
  Ti  Ti79  1  0.88212240  0.73175116  0.42832447  1
  Ti  Ti80  1  0.94962905  0.82183057  0.67829328  1
  Ti  Ti81  1  0.20999144  0.20732833  0.24905256  1
  Ti  Ti82  1  0.19524738  0.28654655  0.58909282  1
  Ti  Ti83  1  0.32227644  0.22748663  0.86170307  1
  Ti  Ti84  1  0.24364386  0.52483656  0.27895385  1
  Ti  Ti85  1  0.25598880  0.63005438  0.57303649  1
  Ti  Ti86  1  0.24527753  0.54238080  0.94549293  1
  Ti  Ti87  1  0.25791745  0.90272902  0.29647031  1
  Ti  Ti88  1  0.28362896  0.97686064  0.56125281  1
  Ti  Ti89  1  0.30495191  0.94029600  0.88078328  1
  Ti  Ti90  1  0.53575124  0.16385482  0.26052409  1
  Ti  Ti91  1  0.62304803  0.31865202  0.56536933  1
  Ti  Ti92  1  0.60077184  0.28785876  0.96207049  1
  Ti  Ti93  1  0.54203370  0.56210085  0.17435180  1
  Ti  Ti94  1  0.61598038  0.56045683  0.65517953  1
  Ti  Ti95  1  0.63378865  0.54794852  0.94633621  1
  Ti  Ti96  1  0.54739345  0.96937174  0.21691790  1
  Ti  Ti97  1  0.60686419  0.98303775  0.57650487  1
  Ti  Ti98  1  0.56161629  0.96761492  0.89296408  1
  Ti  Ti99  1  0.90412430  0.24026768  0.19180747  1
  Ti  Ti100  1  0.88183889  0.27378592  0.69125191  1
  Ti  Ti101  1  0.89215515  0.21600044  0.92531827  1
  Ti  Ti102  1  0.90360739  0.57036139  0.31546938  1
  Ti  Ti103  1  0.92241682  0.62132641  0.59373854  1
  Ti  Ti104  1  0.84319116  0.56894751  0.91358297  1
  Ti  Ti105  1  0.89770812  0.84857297  0.25992666  1
  Ti  Ti106  1  0.98031151  0.92957690  0.50084399  1
  Ti  Ti107  1  0.91624092  0.91664877  0.93697064  1
  Co  Co108  1  0.14390231  0.43845308  0.02838099  1
  Co  Co109  1  0.18536561  0.79110966  0.37180935  1
  Co  Co110  1  0.59541153  0.88954801  0.40944838  1
  Co  Co111  1  0.62536134  -0.02017330  0.74332297  1
  Co  Co112  1  0.81248879  0.57349355  0.47479038  1
  Co  Co113  1  0.33682267  0.55681737  0.80153317  1
  Co  Co114  1  0.77281138  0.54013462  0.63377168  1
  Co  Co115  1  0.11859363  0.90108062  0.62359916  1
  Co  Co116  1  0.57031406  0.71670319  0.64529497  1
  Co  Co117  1  -0.01564386  -0.01355398  0.65754209  1
  Co  Co118  1  0.35848894  0.84048670  0.75407721  1
  Co  Co119  1  0.91963529  0.27647424  0.51370444  1
  Co  Co120  1  0.45550510  -0.05824699  0.52346848  1
  Co  Co121  1  -0.11195390  -0.00500226  0.32394357  1
  Co  Co122  1  0.83741919  -0.03178897  0.59895518  1
  Co  Co123  1  0.83322915  0.80459558  0.56250684  1
  Co  Co124  1  0.30954801  0.54473263  0.44839562  1
  Co  Co125  1  0.61457303  0.86198344  0.12210793  1
  Co  Co126  1  -0.04801557  0.06205549  -0.00274909  1
  Co  Co127  1  0.05308984  0.31054853  -0.04475031  1
  Co  Co128  1  0.14694209  -0.08066018  0.46169387  1
  Co  Co129  1  0.92307439  0.71540187  0.86178826  1
  Co  Co130  1  0.25969115  0.68140579  0.03065014  1
  Co  Co131  1  -0.07518753  0.05428665  0.17020435  1
  Co  Co132  1  0.65588653  0.51137803  0.49480867  1
  Co  Co133  1  0.38409127  0.07225067  0.79525210  1
  Co  Co134  1  0.05822733  0.26416078  0.25511964  1
  Co  Co135  1  0.66653646  0.12640028  0.18190635  1
  Co  Co136  1  0.15502769  0.29021152  0.09962852  1
  Co  Co137  1  0.89436932  -0.09141600  0.09665675  1
  Co  Co138  1  0.57276241  0.23908576  0.41434001  1
  Co  Co139  1  0.09689413  0.34918779  0.47145797  1
  Co  Co140  1  0.65518515  0.69530527  0.21266558  1
  Co  Co141  1  0.04451246  0.23484128  0.63826603  1
  Co  Co142  1  0.54672371  0.58492456  0.34170482  1
  Co  Co143  1  0.41493641  0.69535060  0.11529248  1
  Co  Co144  1  0.18866336  0.62438250  0.78294469  1
  Co  Co145  1  0.71466201  0.52257456  0.79782846  1
  Co  Co146  1  0.38295003  0.21757733  0.19403037  1
  Co  Co147  1  0.92545888  0.22066011  0.35499084  1
  Co  Co148  1  0.02543883  0.83418566  0.84244121  1
  Co  Co149  1  0.76987674  0.22882594  0.58154633  1
  Co  Co150  1  0.18728342  0.20952443  -0.04599830  1
  Co  Co151  1  0.60267669  0.15953069  0.56970385  1
  Co  Co152  1  0.19503931  0.36924933  0.87522486  1
  Co  Co153  1  0.73247228  -0.06524903  0.00699226  1
  Co  Co154  1  0.72377509  0.38749764  0.69515887  1
  Co  Co155  1  0.73959811  0.20764494  -0.05193665  1
  Co  Co156  1  0.28420107  0.33825897  0.00078154  1
  Co  Co157  1  0.38435223  0.84335153  0.21389337  1
  Co  Co158  1  0.81261261  0.71038421  0.26775559  1
  Co  Co159  1  -0.05684005  0.48609820  0.46871834  1
  Co  Co160  1  0.87565140  -0.07549429  0.78011797  1
  Co  Co161  1  0.71270161  0.87906686  0.84613903  1
  Ni  Ni162  1  0.03681465  0.83015334  0.14785639  1
  Ni  Ni163  1  -0.01079653  0.62107333  -0.01111083  1
  Ni  Ni164  1  0.64687521  0.82980106  0.55254739  1
  Ni  Ni165  1  0.72340115  0.76743916  0.42040593  1
  Ni  Ni166  1  -0.00282537  0.23779520  0.80414645  1
  Ni  Ni167  1  0.74382171  0.64464103  0.02564638  1
  Ni  Ni168  1  0.36762249  0.04005252  0.41252946  1
  Ni  Ni169  1  0.88696183  0.32164273  0.04751564  1
  Ni  Ni170  1  0.25363320  -0.03512936  0.72003861  1
  Ni  Ni171  1  0.04969500  0.38331145  0.74883224  1
  Ni  Ni172  1  0.48659660  0.28308072  0.84173297  1
  Ni  Ni173  1  0.31847987  0.55269052  0.12562502  1
  Ni  Ni174  1  0.43787779  0.62206639  0.61035648  1
  Ni  Ni175  1  0.49490238  0.32542081  0.26598708  1
  Ni  Ni176  1  0.45950470  0.09300406  0.09647847  1
  Ni  Ni177  1  0.63265414  0.12757364  0.85983060  1
  Ni  Ni178  1  0.18794274  0.03855909  0.21499419  1
  Ni  Ni179  1  0.68231862  0.00980346  0.32179647  1
  Ni  Ni180  1  0.01917969  0.63686968  0.42710188  1
  Ni  Ni181  1  0.32792042  0.69100265  0.70818759  1
  Ni  Ni182  1  0.15454171  0.38656110  0.31530472  1
  Ni  Ni183  1  0.67275143  0.28900722  0.26788492  1
  Ni  Ni184  1  0.29988127  0.32045348  0.72277602  1
  Ni  Ni185  1  0.32624743  0.08458530  -0.04240188  1
  Ni  Ni186  1  0.44138030  -0.15064850  0.89981072  1
  Ni  Ni187  1  0.20553998  0.24646522  0.40457844  1
  Ni  Ni188  1  0.65057087  0.68300236  0.81321318  1
  Ni  Ni189  1  0.19454827  0.46126457  0.57412372  1
  Ni  Ni190  1  -0.04998263  0.56037297  0.15505868  1
  Ni  Ni191  1  0.65991497  0.45466649  0.23886339  1
  Ni  Ni192  1  0.76424323  0.79344119  0.11727695  1
  Ni  Ni193  1  0.50969564  0.70054744  0.91332844  1
  Ni  Ni194  1  0.56300478  0.25948784  0.12628245  1
  Ni  Ni195  1  -0.07631944  0.12911719  0.60632007  1
  Ni  Ni196  1  0.04667168  0.70683799  0.73516766  1
  Ni  Ni197  1  0.02620646  0.80346384  0.40136428  1
  Ni  Ni198  1  0.71396126  0.10243624  0.46656361  1
  Ni  Ni199  1  0.60749575  0.82628078  -0.04151679  1
  Ni  Ni200  1  0.63262588  0.42592235  0.07572057  1
  Ni  Ni201  1  0.39624432  0.61811279  0.26294987  1
  Ni  Ni202  1  0.92721289  0.37912768  0.86961485  1
  Ni  Ni203  1  0.27862804  0.14958668  0.51237897  1
  Ni  Ni204  1  0.51567625  0.43099249  -0.04803040  1
  Ni  Ni205  1  -0.03304322  0.57630328  0.78489958  1
  Ni  Ni206  1  0.45966600  0.35040101  0.48972462  1
  Ni  Ni207  1  0.30954832  0.85757398  0.46084020  1
  Ni  Ni208  1  0.31904805  0.33011119  0.29822919  1
  Ni  Ni209  1  0.79164792  0.46802004  0.04691592  1
  Ni  Ni210  1  0.07326188  0.54659578  0.27619440  1
  Ni  Ni211  1  0.21813185  0.08514555  0.82427459  1
  Ni  Ni212  1  0.51837143  0.43491167  0.62646275  1
  Ni  Ni213  1  0.18586695  0.63926269  0.37763541  1
  Ni  Ni214  1  0.77730835  0.44395177  0.36950048  1
