# generated using pymatgen
data_Ti108Co54Ni53
_symmetry_space_group_name_H-M   'P 1'
_cell_length_a   14.65773028
_cell_length_b   14.65770251
_cell_length_c   14.69802625
_cell_angle_alpha   90.10870806
_cell_angle_beta   89.88442495
_cell_angle_gamma   90.05138440
_symmetry_Int_Tables_number   1
_chemical_formula_structural   Ti108Co54Ni53
_chemical_formula_sum   'Ti108 Co54 Ni53'
_cell_volume   3157.83772822
_cell_formula_units_Z   1
loop_
 _symmetry_equiv_pos_site_id
 _symmetry_equiv_pos_as_xyz
  1  'x, y, z'
loop_
 _atom_site_type_symbol
 _atom_site_label
 _atom_site_symmetry_multiplicity
 _atom_site_fract_x
 _atom_site_fract_y
 _atom_site_fract_z
 _atom_site_occupancy
  Ti  Ti0  1  0.11385062  0.05545951  0.22673485  1
  Ti  Ti1  1  0.06904257  0.12033222  0.63458879  1
  Ti  Ti2  1  0.11807961  0.11389354  0.86268573  1
  Ti  Ti3  1  0.15575790  0.41428967  0.27610879  1
  Ti  Ti4  1  0.06295242  0.41869783  0.62020537  1
  Ti  Ti5  1  0.04605424  0.32550699  0.95923535  1
  Ti  Ti6  1  0.07204189  0.73604403  0.27548124  1
  Ti  Ti7  1  0.08030629  0.76915395  0.61614129  1
  Ti  Ti8  1  0.13807278  0.76286480  0.93538519  1
  Ti  Ti9  1  0.38271736  0.12118626  0.24733904  1
  Ti  Ti10  1  0.39340555  0.10364196  0.58394172  1
  Ti  Ti11  1  0.41852636  0.02579496  0.79617051  1
  Ti  Ti12  1  0.35792807  0.45016758  0.34354549  1
  Ti  Ti13  1  0.39708146  0.42702533  0.55261592  1
  Ti  Ti14  1  0.41887918  0.45253185  0.88174990  1
  Ti  Ti15  1  0.38269397  0.77743792  0.27069033  1
  Ti  Ti16  1  0.30177532  0.72351461  0.57638750  1
  Ti  Ti17  1  0.46398924  0.75477767  0.99109752  1
  Ti  Ti18  1  0.79976766  0.04696072  0.23764751  1
  Ti  Ti19  1  0.79008552  0.06524987  0.52613219  1
  Ti  Ti20  1  0.76212626  -0.00037338  0.94817808  1
  Ti  Ti21  1  0.71541996  0.43887738  0.09211187  1
  Ti  Ti22  1  0.79356244  0.38486493  0.58394627  1
  Ti  Ti23  1  0.78923741  0.39718290  0.79050887  1
  Ti  Ti24  1  0.73111791  0.68475826  0.22980747  1
  Ti  Ti25  1  0.75707621  0.66048571  0.60636261  1
  Ti  Ti26  1  0.81163466  0.77108280  0.91914642  1
  Ti  Ti27  1  0.10206565  0.18840944  0.07184536  1
  Ti  Ti28  1  0.02439136  0.30802220  0.39208381  1
  Ti  Ti29  1  0.00373298  0.24700338  0.78822274  1
  Ti  Ti30  1  0.11206614  0.53109503  0.10717781  1
  Ti  Ti31  1  0.04567341  0.66694981  0.44766650  1
  Ti  Ti32  1  0.05679625  0.64467940  0.78883372  1
  Ti  Ti33  1  0.11838394  0.89041902  0.07203139  1
  Ti  Ti34  1  0.12027732  0.93554353  0.38986834  1
  Ti  Ti35  1  0.05055923  0.93371811  0.86786907  1
  Ti  Ti36  1  0.43483854  0.24322245  -0.00511477  1
  Ti  Ti37  1  0.45697882  0.25651725  0.45697598  1
  Ti  Ti38  1  0.45115611  0.21636998  0.78610365  1
  Ti  Ti39  1  0.40600982  0.62152895  0.15230078  1
  Ti  Ti40  1  0.46080124  0.63784198  0.47916776  1
  Ti  Ti41  1  0.43855806  0.60765108  0.67790770  1
  Ti  Ti42  1  0.42371270  0.96434430  0.01598487  1
  Ti  Ti43  1  0.41768574  0.97364759  0.36952421  1
  Ti  Ti44  1  0.37134872  0.85067097  0.70973366  1
  Ti  Ti45  1  0.75317574  0.25119029  0.10120854  1
  Ti  Ti46  1  0.79825216  0.26240158  0.43077632  1
  Ti  Ti47  1  0.65382699  0.24929267  0.77394518  1
  Ti  Ti48  1  0.79015758  0.60821836  0.06797466  1
  Ti  Ti49  1  0.66107123  0.61405043  0.42330018  1
  Ti  Ti50  1  0.74291882  0.61125607  0.81047772  1
  Ti  Ti51  1  0.74408778  0.92820922  0.11410736  1
  Ti  Ti52  1  0.71731026  0.91810892  0.37710604  1
  Ti  Ti53  1  0.72719948  0.90386697  0.77222039  1
  Ti  Ti54  1  0.22720113  0.04711708  0.01159408  1
  Ti  Ti55  1  0.18581577  0.09704188  0.48503563  1
  Ti  Ti56  1  0.26505468  0.15551473  0.73570913  1
  Ti  Ti57  1  0.24937209  0.40071551  0.02123655  1
  Ti  Ti58  1  0.19961957  0.42252322  0.48221377  1
  Ti  Ti59  1  0.28303456  0.39140293  0.72145597  1
  Ti  Ti60  1  0.26767881  0.73904396  0.07924224  1
  Ti  Ti61  1  0.24986474  0.70242602  0.39547526  1
  Ti  Ti62  1  0.24076920  0.69246345  0.74522479  1
  Ti  Ti63  1  0.54066112  0.11603970  0.11869684  1
  Ti  Ti64  1  0.56290115  0.06291672  0.49098349  1
  Ti  Ti65  1  0.60196955  0.06429244  0.70389636  1
  Ti  Ti66  1  0.58650497  0.58510361  0.09753323  1
  Ti  Ti67  1  0.64631715  0.39836532  0.41967184  1
  Ti  Ti68  1  0.60840114  0.46091293  0.79906545  1
  Ti  Ti69  1  0.65386804  0.77186153  0.04296832  1
  Ti  Ti70  1  0.54776544  0.82792210  0.45245671  1
  Ti  Ti71  1  0.55014545  0.76240154  0.74262149  1
  Ti  Ti72  1  0.89736053  0.09719813  0.07319028  1
  Ti  Ti73  1  0.97281552  0.04026070  0.44705731  1
  Ti  Ti74  1  0.88404009  0.08368731  0.81176158  1
  Ti  Ti75  1  0.94141856  0.47320115  0.03762614  1
  Ti  Ti76  1  0.85420780  0.42704556  0.37036384  1
  Ti  Ti77  1  0.91085178  0.52073976  0.70955636  1
  Ti  Ti78  1  0.96252968  0.68650157  0.07457407  1
  Ti  Ti79  1  0.84731654  0.75396900  0.40831678  1
  Ti  Ti80  1  0.93385236  0.82218559  0.73885748  1
  Ti  Ti81  1  0.21538402  0.21973826  0.31054293  1
  Ti  Ti82  1  0.25628384  0.25398379  0.55947655  1
  Ti  Ti83  1  0.19559765  0.28870624  0.86560140  1
  Ti  Ti84  1  0.22617014  0.60944451  0.23168184  1
  Ti  Ti85  1  0.16392359  0.59032490  0.57155589  1
  Ti  Ti86  1  0.22804232  0.58219971  0.91246950  1
  Ti  Ti87  1  0.28454256  0.94827361  0.18200942  1
  Ti  Ti88  1  0.29200852  0.93110128  0.51504276  1
  Ti  Ti89  1  0.24466941  0.93516022  0.83981082  1
  Ti  Ti90  1  0.67504862  0.19895151  0.26842863  1
  Ti  Ti91  1  0.67632639  0.22116600  0.57179789  1
  Ti  Ti92  1  0.62542583  0.17175419  0.95024238  1
  Ti  Ti93  1  0.54271468  0.63340149  0.29058158  1
  Ti  Ti94  1  0.59305654  0.50667389  0.58332160  1
  Ti  Ti95  1  0.53170867  0.62057464  0.87571798  1
  Ti  Ti96  1  0.60193147  1.00095371  0.24599546  1
  Ti  Ti97  1  0.66380165  0.91348994  0.58913558  1
  Ti  Ti98  1  0.56815327  0.92082980  0.88166605  1
  Ti  Ti99  1  0.89241590  0.25265745  0.25076336  1
  Ti  Ti100  1  0.88681569  0.21176206  0.63067276  1
  Ti  Ti101  1  0.85826932  0.31599544  0.94795234  1
  Ti  Ti102  1  0.87297690  0.53248786  0.21264404  1
  Ti  Ti103  1  0.91532389  0.55057094  0.51328139  1
  Ti  Ti104  1  0.91061325  0.59712182  0.90009013  1
  Ti  Ti105  1  0.94595124  0.91335545  0.29328102  1
  Ti  Ti106  1  0.95269010  0.91127613  0.57557924  1
  Ti  Ti107  1  0.92732745  0.89073356  1.02130884  1
  Co  Co108  1  0.71028962  0.09920977  0.10735019  1
  Co  Co109  1  0.58890171  0.68308467  0.57040834  1
  Co  Co110  1  0.66027343  0.83584204  0.20671701  1
  Co  Co111  1  0.65006659  0.36765944  0.66745610  1
  Co  Co112  1  0.44633521  -0.02387053  0.19341248  1
  Co  Co113  1  0.86072376  0.38119223  0.14555554  1
  Co  Co114  1  0.69407801  0.52947638  0.23824334  1
  Co  Co115  1  0.54221738  0.34602411  0.55456170  1
  Co  Co116  1  0.90087121  0.70160259  0.24898941  1
  Co  Co117  1  0.11923146  0.70611790  0.11788416  1
  Co  Co118  1  0.98843188  -0.01775367  0.14936824  1
  Co  Co119  1  0.01540277  0.61426943  0.62732723  1
  Co  Co120  1  0.53640361  0.73517663  0.15986674  1
  Co  Co121  1  0.87944569  0.67884612  0.74848594  1
  Co  Co122  1  0.33269218  0.54766390  0.78663079  1
  Co  Co123  1  0.61566465  0.23642910  0.42512782  1
  Co  Co124  1  0.81770263  0.23272993  0.80140738  1
  Co  Co125  1  0.38965107  0.27291931  0.63661883  1
  Co  Co126  1  0.14983599  0.01008845  0.73369241  1
  Co  Co127  1  -0.03427019  0.17187828  0.93920304  1
  Co  Co128  1  0.27833824  0.57332894  0.06170827  1
  Co  Co129  1  0.40031917  0.82579233  0.12179399  1
  Co  Co130  1  0.06821295  0.24524305  0.22737304  1
  Co  Co131  1  0.75868823  0.51322167  0.49507660  1
  Co  Co132  1  0.75772548  0.11931276  0.68200830  1
  Co  Co133  1  -0.01697584  0.82132566  0.16377861  1
  Co  Co134  1  0.79138862  0.16609455  -0.04582982  1
  Co  Co135  1  -0.05712913  0.19332970  0.48471403  1
  Co  Co136  1  0.07170038  0.37155613  0.11218935  1
  Co  Co137  1  0.50441330  0.48233023  0.43326024  1
  Co  Co138  1  0.73916469  0.51083006  0.67213896  1
  Co  Co139  1  0.23774003  0.13785276  0.16167766  1
  Co  Co140  1  0.81493300  -0.09591181  0.50470573  1
  Co  Co141  1  0.12968082  -0.11531309  0.23091421  1
  Co  Co142  1  0.82797161  -0.02430502  0.67037748  1
  Co  Co143  1  0.94233764  0.36210475  0.52863407  1
  Co  Co144  1  -0.07386652  0.35682916  0.70658596  1
  Co  Co145  1  0.29978546  0.53440480  0.63107027  1
  Co  Co146  1  -0.02340753  0.76645400  0.89102468  1
  Co  Co147  1  -0.06054652  0.43706532  0.86529679  1
  Co  Co148  1  0.55114841  0.88815470  0.09770506  1
  Co  Co149  1  0.80890912  0.84795734  0.25885637  1
  Co  Co150  1  0.70488571  0.77954098  0.50279502  1
  Co  Co151  1  0.11113905  -0.03463894  0.56464080  1
  Co  Co152  1  0.65999335  0.76515316  0.34918302  1
  Co  Co153  1  0.20946411  0.30505906  0.15735886  1
  Co  Co154  1  0.79516873  0.81485440  0.64225807  1
  Co  Co155  1  0.48210894  0.09387806  -0.06651638  1
  Co  Co156  1  0.34897046  0.30896119  -0.12290445  1
  Co  Co157  1  0.59295409  0.47890279  0.96143985  1
  Co  Co158  1  0.91784026  0.73420174  0.56517358  1
  Co  Co159  1  0.70686129  0.08736059  0.82845537  1
  Co  Co160  1  0.06205473  0.62272957  -0.03366937  1
  Co  Co161  1  0.10787172  0.47092860  -0.06038357  1
  Ni  Ni162  1  0.43687840  0.56511545  0.00076414  1
  Ni  Ni163  1  0.52459828  0.85282664  0.28756385  1
  Ni  Ni164  1  0.61095022  0.61191344  0.71499768  1
  Ni  Ni165  1  0.11508808  0.81352977  0.77679931  1
  Ni  Ni166  1  0.00240656  0.82784517  0.44012228  1
  Ni  Ni167  1  0.46252353  0.78107848  0.59164517  1
  Ni  Ni168  1  0.27967990  0.88160067  -0.00315756  1
  Ni  Ni169  1  0.52893308  0.19383341  0.63087601  1
  Ni  Ni170  1  0.74116163  0.35618048  0.26215133  1
  Ni  Ni171  1  0.61088910  0.00558667  0.01416247  1
  Ni  Ni172  1  0.29821311  0.00178983  0.66993358  1
  Ni  Ni173  1  0.26561259  0.87168920  0.34443718  1
  Ni  Ni174  1  0.14715673  0.27315512  0.69525627  1
  Ni  Ni175  1  0.46082651  -0.05282559  0.55960092  1
  Ni  Ni176  1  0.26109431  0.22895144  0.01566370  1
  Ni  Ni177  1  0.21478454  0.86045495  0.65331112  1
  Ni  Ni178  1  0.08956102  0.26022238  0.53444301  1
  Ni  Ni179  1  0.30201878  0.31171924  0.41125435  1
  Ni  Ni180  1  0.64991171  0.76916154  0.87302423  1
  Ni  Ni181  1  0.77788872  0.48366987  -0.06274280  1
  Ni  Ni182  1  0.16996696  0.52829281  0.73474419  1
  Ni  Ni183  1  0.25092228  0.03985418  0.33279814  1
  Ni  Ni184  1  0.47961125  0.38209303  0.72233774  1
  Ni  Ni185  1  -0.00998488  -0.00434953  0.72017334  1
  Ni  Ni186  1  0.68509732  0.08683551  0.38616694  1
  Ni  Ni187  1  0.28578937  0.45949440  0.17682839  1
  Ni  Ni188  1  0.69113929  0.33393564  -0.06330141  1
  Ni  Ni189  1  0.16473110  0.55683209  0.38177323  1
  Ni  Ni190  1  0.82171800  0.77550154  0.10836840  1
  Ni  Ni191  1  0.37814279  0.60941896  0.32284086  1
  Ni  Ni192  1  0.32123096  0.13589123  0.89482021  1
  Ni  Ni193  1  -0.03906346  0.09934760  0.26120799  1
  Ni  Ni194  1  0.37214681  0.11062238  0.07467550  1
  Ni  Ni195  1  0.34715781  0.13544774  0.42276919  1
  Ni  Ni196  1  0.30841345  0.55956468  0.47023750  1
  Ni  Ni197  1  0.17075288  0.81222067  0.48885216  1
  Ni  Ni198  1  0.52947785  -0.08239452  0.70705703  1
  Ni  Ni199  1  0.67911486  0.62440460  -0.04288086  1
  Ni  Ni200  1  0.53555678  0.32659118  0.88193982  1
  Ni  Ni201  1  0.38226725  0.80924177  0.44548674  1
  Ni  Ni202  1  0.03600776  0.46832764  0.43015656  1
  Ni  Ni203  1  0.82668300  0.59435755  0.36085852  1
  Ni  Ni204  1  0.08056280  0.39906319  0.78940163  1
  Ni  Ni205  1  0.40586941  0.86324718  0.87257319  1
  Ni  Ni206  1  0.88204266  -0.08146399  0.85882721  1
  Ni  Ni207  1  0.84522683  0.12092079  0.37297149  1
  Ni  Ni208  1  0.04627405  0.03410709  0.00228976  1
  Ni  Ni209  1  -0.05450547  0.25962574  0.08642604  1
  Ni  Ni210  1  0.39397783  0.70501648  0.81818115  1
  Ni  Ni211  1  0.07378332  0.14958098  0.37369748  1
  Ni  Ni212  1  0.00870302  0.57395398  0.30743917  1
  Ni  Ni213  1  -0.01090645  0.41062174  0.25384139  1
  Ni  Ni214  1  0.52339369  0.12860815  0.33818999  1
