# generated using pymatgen
data_Ti108Co54Ni53
_symmetry_space_group_name_H-M   'P 1'
_cell_length_a   14.63926282
_cell_length_b   14.64220699
_cell_length_c   14.64563779
_cell_angle_alpha   90.13032432
_cell_angle_beta   89.94442373
_cell_angle_gamma   90.18169125
_symmetry_Int_Tables_number   1
_chemical_formula_structural   Ti108Co54Ni53
_chemical_formula_sum   'Ti108 Co54 Ni53'
_cell_volume   3139.28344923
_cell_formula_units_Z   1
loop_
 _symmetry_equiv_pos_site_id
 _symmetry_equiv_pos_as_xyz
  1  'x, y, z'
loop_
 _atom_site_type_symbol
 _atom_site_label
 _atom_site_symmetry_multiplicity
 _atom_site_fract_x
 _atom_site_fract_y
 _atom_site_fract_z
 _atom_site_occupancy
  Ti  Ti0  1  0.08836649  0.10517581  0.34298520  1
  Ti  Ti1  1  0.13955212  0.08372158  0.52599377  1
  Ti  Ti2  1  0.09150757  0.04485033  0.96179456  1
  Ti  Ti3  1  0.02929833  0.34633094  0.22344587  1
  Ti  Ti4  1  0.07419977  0.46526806  0.57301453  1
  Ti  Ti5  1  0.13797567  0.38393217  0.95578132  1
  Ti  Ti6  1  0.03496033  0.72419475  0.26692572  1
  Ti  Ti7  1  0.04686455  0.80614482  0.62774066  1
  Ti  Ti8  1  0.15199330  0.71888811  0.93099947  1
  Ti  Ti9  1  0.41387950  0.11620894  0.20626685  1
  Ti  Ti10  1  0.34374625  0.10095080  0.54226452  1
  Ti  Ti11  1  0.50944924  0.11747811  0.87667243  1
  Ti  Ti12  1  0.46014042  0.44768744  0.22061091  1
  Ti  Ti13  1  0.42436360  0.38337733  0.56174434  1
  Ti  Ti14  1  0.44083220  0.30702922  0.89236756  1
  Ti  Ti15  1  0.46436184  0.65492004  0.26626238  1
  Ti  Ti16  1  0.41749481  0.77194875  0.56261547  1
  Ti  Ti17  1  0.44372803  0.83480664  0.88352071  1
  Ti  Ti18  1  0.74132842  0.09555408  0.30711743  1
  Ti  Ti19  1  0.75602972  0.18055473  0.61424194  1
  Ti  Ti20  1  0.80043493  0.02415459  0.89533320  1
  Ti  Ti21  1  0.73586204  0.38977402  0.27515521  1
  Ti  Ti22  1  0.73192153  0.44278172  0.61103498  1
  Ti  Ti23  1  0.75729996  0.40282164  0.98603783  1
  Ti  Ti24  1  0.75841832  0.74970454  0.20578745  1
  Ti  Ti25  1  0.71974618  0.78570565  0.54500427  1
  Ti  Ti26  1  0.76790126  0.75778317  0.83992753  1
  Ti  Ti27  1  0.12732456  0.21334705  0.09493773  1
  Ti  Ti28  1  0.11261062  0.27129587  0.47244529  1
  Ti  Ti29  1  0.03800347  0.26280467  0.79201504  1
  Ti  Ti30  1  0.04656815  0.65492554  0.09131043  1
  Ti  Ti31  1  0.09683025  0.56994245  0.37926255  1
  Ti  Ti32  1  0.07701237  0.59468123  0.74663384  1
  Ti  Ti33  1  -0.01082533  0.90378163  0.08510593  1
  Ti  Ti34  1  0.10491044  0.89036161  0.40151330  1
  Ti  Ti35  1  0.11981673  0.95297101  0.74007251  1
  Ti  Ti36  1  0.44783420  0.29153005  0.10507464  1
  Ti  Ti37  1  0.46819969  0.22184815  0.42462393  1
  Ti  Ti38  1  0.37274422  0.19386744  0.70374459  1
  Ti  Ti39  1  0.39730151  0.61849618  0.09353051  1
  Ti  Ti40  1  0.33516432  0.67357604  0.42202295  1
  Ti  Ti41  1  0.39124322  0.64393266  0.81550234  1
  Ti  Ti42  1  0.37695377  0.83557824  0.07225665  1
  Ti  Ti43  1  0.40606070  0.94314787  0.46821248  1
  Ti  Ti44  1  0.38257241  0.99994132  0.77661950  1
  Ti  Ti45  1  0.71345317  0.23837977  0.12114038  1
  Ti  Ti46  1  0.83539508  0.24107014  0.44604765  1
  Ti  Ti47  1  0.81438833  0.18795561  0.80040440  1
  Ti  Ti48  1  0.70279787  0.59391110  0.06927372  1
  Ti  Ti49  1  0.79211123  0.52299115  0.42226256  1
  Ti  Ti50  1  0.71455375  0.59754085  0.72933587  1
  Ti  Ti51  1  0.79639091  0.91784573  0.09217733  1
  Ti  Ti52  1  0.66817332  0.97216304  0.44235270  1
  Ti  Ti53  1  0.70790412  0.91554850  0.74518841  1
  Ti  Ti54  1  0.28359379  0.08380448  0.00548597  1
  Ti  Ti55  1  0.27621038  0.18802681  0.37053569  1
  Ti  Ti56  1  0.19823222  0.12621025  0.80979533  1
  Ti  Ti57  1  0.32732625  0.39916823  0.03075283  1
  Ti  Ti58  1  0.22441232  0.39728644  0.41654178  1
  Ti  Ti59  1  0.24074418  0.47719312  0.74629598  1
  Ti  Ti60  1  0.23488212  0.70330446  0.12158792  1
  Ti  Ti61  1  0.17265407  0.72677220  0.49444503  1
  Ti  Ti62  1  0.25435697  0.73874299  0.67270628  1
  Ti  Ti63  1  0.55848268  0.10569007  0.06361244  1
  Ti  Ti64  1  0.51900240  -0.03091686  0.30086129  1
  Ti  Ti65  1  0.64504690  0.09795660  0.75921505  1
  Ti  Ti66  1  0.56258334  0.44299867  -0.01279785  1
  Ti  Ti67  1  0.57408344  0.39032417  0.39437496  1
  Ti  Ti68  1  0.56646972  0.41109356  0.76474057  1
  Ti  Ti69  1  0.57956821  0.72899744  0.12512132  1
  Ti  Ti70  1  0.55498410  0.69176235  0.43272219  1
  Ti  Ti71  1  0.57643095  0.75285912  0.73970680  1
  Ti  Ti72  1  0.91436676  0.14235055  0.07009947  1
  Ti  Ti73  1  0.84121855  0.05011764  0.50339409  1
  Ti  Ti74  1  0.98262514  0.06889353  0.79908254  1
  Ti  Ti75  1  0.97175557  0.44576924  0.06103161  1
  Ti  Ti76  1  0.94728169  0.41028526  0.42333543  1
  Ti  Ti77  1  0.90675475  0.50075501  0.73710233  1
  Ti  Ti78  1  0.84865194  0.72671355  0.01366915  1
  Ti  Ti79  1  0.87021251  0.70333319  0.37670208  1
  Ti  Ti80  1  0.95995790  0.73853890  0.80520787  1
  Ti  Ti81  1  0.29980460  0.33556238  0.23722517  1
  Ti  Ti82  1  0.19958490  0.27030296  0.64817912  1
  Ti  Ti83  1  0.25111362  0.30634582  0.83146628  1
  Ti  Ti84  1  0.30455677  0.54242417  0.30207330  1
  Ti  Ti85  1  0.32788554  0.57125313  0.61053103  1
  Ti  Ti86  1  0.25436791  0.55822638  0.95274395  1
  Ti  Ti87  1  0.32523867  0.91094879  0.27452711  1
  Ti  Ti88  1  0.21512650  0.91643664  0.55899975  1
  Ti  Ti89  1  0.20952263  0.88057271  0.99228385  1
  Ti  Ti90  1  0.56165453  0.24816565  0.24341788  1
  Ti  Ti91  1  0.55780836  0.20566485  0.60259769  1
  Ti  Ti92  1  0.65942854  0.28253071  0.86738735  1
  Ti  Ti93  1  0.62326714  0.55597411  0.26794489  1
  Ti  Ti94  1  0.55792066  0.52479570  0.61764833  1
  Ti  Ti95  1  0.56738846  0.66707673  0.93790898  1
  Ti  Ti96  1  0.61536335  0.81270734  0.30149650  1
  Ti  Ti97  1  0.55479226  0.91197477  0.62117725  1
  Ti  Ti98  1  0.62344743  0.95953999  0.95102461  1
  Ti  Ti99  1  0.85818761  0.23545636  0.25236696  1
  Ti  Ti100  1  0.87450968  0.32895517  0.64726011  1
  Ti  Ti101  1  0.88140649  0.34728846  0.86345676  1
  Ti  Ti102  1  0.88878201  0.60081229  0.16269086  1
  Ti  Ti103  1  0.89911921  0.66034576  0.61012567  1
  Ti  Ti104  1  0.99112130  0.59083455  0.92266267  1
  Ti  Ti105  1  0.88952750  0.92275022  0.30870959  1
  Ti  Ti106  1  0.90582881  0.86609532  0.51461525  1
  Ti  Ti107  1  0.90998463  0.91088333  0.73520886  1
  Co  Co108  1  0.81377468  0.04470034  0.71360296  1
  Co  Co109  1  0.74368118  0.37136970  0.45643850  1
  Co  Co110  1  0.52460225  0.23952528  0.75973793  1
  Co  Co111  1  0.62699668  0.52891645  0.46395851  1
  Co  Co112  1  0.17057700  0.61013930  0.23026020  1
  Co  Co113  1  0.75250267  0.61311521  0.55371616  1
  Co  Co114  1  -0.06167485  0.56300256  0.32412047  1
  Co  Co115  1  0.42903809  0.49962009  0.72863160  1
  Co  Co116  1  0.24609108  0.41338396  0.58173703  1
  Co  Co117  1  0.91073536  0.10100210  0.34914668  1
  Co  Co118  1  0.76926909  0.46047617  0.13151500  1
  Co  Co119  1  0.67361522  0.13318834  0.93531125  1
  Co  Co120  1  0.48108333  0.52669955  0.37072418  1
  Co  Co121  1  0.15242404  0.26376385  0.28593318  1
  Co  Co122  1  -0.00879573  0.30087490  -0.01427463  1
  Co  Co123  1  0.45915123  0.65718785  0.67163824  1
  Co  Co124  1  0.41893080  0.81507128  0.72102158  1
  Co  Co125  1  0.72982245  -0.06369443  0.25909864  1
  Co  Co126  1  0.77303265  -0.07026689  0.59395866  1
  Co  Co127  1  0.33299116  0.70860065  -0.03095687  1
  Co  Co128  1  0.34865485  0.44059729  0.86197763  1
  Co  Co129  1  0.55427692  0.86076118  0.46512651  1
  Co  Co130  1  0.62145922  0.81561279  0.87998861  1
  Co  Co131  1  0.11258492  0.20258178  -0.07164454  1
  Co  Co132  1  0.53783902  -0.05437492  0.79300966  1
  Co  Co133  1  0.46237592  0.59867105  0.51609622  1
  Co  Co134  1  0.75859739  0.42563010  0.77979976  1
  Co  Co135  1  0.41741917  0.17132084  0.01249277  1
  Co  Co136  1  0.17588669  0.36149221  0.12193684  1
  Co  Co137  1  0.32625904  0.73097920  0.25197688  1
  Co  Co138  1  0.20336063  0.55995977  0.50084844  1
  Co  Co139  1  0.11226469  0.80630685  0.10495787  1
  Co  Co140  1  0.69852490  0.78618795  0.02541644  1
  Co  Co141  1  0.53325473  0.84248567  0.02194211  1
  Co  Co142  1  0.23828687  0.06209872  0.66280823  1
  Co  Co143  1  0.34971794  0.15866210  0.86448317  1
  Co  Co144  1  -0.06487775  0.00747945  -0.02438839  1
  Co  Co145  1  0.69081525  0.25010554  0.33920581  1
  Co  Co146  1  0.39434496  0.35944648  0.37185754  1
  Co  Co147  1  0.39975484  0.07364444  0.36453479  1
  Co  Co148  1  0.55718469  0.58246580  0.79629114  1
  Co  Co149  1  0.68411097  0.28950702  0.70586875  1
  Co  Co150  1  0.56621476  0.11962664  0.34344456  1
  Co  Co151  1  0.65998485  0.04307790  0.60239286  1
  Co  Co152  1  -0.04060551  0.58583301  0.47586300  1
  Co  Co153  1  0.03532451  0.52717166  0.20554657  1
  Co  Co154  1  0.82740516  0.78812524  0.67714884  1
  Co  Co155  1  -0.05851597  0.16779464  0.90941668  1
  Co  Co156  1  0.29328064  0.20867488  0.13771504  1
  Co  Co157  1  0.77728923  0.57570643  0.26313341  1
  Co  Co158  1  0.36913631  0.35282741  0.71174686  1
  Co  Co159  1  0.88448882  0.48373633  0.57027805  1
  Co  Co160  1  0.26704634  0.25197530  -0.01749136  1
  Co  Co161  1  0.86207502  0.05043409  0.19730843  1
  Ni  Ni162  1  0.07318685  0.63513021  0.58637205  1
  Ni  Ni163  1  0.13702706  0.51690928  0.06784636  1
  Ni  Ni164  1  0.30967186  0.26669483  0.51855946  1
  Ni  Ni165  1  0.60965182  0.39371463  0.14885795  1
  Ni  Ni166  1  0.01074582  0.74697798  0.45842518  1
  Ni  Ni167  1  0.28295194  0.79891753  0.83830147  1
  Ni  Ni168  1  0.12537067  0.78493960  0.77722903  1
  Ni  Ni169  1  -0.01812582  0.16078185  0.50664192  1
  Ni  Ni170  1  0.27998640  0.50591116  0.14571138  1
  Ni  Ni171  1  0.67552032  0.14415370  0.46872859  1
  Ni  Ni172  1  0.24615068  0.01128501  0.40585462  1
  Ni  Ni173  1  0.46511913  0.82386045  0.20939958  1
  Ni  Ni174  1  0.68342010  0.52795774  0.89367411  1
  Ni  Ni175  1  0.87954794  0.86498925  -0.08494656  1
  Ni  Ni176  1  0.43999984  -0.01168272  -0.03191312  1
  Ni  Ni177  1  0.23823286  -0.03006215  0.86081267  1
  Ni  Ni178  1  0.03082126  0.28736234  0.61554668  1
  Ni  Ni179  1  0.80212113  0.23268889  -0.02511076  1
  Ni  Ni180  1  0.16449593  0.44520840  0.26505810  1
  Ni  Ni181  1  -0.08508020  0.78396513  0.17473125  1
  Ni  Ni182  1  -0.00574569  0.00253857  0.44571052  1
  Ni  Ni183  1  0.43360888  0.80630617  0.36796002  1
  Ni  Ni184  1  0.01527633  0.44102030  0.86761173  1
  Ni  Ni185  1  0.52383947  0.06065424  0.49462097  1
  Ni  Ni186  1  0.60021469  0.35969636  0.55725302  1
  Ni  Ni187  1  0.08611884  0.13343564  0.67586184  1
  Ni  Ni188  1  0.01492367  -0.01825370  0.60705246  1
  Ni  Ni189  1  0.61674914  0.05977869  0.20317747  1
  Ni  Ni190  1  0.76090015  0.83284418  0.38528789  1
  Ni  Ni191  1  0.92500607  0.16475986  0.66628372  1
  Ni  Ni192  1  0.84919580  0.54814891  0.00281927  1
  Ni  Ni193  1  0.47040530  -0.02917550  0.13216842  1
  Ni  Ni194  1  0.73435864  0.07002634  0.07706981  1
  Ni  Ni195  1  0.00402004  0.77003521  -0.02441826  1
  Ni  Ni196  1  0.43870805  0.54469070  -0.05082678  1
  Ni  Ni197  1  0.87220045  0.31758766  0.10682257  1
  Ni  Ni198  1  0.54514661  0.55468151  0.11322199  1
  Ni  Ni199  1  0.34859606  0.49692715  0.46104225  1
  Ni  Ni200  1  0.83463027  0.60349758  0.85100691  1
  Ni  Ni201  1  0.60166176  0.68039851  0.59025204  1
  Ni  Ni202  1  0.04373033  0.89914620  0.88464272  1
  Ni  Ni203  1  0.00843169  0.16669194  0.21521314  1
  Ni  Ni204  1  0.70667395  0.66980887  0.38063526  1
  Ni  Ni205  1  0.63076202  0.90789848  0.13337009  1
  Ni  Ni206  1  0.49363314  0.06281672  0.66494050  1
  Ni  Ni207  1  0.27555724  0.89957499  0.70848082  1
  Ni  Ni208  1  0.18374150  0.74767679  0.32524010  1
  Ni  Ni209  1  0.58759251  0.27133987  0.01793816  1
  Ni  Ni210  1  0.08996816  0.40850726  0.72792002  1
  Ni  Ni211  1  0.89087429  0.43472546  0.23688987  1
  Ni  Ni212  1  0.22385932  0.64197483  0.80221001  1
  Ni  Ni213  1  0.27860772  0.84098295  0.42245815  1
  Ni  Ni214  1  -0.00957441  0.24913483  0.36245699  1
