# generated using pymatgen
data_Ti108Co54Ni53
_symmetry_space_group_name_H-M   'P 1'
_cell_length_a   14.65243849
_cell_length_b   14.60159415
_cell_length_c   14.66109158
_cell_angle_alpha   90.34651005
_cell_angle_beta   90.10772728
_cell_angle_gamma   90.11367199
_symmetry_Int_Tables_number   1
_chemical_formula_structural   Ti108Co54Ni53
_chemical_formula_sum   'Ti108 Co54 Ni53'
_cell_volume   3136.65614680
_cell_formula_units_Z   1
loop_
 _symmetry_equiv_pos_site_id
 _symmetry_equiv_pos_as_xyz
  1  'x, y, z'
loop_
 _atom_site_type_symbol
 _atom_site_label
 _atom_site_symmetry_multiplicity
 _atom_site_fract_x
 _atom_site_fract_y
 _atom_site_fract_z
 _atom_site_occupancy
  Ti  Ti0  1  0.06243277  0.10844770  0.25715434  1
  Ti  Ti1  1  0.01703601  0.10683576  0.59641391  1
  Ti  Ti2  1  0.12121884  0.08731757  0.91682501  1
  Ti  Ti3  1  0.17465557  0.38833713  0.25969401  1
  Ti  Ti4  1  0.03226565  0.45515698  0.58805278  1
  Ti  Ti5  1  0.15881221  0.44157691  0.94502341  1
  Ti  Ti6  1  0.08056815  0.71891988  0.19696705  1
  Ti  Ti7  1  0.12125934  0.81436893  0.60128452  1
  Ti  Ti8  1  0.20323549  0.80556651  0.93673827  1
  Ti  Ti9  1  0.43835142  0.03812591  0.21208438  1
  Ti  Ti10  1  0.45476421  0.06991007  0.57903131  1
  Ti  Ti11  1  0.43575359  0.04562602  0.94240756  1
  Ti  Ti12  1  0.39267633  0.39806543  0.29478652  1
  Ti  Ti13  1  0.43740262  0.46889989  0.58181628  1
  Ti  Ti14  1  0.47144898  0.40605137  1.03012714  1
  Ti  Ti15  1  0.40504445  0.81914491  0.27588536  1
  Ti  Ti16  1  0.32398685  0.72385627  0.59507712  1
  Ti  Ti17  1  0.46750406  0.72702329  0.87742364  1
  Ti  Ti18  1  0.76561010  0.03475897  0.18844502  1
  Ti  Ti19  1  0.67714722  0.08416869  0.61917382  1
  Ti  Ti20  1  0.77700235  0.12312495  0.89339510  1
  Ti  Ti21  1  0.72155321  0.41514271  0.24013536  1
  Ti  Ti22  1  0.76790701  0.38862740  0.60414797  1
  Ti  Ti23  1  0.65369522  0.42105946  0.94361109  1
  Ti  Ti24  1  0.79805642  0.81849631  0.13571902  1
  Ti  Ti25  1  0.69002547  0.77168175  0.60868821  1
  Ti  Ti26  1  0.70192111  0.72196126  0.92821223  1
  Ti  Ti27  1  0.08477192  0.26074759  0.10843153  1
  Ti  Ti28  1  0.05285240  0.22236450  0.44501116  1
  Ti  Ti29  1  0.06784055  0.20920982  0.76324370  1
  Ti  Ti30  1  0.01795153  0.54917754  0.09657798  1
  Ti  Ti31  1  0.10882216  0.56235221  0.40399718  1
  Ti  Ti32  1  0.09046326  0.54038987  0.76094962  1
  Ti  Ti33  1  -0.01849251  0.85518439  0.08679326  1
  Ti  Ti34  1  -0.00677726  0.93961490  0.49486418  1
  Ti  Ti35  1  0.12149157  0.90589164  0.77939559  1
  Ti  Ti36  1  0.42716502  0.25185253  0.16074019  1
  Ti  Ti37  1  0.39216897  0.18692691  0.35529907  1
  Ti  Ti38  1  0.42419853  0.29075613  0.72019664  1
  Ti  Ti39  1  0.35911346  0.59349312  0.03380048  1
  Ti  Ti40  1  0.32341413  0.62783018  0.43278821  1
  Ti  Ti41  1  0.38485599  0.60667536  0.74000198  1
  Ti  Ti42  1  0.43833911  0.87281067  0.09721084  1
  Ti  Ti43  1  0.37975893  0.98738470  0.38929454  1
  Ti  Ti44  1  0.37783530  0.97069043  0.74621033  1
  Ti  Ti45  1  0.79536604  0.32151463  0.05994000  1
  Ti  Ti46  1  0.81159086  0.29549104  0.42391579  1
  Ti  Ti47  1  0.75748782  0.25317286  0.72428787  1
  Ti  Ti48  1  0.78363219  0.54360464  0.08853887  1
  Ti  Ti49  1  0.76044711  0.52687906  0.46184161  1
  Ti  Ti50  1  0.73909870  0.56389328  0.66315589  1
  Ti  Ti51  1  0.84155984  0.96657385  0.00579306  1
  Ti  Ti52  1  0.78828421  0.90686088  0.48572978  1
  Ti  Ti53  1  0.77322330  0.85272336  0.78948569  1
  Ti  Ti54  1  0.18558258  0.06318694  0.10959521  1
  Ti  Ti55  1  0.18484827  0.05149215  0.47519549  1
  Ti  Ti56  1  0.22883161  0.09094904  0.74234605  1
  Ti  Ti57  1  0.29020746  0.37710405  0.08347505  1
  Ti  Ti58  1  0.15261907  0.37316035  0.46611920  1
  Ti  Ti59  1  0.27956424  0.44536501  0.76596020  1
  Ti  Ti60  1  0.26770969  0.75090947  0.12803712  1
  Ti  Ti61  1  0.22154639  0.75084266  0.33073286  1
  Ti  Ti62  1  0.30085798  0.78428110  0.77449648  1
  Ti  Ti63  1  0.67659565  0.12027283  0.05120090  1
  Ti  Ti64  1  0.56764301  0.07474989  0.41478167  1
  Ti  Ti65  1  0.51901208  0.10357216  0.75583978  1
  Ti  Ti66  1  0.61479196  0.29357666  0.09975025  1
  Ti  Ti67  1  0.58556071  0.42152080  0.40333650  1
  Ti  Ti68  1  0.60207560  0.39062252  0.73976750  1
  Ti  Ti69  1  0.55189125  0.71981920  0.05904597  1
  Ti  Ti70  1  0.54317614  0.77811570  0.48081796  1
  Ti  Ti71  1  0.50010423  0.75557377  0.68660124  1
  Ti  Ti72  1  0.99134388  0.06843387  0.06427544  1
  Ti  Ti73  1  0.87703714  0.02891385  0.35188651  1
  Ti  Ti74  1  0.87019328  0.10388943  0.71998853  1
  Ti  Ti75  1  0.97276752  0.38234651  0.02905958  1
  Ti  Ti76  1  0.99542224  0.40860175  0.36617293  1
  Ti  Ti77  1  0.89036005  0.49289760  0.76253392  1
  Ti  Ti78  1  1.05008100  0.71727516  -0.00658263  1
  Ti  Ti79  1  0.88950131  0.74707911  0.39936314  1
  Ti  Ti80  1  0.86345997  0.71703837  0.68050270  1
  Ti  Ti81  1  0.24526071  0.22299328  0.22293862  1
  Ti  Ti82  1  0.29824540  0.28141525  0.55962790  1
  Ti  Ti83  1  0.24528321  0.26804757  0.88802833  1
  Ti  Ti84  1  0.29650947  0.58934351  0.22870935  1
  Ti  Ti85  1  0.20855818  0.55829292  0.58439853  1
  Ti  Ti86  1  0.24211865  0.62260143  0.88929542  1
  Ti  Ti87  1  0.17920293  0.94858907  0.31287469  1
  Ti  Ti88  1  0.27122704  0.87653226  0.49501388  1
  Ti  Ti89  1  0.28290089  0.94617801  1.01696948  1
  Ti  Ti90  1  0.59724193  0.15671905  0.24113590  1
  Ti  Ti91  1  0.63455446  0.25017641  0.50421933  1
  Ti  Ti92  1  0.53611201  0.23725470  0.91907608  1
  Ti  Ti93  1  0.53184547  0.54709958  0.23796378  1
  Ti  Ti94  1  0.56452089  0.57999230  0.67813388  1
  Ti  Ti95  1  0.53376156  0.55420178  0.87969811  1
  Ti  Ti96  1  0.59806862  0.93946994  0.22207146  1
  Ti  Ti97  1  0.57779446  0.92455679  0.66110619  1
  Ti  Ti98  1  0.66999150  0.93293204  0.93907917  1
  Ti  Ti99  1  0.89438911  0.29473372  0.23913999  1
  Ti  Ti100  1  0.93240746  0.28405462  0.60173815  1
  Ti  Ti101  1  0.89815878  0.29154653  0.85887384  1
  Ti  Ti102  1  0.93392263  0.58150970  0.26388394  1
  Ti  Ti103  1  1.01396498  0.66034792  0.55059861  1
  Ti  Ti104  1  0.89773173  0.57936419  0.94318256  1
  Ti  Ti105  1  1.00039773  0.87993186  0.30090869  1
  Ti  Ti106  1  0.93226405  0.92432630  0.67738093  1
  Ti  Ti107  1  0.97093902  0.86015408  0.87322065  1
  Co  Co108  1  0.30049362  0.01881909  0.59496654  1
  Co  Co109  1  0.87296440  0.44443192  0.16772786  1
  Co  Co110  1  0.24811445  0.88939559  0.67009550  1
  Co  Co111  1  0.73272660  0.09166501  0.46578148  1
  Co  Co112  1  0.19790539  0.40562088  0.63440056  1
  Co  Co113  1  -0.00145165  0.43367823  0.87829371  1
  Co  Co114  1  0.43141197  0.68469433  0.16675995  1
  Co  Co115  1  0.27949503  0.10958298  -0.06393107  1
  Co  Co116  1  -0.07911269  0.75261431  0.23611308  1
  Co  Co117  1  0.18651401  0.15507634  0.59958068  1
  Co  Co118  1  0.03829061  0.06023758  0.40310747  1
  Co  Co119  1  0.52930354  0.25772774  0.36915035  1
  Co  Co120  1  0.72524692  0.27659077  -0.07949901  1
  Co  Co121  1  0.38964840  0.24333666  -0.01274681  1
  Co  Co122  1  0.06948976  0.27292007  -0.07822455  1
  Co  Co123  1  0.48499021  0.37924320  0.87097168  1
  Co  Co124  1  0.36837458  0.75860699  0.00106052  1
  Co  Co125  1  0.13558989  0.36780501  0.79108415  1
  Co  Co126  1  -0.06562466  0.80027037  0.55515552  1
  Co  Co127  1  0.04130143  0.69857863  0.35762371  1
  Co  Co128  1  0.12520275  0.72282801  0.82043009  1
  Co  Co129  1  0.02509657  0.04270059  0.76729729  1
  Co  Co130  1  0.14354372  0.43804729  0.10556846  1
  Co  Co131  1  -0.00689497  0.36631216  0.72653474  1
  Co  Co132  1  0.83083857  0.43082558  -0.06169115  1
  Co  Co133  1  0.47219562  -0.07228843  0.50426221  1
  Co  Co134  1  0.63053641  0.45836333  0.11342523  1
  Co  Co135  1  0.40185054  0.48419129  0.15882845  1
  Co  Co136  1  0.22557112  0.63356246  0.72307567  1
  Co  Co137  1  0.24813686  0.26184870  0.72207833  1
  Co  Co138  1  0.02095627  0.41249290  0.20450129  1
  Co  Co139  1  0.38983359  0.79029599  0.43412186  1
  Co  Co140  1  0.52731239  0.90267275  0.35760518  1
  Co  Co141  1  0.06678884  0.27073268  0.28470462  1
  Co  Co142  1  0.69302636  0.54472890  0.83419806  1
  Co  Co143  1  0.45022421  0.45970281  0.74412433  1
  Co  Co144  1  0.84491724  0.45541427  0.33654609  1
  Co  Co145  1  0.32747870  0.13647927  0.48968191  1
  Co  Co146  1  0.09481049  -0.06584114  -0.03122122  1
  Co  Co147  1  0.74917550  0.21638697  0.17810500  1
  Co  Co148  1  0.51220252  0.15434240  0.06847750  1
  Co  Co149  1  0.19405633  0.17946664  0.37200033  1
  Co  Co150  1  0.07514680  0.57810332  -0.07984732  1
  Co  Co151  1  0.09660622  0.28466225  0.61029642  1
  Co  Co152  1  0.24691534  -0.03813264  0.85534347  1
  Co  Co153  1  0.85663254  0.03762930  0.56567518  1
  Co  Co154  1  0.63431337  0.94438520  0.50677788  1
  Co  Co155  1  0.51398360  0.56277457  0.07457973  1
  Co  Co156  1  0.15228380  0.85201336  0.09248612  1
  Co  Co157  1  0.59620476  0.07411807  -0.08465383  1
  Co  Co158  1  0.08069546  -0.03943331  0.17577709  1
  Co  Co159  1  0.40100470  0.86744213  0.62259873  1
  Co  Co160  1  0.52849619  0.85865600  -0.03525085  1
  Co  Co161  1  0.75344722  0.93471531  0.64745204  1
  Ni  Ni162  1  0.46264699  0.63598062  0.53919096  1
  Ni  Ni163  1  0.64578820  0.18432749  0.80455746  1
  Ni  Ni164  1  0.86940355  -0.01135133  0.83889433  1
  Ni  Ni165  1  0.82111686  0.87618191  0.29870437  1
  Ni  Ni166  1  0.10892039  0.83869329  0.42832790  1
  Ni  Ni167  1  0.01153640  0.77471395  0.71131287  1
  Ni  Ni168  1  0.69194276  0.01759639  0.78036952  1
  Ni  Ni169  1  0.70084879  -0.01074041  0.34557223  1
  Ni  Ni170  1  0.28993417  0.92078027  0.18981471  1
  Ni  Ni171  1  0.91334886  -0.03154795  0.18500076  1
  Ni  Ni172  1  0.44879444  0.66600648  0.33343082  1
  Ni  Ni173  1  0.52383322  -0.05055684  0.82512667  1
  Ni  Ni174  1  0.89857263  0.67779333  0.09326192  1
  Ni  Ni175  1  0.25186462  0.49390229  0.35327231  1
  Ni  Ni176  1  0.28300216  0.31651904  0.38218148  1
  Ni  Ni177  1  -0.06752274  0.57170562  0.43336910  1
  Ni  Ni178  1  0.81337065  0.65496787  0.82115681  1
  Ni  Ni179  1  0.84608679  0.15224361  0.04588405  1
  Ni  Ni180  1  0.80799457  0.67716292  0.52442275  1
  Ni  Ni181  1  0.35088878  0.09991912  0.08852051  1
  Ni  Ni182  1  0.38243204  0.87985976  0.89350417  1
  Ni  Ni183  1  -0.09433492  0.13733466  0.19991822  1
  Ni  Ni184  1  0.23592791  0.21784923  0.05201065  1
  Ni  Ni185  1  0.55283099  -0.00211903  0.06607764  1
  Ni  Ni186  1  0.30021942  0.44817923  0.49562709  1
  Ni  Ni187  1  0.75804845  0.39939673  0.79582216  1
  Ni  Ni188  1  0.43127321  0.35647604  0.45506755  1
  Ni  Ni189  1  0.64602288  0.85952506  0.08608123  1
  Ni  Ni190  1  0.63395773  0.62709788  0.52780182  1
  Ni  Ni191  1  0.67793146  0.28375871  0.32046514  1
  Ni  Ni192  1  0.60794716  0.81776543  0.81817123  1
  Ni  Ni193  1  -0.04649199  0.13491406  0.90276027  1
  Ni  Ni194  1  -0.03066683  0.68644090  0.83997457  1
  Ni  Ni195  1  0.79140109  0.20190604  0.57027029  1
  Ni  Ni196  1  0.37168570  0.16283963  0.81288830  1
  Ni  Ni197  1  0.54752964  0.36187417  0.23607033  1
  Ni  Ni198  1  0.46965779  0.22593393  0.53573777  1
  Ni  Ni199  1  0.89409596  0.42184525  0.49766907  1
  Ni  Ni200  1  0.89212559  0.55128367  0.60041669  1
  Ni  Ni201  1  0.12241985  0.55543421  0.23528894  1
  Ni  Ni202  1  0.18112998  0.60516892  0.06750147  1
  Ni  Ni203  1  0.86132907  0.77831279  -0.03387942  1
  Ni  Ni204  1  0.28207168  0.07117749  0.26771915  1
  Ni  Ni205  1  0.44358332  0.51581219  0.40599344  1
  Ni  Ni206  1  0.17313828  0.69992926  0.48701546  1
  Ni  Ni207  1  0.78123747  0.15741860  0.32396203  1
  Ni  Ni208  1  0.66915883  0.68964646  0.75528226  1
  Ni  Ni209  1  0.37041803  0.50133703  0.89560839  1
  Ni  Ni210  1  0.12367791  -0.01172869  0.62876271  1
  Ni  Ni211  1  -0.09776153  0.15322559  0.45877433  1
  Ni  Ni212  1  0.62505827  0.45722798  0.56278581  1
  Ni  Ni213  1  0.57596994  0.23642692  0.66173398  1
  Ni  Ni214  1  0.65172051  0.58611796  0.00066971  1
