# generated using pymatgen
data_Ti108Co54Ni53
_symmetry_space_group_name_H-M   'P 1'
_cell_length_a   14.69777520
_cell_length_b   14.66691563
_cell_length_c   14.64275158
_cell_angle_alpha   90.11864287
_cell_angle_beta   89.81706277
_cell_angle_gamma   89.90752463
_symmetry_Int_Tables_number   1
_chemical_formula_structural   Ti108Co54Ni53
_chemical_formula_sum   'Ti108 Co54 Ni53'
_cell_volume   3156.52602043
_cell_formula_units_Z   1
loop_
 _symmetry_equiv_pos_site_id
 _symmetry_equiv_pos_as_xyz
  1  'x, y, z'
loop_
 _atom_site_type_symbol
 _atom_site_label
 _atom_site_symmetry_multiplicity
 _atom_site_fract_x
 _atom_site_fract_y
 _atom_site_fract_z
 _atom_site_occupancy
  Ti  Ti0  1  0.10389488  0.11748881  0.17256846  1
  Ti  Ti1  1  0.13146689  0.05614220  0.58076989  1
  Ti  Ti2  1  0.07264537  0.13349464  0.96329016  1
  Ti  Ti3  1  0.06618780  0.48233741  0.26904259  1
  Ti  Ti4  1  0.13860009  0.43992905  0.57104112  1
  Ti  Ti5  1  0.07952194  0.48477356  0.94507660  1
  Ti  Ti6  1  0.06123614  0.77438862  0.21822956  1
  Ti  Ti7  1  0.06138235  0.64150774  0.59847301  1
  Ti  Ti8  1  0.13359141  0.82419729  0.88303400  1
  Ti  Ti9  1  0.32381393  0.11336426  0.26512094  1
  Ti  Ti10  1  0.45812914  0.10230207  0.56177561  1
  Ti  Ti11  1  0.43266592  -0.03226796  0.92067770  1
  Ti  Ti12  1  0.45903565  0.39535006  0.24996422  1
  Ti  Ti13  1  0.34469646  0.45882770  0.60899454  1
  Ti  Ti14  1  0.37052195  0.44964231  1.00831598  1
  Ti  Ti15  1  0.40414618  0.81794865  0.27746921  1
  Ti  Ti16  1  0.47884662  0.76527867  0.66083278  1
  Ti  Ti17  1  0.33611806  0.77080927  0.93853421  1
  Ti  Ti18  1  0.77714340  0.02162226  0.31377971  1
  Ti  Ti19  1  0.73449431  0.01010567  0.51167938  1
  Ti  Ti20  1  0.79184950  0.01346788  0.93712936  1
  Ti  Ti21  1  0.78892542  0.37752370  0.28485578  1
  Ti  Ti22  1  0.76837357  0.44345200  0.46064624  1
  Ti  Ti23  1  0.76110647  0.42416531  0.85738621  1
  Ti  Ti24  1  0.74979997  0.67983823  0.22815815  1
  Ti  Ti25  1  0.80306597  0.79211404  0.54604272  1
  Ti  Ti26  1  0.80598840  0.78258841  0.84983349  1
  Ti  Ti27  1  0.19180094  0.31892450  0.04011541  1
  Ti  Ti28  1  0.02996266  0.22226172  0.39405831  1
  Ti  Ti29  1  0.10154155  0.21633419  0.70860345  1
  Ti  Ti30  1  0.09368725  0.61130089  0.12315841  1
  Ti  Ti31  1  0.09503056  0.62593656  0.38988020  1
  Ti  Ti32  1  0.09572600  0.50898145  0.75376367  1
  Ti  Ti33  1  0.13146233  0.94773596  0.05178976  1
  Ti  Ti34  1  0.03653276  0.94299895  0.42085283  1
  Ti  Ti35  1  0.08148182  0.86344792  0.65609711  1
  Ti  Ti36  1  0.38926862  0.20017559  0.04366573  1
  Ti  Ti37  1  0.42230809  0.21858072  0.40286011  1
  Ti  Ti38  1  0.39415411  0.22689489  0.71932206  1
  Ti  Ti39  1  0.44989131  0.66730769  0.09538158  1
  Ti  Ti40  1  0.42992474  0.62341629  0.48723443  1
  Ti  Ti41  1  0.40942263  0.53263898  0.78953466  1
  Ti  Ti42  1  0.47253001  0.87454503  0.08978657  1
  Ti  Ti43  1  0.41418931  0.90512049  0.49869135  1
  Ti  Ti44  1  0.39427257  1.01682844  0.73681158  1
  Ti  Ti45  1  0.78276919  0.26151240  0.13770448  1
  Ti  Ti46  1  0.73408050  0.24223157  0.47624394  1
  Ti  Ti47  1  0.71904210  0.24840822  0.70461290  1
  Ti  Ti48  1  0.75451295  0.53813386  0.03574993  1
  Ti  Ti49  1  0.77956665  0.65581985  0.41516926  1
  Ti  Ti50  1  0.76088659  0.60622483  0.75374729  1
  Ti  Ti51  1  0.67338669  0.99112932  0.08916426  1
  Ti  Ti52  1  0.67613972  0.84838155  0.42939960  1
  Ti  Ti53  1  0.84571301  0.95548709  0.76438562  1
  Ti  Ti54  1  0.33724447  0.03408467  0.09592669  1
  Ti  Ti55  1  0.28904386  0.05642487  0.44415052  1
  Ti  Ti56  1  0.19114505  0.00598098  0.74802984  1
  Ti  Ti57  1  0.24142375  0.44676316  0.19224156  1
  Ti  Ti58  1  0.28080233  0.35526581  0.44914301  1
  Ti  Ti59  1  0.25434063  0.37598033  0.76977295  1
  Ti  Ti60  1  0.27362472  0.63370925  0.08484109  1
  Ti  Ti61  1  0.27299945  0.74843761  0.40830870  1
  Ti  Ti62  1  0.27145978  0.71214437  0.74285949  1
  Ti  Ti63  1  0.51083876  0.06606811  0.20768349  1
  Ti  Ti64  1  0.58817315  0.14042204  0.39508672  1
  Ti  Ti65  1  0.69397980  0.06419996  0.73582068  1
  Ti  Ti66  1  0.63967319  0.40444223  0.12507102  1
  Ti  Ti67  1  0.47404346  0.40899037  0.46186693  1
  Ti  Ti68  1  0.60704223  0.44993938  0.69540830  1
  Ti  Ti69  1  0.64326064  0.73462380  0.05503669  1
  Ti  Ti70  1  0.58378957  0.69487947  0.36154462  1
  Ti  Ti71  1  0.61440469  0.73500153  0.82759175  1
  Ti  Ti72  1  0.84930388  0.07549723  0.13291989  1
  Ti  Ti73  1  0.90156434  0.10275442  0.44128988  1
  Ti  Ti74  1  0.90070464  0.16113490  0.72786693  1
  Ti  Ti75  1  0.90896661  0.40819304  -0.01462845  1
  Ti  Ti76  1  0.95273933  0.47305854  0.44616296  1
  Ti  Ti77  1  0.84868586  0.42861419  0.68403810  1
  Ti  Ti78  1  0.87126963  0.72496718  0.04329074  1
  Ti  Ti79  1  0.92820510  0.78179383  0.36964292  1
  Ti  Ti80  1  0.91636887  0.76455800  0.69836564  1
  Ti  Ti81  1  0.15816789  0.30444196  0.29143894  1
  Ti  Ti82  1  0.14476010  0.24126203  0.52734517  1
  Ti  Ti83  1  0.20492973  0.21744592  0.86599092  1
  Ti  Ti84  1  0.25755284  0.60219586  0.28951090  1
  Ti  Ti85  1  0.24402372  0.60127377  0.52892327  1
  Ti  Ti86  1  0.18320629  0.63536803  0.90367668  1
  Ti  Ti87  1  0.23815043  0.90597988  0.20542636  1
  Ti  Ti88  1  0.21281440  0.89073121  0.51623622  1
  Ti  Ti89  1  0.24902497  0.99612488  0.91404400  1
  Ti  Ti90  1  0.60958621  0.26175185  0.25467765  1
  Ti  Ti91  1  0.56463508  0.28089735  0.57714641  1
  Ti  Ti92  1  0.58999670  0.19609915  1.06750578  1
  Ti  Ti93  1  0.57496808  0.57371946  0.20825429  1
  Ti  Ti94  1  0.62314304  0.63842523  0.54627449  1
  Ti  Ti95  1  0.53656497  0.59156651  0.95042696  1
  Ti  Ti96  1  0.62411775  0.86492883  0.22317022  1
  Ti  Ti97  1  0.56935659  0.95467457  0.64285891  1
  Ti  Ti98  1  0.61760045  0.91225232  0.92502701  1
  Ti  Ti99  1  0.91988492  0.20464317  0.25499404  1
  Ti  Ti100  1  0.93541839  0.29658124  0.56311370  1
  Ti  Ti101  1  0.88022280  0.21883719  0.95331146  1
  Ti  Ti102  1  0.89966847  0.51243908  0.17585499  1
  Ti  Ti103  1  0.86834251  0.60580852  0.58551234  1
  Ti  Ti104  1  0.89733963  0.59523969  0.89264103  1
  Ti  Ti105  1  0.92530283  0.92634062  0.23618929  1
  Ti  Ti106  1  0.92176441  0.97676296  0.59362156  1
  Ti  Ti107  1  0.94876349  0.88822427  0.94042532  1
  Co  Co108  1  0.07838819  0.37507689  0.43230750  1
  Co  Co109  1  0.07092316  0.28661819  0.16777684  1
  Co  Co110  1  0.34016139  0.78039149  0.13315508  1
  Co  Co111  1  0.09942991  0.70591363  0.74924987  1
  Co  Co112  1  -0.03640702  0.18745294  0.09315423  1
  Co  Co113  1  0.03690057  0.30111937  -0.00241564  1
  Co  Co114  1  0.75213551  0.82155188  0.13943530  1
  Co  Co115  1  0.61024484  0.47812264  0.50290694  1
  Co  Co116  1  0.73872718  0.75183062  0.69630013  1
  Co  Co117  1  0.24759518  0.31344202  0.62672618  1
  Co  Co118  1  0.35930163  0.60659357  -0.07058595  1
  Co  Co119  1  0.10913606  0.36016765  0.84905314  1
  Co  Co120  1  0.84856311  0.53745883  0.33263327  1
  Co  Co121  1  0.25335644  0.15205820  0.70931641  1
  Co  Co122  1  0.45446408  0.22188053  0.21426565  1
  Co  Co123  1  -0.00850421  0.88885306  0.78038600  1
  Co  Co124  1  0.24912807  0.48860449  0.88204696  1
  Co  Co125  1  0.95045219  0.65642481  0.46150573  1
  Co  Co126  1  0.95411286  0.56730767  0.03851358  1
  Co  Co127  1  -0.00750256  0.14191265  0.57313558  1
  Co  Co128  1  0.50495308  0.49452045  0.08528548  1
  Co  Co129  1  0.75911267  0.85110285  -0.01816643  1
  Co  Co130  1  0.75093864  -0.08415564  0.63895184  1
  Co  Co131  1  -0.01447618  0.48011260  0.61354580  1
  Co  Co132  1  0.00784541  0.85359175  0.09054096  1
  Co  Co133  1  0.85849969  0.30356452  0.79731017  1
  Co  Co134  1  0.08058334  -0.01429966  0.88149458  1
  Co  Co135  1  0.49777229  0.32944533  0.09622463  1
  Co  Co136  1  0.30061728  0.01519011  0.60457388  1
  Co  Co137  1  0.62962490  0.07504633  -0.07261242  1
  Co  Co138  1  0.97575735  0.74025385  0.85052948  1
  Co  Co139  1  0.23383884  0.19777176  0.39208360  1
  Co  Co140  1  0.77351587  0.15194218  0.84659095  1
  Co  Co141  1  0.17481068  0.77059556  0.05992722  1
  Co  Co142  1  0.53845346  0.14185833  0.69887660  1
  Co  Co143  1  0.24429404  0.20410678  0.16225540  1
  Co  Co144  1  0.49474920  0.52012779  0.60984658  1
  Co  Co145  1  0.55071429  0.01511467  0.79985587  1
  Co  Co146  1  0.20857873  0.49521475  0.04071542  1
  Co  Co147  1  0.91933314  0.34330715  0.13813932  1
  Co  Co148  1  0.89380265  0.76287283  0.19529151  1
  Co  Co149  1  0.24626183  0.54659807  0.71243610  1
  Co  Co150  1  0.87106211  0.29534726  0.41192858  1
  Co  Co151  1  0.11081400  0.08652363  0.42688919  1
  Co  Co152  1  0.00949074  0.23762507  0.84481416  1
  Co  Co153  1  0.66761530  0.88925156  0.77218104  1
  Co  Co154  1  0.85918373  -0.08166516  0.08585807  1
  Co  Co155  1  -0.00342813  0.06643028  0.30201143  1
  Co  Co156  1  0.53625868  0.73734758  0.21067643  1
  Co  Co157  1  0.38415225  0.62713159  0.65771741  1
  Co  Co158  1  0.86095488  -0.07362722  0.42679128  1
  Co  Co159  1  -0.06188161  0.45153115  0.82361367  1
  Co  Co160  1  0.50414046  0.76941765  0.49219630  1
  Co  Co161  1  0.08192695  -0.04651902  0.21735381  1
  Ni  Ni162  1  -0.01974370  0.02231797  0.04476714  1
  Ni  Ni163  1  0.30345027  0.17610567  0.55439187  1
  Ni  Ni164  1  0.78126635  0.83516763  0.30336434  1
  Ni  Ni165  1  0.57598597  0.62442503  0.71125259  1
  Ni  Ni166  1  0.14627550  0.84790380  0.34231413  1
  Ni  Ni167  1  0.40293054  0.29812259  0.56628138  1
  Ni  Ni168  1  0.29621968  -0.08321464  0.36188717  1
  Ni  Ni169  1  0.05985612  0.43830440  0.10336183  1
  Ni  Ni170  1  0.68244112  0.11354851  0.20132251  1
  Ni  Ni171  1  0.51494820  0.53257571  0.36119894  1
  Ni  Ni172  1  0.71211362  0.36681206  0.59235189  1
  Ni  Ni173  1  0.21517327  0.73822368  0.22563335  1
  Ni  Ni174  1  0.73867751  0.15191354  0.01940871  1
  Ni  Ni175  1  -0.03082434  0.63371103  0.27652405  1
  Ni  Ni176  1  0.76341620  0.19401179  0.31874259  1
  Ni  Ni177  1  0.49534225  0.86069156  0.80104294  1
  Ni  Ni178  1  0.72797508  0.52967220  0.60629046  1
  Ni  Ni179  1  0.50942886  0.04671078  0.04227269  1
  Ni  Ni180  1  0.34170947  0.12403944  0.86332374  1
  Ni  Ni181  1  0.32489541  0.29639085  0.29276859  1
  Ni  Ni182  1  0.50494463  0.77680234  -0.04634612  1
  Ni  Ni183  1  0.03551298  0.71247575  -0.00232258  1
  Ni  Ni184  1  -0.03671329  0.82027790  0.53929189  1
  Ni  Ni185  1  0.63691064  0.53413878  0.84081021  1
  Ni  Ni186  1  0.61369064  0.38528726  0.36176116  1
  Ni  Ni187  1  0.18995712  0.74806851  0.60608475  1
  Ni  Ni188  1  0.23478956  0.13629625  0.01323751  1
  Ni  Ni189  1  0.19136555  0.47950475  0.38664205  1
  Ni  Ni190  1  -0.03419495  0.36332568  0.29780132  1
  Ni  Ni191  1  0.41786307  0.65735886  0.31560405  1
  Ni  Ni192  1  0.74506787  0.35340666  0.00577159  1
  Ni  Ni193  1  0.61753604  -0.00194637  0.32096271  1
  Ni  Ni194  1  0.72700345  0.65273329  -0.07291637  1
  Ni  Ni195  1  0.09612201  0.76382461  0.47269825  1
  Ni  Ni196  1  0.29265933  -0.10874079  0.03528992  1
  Ni  Ni197  1  0.67596177  0.54291041  0.35374892  1
  Ni  Ni198  1  0.73585519  0.51644613  0.20435161  1
  Ni  Ni199  1  0.63234120  0.80964610  0.58881771  1
  Ni  Ni200  1  0.34256958  0.33085888  0.13657180  1
  Ni  Ni201  1  0.35382713  0.50603579  0.38591559  1
  Ni  Ni202  1  0.32304493  0.87019430  0.80090277  1
  Ni  Ni203  1  0.34339113  0.76031250  0.56160616  1
  Ni  Ni204  1  0.55964489  -0.00642191  0.47443285  1
  Ni  Ni205  1  0.39085219  0.53802512  0.20384831  1
  Ni  Ni206  1  0.02262458  0.04057359  0.72144966  1
  Ni  Ni207  1  0.52802570  0.86723018  0.36498419  1
  Ni  Ni208  1  0.44047648  0.01118735  0.35652516  1
  Ni  Ni209  1  0.93789714  0.07342312  0.86917952  1
  Ni  Ni210  1  0.80898482  0.14041151  0.59136220  1
  Ni  Ni211  1  0.44272994  0.69849928  0.81524852  1
  Ni  Ni212  1  -0.04675522  0.60018400  0.73475693  1
  Ni  Ni213  1  0.63627489  0.12664471  0.56895027  1
  Ni  Ni214  1  0.00678757  0.35170498  0.71311200  1
