# generated using pymatgen
data_Ti108Co54Ni53
_symmetry_space_group_name_H-M   'P 1'
_cell_length_a   14.74714155
_cell_length_b   14.53921992
_cell_length_c   14.66861890
_cell_angle_alpha   90.31001689
_cell_angle_beta   90.07923486
_cell_angle_gamma   90.21076178
_symmetry_Int_Tables_number   1
_chemical_formula_structural   Ti108Co54Ni53
_chemical_formula_sum   'Ti108 Co54 Ni53'
_cell_volume   3145.05653846
_cell_formula_units_Z   1
loop_
 _symmetry_equiv_pos_site_id
 _symmetry_equiv_pos_as_xyz
  1  'x, y, z'
loop_
 _atom_site_type_symbol
 _atom_site_label
 _atom_site_symmetry_multiplicity
 _atom_site_fract_x
 _atom_site_fract_y
 _atom_site_fract_z
 _atom_site_occupancy
  Ti  Ti0  1  0.10788339  0.09058388  0.25531820  1
  Ti  Ti1  1  0.14286900  0.04627170  0.57411052  1
  Ti  Ti2  1  0.11506191  0.12010290  0.91000741  1
  Ti  Ti3  1  0.04884686  0.44108422  0.33294925  1
  Ti  Ti4  1  0.06026793  0.46479043  0.53623756  1
  Ti  Ti5  1  0.13465475  0.44453768  0.84963113  1
  Ti  Ti6  1  0.10776305  0.72780440  0.19503270  1
  Ti  Ti7  1  0.05347715  0.77287324  0.59127921  1
  Ti  Ti8  1  0.09890931  0.90863723  0.90538779  1
  Ti  Ti9  1  0.46940809  0.07557072  0.27606081  1
  Ti  Ti10  1  0.40289555  0.05923462  0.61173154  1
  Ti  Ti11  1  0.36431026  0.10417389  0.94182467  1
  Ti  Ti12  1  0.38188717  0.38153262  0.28042990  1
  Ti  Ti13  1  0.45535032  0.31880760  0.55184380  1
  Ti  Ti14  1  0.34929840  0.42993138  0.90784039  1
  Ti  Ti15  1  0.49402214  0.80565191  0.19426144  1
  Ti  Ti16  1  0.37040910  0.75775672  0.61569708  1
  Ti  Ti17  1  0.41091494  0.75900938  0.89559311  1
  Ti  Ti18  1  0.81797149  0.10281713  0.26593255  1
  Ti  Ti19  1  0.72759074  0.07324069  0.62164056  1
  Ti  Ti20  1  0.69502737  0.05998959  0.85346657  1
  Ti  Ti21  1  0.69351447  0.39990657  0.18705135  1
  Ti  Ti22  1  0.71786487  0.46084408  0.59569446  1
  Ti  Ti23  1  0.66169349  0.43945937  0.87891849  1
  Ti  Ti24  1  0.67743329  0.80724505  0.25476480  1
  Ti  Ti25  1  0.71753934  0.79711051  0.65048177  1
  Ti  Ti26  1  0.73549873  0.80687855  0.87984306  1
  Ti  Ti27  1  0.09048637  0.20505493  0.09250261  1
  Ti  Ti28  1  0.05375541  0.19298259  0.45603941  1
  Ti  Ti29  1  0.07581425  0.27202022  0.76827735  1
  Ti  Ti30  1  0.12482992  0.63049152  0.02241699  1
  Ti  Ti31  1  0.09744601  0.64237613  0.36784135  1
  Ti  Ti32  1  0.10035198  0.60368481  0.71409467  1
  Ti  Ti33  1  0.07879164  0.98957495  0.08209250  1
  Ti  Ti34  1  0.07019109  0.87169676  0.32864374  1
  Ti  Ti35  1  0.13081299  0.90701366  0.71864968  1
  Ti  Ti36  1  0.44358890  0.22772703  0.12821908  1
  Ti  Ti37  1  0.31011158  0.28080432  0.42871139  1
  Ti  Ti38  1  0.38397699  0.25418495  0.79693396  1
  Ti  Ti39  1  0.40461024  0.63234026  0.11285083  1
  Ti  Ti40  1  0.45477003  0.53343371  0.42859227  1
  Ti  Ti41  1  0.43298887  0.63274305  0.75381270  1
  Ti  Ti42  1  0.43370335  0.91410595  0.04043448  1
  Ti  Ti43  1  0.41392899  0.86802214  0.37971797  1
  Ti  Ti44  1  0.43356539  0.89520913  0.73906356  1
  Ti  Ti45  1  0.67099076  0.21243786  0.10492169  1
  Ti  Ti46  1  0.72784646  0.17728694  0.42469920  1
  Ti  Ti47  1  0.80340742  0.25121607  0.72301333  1
  Ti  Ti48  1  0.72998001  0.53145710  0.04235286  1
  Ti  Ti49  1  0.66296368  0.55455794  0.43489797  1
  Ti  Ti50  1  0.76214476  0.54826181  0.77444600  1
  Ti  Ti51  1  0.75874402  0.84949905  0.08912996  1
  Ti  Ti52  1  0.76282978  0.93089245  0.38534016  1
  Ti  Ti53  1  0.85084284  0.89640725  0.74414349  1
  Ti  Ti54  1  0.26848443  0.02644296  0.13290656  1
  Ti  Ti55  1  0.31906360  0.07485122  0.44320819  1
  Ti  Ti56  1  0.23617625  0.14098704  0.73308179  1
  Ti  Ti57  1  0.31263042  0.35913590  0.08405594  1
  Ti  Ti58  1  0.29407558  0.44903458  0.51494573  1
  Ti  Ti59  1  0.31246094  0.48884759  0.72126189  1
  Ti  Ti60  1  0.30246733  0.79539176  0.16253249  1
  Ti  Ti61  1  0.30471927  0.71623929  0.44521210  1
  Ti  Ti62  1  0.26781957  0.80810891  0.78774459  1
  Ti  Ti63  1  0.60797726  0.03956684  0.04216689  1
  Ti  Ti64  1  0.52076914  0.17742151  0.43946009  1
  Ti  Ti65  1  0.55031040  0.05075562  0.74374457  1
  Ti  Ti66  1  0.55618862  0.36886874  0.03230694  1
  Ti  Ti67  1  0.68338973  0.36192841  0.40462428  1
  Ti  Ti68  1  0.54196120  0.36099033  0.72356025  1
  Ti  Ti69  1  0.63867452  0.68522184  0.10510883  1
  Ti  Ti70  1  0.66278643  0.75447021  0.46411527  1
  Ti  Ti71  1  0.60936354  0.68780848  0.78130963  1
  Ti  Ti72  1  0.89935667  0.11599998  0.07387814  1
  Ti  Ti73  1  0.96358184  0.02767839  0.38031017  1
  Ti  Ti74  1  0.92316568  0.08607558  0.71051208  1
  Ti  Ti75  1  0.89593220  0.33382782  0.01245176  1
  Ti  Ti76  1  0.85954917  0.45963580  0.45730582  1
  Ti  Ti77  1  0.93303955  0.40246550  0.82162372  1
  Ti  Ti78  1  0.93533541  0.74065304  0.09595188  1
  Ti  Ti79  1  0.94788954  0.75744905  0.44002079  1
  Ti  Ti80  1  0.98602075  0.76164541  0.78159850  1
  Ti  Ti81  1  0.24964603  0.23940009  0.22298340  1
  Ti  Ti82  1  0.18689000  0.28647286  0.59572135  1
  Ti  Ti83  1  0.21991871  0.27271444  0.92562907  1
  Ti  Ti84  1  0.28391583  0.57115043  0.31821425  1
  Ti  Ti85  1  0.19265881  0.61843205  0.55426567  1
  Ti  Ti86  1  0.24523568  0.60764715  0.86487502  1
  Ti  Ti87  1  0.24721736  0.92371827  0.31714020  1
  Ti  Ti88  1  0.23017598  0.89539775  0.50934708  1
  Ti  Ti89  1  0.25454776  0.86626700  0.98829948  1
  Ti  Ti90  1  0.56782507  0.25681570  0.27114178  1
  Ti  Ti91  1  0.65030071  0.27396409  0.57638767  1
  Ti  Ti92  1  0.64990449  0.24799643  0.88376736  1
  Ti  Ti93  1  0.55864146  0.63398719  0.28116563  1
  Ti  Ti94  1  0.54963708  0.60895876  0.58324880  1
  Ti  Ti95  1  0.54022063  0.56374906  0.96027217  1
  Ti  Ti96  1  0.58888194  0.95113156  0.34544848  1
  Ti  Ti97  1  0.56774794  0.92716972  0.57779937  1
  Ti  Ti98  1  0.56828694  0.88893160  0.90516819  1
  Ti  Ti99  1  0.86746177  0.31955340  0.30851126  1
  Ti  Ti100  1  0.95638369  0.31112872  0.60695418  1
  Ti  Ti101  1  0.92931240  0.19326915  0.88041190  1
  Ti  Ti102  1  0.88346264  0.60026497  0.30908703  1
  Ti  Ti103  1  0.90174246  0.60084088  0.61340450  1
  Ti  Ti104  1  0.87476234  0.64199624  0.91312044  1
  Ti  Ti105  1  0.87675490  0.87806811  0.24945575  1
  Ti  Ti106  1  0.88549841  0.90784795  0.54109149  1
  Ti  Ti107  1  0.90235451  0.87620415  0.94409321  1
  Co  Co108  1  0.21621169  0.39507915  0.30281759  1
  Co  Co109  1  0.11960571  0.80092728  0.04781061  1
  Co  Co110  1  0.27058996  0.65120937  0.70574568  1
  Co  Co111  1  0.72301741  0.92169479  0.54365062  1
  Co  Co112  1  0.46903712  0.48974896  0.81638003  1
  Co  Co113  1  0.14017756  0.77243988  0.45242788  1
  Co  Co114  1  0.89660311  0.76836789  0.62983427  1
  Co  Co115  1  0.64816154  0.04563578  0.46295363  1
  Co  Co116  1  0.38730981  0.27095660  -0.02835974  1
  Co  Co117  1  0.68033288  0.64651597  -0.07965800  1
  Co  Co118  1  0.02220092  0.45306670  0.69592162  1
  Co  Co119  1  0.20893099  0.77944599  0.62521195  1
  Co  Co120  1  0.89801167  0.18953271  0.41403583  1
  Co  Co121  1  0.23347972  -0.00769841  0.82180371  1
  Co  Co122  1  0.23084517  0.32553579  0.77395821  1
  Co  Co123  1  0.47130272  0.70190416  0.47316504  1
  Co  Co124  1  0.80700993  0.71687090  0.19535872  1
  Co  Co125  1  0.50963835  0.03812001  0.90257648  1
  Co  Co126  1  0.78732565  0.70000960  0.03145423  1
  Co  Co127  1  0.17693419  0.50501383  0.42081765  1
  Co  Co128  1  -0.02533734  0.33576511  0.44150617  1
  Co  Co129  1  0.15017485  0.02824802  0.40707296  1
  Co  Co130  1  0.50916590  0.38206194  0.18060366  1
  Co  Co131  1  0.59109869  0.85425058  0.75499092  1
  Co  Co132  1  0.05072128  0.92017535  0.49063510  1
  Co  Co133  1  0.37617323  0.93228894  0.88760566  1
  Co  Co134  1  0.81989237  0.05179454  0.46724595  1
  Co  Co135  1  -0.00466542  -0.05878084  0.65269015  1
  Co  Co136  1  0.70530001  0.37573752  0.73463038  1
  Co  Co137  1  0.23153465  0.74971091  0.30331083  1
  Co  Co138  1  0.40495248  0.21727399  0.31766920  1
  Co  Co139  1  0.80549450  0.32097130  0.52391068  1
  Co  Co140  1  0.70321475  -0.04503151  0.72724328  1
  Co  Co141  1  0.57277363  0.43630264  0.52125233  1
  Co  Co142  1  0.73089442  0.34971920  0.02023407  1
  Co  Co143  1  0.39026685  0.59952230  0.93747972  1
  Co  Co144  1  0.57453092  0.53156010  0.13277709  1
  Co  Co145  1  0.82474074  0.47239219  -0.07102882  1
  Co  Co146  1  0.46977308  0.20692953  0.67327838  1
  Co  Co147  1  0.22384208  0.03190364  -0.02178714  1
  Co  Co148  1  0.27478809  0.70341715  0.01067574  1
  Co  Co149  1  0.54634444  0.78067252  0.35784165  1
  Co  Co150  1  0.86285208  0.43138614  0.66386687  1
  Co  Co151  1  -0.01874009  0.95625411  0.81174781  1
  Co  Co152  1  0.28081469  -0.05150542  0.66057288  1
  Co  Co153  1  0.76523205  0.47411069  0.31415266  1
  Co  Co154  1  0.34053708  0.34020129  0.65773889  1
  Co  Co155  1  -0.03891735  0.73807508  0.27013573  1
  Co  Co156  1  -0.03286192  0.02453381  0.21449325  1
  Co  Co157  1  0.42413991  0.47922646  0.07197382  1
  Co  Co158  1  0.72659327  0.24435145  0.26742932  1
  Co  Co159  1  0.17123684  -0.10782911  0.17914043  1
  Co  Co160  1  0.01267985  0.86807035  0.16308780  1
  Co  Co161  1  0.79948685  0.32102574  0.87146498  1
  Ni  Ni162  1  0.15293119  0.74442977  0.88539898  1
  Ni  Ni163  1  0.81616973  0.70537144  0.75856511  1
  Ni  Ni164  1  -0.06812331  0.56863003  0.77072517  1
  Ni  Ni165  1  0.78402082  0.18721956  -0.02645938  1
  Ni  Ni166  1  0.32691395  0.19645760  0.57472943  1
  Ni  Ni167  1  0.71756568  0.63966102  0.30689171  1
  Ni  Ni168  1  0.88841396  -0.04750102  0.09088983  1
  Ni  Ni169  1  0.49727441  0.34969877  0.39582789  1
  Ni  Ni170  1  0.50378686  0.34114052  0.88337226  1
  Ni  Ni171  1  0.50545744  0.73612024  0.01980806  1
  Ni  Ni172  1  0.08959389  0.27554744  0.27767785  1
  Ni  Ni173  1  -0.01520009  0.03612327  -0.04282988  1
  Ni  Ni174  1  0.71686863  0.63295333  0.61795943  1
  Ni  Ni175  1  0.45497840  0.47484732  0.63672045  1
  Ni  Ni176  1  -0.03172741  0.06603891  0.54520117  1
  Ni  Ni177  1  0.64718473  0.09628947  0.24211099  1
  Ni  Ni178  1  0.05929812  0.60194401  0.87055735  1
  Ni  Ni179  1  0.52824862  0.18503390  -0.01717786  1
  Ni  Ni180  1  0.40198064  0.69760075  0.30245957  1
  Ni  Ni181  1  0.60008480  0.52519454  0.72031469  1
  Ni  Ni182  1  0.39856101  0.90220602  0.54290903  1
  Ni  Ni183  1  0.80785908  0.63442800  0.47062148  1
  Ni  Ni184  1  0.14310878  0.33865849  0.43534729  1
  Ni  Ni185  1  0.58325704  0.46386209  0.30476000  1
  Ni  Ni186  1  0.24030239  0.63585497  0.16207199  1
  Ni  Ni187  1  0.36745960  0.59522197  0.56682898  1
  Ni  Ni188  1  0.38226499  0.06271999  0.77770823  1
  Ni  Ni189  1  0.05207319  0.29863491  -0.05982081  1
  Ni  Ni190  1  0.39008397  0.94210271  0.21724050  1
  Ni  Ni191  1  0.43602844  0.06594089  0.10541959  1
  Ni  Ni192  1  0.80735674  0.76350828  0.36138691  1
  Ni  Ni193  1  0.17392752  0.43973050  0.66144671  1
  Ni  Ni194  1  -0.04154186  0.19228031  0.22043525  1
  Ni  Ni195  1  0.56857103  0.11477022  0.58555941  1
  Ni  Ni196  1  0.26708028  0.18436040  0.06234215  1
  Ni  Ni197  1  0.06044401  0.17776420  0.63223091  1
  Ni  Ni198  1  0.29789624  0.08800326  0.28441444  1
  Ni  Ni199  1  0.53612113  0.76669094  0.62913046  1
  Ni  Ni200  1  0.48155442  0.01707201  0.45831415  1
  Ni  Ni201  1  0.08546319  0.07177955  0.75656563  1
  Ni  Ni202  1  0.27926703  0.48181272  0.18215091  1
  Ni  Ni203  1  0.00656587  0.74174884  -0.05280300  1
  Ni  Ni204  1  0.85197231  0.17480954  0.57662049  1
  Ni  Ni205  1  0.55574763  -0.03596179  0.17971278  1
  Ni  Ni206  1  0.75290496  -0.02704016  -0.01677037  1
  Ni  Ni207  1  0.26557552  0.52802131  0.02355074  1
  Ni  Ni208  1  0.63683678  0.19792840  0.72260635  1
  Ni  Ni209  1  0.43759983  0.52812078  0.23979605  1
  Ni  Ni210  1  0.85120581  0.04160115  0.87052749  1
  Ni  Ni211  1  0.60159676  0.85759007  0.06685067  1
  Ni  Ni212  1  0.82843551  0.25661459  0.14175171  1
  Ni  Ni213  1  0.19290727  0.18568190  0.37294435  1
  Ni  Ni214  1  -0.02807249  0.58561114  0.45831873  1
