# generated using pymatgen
data_Ti108Co54Ni53
_symmetry_space_group_name_H-M   'P 1'
_cell_length_a   14.61625579
_cell_length_b   14.66357967
_cell_length_c   14.65513625
_cell_angle_alpha   90.17787266
_cell_angle_beta   90.13099052
_cell_angle_gamma   90.24345079
_symmetry_Int_Tables_number   1
_chemical_formula_structural   Ti108Co54Ni53
_chemical_formula_sum   'Ti108 Co54 Ni53'
_cell_volume   3140.93418828
_cell_formula_units_Z   1
loop_
 _symmetry_equiv_pos_site_id
 _symmetry_equiv_pos_as_xyz
  1  'x, y, z'
loop_
 _atom_site_type_symbol
 _atom_site_label
 _atom_site_symmetry_multiplicity
 _atom_site_fract_x
 _atom_site_fract_y
 _atom_site_fract_z
 _atom_site_occupancy
  Ti  Ti0  1  0.03368223  0.13431247  0.24713582  1
  Ti  Ti1  1  0.05245205  0.04616818  0.50889695  1
  Ti  Ti2  1  0.11376710  0.03793601  0.89887206  1
  Ti  Ti3  1  0.15967064  0.39079548  0.30432362  1
  Ti  Ti4  1  0.12221403  0.45574969  0.54501418  1
  Ti  Ti5  1  0.09008698  0.38380823  0.95717637  1
  Ti  Ti6  1  0.17680940  0.75293190  0.25578535  1
  Ti  Ti7  1  0.10269818  0.65765789  0.55941438  1
  Ti  Ti8  1  0.04306312  0.83950208  0.95951438  1
  Ti  Ti9  1  0.42483051  0.14187032  0.30749528  1
  Ti  Ti10  1  0.41244306  0.18490160  0.63619643  1
  Ti  Ti11  1  0.40944271  0.09132034  0.94642697  1
  Ti  Ti12  1  0.45581297  0.42690695  0.17823594  1
  Ti  Ti13  1  0.44505389  0.38594817  0.59871205  1
  Ti  Ti14  1  0.38847006  0.42007038  0.86683569  1
  Ti  Ti15  1  0.41423902  0.74090106  0.24445719  1
  Ti  Ti16  1  0.46931596  0.72595153  0.57032153  1
  Ti  Ti17  1  0.39848632  0.68609447  0.86190221  1
  Ti  Ti18  1  0.73555677  0.01998275  0.25096627  1
  Ti  Ti19  1  0.69840912  0.01958274  0.62921094  1
  Ti  Ti20  1  0.68323596  0.10777279  0.93920942  1
  Ti  Ti21  1  0.75738010  0.37248629  0.25404887  1
  Ti  Ti22  1  0.75379536  0.46008777  0.45295144  1
  Ti  Ti23  1  0.76852854  0.40729705  0.97930163  1
  Ti  Ti24  1  0.72378523  0.81354919  0.27215557  1
  Ti  Ti25  1  0.79870595  0.68062042  0.65790437  1
  Ti  Ti26  1  0.78969742  0.64225170  0.90452002  1
  Ti  Ti27  1  0.13834648  0.21961524  0.09802897  1
  Ti  Ti28  1  0.09545367  0.23657941  0.44105217  1
  Ti  Ti29  1  0.10572120  0.19864895  0.76107902  1
  Ti  Ti30  1  0.11034024  0.52783798  0.10471285  1
  Ti  Ti31  1  0.03053130  0.70384793  0.39462558  1
  Ti  Ti32  1  0.05607480  0.61670688  0.75375119  1
  Ti  Ti33  1  0.14028827  0.90349967  0.11255014  1
  Ti  Ti34  1  0.02293417  0.89026693  0.37057570  1
  Ti  Ti35  1  0.16227196  0.89447138  0.77957940  1
  Ti  Ti36  1  0.36109733  0.19108215  0.12809580  1
  Ti  Ti37  1  0.36303551  0.28688186  0.43599336  1
  Ti  Ti38  1  0.39358728  0.22468423  0.81757087  1
  Ti  Ti39  1  0.34736332  0.54991585  0.03012765  1
  Ti  Ti40  1  0.39874169  0.54661247  0.48634816  1
  Ti  Ti41  1  0.38422851  0.55392048  0.69443806  1
  Ti  Ti42  1  0.43750139  0.89310683  0.09659019  1
  Ti  Ti43  1  0.38911984  0.96740179  0.45829394  1
  Ti  Ti44  1  0.45740704  0.89082987  0.81605598  1
  Ti  Ti45  1  0.80223171  0.26251649  0.08994197  1
  Ti  Ti46  1  0.66843518  0.28587894  0.42261845  1
  Ti  Ti47  1  0.75773583  0.26578974  0.75254323  1
  Ti  Ti48  1  0.70308391  0.58048559  0.06278896  1
  Ti  Ti49  1  0.79164312  0.62704929  0.34583432  1
  Ti  Ti50  1  0.67514626  0.59286750  0.75606772  1
  Ti  Ti51  1  0.78433878  0.97120793  0.06109370  1
  Ti  Ti52  1  0.70724318  0.98857313  0.43396761  1
  Ti  Ti53  1  0.73491319  0.85594510  0.70366900  1
  Ti  Ti54  1  0.26397881  0.03994992  0.04515682  1
  Ti  Ti55  1  0.25060372  0.12857317  0.44246720  1
  Ti  Ti56  1  0.26152005  0.04359332  0.61170674  1
  Ti  Ti57  1  0.24627925  0.37365968  0.12260845  1
  Ti  Ti58  1  0.33836893  0.44760722  0.33089636  1
  Ti  Ti59  1  0.17273279  0.44062651  0.76862692  1
  Ti  Ti60  1  0.25532761  0.76698746  0.00545003  1
  Ti  Ti61  1  0.32101374  0.78274843  0.41182892  1
  Ti  Ti62  1  0.23208982  0.70700181  0.74329362  1
  Ti  Ti63  1  0.54674119  0.10671703  0.08568957  1
  Ti  Ti64  1  0.56737874  0.11397028  0.41842121  1
  Ti  Ti65  1  0.52901815  0.06443919  0.74644942  1
  Ti  Ti66  1  0.62740589  0.40051401  0.10955156  1
  Ti  Ti67  1  0.54241643  0.42275590  0.44168184  1
  Ti  Ti68  1  0.63839453  0.41335385  0.71947463  1
  Ti  Ti69  1  0.58217641  0.75588579  0.11522876  1
  Ti  Ti70  1  0.64265634  0.73061640  0.45434384  1
  Ti  Ti71  1  0.59565715  0.75332085  0.81285456  1
  Ti  Ti72  1  1.01550412  0.07118516  0.05553075  1
  Ti  Ti73  1  0.90698966  0.03836537  0.35809028  1
  Ti  Ti74  1  0.87366448  0.01390076  0.73656294  1
  Ti  Ti75  1  0.87795475  0.50668916  0.13137582  1
  Ti  Ti76  1  0.97707416  0.38815783  0.40322943  1
  Ti  Ti77  1  0.83432173  0.45331615  0.80167095  1
  Ti  Ti78  1  0.90153878  0.73072022  0.09281081  1
  Ti  Ti79  1  0.86633420  0.75597094  0.48311295  1
  Ti  Ti80  1  0.91768468  0.78181931  0.81165142  1
  Ti  Ti81  1  0.21720451  0.21613152  0.27901120  1
  Ti  Ti82  1  0.24150525  0.28226662  0.60260387  1
  Ti  Ti83  1  0.28310130  0.25349595  0.97175750  1
  Ti  Ti84  1  0.16694513  0.57475506  0.28508090  1
  Ti  Ti85  1  0.28530306  0.66805093  0.56347886  1
  Ti  Ti86  1  0.16528041  0.58022344  0.92646245  1
  Ti  Ti87  1  0.21413838  0.93150321  0.29818073  1
  Ti  Ti88  1  0.17122089  0.85392016  0.58670343  1
  Ti  Ti89  1  0.31346323  1.02015719  0.79417727  1
  Ti  Ti90  1  0.63698255  0.21962848  0.23623478  1
  Ti  Ti91  1  0.60962051  0.22797058  0.63039167  1
  Ti  Ti92  1  0.59081053  0.32527796  0.89978242  1
  Ti  Ti93  1  0.57899592  0.59059358  0.22233357  1
  Ti  Ti94  1  0.59671703  0.55898018  0.57639951  1
  Ti  Ti95  1  0.54989721  0.60744598  0.94094653  1
  Ti  Ti96  1  0.55014936  0.90972430  0.27459356  1
  Ti  Ti97  1  0.56275351  0.90213311  0.54546906  1
  Ti  Ti98  1  0.63785060  0.88650816  0.96355950  1
  Ti  Ti99  1  0.85608226  0.19915451  0.25363184  1
  Ti  Ti100  1  0.84155739  0.25792804  0.52964627  1
  Ti  Ti101  1  0.93309892  0.25593568  0.92191034  1
  Ti  Ti102  1  0.97276621  0.62717722  0.24123453  1
  Ti  Ti103  1  0.92218149  0.56282664  0.50042723  1
  Ti  Ti104  1  0.99060477  0.64088913  0.94251808  1
  Ti  Ti105  1  0.88575784  0.89386972  0.21568167  1
  Ti  Ti106  1  0.88302948  0.94476223  0.54431304  1
  Ti  Ti107  1  0.91072746  0.97717436  0.92075096  1
  Co  Co108  1  0.15344072  0.81567475  0.43044498  1
  Co  Co109  1  0.87322533  0.48571212  0.32438818  1
  Co  Co110  1  0.38873855  0.75424534  0.71417132  1
  Co  Co111  1  0.66404294  0.72442219  -0.02488188  1
  Co  Co112  1  0.15936687  0.06627344  0.16819257  1
  Co  Co113  1  0.20040768  0.56308653  0.67177537  1
  Co  Co114  1  0.54725970  0.06518934  0.56811161  1
  Co  Co115  1  0.13758042  0.04525186  0.71960891  1
  Co  Co116  1  0.19762478  0.66822243  0.41732026  1
  Co  Co117  1  0.32961667  0.62439668  0.32857286  1
  Co  Co118  1  0.53366392  0.83735427  0.68461982  1
  Co  Co119  1  0.74885154  0.80099170  0.85188265  1
  Co  Co120  1  0.62734915  0.56635169  0.39388881  1
  Co  Co121  1  0.76085611  -0.03122251  0.86982561  1
  Co  Co122  1  -0.10601378  0.75576486  0.30284957  1
  Co  Co123  1  0.21860095  0.35184523  0.45154154  1
  Co  Co124  1  0.50386296  0.26977305  0.15899347  1
  Co  Co125  1  0.58674541  0.21221384  0.78921891  1
  Co  Co126  1  0.90082503  0.83480486  0.66021772  1
  Co  Co127  1  0.06088769  0.53842772  0.40866434  1
  Co  Co128  1  0.85965559  0.09235627  0.50629795  1
  Co  Co129  1  0.03798652  -0.03184469  0.22467630  1
  Co  Co130  1  -0.03729807  -0.08542557  0.07780920  1
  Co  Co131  1  0.74388048  0.61517377  0.51346233  1
  Co  Co132  1  0.27544337  0.50648372  0.18823869  1
  Co  Co133  1  0.73555026  0.82103652  0.10862458  1
  Co  Co134  1  0.88951437  0.60035114  0.77906178  1
  Co  Co135  1  0.24606040  0.43350274  -0.04777013  1
  Co  Co136  1  0.23431772  0.51983752  0.44086748  1
  Co  Co137  1  0.91094957  0.35929347  0.20228202  1
  Co  Co138  1  -0.06816012  0.37775540  0.04101524  1
  Co  Co139  1  0.20514504  0.91219980  -0.05398288  1
  Co  Co140  1  0.29506798  0.82741622  0.16424589  1
  Co  Co141  1  -0.05454870  0.19249349  0.40558156  1
  Co  Co142  1  0.24019727  0.13693162  0.86547486  1
  Co  Co143  1  0.83830582  0.31489530  0.37594376  1
  Co  Co144  1  0.40423827  0.12231631  0.49173337  1
  Co  Co145  1  0.01847342  0.49084132  0.84833160  1
  Co  Co146  1  0.01596764  0.81555202  0.53277191  1
  Co  Co147  1  0.51740805  0.65033071  0.71337627  1
  Co  Co148  1  0.03507803  0.29028797  0.27258990  1
  Co  Co149  1  0.88857677  0.06609344  0.16226574  1
  Co  Co150  1  0.42384704  0.03445427  0.16320475  1
  Co  Co151  1  0.64060732  0.72758558  0.61925301  1
  Co  Co152  1  0.06333564  0.78521457  0.70788416  1
  Co  Co153  1  0.28770089  0.45625387  0.58260187  1
  Co  Co154  1  0.47533927  0.53019796  0.32916764  1
  Co  Co155  1  0.62599168  -0.06164767  0.78914457  1
  Co  Co156  1  0.00490361  0.93471368  0.79541094  1
  Co  Co157  1  0.06766637  0.36832580  0.13049430  1
  Co  Co158  1  -0.03481378  0.22700978  0.10779724  1
  Co  Co159  1  0.71990772  0.11359717  0.12075750  1
  Co  Co160  1  -0.02246507  0.11165381  0.84974348  1
  Co  Co161  1  0.41100754  0.58879996  0.18568869  1
  Ni  Ni162  1  0.63815621  0.24767461  0.04541352  1
  Ni  Ni163  1  0.25802013  0.66074059  0.13940862  1
  Ni  Ni164  1  0.66502929  0.48925054  0.88682250  1
  Ni  Ni165  1  0.11824308  0.05478728  0.35842220  1
  Ni  Ni166  1  0.41900460  -0.01330704  0.64401605  1
  Ni  Ni167  1  0.51919512  0.50318555  0.79986795  1
  Ni  Ni168  1  0.34105466  0.85112592  0.58117834  1
  Ni  Ni169  1  0.70576134  0.09849879  0.77364777  1
  Ni  Ni170  1  0.60265486  0.42593878  0.28646344  1
  Ni  Ni171  1  0.09906447  0.69891980  0.07016051  1
  Ni  Ni172  1  0.22134221  0.29893961  0.83123437  1
  Ni  Ni173  1  0.82964145  0.88765626  0.38424047  1
  Ni  Ni174  1  0.36394808  0.29799162  0.25678391  1
  Ni  Ni175  1  0.02983098  -0.05592026  0.63894761  1
  Ni  Ni176  1  0.58179705  0.73876976  0.29515586  1
  Ni  Ni177  1  0.52625048  0.45623837  -0.00905933  1
  Ni  Ni178  1  -0.04317428  0.68004312  0.63087702  1
  Ni  Ni179  1  0.38365210  -0.08353053  0.28599216  1
  Ni  Ni180  1  0.13456302  0.15899081  0.59380649  1
  Ni  Ni181  1  0.21655901  -0.03919478  0.46654300  1
  Ni  Ni182  1  0.48741791  0.83295296  0.40725561  1
  Ni  Ni183  1  0.73465350  0.85335167  0.53326312  1
  Ni  Ni184  1  0.49116329  0.33790653  0.74534353  1
  Ni  Ni185  1  0.62156404  -0.04452633  0.12584944  1
  Ni  Ni186  1  0.09947828  0.20905277  -0.06742010  1
  Ni  Ni187  1  0.30215002  0.82738508  0.84339543  1
  Ni  Ni188  1  0.51148293  0.25470362  0.49894659  1
  Ni  Ni189  1  0.40731951  0.71058974  0.07260459  1
  Ni  Ni190  1  0.84512572  0.82737123  -0.02353955  1
  Ni  Ni191  1  0.29089879  0.06772166  0.25562510  1
  Ni  Ni192  1  0.85422806  0.12636241  0.00085011  1
  Ni  Ni193  1  0.49630659  0.78807646  -0.04041741  1
  Ni  Ni194  1  0.75530264  0.14908198  0.37349490  1
  Ni  Ni195  1  0.32971998  0.35732357  0.71919309  1
  Ni  Ni196  1  0.76114199  0.25119029  0.91605236  1
  Ni  Ni197  1  0.71097862  0.36040078  0.58144465  1
  Ni  Ni198  1  0.51261280  0.29278234  0.33198089  1
  Ni  Ni199  1  0.47328947  0.24364343  -0.01090308  1
  Ni  Ni200  1  0.02312708  0.47063076  0.25298659  1
  Ni  Ni201  1  0.12801405  0.73509689  0.87298601  1
  Ni  Ni202  1  0.72943155  0.52521395  0.22659040  1
  Ni  Ni203  1  0.29627310  0.55583862  0.83766438  1
  Ni  Ni204  1  0.48244722  0.67007340  0.40829054  1
  Ni  Ni205  1  0.54627270  0.01555994  0.91747561  1
  Ni  Ni206  1  0.81230198  0.14532817  0.65374197  1
  Ni  Ni207  1  0.02677159  0.79621098  0.19402205  1
  Ni  Ni208  1  0.38833705  0.37420162  0.03405349  1
  Ni  Ni209  1  0.77743754  0.50681389  0.63941922  1
  Ni  Ni210  1  0.89705966  0.51068276  -0.04457314  1
  Ni  Ni211  1  0.77844719  0.67517727  0.18409026  1
  Ni  Ni212  1  0.57178483  0.06698612  0.24828380  1
  Ni  Ni213  1  0.70258173  0.14481491  0.52426545  1
  Ni  Ni214  1  0.36949510  -0.07455898  -0.04438259  1
