# generated using pymatgen
data_Ti108Co54Ni53
_symmetry_space_group_name_H-M   'P 1'
_cell_length_a   14.64314315
_cell_length_b   14.60552344
_cell_length_c   14.70576189
_cell_angle_alpha   89.76102785
_cell_angle_beta   89.79560485
_cell_angle_gamma   90.14315021
_symmetry_Int_Tables_number   1
_chemical_formula_structural   Ti108Co54Ni53
_chemical_formula_sum   'Ti108 Co54 Ni53'
_cell_volume   3145.07532351
_cell_formula_units_Z   1
loop_
 _symmetry_equiv_pos_site_id
 _symmetry_equiv_pos_as_xyz
  1  'x, y, z'
loop_
 _atom_site_type_symbol
 _atom_site_label
 _atom_site_symmetry_multiplicity
 _atom_site_fract_x
 _atom_site_fract_y
 _atom_site_fract_z
 _atom_site_occupancy
  Ti  Ti0  1  0.10957563  0.02771360  0.24362161  1
  Ti  Ti1  1  0.08036265  0.05535659  0.61268862  1
  Ti  Ti2  1  0.03160287  0.08578087  0.92117831  1
  Ti  Ti3  1  0.10465328  0.45267537  0.27232330  1
  Ti  Ti4  1  0.00053342  0.42230056  0.58362437  1
  Ti  Ti5  1  0.08345891  0.44254444  0.89444583  1
  Ti  Ti6  1  0.11431779  0.67824925  0.28232497  1
  Ti  Ti7  1  0.05907375  0.84112612  0.64622880  1
  Ti  Ti8  1  0.01564510  0.73631875  0.94894400  1
  Ti  Ti9  1  0.41458488  0.13686812  0.22728456  1
  Ti  Ti10  1  0.40310881  0.12199924  0.55592693  1
  Ti  Ti11  1  0.36311400  0.10331604  0.90547200  1
  Ti  Ti12  1  0.42432338  0.36231540  0.20964102  1
  Ti  Ti13  1  0.40166030  0.39758105  0.53261559  1
  Ti  Ti14  1  0.41277482  0.39081074  0.94664010  1
  Ti  Ti15  1  0.45203234  0.80839244  0.27028677  1
  Ti  Ti16  1  0.37910095  0.70105877  0.55688420  1
  Ti  Ti17  1  0.44879711  0.79265507  0.91749823  1
  Ti  Ti18  1  0.72053647  0.13553504  0.25453286  1
  Ti  Ti19  1  0.72649998  0.10105523  0.55728983  1
  Ti  Ti20  1  0.75761376  0.14654505  0.85640488  1
  Ti  Ti21  1  0.80825575  0.41210977  0.25236555  1
  Ti  Ti22  1  0.72788896  0.31822255  0.50701615  1
  Ti  Ti23  1  0.74203851  0.44389563  0.92209331  1
  Ti  Ti24  1  0.79553563  0.74087346  0.30834374  1
  Ti  Ti25  1  0.72485636  0.74922678  0.58263682  1
  Ti  Ti26  1  0.79467455  0.74623512  0.96662638  1
  Ti  Ti27  1  0.08526177  0.19390192  0.05237263  1
  Ti  Ti28  1  0.05851693  0.27030759  0.38215615  1
  Ti  Ti29  1  0.10486785  0.31765147  0.72547381  1
  Ti  Ti30  1  0.06119995  0.60240468  0.08321042  1
  Ti  Ti31  1  0.05501488  0.60125963  0.46464607  1
  Ti  Ti32  1  0.02647438  0.63053919  0.76004649  1
  Ti  Ti33  1  0.13423961  0.79912081  0.10820496  1
  Ti  Ti34  1  0.11388089  0.97288670  0.44362160  1
  Ti  Ti35  1  0.06781527  0.97665372  0.78480812  1
  Ti  Ti36  1  0.40853124  0.23839294  0.06308445  1
  Ti  Ti37  1  0.43819283  0.24284594  0.40165916  1
  Ti  Ti38  1  0.41187479  0.26564840  0.79056849  1
  Ti  Ti39  1  0.39732892  0.55924138  0.06651696  1
  Ti  Ti40  1  0.49763246  0.55904806  0.43224707  1
  Ti  Ti41  1  0.38486869  0.49126602  0.78939099  1
  Ti  Ti42  1  0.38077381  0.96347621  0.14195692  1
  Ti  Ti43  1  0.39655943  0.89469320  0.47491658  1
  Ti  Ti44  1  0.37463702  0.82392692  0.71672565  1
  Ti  Ti45  1  0.76572299  0.16563344  0.06002321  1
  Ti  Ti46  1  0.82315579  0.19023657  0.41582558  1
  Ti  Ti47  1  0.79595965  0.22880797  0.66975397  1
  Ti  Ti48  1  0.74813920  0.61073537  0.16132263  1
  Ti  Ti49  1  0.69635158  0.61640332  0.43879095  1
  Ti  Ti50  1  0.71099914  0.58125854  0.68634472  1
  Ti  Ti51  1  0.72650586  0.94875010  0.10257065  1
  Ti  Ti52  1  0.81169146  0.97883500  0.41195422  1
  Ti  Ti53  1  0.77639492  0.93092596  0.62327460  1
  Ti  Ti54  1  0.25526980  0.11487554  0.08432957  1
  Ti  Ti55  1  0.29286061  0.06771926  0.39959102  1
  Ti  Ti56  1  0.26590636  0.03545691  0.74168054  1
  Ti  Ti57  1  0.17703710  0.45732878  0.07423068  1
  Ti  Ti58  1  0.23730581  0.39205706  0.41609133  1
  Ti  Ti59  1  0.19352743  0.53182182  0.78253225  1
  Ti  Ti60  1  0.33265561  0.77365823  0.08069148  1
  Ti  Ti61  1  0.25259034  0.72827930  0.40348541  1
  Ti  Ti62  1  0.21089528  0.70849993  0.68121327  1
  Ti  Ti63  1  0.58057062  0.12301551  0.10724503  1
  Ti  Ti64  1  0.63635473  0.04428776  0.40650752  1
  Ti  Ti65  1  0.47567690  0.08721723  0.74158080  1
  Ti  Ti66  1  0.67627984  0.40274092  0.09194984  1
  Ti  Ti67  1  0.57191631  0.39155722  0.37600199  1
  Ti  Ti68  1  0.52163900  0.39350311  0.70400395  1
  Ti  Ti69  1  0.60223560  0.71410992  0.06390145  1
  Ti  Ti70  1  0.54762351  0.75430298  0.46730750  1
  Ti  Ti71  1  0.53330930  0.71765959  0.70067307  1
  Ti  Ti72  1  0.94893076  0.06078198  0.12097677  1
  Ti  Ti73  1  0.98417391  0.09468449  0.39059488  1
  Ti  Ti74  1  0.95681887  0.14507414  0.73543232  1
  Ti  Ti75  1  0.87786042  0.47024680  0.06192877  1
  Ti  Ti76  1  0.89255946  0.49464535  0.42574912  1
  Ti  Ti77  1  0.85157907  0.46656597  0.75718965  1
  Ti  Ti78  1  0.96349750  0.74449321  0.20005069  1
  Ti  Ti79  1  0.96783866  0.79297617  0.41656486  1
  Ti  Ti80  1  0.84725503  0.70929197  0.77096669  1
  Ti  Ti81  1  0.26477544  0.25425577  0.25545678  1
  Ti  Ti82  1  0.24089039  0.21317243  0.62645900  1
  Ti  Ti83  1  0.24009430  0.28983605  0.96336444  1
  Ti  Ti84  1  0.35054762  0.56569912  0.28002704  1
  Ti  Ti85  1  0.27540387  0.52490233  0.61323507  1
  Ti  Ti86  1  0.29922160  0.65089076  0.89176387  1
  Ti  Ti87  1  0.25362948  0.87128505  0.25554174  1
  Ti  Ti88  1  0.24057102  0.88278258  0.58516102  1
  Ti  Ti89  1  0.23928994  0.94179905  0.95413914  1
  Ti  Ti90  1  0.59544415  0.28980214  0.21652718  1
  Ti  Ti91  1  0.58059665  0.20578675  0.62355197  1
  Ti  Ti92  1  0.55205823  0.17898280  0.91730838  1
  Ti  Ti93  1  0.58966934  0.65819713  0.27342306  1
  Ti  Ti94  1  0.62137360  0.46908899  0.56058377  1
  Ti  Ti95  1  0.56414507  0.52817911  0.90639620  1
  Ti  Ti96  1  0.55463124  0.97344101  0.23326682  1
  Ti  Ti97  1  0.55858741  0.99812948  0.58371734  1
  Ti  Ti98  1  0.53780928  0.98530334  0.90596724  1
  Ti  Ti99  1  0.93316210  0.28031248  0.13476099  1
  Ti  Ti100  1  0.98375269  0.22156316  0.55528686  1
  Ti  Ti101  1  0.93285815  0.29411186  0.87252340  1
  Ti  Ti102  1  0.93980115  0.55482285  0.22243552  1
  Ti  Ti103  1  0.89938508  0.59444412  0.61285030  1
  Ti  Ti104  1  0.91782673  0.57231943  0.91147642  1
  Ti  Ti105  1  0.86143632  0.89328660  0.22051347  1
  Ti  Ti106  1  0.94383704  0.94016907  0.53152553  1
  Ti  Ti107  1  0.92484331  0.90838907  0.91140302  1
  Co  Co108  1  0.45684253  0.66684582  0.17539938  1
  Co  Co109  1  0.20331704  -0.04812887  0.12129406  1
  Co  Co110  1  0.71419249  0.30923487  0.33400151  1
  Co  Co111  1  0.19265655  0.87928212  0.74251960  1
  Co  Co112  1  0.54300406  0.32600012  0.52785965  1
  Co  Co113  1  0.54425047  0.55551688  0.72450828  1
  Co  Co114  1  0.26980289  0.48757942  0.94185939  1
  Co  Co115  1  -0.06978831  -0.04726311  0.70315000  1
  Co  Co116  1  -0.02806493  -0.05592900  0.33511166  1
  Co  Co117  1  0.75501984  0.59837234  0.84563225  1
  Co  Co118  1  -0.05027356  0.64761973  0.34529959  1
  Co  Co119  1  0.19243355  0.75294051  -0.02846527  1
  Co  Co120  1  0.90776461  0.17092944  -0.01701559  1
  Co  Co121  1  0.31916716  0.38162477  0.08656931  1
  Co  Co122  1  0.13078693  0.14779322  0.49282020  1
  Co  Co123  1  0.89111944  0.05105137  0.84957642  1
  Co  Co124  1  0.39275415  -0.03646376  0.31331095  1
  Co  Co125  1  0.40667300  -0.07183295  -0.01037575  1
  Co  Co126  1  0.55896666  0.29057742  0.04308726  1
  Co  Co127  1  0.50361221  0.84524056  0.59461419  1
  Co  Co128  1  0.66397957  0.46108480  0.78256707  1
  Co  Co129  1  0.78025019  0.31969011  0.81248752  1
  Co  Co130  1  0.00856389  0.42644647  0.14738745  1
  Co  Co131  1  0.27173020  0.05802433  0.23793611  1
  Co  Co132  1  0.56277946  -0.04494879  0.06787429  1
  Co  Co133  1  0.60407946  0.55067358  0.06778782  1
  Co  Co134  1  0.10471602  -0.13288820  0.89678584  1
  Co  Co135  1  0.88957283  0.08741124  0.56262228  1
  Co  Co136  1  0.75461414  0.58989915  0.00565392  1
  Co  Co137  1  0.03556162  0.69183212  0.59623111  1
  Co  Co138  1  0.14026429  0.72660894  0.82102457  1
  Co  Co139  1  0.49863709  0.43172748  0.08139818  1
  Co  Co140  1  0.77744045  0.77361946  0.12436651  1
  Co  Co141  1  0.44343819  0.54473653  0.60013407  1
  Co  Co142  1  0.81645765  0.44341330  0.58979453  1
  Co  Co143  1  0.26268027  0.42023175  0.24291178  1
  Co  Co144  1  0.28303898  0.81576617  0.85544187  1
  Co  Co145  1  0.81122674  0.82774908  0.46786809  1
  Co  Co146  1  0.68537335  0.27366026  -0.05445657  1
  Co  Co147  1  0.76611493  0.27505857  0.17885835  1
  Co  Co148  1  0.19715198  0.64911709  0.53212579  1
  Co  Co149  1  0.01144285  0.46210876  0.75183288  1
  Co  Co150  1  0.29238631  0.71278590  0.22429944  1
  Co  Co151  1  0.89901966  0.33532721  0.46784667  1
  Co  Co152  1  0.42014002  0.25945579  0.62624172  1
  Co  Co153  1  0.81159802  0.06513460  0.71017309  1
  Co  Co154  1  0.24614663  0.89456359  0.41454995  1
  Co  Co155  1  0.24032506  0.37415884  0.82771386  1
  Co  Co156  1  0.43949977  0.07965784  0.04452472  1
  Co  Co157  1  0.79429934  0.57707966  0.31802281  1
  Co  Co158  1  0.12048419  0.59852380  -0.07014109  1
  Co  Co159  1  0.48739697  0.82194841  0.10660566  1
  Co  Co160  1  0.73329465  0.45613551  0.42023623  1
  Co  Co161  1  0.06409123  0.42586221  0.43292532  1
  Ni  Ni162  1  0.31596537  0.37097225  0.68527736  1
  Ni  Ni163  1  -0.01788403  0.80639281  0.78883540  1
  Ni  Ni164  1  0.02630006  0.90607459  0.17851264  1
  Ni  Ni165  1  0.20392984  0.57120903  0.20005978  1
  Ni  Ni166  1  0.10372619  0.54612741  0.63418734  1
  Ni  Ni167  1  0.66165238  0.80708615  0.36154912  1
  Ni  Ni168  1  0.58692819  0.62949946  0.57186690  1
  Ni  Ni169  1  0.92151341  0.83895052  0.06349893  1
  Ni  Ni170  1  0.71241107  -0.05153695  0.27881585  1
  Ni  Ni171  1  0.05537189  0.18603210  0.21756182  1
  Ni  Ni172  1  0.02886182  0.34616247  0.00943320  1
  Ni  Ni173  1  0.63449890  0.82004574  0.19598265  1
  Ni  Ni174  1  0.50519194  0.50914689  0.23097919  1
  Ni  Ni175  1  0.11956952  0.79722111  0.48863252  1
  Ni  Ni176  1  -0.07277207  0.32188361  0.70019913  1
  Ni  Ni177  1  0.19566798  0.11354041  -0.07843608  1
  Ni  Ni178  1  0.27013468  0.23088909  0.45471704  1
  Ni  Ni179  1  0.82842952  0.31965782  0.00396008  1
  Ni  Ni180  1  0.46986290  0.06984230  0.41403312  1
  Ni  Ni181  1  0.05851151  -0.04518077  0.02697713  1
  Ni  Ni182  1  0.53590678  0.91189704  0.39494566  1
  Ni  Ni183  1  -0.10180540  0.65785847  0.07133153  1
  Ni  Ni184  1  0.61818578  0.20919860  0.43363266  1
  Ni  Ni185  1  0.26009168  0.20924682  0.80283863  1
  Ni  Ni186  1  0.23680561  0.62327279  0.05283050  1
  Ni  Ni187  1  0.38863448  -0.05091733  0.82775761  1
  Ni  Ni188  1  0.55713670  0.14632713  0.29388445  1
  Ni  Ni189  1  0.89247986  0.78972469  0.61828317  1
  Ni  Ni190  1  0.39734300  0.42235389  0.36202157  1
  Ni  Ni191  1  0.67346425  0.05064987  -0.02329455  1
  Ni  Ni192  1  0.64730698  0.07748559  0.71914079  1
  Ni  Ni193  1  0.12373133  0.13770645  0.75778545  1
  Ni  Ni194  1  0.85581744  0.66925587  0.47762117  1
  Ni  Ni195  1  0.33341310  0.56029532  0.45997406  1
  Ni  Ni196  1  0.16520235  0.15310207  0.33472595  1
  Ni  Ni197  1  0.13647444  0.31301971  0.54010506  1
  Ni  Ni198  1  0.68509297  0.35267245  0.66727501  1
  Ni  Ni199  1  0.66003941  0.49174453  0.27105596  1
  Ni  Ni200  1  0.36564919  0.64254095  0.71692639  1
  Ni  Ni201  1  0.10224219  0.25216523  0.87888618  1
  Ni  Ni202  1  0.24986455  0.04734166  0.56288576  1
  Ni  Ni203  1  0.19178577  0.55296847  0.37722360  1
  Ni  Ni204  1  0.46678838  0.64496088  0.84622011  1
  Ni  Ni205  1  0.39236819  -0.02688569  0.63571998  1
  Ni  Ni206  1  0.85510704  0.05175348  0.26031513  1
  Ni  Ni207  1  0.55825203  0.35437865  0.87183654  1
  Ni  Ni208  1  0.90383770  0.20886676  0.27783088  1
  Ni  Ni209  1  0.63030787  0.23812040  0.77897898  1
  Ni  Ni210  1  0.41190758  0.69412755  0.37789071  1
  Ni  Ni211  1  -0.04268747  0.37830641  0.30611464  1
  Ni  Ni212  1  0.65946791  0.89009519  0.50467591  1
  Ni  Ni213  1  0.16025736  0.30888644  0.14341827  1
  Ni  Ni214  1  0.10394004  0.84406802  0.31925519  1
