# generated using pymatgen
data_Ti108Co54Ni53
_symmetry_space_group_name_H-M   'P 1'
_cell_length_a   14.54885309
_cell_length_b   14.56804434
_cell_length_c   14.62749409
_cell_angle_alpha   90.10065727
_cell_angle_beta   90.04040533
_cell_angle_gamma   90.04740497
_symmetry_Int_Tables_number   1
_chemical_formula_structural   Ti108Co54Ni53
_chemical_formula_sum   'Ti108 Co54 Ni53'
_cell_volume   3100.26642641
_cell_formula_units_Z   1
loop_
 _symmetry_equiv_pos_site_id
 _symmetry_equiv_pos_as_xyz
  1  'x, y, z'
loop_
 _atom_site_type_symbol
 _atom_site_label
 _atom_site_symmetry_multiplicity
 _atom_site_fract_x
 _atom_site_fract_y
 _atom_site_fract_z
 _atom_site_occupancy
  Ti  Ti0  1  0.04428546  0.07601622  0.23994222  1
  Ti  Ti1  1  0.13609435  0.04314926  0.61362015  1
  Ti  Ti2  1  0.01522523  0.09270433  0.91172973  1
  Ti  Ti3  1  0.00701237  0.42002018  0.28588017  1
  Ti  Ti4  1  0.05408765  0.39216186  0.47912733  1
  Ti  Ti5  1  0.08005321  0.43310303  0.82129795  1
  Ti  Ti6  1  0.02102481  0.80139791  0.30734941  1
  Ti  Ti7  1  0.01827634  0.75369035  0.57964763  1
  Ti  Ti8  1  0.00874757  0.79520345  0.96606917  1
  Ti  Ti9  1  0.41121919  0.05023692  0.24779125  1
  Ti  Ti10  1  0.35702577  0.08822095  0.62252458  1
  Ti  Ti11  1  0.43470095  0.19234109  0.93164034  1
  Ti  Ti12  1  0.42917778  0.39797708  0.27254729  1
  Ti  Ti13  1  0.38561092  0.45482123  0.60306147  1
  Ti  Ti14  1  0.44577292  0.40491909  0.96347347  1
  Ti  Ti15  1  0.37754569  0.76548689  0.22089763  1
  Ti  Ti16  1  0.50675575  0.71991771  0.51075736  1
  Ti  Ti17  1  0.37383251  0.75968726  0.94973821  1
  Ti  Ti18  1  0.75897204  0.09064155  0.25036512  1
  Ti  Ti19  1  0.81192950  0.12961955  0.59258664  1
  Ti  Ti20  1  0.81499702  0.12431582  0.90923241  1
  Ti  Ti21  1  0.79153445  0.40530769  0.31604133  1
  Ti  Ti22  1  0.70023272  0.49901095  0.61486967  1
  Ti  Ti23  1  0.76198939  0.41765914  0.83529486  1
  Ti  Ti24  1  0.70455883  0.75655851  0.26563104  1
  Ti  Ti25  1  0.72772971  0.71340797  0.68175096  1
  Ti  Ti26  1  0.80653902  0.73075495  0.96029252  1
  Ti  Ti27  1  0.07961878  0.29582319  0.00334993  1
  Ti  Ti28  1  0.07654341  0.23961473  0.34259802  1
  Ti  Ti29  1  0.07121403  0.27264717  0.65422925  1
  Ti  Ti30  1  0.13230121  0.61850621  0.07053029  1
  Ti  Ti31  1  0.10705345  0.55985654  0.41423826  1
  Ti  Ti32  1  0.02999904  0.58396961  0.71052106  1
  Ti  Ti33  1  0.17034089  0.97657944  0.09298322  1
  Ti  Ti34  1  0.07329289  0.89891062  0.45791688  1
  Ti  Ti35  1  0.08115009  0.86609675  0.72149958  1
  Ti  Ti36  1  0.35908261  0.30410558  0.09709997  1
  Ti  Ti37  1  0.40437099  0.24482154  0.47204442  1
  Ti  Ti38  1  0.40497913  0.29547340  0.76842140  1
  Ti  Ti39  1  0.46073389  0.58755756  0.22513115  1
  Ti  Ti40  1  0.39987806  0.56053403  0.41816397  1
  Ti  Ti41  1  0.43833771  0.54345871  0.78150718  1
  Ti  Ti42  1  0.39638050  0.96952358  0.04269673  1
  Ti  Ti43  1  0.43482379  0.92519743  0.47205748  1
  Ti  Ti44  1  0.49151981  0.95723880  0.73793522  1
  Ti  Ti45  1  0.77033116  0.26872855  0.07858632  1
  Ti  Ti46  1  0.75201785  0.22563460  0.41453302  1
  Ti  Ti47  1  0.73894333  0.22530556  0.76964716  1
  Ti  Ti48  1  0.80400193  0.57797491  0.08551168  1
  Ti  Ti49  1  0.70453298  0.54697829  0.41539299  1
  Ti  Ti50  1  0.81223136  0.59753461  0.80572738  1
  Ti  Ti51  1  0.68444398  0.86445015  0.09529023  1
  Ti  Ti52  1  0.77838667  0.91350121  0.42719835  1
  Ti  Ti53  1  0.70505470  0.91823508  0.72805580  1
  Ti  Ti54  1  0.22795726  0.16671445  0.04119226  1
  Ti  Ti55  1  0.31521146  0.08244743  0.41640841  1
  Ti  Ti56  1  0.30375359  -0.01063012  0.79010137  1
  Ti  Ti57  1  0.18694605  0.39003958  0.14266965  1
  Ti  Ti58  1  0.22258425  0.40797778  0.33929774  1
  Ti  Ti59  1  0.23187744  0.37884814  0.71809223  1
  Ti  Ti60  1  0.20166442  0.78808276  0.17016348  1
  Ti  Ti61  1  0.32092371  0.74307715  0.41322782  1
  Ti  Ti62  1  0.33666237  0.78410129  0.73452231  1
  Ti  Ti63  1  0.57579356  0.06593746  0.04889743  1
  Ti  Ti64  1  0.60285646  0.04869218  0.38440762  1
  Ti  Ti65  1  0.62136714  0.10132547  0.68719548  1
  Ti  Ti66  1  0.55754107  0.40057222  0.13292526  1
  Ti  Ti67  1  0.56174381  0.39143418  0.46693062  1
  Ti  Ti68  1  0.56310200  0.37785050  0.82477748  1
  Ti  Ti69  1  0.52689115  0.70486051  0.07731994  1
  Ti  Ti70  1  0.60340364  0.84792340  0.39701065  1
  Ti  Ti71  1  0.52977870  0.76819573  0.80473626  1
  Ti  Ti72  1  0.88910049  0.06306061  0.08184418  1
  Ti  Ti73  1  0.98211917  0.07956766  0.43390275  1
  Ti  Ti74  1  0.93794730  0.02073482  0.73897042  1
  Ti  Ti75  1  0.88992046  0.40789924  0.13157829  1
  Ti  Ti76  1  0.86702362  0.44654222  0.49599161  1
  Ti  Ti77  1  0.84812656  0.35346209  0.66629696  1
  Ti  Ti78  1  0.86452911  0.75645856  0.14855974  1
  Ti  Ti79  1  0.86121524  0.67719879  0.34069947  1
  Ti  Ti80  1  0.89313995  0.80793864  0.77800457  1
  Ti  Ti81  1  0.31893754  0.23205102  0.26737676  1
  Ti  Ti82  1  0.22261657  0.33739145  0.53426912  1
  Ti  Ti83  1  0.25705803  0.29422790  0.89922344  1
  Ti  Ti84  1  0.27388208  0.57313671  0.19765452  1
  Ti  Ti85  1  0.24294782  0.63521891  0.58849619  1
  Ti  Ti86  1  0.31517708  0.55993747  0.95999682  1
  Ti  Ti87  1  0.20012955  0.96594412  0.29133395  1
  Ti  Ti88  1  0.25063018  0.91604062  0.49279643  1
  Ti  Ti89  1  0.17114972  0.93164649  0.91432065  1
  Ti  Ti90  1  0.59981828  0.24443874  0.29993971  1
  Ti  Ti91  1  0.52883735  0.26806426  0.62515056  1
  Ti  Ti92  1  0.63809990  0.22026749  0.94134110  1
  Ti  Ti93  1  0.65121139  0.56589975  0.21866548  1
  Ti  Ti94  1  0.56368910  0.62269302  0.67325873  1
  Ti  Ti95  1  0.64147390  0.54841850  0.96172857  1
  Ti  Ti96  1  0.51997687  0.89689313  0.21304264  1
  Ti  Ti97  1  0.58279592  0.95670444  0.56850154  1
  Ti  Ti98  1  0.61179286  0.91835889  0.90858501  1
  Ti  Ti99  1  0.95162307  0.23564745  0.18337289  1
  Ti  Ti100  1  0.92291623  0.25527811  0.50723635  1
  Ti  Ti101  1  0.94915161  0.27789400  0.83743787  1
  Ti  Ti102  1  0.99034118  0.60325265  0.21051649  1
  Ti  Ti103  1  0.85006659  0.64981888  0.52934403  1
  Ti  Ti104  1  0.95231403  0.53889823  0.94900693  1
  Ti  Ti105  1  0.98555705  0.90931630  0.16123802  1
  Ti  Ti106  1  0.92936307  0.94967656  0.56902635  1
  Ti  Ti107  1  0.83073903  0.93874953  0.89708511  1
  Co  Co108  1  0.93106167  0.53174791  0.38290876  1
  Co  Co109  1  -0.04253042  0.65609834  0.04835495  1
  Co  Co110  1  0.12769385  0.67504280  0.26637295  1
  Co  Co111  1  0.21048945  0.18120543  0.71027844  1
  Co  Co112  1  0.29869555  0.04727356  -0.04450880  1
  Co  Co113  1  -0.08624453  0.81880894  0.45317856  1
  Co  Co114  1  0.67562847  -0.06848338  0.26984622  1
  Co  Co115  1  0.27715187  0.08263626  0.16191452  1
  Co  Co116  1  0.86209578  0.88163683  0.03729431  1
  Co  Co117  1  0.63224803  0.39756311  0.29163051  1
  Co  Co118  1  0.08518445  0.21295581  0.50135201  1
  Co  Co119  1  0.78411994  0.06246698  0.75388100  1
  Co  Co120  1  0.13182096  0.51508482  0.24081182  1
  Co  Co121  1  0.19677225  0.12727938  0.29152551  1
  Co  Co122  1  0.79843293  0.29036074  0.92346370  1
  Co  Co123  1  0.52351870  0.26554537  0.04771623  1
  Co  Co124  1  0.55474346  0.73327123  0.23113096  1
  Co  Co125  1  0.04824157  0.75539448  0.13765340  1
  Co  Co126  1  0.47609191  0.23525826  0.20633524  1
  Co  Co127  1  0.66203909  0.64916332  0.53593916  1
  Co  Co128  1  0.05312120  0.14529026  0.75365701  1
  Co  Co129  1  0.57849197  0.22973455  0.46781015  1
  Co  Co130  1  0.69345458  0.69649621  0.10518358  1
  Co  Co131  1  0.78856566  0.44533587  -0.00404796  1
  Co  Co132  1  0.00293350  0.92518107  0.85472582  1
  Co  Co133  1  0.01971475  -0.03757719  0.01304296  1
  Co  Co134  1  0.14541101  0.05991569  0.43076453  1
  Co  Co135  1  0.33746691  0.43440198  0.83778635  1
  Co  Co136  1  0.11745000  0.27674743  0.82161320  1
  Co  Co137  1  -0.08197193  0.31214140  0.35852127  1
  Co  Co138  1  0.80744939  0.06982592  0.43314004  1
  Co  Co139  1  0.13169616  0.01065787  0.77386056  1
  Co  Co140  1  0.26569764  0.41302029  0.00263008  1
  Co  Co141  1  0.63492299  0.50962393  0.77545116  1
  Co  Co142  1  0.42077458  0.89022872  0.87568614  1
  Co  Co143  1  0.45348366  0.12405227  0.73681914  1
  Co  Co144  1  -0.09352353  0.68405599  0.68016488  1
  Co  Co145  1  0.36971216  0.46676722  0.12151780  1
  Co  Co146  1  0.34793474  0.77548524  0.56239835  1
  Co  Co147  1  0.35073982  -0.09574574  0.33771846  1
  Co  Co148  1  0.53495004  0.44241277  0.65670405  1
  Co  Co149  1  0.64083479  0.38042089  -0.01073308  1
  Co  Co150  1  0.65170287  0.65458771  0.82614013  1
  Co  Co151  1  0.72437094  0.42781240  0.15062955  1
  Co  Co152  1  0.47221266  0.14786276  0.35974808  1
  Co  Co153  1  0.22780252  0.24505486  0.40312616  1
  Co  Co154  1  0.40462859  0.64948554  0.64789316  1
  Co  Co155  1  -0.08116499  0.45768608  0.79704932  1
  Co  Co156  1  0.56717279  0.21576637  0.79502024  1
  Co  Co157  1  0.59371699  0.66579287  0.37582751  1
  Co  Co158  1  0.89670745  0.15800796  0.31741411  1
  Co  Co159  1  0.46635618  0.78157942  0.35549686  1
  Co  Co160  1  0.85144018  0.83635100  0.29389425  1
  Co  Co161  1  0.77369365  0.26456341  0.24059744  1
  Ni  Ni162  1  0.13454554  0.23406351  0.17800411  1
  Ni  Ni163  1  0.81048718  -0.05455211  0.17788015  1
  Ni  Ni164  1  0.82355664  0.54793214  0.24546743  1
  Ni  Ni165  1  -0.00211053  0.55889925  0.54558751  1
  Ni  Ni166  1  0.66460970  0.81601030  0.56614854  1
  Ni  Ni167  1  0.54592259  0.51367581  0.35070690  1
  Ni  Ni168  1  0.05340661  0.12646715  0.07561780  1
  Ni  Ni169  1  0.83380467  0.82502897  0.61045126  1
  Ni  Ni170  1  0.86471774  0.52576193  0.65347473  1
  Ni  Ni171  1  0.34654460  -0.07920181  0.63415754  1
  Ni  Ni172  1  0.47899830  0.04491138  0.88340860  1
  Ni  Ni173  1  -0.05782788  0.38036993  -0.03554589  1
  Ni  Ni174  1  0.72212928  0.35888881  0.51010561  1
  Ni  Ni175  1  0.34061909  0.26557817  0.62598807  1
  Ni  Ni176  1  0.63061290  0.74940876  -0.04281506  1
  Ni  Ni177  1  0.32040067  0.91548754  0.17603841  1
  Ni  Ni178  1  0.49562900  0.09980883  0.53253517  1
  Ni  Ni179  1  -0.08517981  -0.01572496  0.31306522  1
  Ni  Ni180  1  0.72656100  0.79909031  0.83377945  1
  Ni  Ni181  1  0.65198454  0.06931590  0.85757073  1
  Ni  Ni182  1  -0.01339869  0.11554777  0.59787806  1
  Ni  Ni183  1  0.66636220  0.10693813  0.52249805  1
  Ni  Ni184  1  0.92536417  0.21748954  0.00983939  1
  Ni  Ni185  1  0.17086532  0.13284912  -0.11954631  1
  Ni  Ni186  1  0.15053335  0.48792557  0.61094747  1
  Ni  Ni187  1  0.48759990  0.54576588  0.05012384  1
  Ni  Ni188  1  0.17201843  0.79545749  0.01047683  1
  Ni  Ni189  1  0.53146195  0.54688370  0.52182782  1
  Ni  Ni190  1  0.90262577  0.20050134  0.70608226  1
  Ni  Ni191  1  0.00445556  0.68263894  0.42625535  1
  Ni  Ni192  1  0.51757387  0.85969251  0.02685369  1
  Ni  Ni193  1  0.12418306  0.47967303  -0.02860098  1
  Ni  Ni194  1  0.25336956  0.49734961  0.48495567  1
  Ni  Ni195  1  0.23280657  0.16211934  0.54433214  1
  Ni  Ni196  1  0.49736760  0.63403124  0.90831585  1
  Ni  Ni197  1  0.73562958  0.01453992  0.02142534  1
  Ni  Ni198  1  0.00140510  0.42505523  0.64848501  1
  Ni  Ni199  1  0.03982876  0.46872394  0.10738579  1
  Ni  Ni200  1  0.66888808  0.34530859  0.68207094  1
  Ni  Ni201  1  0.35351560  0.66055889  0.08543384  1
  Ni  Ni202  1  0.75354616  -0.02287072  0.58580454  1
  Ni  Ni203  1  0.63846343  0.19653641  0.14050534  1
  Ni  Ni204  1  0.36660900  0.39309175  0.42553723  1
  Ni  Ni205  1  0.74218176  0.74471023  0.43578783  1
  Ni  Ni206  1  0.49239638  0.81521804  0.64338355  1
  Ni  Ni207  1  0.32237227  0.14827554  0.82362550  1
  Ni  Ni208  1  0.15866454  0.73168413  0.47731278  1
  Ni  Ni209  1  0.96463910  0.67088077  0.84891185  1
  Ni  Ni210  1  0.25169555  0.60508282  0.35489446  1
  Ni  Ni211  1  0.19718413  0.81668143  0.61831196  1
  Ni  Ni212  1  0.41541245  0.13759452  0.08815024  1
  Ni  Ni213  1  0.19201456  0.81399173  0.34140225  1
  Ni  Ni214  1  0.57911004  0.06608775  0.21834603  1
