# generated using pymatgen
data_Ti108Co54Ni53
_symmetry_space_group_name_H-M   'P 1'
_cell_length_a   14.64268660
_cell_length_b   14.70130621
_cell_length_c   14.60584966
_cell_angle_alpha   90.10147078
_cell_angle_beta   90.16588060
_cell_angle_gamma   89.92030748
_symmetry_Int_Tables_number   1
_chemical_formula_structural   Ti108Co54Ni53
_chemical_formula_sum   'Ti108 Co54 Ni53'
_cell_volume   3144.13075263
_cell_formula_units_Z   1
loop_
 _symmetry_equiv_pos_site_id
 _symmetry_equiv_pos_as_xyz
  1  'x, y, z'
loop_
 _atom_site_type_symbol
 _atom_site_label
 _atom_site_symmetry_multiplicity
 _atom_site_fract_x
 _atom_site_fract_y
 _atom_site_fract_z
 _atom_site_occupancy
  Ti  Ti0  1  0.06237447  0.08472171  0.27794805  1
  Ti  Ti1  1  0.11434319  0.01554145  0.61630260  1
  Ti  Ti2  1  0.10655472  0.16247030  0.93028182  1
  Ti  Ti3  1  0.11222243  0.39831619  0.17837333  1
  Ti  Ti4  1  0.11917666  0.35953623  0.56763104  1
  Ti  Ti5  1  0.11018789  0.36959383  0.86607991  1
  Ti  Ti6  1  0.05684941  0.67754519  0.24054056  1
  Ti  Ti7  1  0.07378307  0.72641116  0.61248666  1
  Ti  Ti8  1  0.03189088  0.83425844  0.95136538  1
  Ti  Ti9  1  0.43339059  0.07782095  0.30140639  1
  Ti  Ti10  1  0.41982011  0.11315193  0.60402288  1
  Ti  Ti11  1  0.42782514  0.18028197  0.91844739  1
  Ti  Ti12  1  0.37668857  0.37415008  0.22529757  1
  Ti  Ti13  1  0.41305054  0.46541589  0.56590645  1
  Ti  Ti14  1  0.46428802  0.38682485  0.90156882  1
  Ti  Ti15  1  0.38133140  0.71445623  0.26778187  1
  Ti  Ti16  1  0.35868855  0.64882801  0.53016077  1
  Ti  Ti17  1  0.40165156  0.72194222  0.91560376  1
  Ti  Ti18  1  0.73571421  0.02546875  0.21261814  1
  Ti  Ti19  1  0.76840773  0.09875769  0.58077323  1
  Ti  Ti20  1  0.74785601  0.12693972  0.96315584  1
  Ti  Ti21  1  0.71316355  0.50983760  0.26470893  1
  Ti  Ti22  1  0.67337560  0.39885407  0.53291541  1
  Ti  Ti23  1  0.83137676  0.38781015  0.97102802  1
  Ti  Ti24  1  0.68024440  0.77420932  0.26961659  1
  Ti  Ti25  1  0.78146133  0.75270242  0.53744126  1
  Ti  Ti26  1  0.83505343  0.77169575  0.93551673  1
  Ti  Ti27  1  0.07987181  0.22074540  0.12199201  1
  Ti  Ti28  1  0.04258093  0.21202625  0.43204443  1
  Ti  Ti29  1  0.05174820  0.18910123  0.75103556  1
  Ti  Ti30  1  0.11217705  0.63418429  0.02903269  1
  Ti  Ti31  1  0.12641732  0.59682896  0.41363771  1
  Ti  Ti32  1  0.05540813  0.60385554  0.78147161  1
  Ti  Ti33  1  0.11176351  0.93361241  0.13571256  1
  Ti  Ti34  1  0.08296193  0.87621394  0.48713225  1
  Ti  Ti35  1  0.08487583  0.96268012  0.80163228  1
  Ti  Ti36  1  0.41719269  0.19361322  0.12838968  1
  Ti  Ti37  1  0.50824064  0.21712960  0.44824884  1
  Ti  Ti38  1  0.38918711  0.25162714  0.73372122  1
  Ti  Ti39  1  0.46737661  0.61531430  0.09275182  1
  Ti  Ti40  1  0.38331693  0.51870539  0.35776023  1
  Ti  Ti41  1  0.38441468  0.59351537  0.74049706  1
  Ti  Ti42  1  0.40811130  0.90011361  0.03335816  1
  Ti  Ti43  1  0.42972132  0.90390606  0.37901454  1
  Ti  Ti44  1  0.38956699  1.02185186  0.80034588  1
  Ti  Ti45  1  0.75887264  0.21456662  0.13192826  1
  Ti  Ti46  1  0.80736546  0.26652615  0.40727353  1
  Ti  Ti47  1  0.70748273  0.30500011  0.71052028  1
  Ti  Ti48  1  0.79076706  0.56669008  0.03927471  1
  Ti  Ti49  1  0.82795653  0.55033210  0.45167471  1
  Ti  Ti50  1  0.77161235  0.57261926  0.63794479  1
  Ti  Ti51  1  0.76871012  0.86971373  0.10502868  1
  Ti  Ti52  1  0.79285673  0.89133664  0.37486861  1
  Ti  Ti53  1  0.75747372  0.95677922  0.70902837  1
  Ti  Ti54  1  0.25426694  0.15847779  0.05039480  1
  Ti  Ti55  1  0.22908565  0.10992194  0.48474727  1
  Ti  Ti56  1  0.23923795  0.13436671  0.69894586  1
  Ti  Ti57  1  0.28373745  0.45921674  0.03463902  1
  Ti  Ti58  1  0.20700173  0.41440749  0.35217615  1
  Ti  Ti59  1  0.26893859  0.43080293  0.70089758  1
  Ti  Ti60  1  0.23118604  0.79196870  0.00670028  1
  Ti  Ti61  1  0.19438571  0.77800913  0.33383004  1
  Ti  Ti62  1  0.23173665  0.80214701  0.79415728  1
  Ti  Ti63  1  0.53001339  0.03026936  0.10572392  1
  Ti  Ti64  1  0.61083325  0.12658306  0.30957579  1
  Ti  Ti65  1  0.64229405  0.01408309  0.84031475  1
  Ti  Ti66  1  0.64288186  0.41909498  0.09094617  1
  Ti  Ti67  1  0.53974782  0.42303678  0.39350639  1
  Ti  Ti68  1  0.65875531  0.41122618  0.86330154  1
  Ti  Ti69  1  0.66710810  0.71434270  0.06735972  1
  Ti  Ti70  1  0.60984555  0.70391382  0.47175532  1
  Ti  Ti71  1  0.59417806  0.70088926  0.79477403  1
  Ti  Ti72  1  0.96860239  0.08356244  0.06197482  1
  Ti  Ti73  1  0.88087431  0.08031807  0.38650709  1
  Ti  Ti74  1  0.93261418  0.05272348  0.70194791  1
  Ti  Ti75  1  0.92011727  0.41966833  0.13647474  1
  Ti  Ti76  1  0.92826692  0.39195968  0.47619285  1
  Ti  Ti77  1  0.85426495  0.39384023  0.77392499  1
  Ti  Ti78  1  0.92325831  0.70386748  0.09623957  1
  Ti  Ti79  1  0.89948864  0.73390743  0.37028070  1
  Ti  Ti80  1  0.96256521  0.76729910  0.77898794  1
  Ti  Ti81  1  0.27329315  0.20308813  0.28452550  1
  Ti  Ti82  1  0.31185368  0.28616953  0.55870380  1
  Ti  Ti83  1  0.27060641  0.28504702  0.88256242  1
  Ti  Ti84  1  0.20928374  0.56587774  0.20981876  1
  Ti  Ti85  1  0.18055113  0.56853986  0.60832936  1
  Ti  Ti86  1  0.24171736  0.60046992  0.86908248  1
  Ti  Ti87  1  0.28348522  0.89665602  0.22234603  1
  Ti  Ti88  1  0.25855549  0.91771608  0.45912459  1
  Ti  Ti89  1  0.22345027  0.97737654  0.94909108  1
  Ti  Ti90  1  0.63658732  0.31204999  0.28364528  1
  Ti  Ti91  1  0.59040791  0.19815362  0.62246319  1
  Ti  Ti92  1  0.60447724  0.21505375  0.87259546  1
  Ti  Ti93  1  0.55721076  0.61086531  0.30345303  1
  Ti  Ti94  1  0.57034742  0.57360246  0.62257595  1
  Ti  Ti95  1  0.59341312  0.56935480  0.95376185  1
  Ti  Ti96  1  0.59134267  0.93862027  0.28789202  1
  Ti  Ti97  1  0.57212926  1.02100397  0.49087230  1
  Ti  Ti98  1  0.61231951  0.84835544  0.93842483  1
  Ti  Ti99  1  0.94368933  0.26451331  0.26607497  1
  Ti  Ti100  1  0.93542366  0.24703324  0.59852358  1
  Ti  Ti101  1  0.91892978  0.22312496  0.91465229  1
  Ti  Ti102  1  0.89820347  0.57544386  0.25488460  1
  Ti  Ti103  1  0.96727516  0.50826714  0.63431290  1
  Ti  Ti104  1  0.85078755  0.58714149  0.84062909  1
  Ti  Ti105  1  0.92370509  0.94685659  0.22236892  1
  Ti  Ti106  1  0.89586106  0.94396799  0.54104409  1
  Ti  Ti107  1  0.84282347  0.96173314  0.93084238  1
  Co  Co108  1  0.74542401  0.41114479  0.38505345  1
  Co  Co109  1  -0.05794366  0.78791435  0.53066273  1
  Co  Co110  1  -0.00279309  0.34272289  0.71652051  1
  Co  Co111  1  -0.08634160  0.91884517  0.79865049  1
  Co  Co112  1  0.38828303  0.03327306  0.47022979  1
  Co  Co113  1  0.01908547  -0.11525924  0.65870774  1
  Co  Co114  1  0.03311121  0.83292778  0.26815949  1
  Co  Co115  1  0.20315450  0.27579783  0.43700226  1
  Co  Co116  1  -0.03570339  0.66898776  -0.07140860  1
  Co  Co117  1  0.14190860  0.94394121  0.31435757  1
  Co  Co118  1  0.87086491  0.21052333  0.73789933  1
  Co  Co119  1  0.78155637  0.70477742  0.75389871  1
  Co  Co120  1  0.05349641  0.73693047  0.41837641  1
  Co  Co121  1  0.28357832  0.03190160  0.32918458  1
  Co  Co122  1  0.34470914  0.88635966  0.88227907  1
  Co  Co123  1  0.74671478  0.66069515  0.36616921  1
  Co  Co124  1  0.52577201  0.47379911  0.22908581  1
  Co  Co125  1  0.52179259  0.77654205  0.34542067  1
  Co  Co126  1  0.76385991  0.17550165  0.29153071  1
  Co  Co127  1  0.90904586  0.25201441  0.09544604  1
  Co  Co128  1  0.81911385  0.03389701  0.08022012  1
  Co  Co129  1  0.77066477  0.26239996  0.85551550  1
  Co  Co130  1  0.73197039  -0.06905335  0.54865998  1
  Co  Co131  1  0.35772531  0.31220675  0.03017312  1
  Co  Co132  1  0.36670025  0.05351253  -0.01041758  1
  Co  Co133  1  0.17546726  0.31212294  0.01515784  1
  Co  Co134  1  0.02821623  0.54755201  0.13991696  1
  Co  Co135  1  0.46099506  0.24518361  0.29404651  1
  Co  Co136  1  0.35575397  0.18735108  0.42541967  1
  Co  Co137  1  0.12186231  0.19609959  0.58421691  1
  Co  Co138  1  0.62718378  0.57594426  0.13889296  1
  Co  Co139  1  -0.08742076  0.66174056  0.66106060  1
  Co  Co140  1  0.05267843  0.50322259  0.29479365  1
  Co  Co141  1  0.07120871  0.78452580  0.10963391  1
  Co  Co142  1  0.86878742  0.79160067  0.22229881  1
  Co  Co143  1  0.66282238  0.70413132  0.64410200  1
  Co  Co144  1  0.53494310  0.73775840  0.18917615  1
  Co  Co145  1  0.52601976  0.28203373  0.01096209  1
  Co  Co146  1  0.24774950  0.30550451  0.15970228  1
  Co  Co147  1  0.05586753  0.36297901  0.37408927  1
  Co  Co148  1  -0.02940216  0.07649330  0.86788483  1
  Co  Co149  1  0.65708511  0.54183089  0.44592651  1
  Co  Co150  1  0.49925995  0.57518067  0.47259977  1
  Co  Co151  1  0.12205600  0.25369963  0.27788626  1
  Co  Co152  1  0.05982610  0.48500712  0.48864594  1
  Co  Co153  1  0.81634061  0.07905802  0.81860321  1
  Co  Co154  1  0.35014302  0.77336727  0.42022524  1
  Co  Co155  1  0.53460267  0.29700341  0.76279236  1
  Co  Co156  1  0.06291358  -0.00994324  -0.02689508  1
  Co  Co157  1  0.69505564  0.13702689  0.74330944  1
  Co  Co158  1  0.71079493  0.67808286  -0.09416544  1
  Co  Co159  1  0.51244465  0.76061052  0.02509540  1
  Co  Co160  1  0.96419277  0.62270269  0.50870964  1
  Co  Co161  1  0.23891758  -0.03115534  0.76049965  1
  Ni  Ni162  1  0.43127489  0.42280505  0.73284480  1
  Ni  Ni163  1  0.08255247  0.03976210  0.43941272  1
  Ni  Ni164  1  0.18895272  0.85932304  0.63374513  1
  Ni  Ni165  1  0.10876531  0.46041505  0.72520424  1
  Ni  Ni166  1  0.93226100  0.89311152  0.06740416  1
  Ni  Ni167  1  0.45269934  -0.11378770  0.20471356  1
  Ni  Ni168  1  0.67166482  0.18059556  0.46336625  1
  Ni  Ni169  1  0.21700756  0.72599924  0.16370571  1
  Ni  Ni170  1  0.94829087  0.51931008  -0.00356099  1
  Ni  Ni171  1  0.71834092  0.03150488  0.40664913  1
  Ni  Ni172  1  0.19757244  0.06942815  0.18424958  1
  Ni  Ni173  1  0.00712590  0.34405704  0.00420661  1
  Ni  Ni174  1  0.11396744  0.46846504  0.01641244  1
  Ni  Ni175  1  -0.01914729  0.46464503  0.84488064  1
  Ni  Ni176  1  0.58529480  0.17785125  0.15720815  1
  Ni  Ni177  1  0.51038894  0.00197319  0.93385930  1
  Ni  Ni178  1  0.26123424  0.69548736  0.67179384  1
  Ni  Ni179  1  0.60251139  0.87534428  0.12392058  1
  Ni  Ni180  1  0.35799396  0.02865233  0.15496523  1
  Ni  Ni181  1  0.90078922  0.42306637  0.31759216  1
  Ni  Ni182  1  0.53042383  0.53450944  0.80260683  1
  Ni  Ni183  1  0.77229238  0.65895323  0.18967531  1
  Ni  Ni184  1  0.85618355  0.82961026  0.66657500  1
  Ni  Ni185  1  0.30995035  0.44848764  0.85752715  1
  Ni  Ni186  1  -0.02906113  0.09804814  0.54172871  1
  Ni  Ni187  1  -0.10318649  0.11540136  0.21133857  1
  Ni  Ni188  1  0.29497574  0.62919100  0.03762477  1
  Ni  Ni189  1  0.73104398  0.84351432  0.82428775  1
  Ni  Ni190  1  0.82623218  0.41080599  0.60968851  1
  Ni  Ni191  1  0.37615895  0.35426079  0.41559939  1
  Ni  Ni192  1  0.20914064  0.73774415  0.50930359  1
  Ni  Ni193  1  0.36934750  0.76160261  0.10969179  1
  Ni  Ni194  1  0.69028902  0.55753852  0.78113223  1
  Ni  Ni195  1  0.69214315  0.29202745  -0.00408318  1
  Ni  Ni196  1  0.27740419  0.63371290  0.37938307  1
  Ni  Ni197  1  0.29427722  -0.00285666  0.60748986  1
  Ni  Ni198  1  0.52164769  0.32596969  0.16381044  1
  Ni  Ni199  1  0.41291229  0.55431773  0.93205119  1
  Ni  Ni200  1  0.11880700  0.72001222  0.87595464  1
  Ni  Ni201  1  0.18007012  0.29305767  0.71466917  1
  Ni  Ni202  1  0.36664885  0.53501770  0.18627435  1
  Ni  Ni203  1  -0.03350061  -0.06996536  0.38159578  1
  Ni  Ni204  1  0.77292801  0.26145596  0.56848868  1
  Ni  Ni205  1  0.60800943  0.02530157  0.65133208  1
  Ni  Ni206  1  0.26180523  0.11806771  0.86346138  1
  Ni  Ni207  1  0.78868494  0.34907577  0.22617259  1
  Ni  Ni208  1  0.46642589  0.44564643  0.06325869  1
  Ni  Ni209  1  0.25987954  0.47113781  0.49864850  1
  Ni  Ni210  1  0.50326470  0.33375804  0.56318426  1
  Ni  Ni211  1  0.63423570  0.86878321  0.43317323  1
  Ni  Ni212  1  0.66727363  -0.01240346  0.01649714  1
  Ni  Ni213  1  0.51876506  0.12101992  0.75877455  1
  Ni  Ni214  1  0.59105438  0.42471923  0.68470240  1
