# generated using pymatgen
data_Ti108Co54Ni53
_symmetry_space_group_name_H-M   'P 1'
_cell_length_a   14.64359649
_cell_length_b   14.69823064
_cell_length_c   14.62268885
_cell_angle_alpha   89.90974036
_cell_angle_beta   89.70080467
_cell_angle_gamma   90.20009625
_symmetry_Int_Tables_number   1
_chemical_formula_structural   Ti108Co54Ni53
_chemical_formula_sum   'Ti108 Co54 Ni53'
_cell_volume   3147.24772586
_cell_formula_units_Z   1
loop_
 _symmetry_equiv_pos_site_id
 _symmetry_equiv_pos_as_xyz
  1  'x, y, z'
loop_
 _atom_site_type_symbol
 _atom_site_label
 _atom_site_symmetry_multiplicity
 _atom_site_fract_x
 _atom_site_fract_y
 _atom_site_fract_z
 _atom_site_occupancy
  Ti  Ti0  1  0.10601523  0.03754815  0.29505129  1
  Ti  Ti1  1  0.10710308  0.05466093  0.59035426  1
  Ti  Ti2  1  0.06920730  0.09561340  0.96390289  1
  Ti  Ti3  1  0.08803999  0.38466432  0.21960369  1
  Ti  Ti4  1  0.05901233  0.44465666  0.56649614  1
  Ti  Ti5  1  0.09819085  0.45758695  0.86264062  1
  Ti  Ti6  1  0.10620418  0.71108979  0.23948331  1
  Ti  Ti7  1  0.10102414  0.76210480  0.61129525  1
  Ti  Ti8  1  0.09601373  0.78009668  0.96009707  1
  Ti  Ti9  1  0.40211699  0.10338968  0.17369132  1
  Ti  Ti10  1  0.43615807  0.04052463  0.61507044  1
  Ti  Ti11  1  0.33484658  0.00565127  0.96388913  1
  Ti  Ti12  1  0.40923231  0.41485432  0.30345131  1
  Ti  Ti13  1  0.44716636  0.41127493  0.66645725  1
  Ti  Ti14  1  0.47283535  0.37420570  0.91138458  1
  Ti  Ti15  1  0.48483168  0.68684707  0.23701343  1
  Ti  Ti16  1  0.44044120  0.70664843  0.68029316  1
  Ti  Ti17  1  0.40101376  0.67230271  0.86787694  1
  Ti  Ti18  1  0.70981672  -0.04394435  0.29093155  1
  Ti  Ti19  1  0.66536229  0.07988808  0.57502839  1
  Ti  Ti20  1  0.75583668  0.11393314  0.82953781  1
  Ti  Ti21  1  0.79656701  0.44421530  0.28706018  1
  Ti  Ti22  1  0.79038980  0.40572291  0.63441701  1
  Ti  Ti23  1  0.82459836  0.43355103  0.84062877  1
  Ti  Ti24  1  0.77298164  0.77109412  0.24773739  1
  Ti  Ti25  1  0.74823358  0.81370507  0.63656568  1
  Ti  Ti26  1  0.79943168  0.76047024  0.83145603  1
  Ti  Ti27  1  0.02509832  0.22627504  0.11608691  1
  Ti  Ti28  1  0.11791722  0.18438718  0.43461789  1
  Ti  Ti29  1  0.13596273  0.28672884  0.72026130  1
  Ti  Ti30  1  0.04945786  0.57282995  0.03310411  1
  Ti  Ti31  1  0.12354637  0.51767351  0.39371909  1
  Ti  Ti32  1  0.08569198  0.58442279  0.70333712  1
  Ti  Ti33  1  0.06031279  0.89957467  0.14691401  1
  Ti  Ti34  1  0.11009091  0.90560798  0.45254375  1
  Ti  Ti35  1  0.03920266  0.97006661  0.78738436  1
  Ti  Ti36  1  0.44572895  0.24912230  0.06623601  1
  Ti  Ti37  1  0.49865352  0.27482248  0.41653930  1
  Ti  Ti38  1  0.34833881  0.22034443  0.69995881  1
  Ti  Ti39  1  0.37007679  0.64913526  0.07664004  1
  Ti  Ti40  1  0.46191463  0.58312175  0.41248157  1
  Ti  Ti41  1  0.30321209  0.54115961  0.75284159  1
  Ti  Ti42  1  0.40751154  0.84154319  0.12626499  1
  Ti  Ti43  1  0.41954224  0.97541641  0.42652052  1
  Ti  Ti44  1  0.39215329  0.87353989  0.71818140  1
  Ti  Ti45  1  0.83332753  0.20720315  0.17903208  1
  Ti  Ti46  1  0.77240118  0.26114229  0.35418672  1
  Ti  Ti47  1  0.68732198  0.29045961  0.74452298  1
  Ti  Ti48  1  0.72222462  0.53388317  0.04114848  1
  Ti  Ti49  1  0.82002389  0.53866412  0.47109893  1
  Ti  Ti50  1  0.76110282  0.59367797  0.67411357  1
  Ti  Ti51  1  0.70187546  0.91160844  0.10084186  1
  Ti  Ti52  1  0.76827941  0.95820606  0.47821799  1
  Ti  Ti53  1  0.70014147  0.90476294  0.81464269  1
  Ti  Ti54  1  0.23427252  0.15051080  0.05565104  1
  Ti  Ti55  1  0.30765849  0.13731662  0.35170233  1
  Ti  Ti56  1  0.29661856  0.02937218  0.75032447  1
  Ti  Ti57  1  0.30662943  0.44523213  0.08803821  1
  Ti  Ti58  1  0.34252229  0.43377833  0.47652222  1
  Ti  Ti59  1  0.30299789  0.36066353  0.81926224  1
  Ti  Ti60  1  0.22262084  0.80618987  0.10366515  1
  Ti  Ti61  1  0.20403578  0.72994297  0.41436827  1
  Ti  Ti62  1  0.22789284  0.71590896  0.77578552  1
  Ti  Ti63  1  0.60913311  0.08952115  0.08381300  1
  Ti  Ti64  1  0.65376654  0.12370391  0.38786375  1
  Ti  Ti65  1  0.57410410  0.00426919  0.74918824  1
  Ti  Ti66  1  0.51514778  0.40997255  0.13945939  1
  Ti  Ti67  1  0.64827963  0.51404728  0.40172677  1
  Ti  Ti68  1  0.61129535  0.46561159  0.74801277  1
  Ti  Ti69  1  0.61622642  0.73241806  0.07329538  1
  Ti  Ti70  1  0.54466292  0.78778471  0.41094337  1
  Ti  Ti71  1  0.62273573  0.67550059  0.76382077  1
  Ti  Ti72  1  0.91506580  0.04354123  0.05032684  1
  Ti  Ti73  1  0.94229803  0.03099927  0.39946440  1
  Ti  Ti74  1  0.96752431  0.16526715  0.70358066  1
  Ti  Ti75  1  0.92972236  0.42464523  0.11984899  1
  Ti  Ti76  1  0.92149750  0.38590479  0.43909777  1
  Ti  Ti77  1  0.97339408  0.37585541  0.71971784  1
  Ti  Ti78  1  0.89179649  0.82187694  0.06274766  1
  Ti  Ti79  1  0.87955740  0.74500203  0.42195451  1
  Ti  Ti80  1  0.93874967  0.69214983  0.73117282  1
  Ti  Ti81  1  0.28237120  0.28458456  0.19858901  1
  Ti  Ti82  1  0.23929684  0.23405057  0.55446992  1
  Ti  Ti83  1  0.24648722  0.18534662  0.86706884  1
  Ti  Ti84  1  0.27948705  0.58558685  0.28013129  1
  Ti  Ti85  1  0.22963907  0.54953164  0.58444722  1
  Ti  Ti86  1  0.22211694  0.59778698  0.95199643  1
  Ti  Ti87  1  0.29407678  0.94964608  0.27328153  1
  Ti  Ti88  1  0.26168611  0.91390309  0.57036184  1
  Ti  Ti89  1  0.23599603  0.87808793  0.87381602  1
  Ti  Ti90  1  0.58458892  0.25182538  0.22336413  1
  Ti  Ti91  1  0.52162040  0.22473469  0.60811521  1
  Ti  Ti92  1  0.57086261  0.16471038  0.88667796  1
  Ti  Ti93  1  0.68571840  0.61159672  0.22588248  1
  Ti  Ti94  1  0.55717310  0.58477380  0.59302691  1
  Ti  Ti95  1  0.55620567  0.59361844  0.93175008  1
  Ti  Ti96  1  0.53097002  0.96952438  0.25252923  1
  Ti  Ti97  1  0.57108888  0.90322597  0.57505368  1
  Ti  Ti98  1  0.55216945  0.92635042  0.95321156  1
  Ti  Ti99  1  0.96289978  0.20925769  0.33609281  1
  Ti  Ti100  1  0.86100864  0.25393132  0.56640407  1
  Ti  Ti101  1  0.96124638  0.27918138  0.89514133  1
  Ti  Ti102  1  0.91302250  0.61955671  0.16798024  1
  Ti  Ti103  1  0.96254729  0.62067159  0.54631610  1
  Ti  Ti104  1  0.91692899  0.67135520  0.94754997  1
  Ti  Ti105  1  0.88888813  0.93827521  0.21345687  1
  Ti  Ti106  1  0.90094899  1.00243004  0.60331073  1
  Ti  Ti107  1  0.86397501  0.93717199  0.90146837  1
  Co  Co108  1  0.69947952  0.81812860  0.45721970  1
  Co  Co109  1  0.59177945  0.74386307  0.58027077  1
  Co  Co110  1  0.75092370  0.37854650  0.46211056  1
  Co  Co111  1  0.29270127  0.74711172  0.23440254  1
  Co  Co112  1  0.88139749  0.87560266  0.72624886  1
  Co  Co113  1  0.04144632  -0.09162602  0.63127543  1
  Co  Co114  1  0.07146727  0.16063805  0.81655527  1
  Co  Co115  1  -0.08529221  0.77795715  0.59690189  1
  Co  Co116  1  0.47392616  0.55706912  0.75505920  1
  Co  Co117  1  0.00642692  -0.11268914  0.32630816  1
  Co  Co118  1  0.73046643  0.83415189  -0.03111204  1
  Co  Co119  1  0.68989272  0.01877580  -0.05083106  1
  Co  Co120  1  0.74342049  -0.02539385  0.67096970  1
  Co  Co121  1  0.67709821  0.49278686  0.56252688  1
  Co  Co122  1  0.11702327  0.63067462  0.51220555  1
  Co  Co123  1  0.87174496  0.02945535  0.75934190  1
  Co  Co124  1  0.71475150  0.66763486  -0.06330674  1
  Co  Co125  1  0.42854685  0.85003341  0.28894323  1
  Co  Co126  1  0.03599523  0.38652982  0.00849214  1
  Co  Co127  1  0.43176848  0.70007834  0.52120160  1
  Co  Co128  1  0.77901976  0.68574621  0.54191543  1
  Co  Co129  1  0.69613122  0.24032110  0.56012311  1
  Co  Co130  1  0.81899103  0.08685714  0.31333098  1
  Co  Co131  1  0.84353350  0.88563333  0.35649777  1
  Co  Co132  1  0.18131977  0.03395323  0.86539254  1
  Co  Co133  1  0.03083545  0.73092612  0.09809871  1
  Co  Co134  1  0.80672160  0.13111251  0.47223557  1
  Co  Co135  1  0.31289525  0.28932767  -0.00200196  1
  Co  Co136  1  0.51169652  0.29726842  0.76964317  1
  Co  Co137  1  0.14785839  0.47291669  0.09336350  1
  Co  Co138  1  0.68926250  0.52211766  0.86782502  1
  Co  Co139  1  0.60366153  0.36384191  0.61041062  1
  Co  Co140  1  0.21519337  0.62047863  0.12406104  1
  Co  Co141  1  0.23141673  0.11062595  0.21199961  1
  Co  Co142  1  0.40766171  0.22085809  0.88322579  1
  Co  Co143  1  0.78815759  0.14291112  0.66515790  1
  Co  Co144  1  0.85035538  0.27447348  0.75986402  1
  Co  Co145  1  0.28954473  0.75044549  -0.03732309  1
  Co  Co146  1  0.57171761  0.82981294  0.72779727  1
  Co  Co147  1  0.01545632  -0.07459912  -0.03859635  1
  Co  Co148  1  0.39512819  0.55266232  0.59335284  1
  Co  Co149  1  0.41349972  0.85312501  0.54507643  1
  Co  Co150  1  0.60249468  -0.03677701  0.42214623  1
  Co  Co151  1  0.29135981  -0.13303251  0.41339418  1
  Co  Co152  1  0.29904102  0.60215458  0.45194246  1
  Co  Co153  1  0.91861406  0.33376715  0.25716826  1
  Co  Co154  1  0.78507949  0.04448758  0.13908064  1
  Co  Co155  1  0.18325469  0.13546528  0.70711018  1
  Co  Co156  1  0.46564748  0.13480088  0.75639596  1
  Co  Co157  1  -0.05707028  0.76599786  0.24311571  1
  Co  Co158  1  0.81802819  0.59895422  0.82634963  1
  Co  Co159  1  0.28308729  0.08102492  0.58964629  1
  Co  Co160  1  0.56334288  0.58067120  0.11633317  1
  Co  Co161  1  0.62386336  0.15452119  0.71448568  1
  Ni  Ni162  1  0.52347278  0.09808116  0.48464845  1
  Ni  Ni163  1  0.88270737  0.51308729  -0.01123555  1
  Ni  Ni164  1  0.35015403  0.49747886  0.90549862  1
  Ni  Ni165  1  -0.04268963  0.09066930  0.21274031  1
  Ni  Ni166  1  0.42705826  0.25220672  0.26129366  1
  Ni  Ni167  1  0.62330155  0.36509783  0.33431135  1
  Ni  Ni168  1  0.14500894  0.23465114  0.27989765  1
  Ni  Ni169  1  0.09605379  0.06277827  0.12694691  1
  Ni  Ni170  1  0.06926579  0.35094446  0.38333674  1
  Ni  Ni171  1  0.47024245  0.75595153  -0.00052640  1
  Ni  Ni172  1  0.18840050  0.37411855  0.48880566  1
  Ni  Ni173  1  -0.04026738  0.48820255  0.29873001  1
  Ni  Ni174  1  0.66841973  0.44575838  0.18342473  1
  Ni  Ni175  1  0.29069755  0.37826407  0.63282281  1
  Ni  Ni176  1  0.04813626  0.27845246  0.56708795  1
  Ni  Ni177  1  0.47684367  -0.02001374  0.09317372  1
  Ni  Ni178  1  0.54631962  0.51774263  0.27209478  1
  Ni  Ni179  1  0.44094617  0.00030329  0.84071332  1
  Ni  Ni180  1  0.21061214  0.40563715  0.95742576  1
  Ni  Ni181  1  0.23038445  0.41306203  0.31652561  1
  Ni  Ni182  1  0.51165058  0.43670459  0.49231268  1
  Ni  Ni183  1  0.28099243  0.73757544  0.60590186  1
  Ni  Ni184  1  0.46284335  0.10324924  -0.00808712  1
  Ni  Ni185  1  0.16848041  0.44429510  0.71217458  1
  Ni  Ni186  1  0.70593585  0.67419493  0.38723795  1
  Ni  Ni187  1  0.22063713  0.03224587  0.44567691  1
  Ni  Ni188  1  0.38521832  0.17698636  0.49966266  1
  Ni  Ni189  1  0.84396796  0.61307867  0.31720093  1
  Ni  Ni190  1  0.09124890  0.55243021  0.22378850  1
  Ni  Ni191  1  0.37523504  0.72536269  0.37240422  1
  Ni  Ni192  1  0.41172686  0.53838761  0.18807456  1
  Ni  Ni193  1  0.91838474  0.11526680  -0.11190678  1
  Ni  Ni194  1  0.59270170  0.77298395  0.89138517  1
  Ni  Ni195  1  0.60252372  0.80948784  0.23089429  1
  Ni  Ni196  1  0.28355960  -0.01832796  0.11711805  1
  Ni  Ni197  1  0.19236191  0.87163309  0.71352704  1
  Ni  Ni198  1  0.91437348  0.52195511  0.67609436  1
  Ni  Ni199  1  -0.05058892  0.88623833  0.48650170  1
  Ni  Ni200  1  0.08076094  0.64865290  0.85858827  1
  Ni  Ni201  1  -0.02317279  0.80850424  0.84629395  1
  Ni  Ni202  1  0.45342705  0.50742648  0.02428791  1
  Ni  Ni203  1  0.16251693  0.85613521  0.29400759  1
  Ni  Ni204  1  0.12091960  0.26405914  -0.06228649  1
  Ni  Ni205  1  0.16599784  0.30873683  0.08571906  1
  Ni  Ni206  1  -0.03756316  0.53519234  0.83904466  1
  Ni  Ni207  1  0.30956177  0.29227655  0.38926135  1
  Ni  Ni208  1  0.68544095  0.12972729  0.22787728  1
  Ni  Ni209  1  0.40541044  0.84398194  0.88082605  1
  Ni  Ni210  1  -0.02684366  0.14137189  0.51824394  1
  Ni  Ni211  1  0.78359232  0.69226587  0.08424043  1
  Ni  Ni212  1  0.48460963  0.11068118  0.32539403  1
  Ni  Ni213  1  0.16642025  0.95634423  0.01167725  1
  Ni  Ni214  1  0.00716140  0.63747115  0.36004407  1
