# generated using pymatgen
data_Ti108Co54Ni53
_symmetry_space_group_name_H-M   'P 1'
_cell_length_a   14.49895543
_cell_length_b   14.56535880
_cell_length_c   14.53362918
_cell_angle_alpha   90.17501235
_cell_angle_beta   89.78638926
_cell_angle_gamma   89.94469899
_symmetry_Int_Tables_number   1
_chemical_formula_structural   Ti108Co54Ni53
_chemical_formula_sum   'Ti108 Co54 Ni53'
_cell_volume   3069.21085983
_cell_formula_units_Z   1
loop_
 _symmetry_equiv_pos_site_id
 _symmetry_equiv_pos_as_xyz
  1  'x, y, z'
loop_
 _atom_site_type_symbol
 _atom_site_label
 _atom_site_symmetry_multiplicity
 _atom_site_fract_x
 _atom_site_fract_y
 _atom_site_fract_z
 _atom_site_occupancy
  Ti  Ti0  1  0.10098333  0.04673420  0.25143754  1
  Ti  Ti1  1  0.15036867  0.09783112  0.57159050  1
  Ti  Ti2  1  0.11549674  0.09741094  0.91901859  1
  Ti  Ti3  1  0.02460481  0.39628988  0.22991847  1
  Ti  Ti4  1  0.09988695  0.41540479  0.60078117  1
  Ti  Ti5  1  0.12540365  0.46300902  0.91385740  1
  Ti  Ti6  1  0.03927569  0.72953772  0.21830639  1
  Ti  Ti7  1  0.02427174  0.75783868  0.62202850  1
  Ti  Ti8  1  0.05779391  0.80310911  0.92463298  1
  Ti  Ti9  1  0.46321712  0.08487942  0.23415385  1
  Ti  Ti10  1  0.45857472  0.04829452  0.56960011  1
  Ti  Ti11  1  0.40143699  0.16544155  0.96631406  1
  Ti  Ti12  1  0.37737257  0.35515965  0.23570952  1
  Ti  Ti13  1  0.48266653  0.38003436  0.62181879  1
  Ti  Ti14  1  0.43894189  0.37996835  0.96920807  1
  Ti  Ti15  1  0.42939217  0.79649346  0.23524678  1
  Ti  Ti16  1  0.44642255  0.69577554  0.56153010  1
  Ti  Ti17  1  0.38384487  0.75996771  0.84753186  1
  Ti  Ti18  1  0.78031129  0.11116364  0.18839401  1
  Ti  Ti19  1  0.71848535  0.04756099  0.64472444  1
  Ti  Ti20  1  0.68933254  0.08479025  0.84471571  1
  Ti  Ti21  1  0.78198332  0.50256858  0.24990705  1
  Ti  Ti22  1  0.77192145  0.40086232  0.58708003  1
  Ti  Ti23  1  0.75913983  0.37996428  0.95097086  1
  Ti  Ti24  1  0.76322677  0.81280785  0.23209893  1
  Ti  Ti25  1  0.68027953  0.70564257  0.54451851  1
  Ti  Ti26  1  0.69234418  0.73388752  0.87886835  1
  Ti  Ti27  1  0.11660436  0.28644325  0.07259564  1
  Ti  Ti28  1  0.07048545  0.18107440  0.38905439  1
  Ti  Ti29  1  0.12904743  0.18521191  0.73799931  1
  Ti  Ti30  1  0.05341559  0.56297659  0.08851075  1
  Ti  Ti31  1  0.08120951  0.49576776  0.43324198  1
  Ti  Ti32  1  0.02828066  0.64180455  0.80394718  1
  Ti  Ti33  1  0.13925494  0.91048996  0.08742520  1
  Ti  Ti34  1  0.11286232  0.84322373  0.47360719  1
  Ti  Ti35  1  0.12061770  0.92274710  0.67672109  1
  Ti  Ti36  1  0.51427979  0.25448091  0.09575890  1
  Ti  Ti37  1  0.40367765  0.24164142  0.45828863  1
  Ti  Ti38  1  0.38328203  0.30180793  0.77056452  1
  Ti  Ti39  1  0.39239729  0.61797943  0.15103094  1
  Ti  Ti40  1  0.40547576  0.59402227  0.41390830  1
  Ti  Ti41  1  0.44271446  0.55186439  0.75947466  1
  Ti  Ti42  1  0.42478073  0.99406172  0.03997341  1
  Ti  Ti43  1  0.53031046  0.93568202  0.36096765  1
  Ti  Ti44  1  0.40479533  0.96766305  0.85254132  1
  Ti  Ti45  1  0.69634551  0.29278074  0.13847844  1
  Ti  Ti46  1  0.72158439  0.22949713  0.34510643  1
  Ti  Ti47  1  0.80233298  0.23708103  0.76724245  1
  Ti  Ti48  1  0.71239931  0.64781469  0.13403470  1
  Ti  Ti49  1  0.73506296  0.53365756  0.43510143  1
  Ti  Ti50  1  0.76595058  0.55761115  0.77689610  1
  Ti  Ti51  1  0.73090295  0.86334238  0.04222682  1
  Ti  Ti52  1  0.77046154  0.95118769  0.42220366  1
  Ti  Ti53  1  0.68629590  0.86695451  0.72196171  1
  Ti  Ti54  1  0.27206480  0.05419579  0.15294594  1
  Ti  Ti55  1  0.26314550  0.08364030  0.35754627  1
  Ti  Ti56  1  0.24825411  0.03343573  0.77650625  1
  Ti  Ti57  1  0.24889438  0.46979109  0.05344989  1
  Ti  Ti58  1  0.25357151  0.38397737  0.37782857  1
  Ti  Ti59  1  0.19862751  0.37193798  0.75643459  1
  Ti  Ti60  1  0.25122138  0.75393742  0.15071663  1
  Ti  Ti61  1  0.28415595  0.75709066  0.44780856  1
  Ti  Ti62  1  0.18827904  0.74351093  0.77789301  1
  Ti  Ti63  1  0.60574319  0.09129835  0.04818511  1
  Ti  Ti64  1  0.55119120  0.12864994  0.40106483  1
  Ti  Ti65  1  0.46524362  0.12377416  0.75753780  1
  Ti  Ti66  1  0.55800551  0.54011174  0.10714604  1
  Ti  Ti67  1  0.45566295  0.41449494  0.42152445  1
  Ti  Ti68  1  0.64876551  0.38747582  0.77257287  1
  Ti  Ti69  1  0.54742722  0.72863041  0.04358731  1
  Ti  Ti70  1  0.62249837  0.77834781  0.37352558  1
  Ti  Ti71  1  0.54344713  0.72593191  0.72649781  1
  Ti  Ti72  1  0.95443357  0.04847255  0.09181355  1
  Ti  Ti73  1  0.98144234  0.00720245  0.41141901  1
  Ti  Ti74  1  0.93144765  0.10558232  0.68083607  1
  Ti  Ti75  1  0.88272129  0.43899607  0.09403725  1
  Ti  Ti76  1  0.87868251  0.37747247  0.38392054  1
  Ti  Ti77  1  0.91936029  0.46338546  0.69685557  1
  Ti  Ti78  1  0.93010514  0.82428282  0.07777260  1
  Ti  Ti79  1  0.99866506  0.70541637  0.41388064  1
  Ti  Ti80  1  0.86267194  0.79450503  0.76516249  1
  Ti  Ti81  1  0.20113819  0.23457750  0.23771494  1
  Ti  Ti82  1  0.26391211  0.29188033  0.58847893  1
  Ti  Ti83  1  0.25385745  0.30917415  0.92898885  1
  Ti  Ti84  1  0.21785120  0.55646867  0.23134543  1
  Ti  Ti85  1  0.25090802  0.57535450  0.57718518  1
  Ti  Ti86  1  0.27843804  0.59117381  0.87706204  1
  Ti  Ti87  1  0.20439704  0.88498325  0.29271768  1
  Ti  Ti88  1  0.29319832  0.93764695  0.57107621  1
  Ti  Ti89  1  0.26095477  0.89003873  0.95353958  1
  Ti  Ti90  1  0.53598274  0.27824598  0.29557507  1
  Ti  Ti91  1  0.59615268  0.18320863  0.58082266  1
  Ti  Ti92  1  0.56262255  0.24492577  0.87896335  1
  Ti  Ti93  1  0.56677882  0.51777691  0.30780816  1
  Ti  Ti94  1  0.60767391  0.54214652  0.63110066  1
  Ti  Ti95  1  0.65972630  0.54870796  0.95014344  1
  Ti  Ti96  1  0.64880203  0.96734138  0.19551566  1
  Ti  Ti97  1  0.53360289  0.87227572  0.58213604  1
  Ti  Ti98  1  0.55084830  0.86320568  0.88490719  1
  Ti  Ti99  1  0.91699131  0.21484001  0.28209812  1
  Ti  Ti100  1  0.92702945  0.28313553  0.58939003  1
  Ti  Ti101  1  0.94547785  0.33039775  0.88543900  1
  Ti  Ti102  1  0.85559408  0.66844326  0.30292825  1
  Ti  Ti103  1  0.96587282  0.59335048  0.56331504  1
  Ti  Ti104  1  0.92648827  0.51478420  0.90338283  1
  Ti  Ti105  1  0.91859251  0.86515119  0.31137977  1
  Ti  Ti106  1  0.86567147  0.91831925  0.61882898  1
  Ti  Ti107  1  0.96596537  0.98090413  0.82546421  1
  Co  Co108  1  0.71157715  0.46562682  0.10378595  1
  Co  Co109  1  0.79405778  0.72176367  0.01110204  1
  Co  Co110  1  0.31947428  0.68886074  0.30047829  1
  Co  Co111  1  0.27256441  0.04941726  -0.04176375  1
  Co  Co112  1  0.83506675  0.09338209  0.36189693  1
  Co  Co113  1  0.56930205  0.61265589  0.45772719  1
  Co  Co114  1  0.46647758  0.74680487  0.39506142  1
  Co  Co115  1  0.02525778  -0.04227544  -0.02134670  1
  Co  Co116  1  -0.03801418  0.67346597  -0.01025452  1
  Co  Co117  1  0.40534319  -0.04053894  0.69230306  1
  Co  Co118  1  0.21580266  0.23302437  0.43369194  1
  Co  Co119  1  0.57813574  0.29428669  0.45458946  1
  Co  Co120  1  0.42053764  0.82658876  0.03375988  1
  Co  Co121  1  0.70969096  0.69497108  0.70661146  1
  Co  Co122  1  0.52348723  0.68023286  0.88688424  1
  Co  Co123  1  0.92431144  0.53607796  0.38570811  1
  Co  Co124  1  0.81272564  0.39719020  0.79669387  1
  Co  Co125  1  0.61496429  0.15268146  0.21282178  1
  Co  Co126  1  0.49769975  0.41382964  0.81640736  1
  Co  Co127  1  0.32657705  0.44365285  0.86104931  1
  Co  Co128  1  0.77419194  0.20832024  0.60973057  1
  Co  Co129  1  0.71703114  0.13018366  0.47927017  1
  Co  Co130  1  0.52673396  0.66168670  0.24234187  1
  Co  Co131  1  -0.09944952  0.63581354  0.71157457  1
  Co  Co132  1  0.63879791  0.33556339  0.61802119  1
  Co  Co133  1  0.85231236  0.06555228  0.53273583  1
  Co  Co134  1  0.44654259  0.53587816  0.57516302  1
  Co  Co135  1  0.32377462  0.45689725  0.68803013  1
  Co  Co136  1  0.57635311  -0.08370446  0.03209793  1
  Co  Co137  1  0.18759686  0.39402001  0.20548137  1
  Co  Co138  1  0.60372452  0.57189190  0.79819726  1
  Co  Co139  1  0.23463341  0.74052531  -0.04606893  1
  Co  Co140  1  0.16458191  0.73078291  0.33417261  1
  Co  Co141  1  0.09669887  0.25485870  0.57633201  1
  Co  Co142  1  0.31616630  0.90225020  0.14233878  1
  Co  Co143  1  0.49050439  -0.06766549  0.17402496  1
  Co  Co144  1  0.41091621  0.04955753  0.41261386  1
  Co  Co145  1  0.36172092  0.20777804  0.31597876  1
  Co  Co146  1  0.53906896  0.05140111  0.90487767  1
  Co  Co147  1  0.81114126  0.55957970  0.00669849  1
  Co  Co148  1  0.79083780  0.79058039  0.41857136  1
  Co  Co149  1  0.24302489  0.18378980  0.03816882  1
  Co  Co150  1  0.87186837  0.84278080  -0.07902951  1
  Co  Co151  1  0.22704859  0.62037773  0.06361814  1
  Co  Co152  1  0.13485242  -0.06179101  0.84851194  1
  Co  Co153  1  -0.06220081  0.04150204  0.25221178  1
  Co  Co154  1  0.81389822  -0.02097985  0.77089290  1
  Co  Co155  1  0.13105344  0.66713463  0.49942428  1
  Co  Co156  1  0.02499487  0.40547315  0.02562500  1
  Co  Co157  1  0.85770047  0.22378292  0.45150042  1
  Co  Co158  1  0.37772987  0.51349599  0.28072213  1
  Co  Co159  1  0.64336195  0.20247788  0.73458871  1
  Co  Co160  1  0.84323816  0.75168758  0.59944408  1
  Co  Co161  1  0.02365364  0.82873085  0.76856807  1
  Ni  Ni162  1  0.38408817  0.79869772  0.67179466  1
  Ni  Ni163  1  0.03723131  0.18463355  0.17956241  1
  Ni  Ni164  1  0.11721790  0.62810416  0.94198002  1
  Ni  Ni165  1  0.28685742  0.17587810  0.84393642  1
  Ni  Ni166  1  -0.06169214  0.84960185  0.48458041  1
  Ni  Ni167  1  0.40623483  0.88169480  0.46348688  1
  Ni  Ni168  1  0.43267032  0.21999915  0.61951026  1
  Ni  Ni169  1  0.01134844  -0.01682869  0.57172789  1
  Ni  Ni170  1  0.01319934  0.29939141  0.73288853  1
  Ni  Ni171  1  0.78389204  0.57500374  0.60622893  1
  Ni  Ni172  1  0.10219388  0.73609114  0.06958584  1
  Ni  Ni173  1  0.60409808  0.79982804  0.18331056  1
  Ni  Ni174  1  0.03415521  0.90265866  0.20885026  1
  Ni  Ni175  1  0.38017772  0.66981987  -0.00672476  1
  Ni  Ni176  1  -0.00931811  0.14203318  0.52304377  1
  Ni  Ni177  1  0.88346351  0.66254374  0.13552891  1
  Ni  Ni178  1  0.36896633  0.18975841  0.14974364  1
  Ni  Ni179  1  0.30859283  0.32267971  0.08803683  1
  Ni  Ni180  1  0.08903342  0.33994895  0.37170271  1
  Ni  Ni181  1  0.36550633  -0.05307207  0.29508631  1
  Ni  Ni182  1  0.84061918  0.65210172  0.47228184  1
  Ni  Ni183  1  0.68375260  0.64494820  0.30577309  1
  Ni  Ni184  1  0.67932213  0.39048262  0.32897917  1
  Ni  Ni185  1  0.61656795  -0.00120634  0.49581111  1
  Ni  Ni186  1  0.32250311  0.43208183  0.52245518  1
  Ni  Ni187  1  0.12262604  0.08514433  0.08022875  1
  Ni  Ni188  1  -0.02547225  0.16598851  0.83222318  1
  Ni  Ni189  1  0.30018451  0.15385454  0.68226922  1
  Ni  Ni190  1  0.60467036  0.44866570  0.49063365  1
  Ni  Ni191  1  0.21793935  0.77118630  0.60799572  1
  Ni  Ni192  1  0.15457802  -0.00281886  0.44281014  1
  Ni  Ni193  1  0.06037135  0.46862996  0.76530805  1
  Ni  Ni194  1  0.41334503  0.45754642  0.11415387  1
  Ni  Ni195  1  0.10502343  0.59417399  0.65901092  1
  Ni  Ni196  1  0.85288568  0.66727753  0.87118459  1
  Ni  Ni197  1  0.70748760  0.86703446  0.55180117  1
  Ni  Ni198  1  0.60331257  0.37764638  0.00634355  1
  Ni  Ni199  1  0.71177140  0.92216253  0.88977747  1
  Ni  Ni200  1  -0.06195942  0.43782527  0.52338121  1
  Ni  Ni201  1  -0.04910814  0.54735127  0.22461183  1
  Ni  Ni202  1  0.27449246  0.87591843  0.76083636  1
  Ni  Ni203  1  0.23707181  0.56791587  0.39917772  1
  Ni  Ni204  1  0.68775833  0.22113938  -0.02086694  1
  Ni  Ni205  1  0.82931224  -0.05041135  0.15908621  1
  Ni  Ni206  1  0.82345257  0.34083317  0.22532021  1
  Ni  Ni207  1  0.09824540  0.27128995  0.88480865  1
  Ni  Ni208  1  0.56454942  -0.01253221  0.73873157  1
  Ni  Ni209  1  0.30782135  0.11676947  0.52495749  1
  Ni  Ni210  1  0.31879155  0.64864777  0.70919964  1
  Ni  Ni211  1  0.47175975  0.53769587  -0.05046614  1
  Ni  Ni212  1  0.07817289  0.59120093  0.30626716  1
  Ni  Ni213  1  0.67695075  0.05386266  0.33002526  1
  Ni  Ni214  1  0.56874409  0.39524583  0.17978914  1
