# generated using pymatgen
data_Ti108Co54Ni53
_symmetry_space_group_name_H-M   'P 1'
_cell_length_a   14.63262145
_cell_length_b   14.59539796
_cell_length_c   14.65920714
_cell_angle_alpha   90.16752771
_cell_angle_beta   89.87258473
_cell_angle_gamma   89.88671769
_symmetry_Int_Tables_number   1
_chemical_formula_structural   Ti108Co54Ni53
_chemical_formula_sum   'Ti108 Co54 Ni53'
_cell_volume   3130.72394907
_cell_formula_units_Z   1
loop_
 _symmetry_equiv_pos_site_id
 _symmetry_equiv_pos_as_xyz
  1  'x, y, z'
loop_
 _atom_site_type_symbol
 _atom_site_label
 _atom_site_symmetry_multiplicity
 _atom_site_fract_x
 _atom_site_fract_y
 _atom_site_fract_z
 _atom_site_occupancy
  Ti  Ti0  1  0.13105125  0.04641282  0.29663743  1
  Ti  Ti1  1  0.07801101  0.03063915  0.58575535  1
  Ti  Ti2  1  0.09241739  0.03868445  0.89696626  1
  Ti  Ti3  1  0.19884876  0.41201254  0.23275996  1
  Ti  Ti4  1  0.01265237  0.43011970  0.58694920  1
  Ti  Ti5  1  0.06505925  0.40978198  0.87417732  1
  Ti  Ti6  1  0.10021568  0.68794921  0.19148183  1
  Ti  Ti7  1  -0.01306066  0.73851556  0.48636381  1
  Ti  Ti8  1  0.10714923  0.75127268  0.84432842  1
  Ti  Ti9  1  0.42734655  0.10114524  0.34469316  1
  Ti  Ti10  1  0.44601451  0.11538077  0.56533031  1
  Ti  Ti11  1  0.37242926  0.06745470  0.93639237  1
  Ti  Ti12  1  0.49229178  0.41892626  0.28702000  1
  Ti  Ti13  1  0.33075560  0.39964382  0.54351888  1
  Ti  Ti14  1  0.35227619  0.40290721  0.87339705  1
  Ti  Ti15  1  0.41545536  0.76915611  0.28734707  1
  Ti  Ti16  1  0.38063476  0.76103400  0.57757213  1
  Ti  Ti17  1  0.35925235  0.74682813  0.86461821  1
  Ti  Ti18  1  0.75919992  0.18666809  0.27294102  1
  Ti  Ti19  1  0.76999867  0.10139103  0.66938596  1
  Ti  Ti20  1  0.78813837  0.19221917  1.01485419  1
  Ti  Ti21  1  0.77920951  0.42063642  0.21523077  1
  Ti  Ti22  1  0.71372882  0.43670901  0.63510342  1
  Ti  Ti23  1  0.76607310  0.38877917  0.82393604  1
  Ti  Ti24  1  0.86235424  0.77622336  0.23298799  1
  Ti  Ti25  1  0.68480176  0.75333925  0.58087394  1
  Ti  Ti26  1  0.68337474  0.70304075  0.86878789  1
  Ti  Ti27  1  0.10325981  0.28121627  0.14215827  1
  Ti  Ti28  1  0.06814067  0.26956756  0.46231552  1
  Ti  Ti29  1  0.10164895  0.21764228  0.79633624  1
  Ti  Ti30  1  0.02003427  0.53859184  0.03967910  1
  Ti  Ti31  1  0.10120326  0.57186770  0.35871010  1
  Ti  Ti32  1  0.09141146  0.61480493  0.68392037  1
  Ti  Ti33  1  0.08324189  0.99924020  0.08113988  1
  Ti  Ti34  1  0.04432909  0.92747395  0.43204298  1
  Ti  Ti35  1  0.03960282  0.90352106  0.73941389  1
  Ti  Ti36  1  0.42058832  0.18322274  0.12165541  1
  Ti  Ti37  1  0.37208069  0.27726206  0.37865417  1
  Ti  Ti38  1  0.40949813  0.22029862  0.83013768  1
  Ti  Ti39  1  0.48905858  0.56080807  0.09892928  1
  Ti  Ti40  1  0.43473510  0.62167932  0.41251039  1
  Ti  Ti41  1  0.47650949  0.51590492  0.76910396  1
  Ti  Ti42  1  0.38063440  0.94141199  0.21559094  1
  Ti  Ti43  1  0.36289147  0.93797528  0.44676814  1
  Ti  Ti44  1  0.51857245  0.89616234  0.79006344  1
  Ti  Ti45  1  0.80862330  0.37921030  0.02803435  1
  Ti  Ti46  1  0.73129476  0.29505746  0.43408913  1
  Ti  Ti47  1  0.70934780  0.19403668  0.84477881  1
  Ti  Ti48  1  0.78109401  0.57363461  0.01549096  1
  Ti  Ti49  1  0.78597838  0.51912465  0.38579323  1
  Ti  Ti50  1  0.75792698  0.63038820  0.70516859  1
  Ti  Ti51  1  0.77493652  0.87878814  0.08704467  1
  Ti  Ti52  1  0.74291954  0.88422759  0.36272224  1
  Ti  Ti53  1  0.82571501  0.91152173  0.74173691  1
  Ti  Ti54  1  0.21740825  0.13304440  0.05498403  1
  Ti  Ti55  1  0.22336703  0.13978840  0.44980858  1
  Ti  Ti56  1  0.27707635  0.14492128  0.70309733  1
  Ti  Ti57  1  0.31116248  0.45823387  0.05763712  1
  Ti  Ti58  1  0.30161663  0.48046057  0.36959975  1
  Ti  Ti59  1  0.19348428  0.46135116  0.76035025  1
  Ti  Ti60  1  0.23290829  0.76298273  0.02086049  1
  Ti  Ti61  1  0.18182327  0.72970508  0.49801168  1
  Ti  Ti62  1  0.22690423  0.78563063  0.69751826  1
  Ti  Ti63  1  0.66145880  0.07981070  0.12098337  1
  Ti  Ti64  1  0.60690655  0.13068188  0.40000098  1
  Ti  Ti65  1  0.56191619  0.13238789  0.72966288  1
  Ti  Ti66  1  0.60954135  0.40426327  0.10649536  1
  Ti  Ti67  1  0.61151109  0.45375364  0.47153066  1
  Ti  Ti68  1  0.56905159  0.33613267  0.78080429  1
  Ti  Ti69  1  0.59704978  0.71689624  0.16697512  1
  Ti  Ti70  1  0.60197984  0.73929163  0.36322064  1
  Ti  Ti71  1  0.54998420  0.70070176  0.71907299  1
  Ti  Ti72  1  0.89183734  0.07209600  0.13918565  1
  Ti  Ti73  1  0.84719167  0.05511047  0.40249303  1
  Ti  Ti74  1  0.95171676  0.08613996  0.76403744  1
  Ti  Ti75  1  0.95936544  0.39193390  0.16890565  1
  Ti  Ti76  1  0.91412186  0.37142578  0.40863124  1
  Ti  Ti77  1  0.92741959  0.50304403  0.76166146  1
  Ti  Ti78  1  0.94509934  0.74806170  0.06076265  1
  Ti  Ti79  1  0.80493056  0.70637213  0.42488688  1
  Ti  Ti80  1  0.91835507  0.73604824  0.74833878  1
  Ti  Ti81  1  0.26625364  0.16708364  0.23701339  1
  Ti  Ti82  1  0.18399003  0.31696275  0.62634995  1
  Ti  Ti83  1  0.20353293  0.30570000  0.95173290  1
  Ti  Ti84  1  0.31096786  0.63241706  0.18139985  1
  Ti  Ti85  1  0.29145529  0.58661439  0.64480173  1
  Ti  Ti86  1  0.20177937  0.56085981  0.93564693  1
  Ti  Ti87  1  0.21476294  0.85797481  0.32363945  1
  Ti  Ti88  1  0.27856173  0.96414775  0.62839809  1
  Ti  Ti89  1  0.25276723  0.93815556  0.83018113  1
  Ti  Ti90  1  0.55676492  0.23551312  0.23643794  1
  Ti  Ti91  1  0.60088118  0.27627602  0.58227460  1
  Ti  Ti92  1  0.55623497  0.21255985  0.98495151  1
  Ti  Ti93  1  0.61578019  0.54904779  0.29199449  1
  Ti  Ti94  1  0.46293897  0.55917982  0.58019975  1
  Ti  Ti95  1  0.61510130  0.49334808  0.92964547  1
  Ti  Ti96  1  0.55990056  0.93455468  0.31849211  1
  Ti  Ti97  1  0.62551609  0.97471666  0.61394401  1
  Ti  Ti98  1  0.69304234  0.91987123  0.90544787  1
  Ti  Ti99  1  0.96280746  0.21821894  0.28628606  1
  Ti  Ti100  1  0.93638303  0.20265846  0.59047434  1
  Ti  Ti101  1  0.92226125  0.27157627  0.88631452  1
  Ti  Ti102  1  0.87769961  0.59144418  0.17706754  1
  Ti  Ti103  1  0.91878430  0.60206352  0.59555499  1
  Ti  Ti104  1  0.91497707  0.64644395  0.90719732  1
  Ti  Ti105  1  1.02592869  0.88204719  0.23442254  1
  Ti  Ti106  1  0.81354948  0.90646984  0.54228925  1
  Ti  Ti107  1  0.91449858  0.95200471  0.92566989  1
  Co  Co108  1  0.45441053  0.43817990  0.44640891  1
  Co  Co109  1  0.21576535  -0.03938277  0.17166388  1
  Co  Co110  1  0.63782005  0.61284913  0.45007738  1
  Co  Co111  1  0.37706768  0.86306207  0.71906967  1
  Co  Co112  1  0.61955188  0.57951396  0.61516095  1
  Co  Co113  1  0.14494841  0.42704644  0.06397882  1
  Co  Co114  1  0.76220402  0.71102791  0.10511953  1
  Co  Co115  1  0.50435695  0.35720166  0.92731043  1
  Co  Co116  1  0.84230280  0.26944653  0.16621680  1
  Co  Co117  1  0.84370981  0.44493537  0.53275774  1
  Co  Co118  1  0.65406833  0.08019428  0.94470069  1
  Co  Co119  1  0.18724184  0.47678028  0.59562119  1
  Co  Co120  1  -0.05353813  0.55655192  0.45071665  1
  Co  Co121  1  0.50168255  0.64694312  0.87739359  1
  Co  Co122  1  0.76828782  0.59153630  0.53784113  1
  Co  Co123  1  0.09188588  0.58825134  0.52602298  1
  Co  Co124  1  0.69550961  0.01067705  0.46007307  1
  Co  Co125  1  0.39225814  0.68139649  0.72730820  1
  Co  Co126  1  0.08267475  0.69190741  -0.00450370  1
  Co  Co127  1  0.10999542  0.82811485  0.10857791  1
  Co  Co128  1  0.45249405  0.50775921  -0.04675232  1
  Co  Co129  1  0.70575895  0.26683464  0.70090178  1
  Co  Co130  1  0.80293854  0.05772369  0.84352353  1
  Co  Co131  1  0.85550870  0.76023742  0.60371714  1
  Co  Co132  1  0.34156742  0.41951992  0.70239116  1
  Co  Co133  1  0.34562357  0.04224027  0.10118641  1
  Co  Co134  1  0.79645039  0.27844194  0.57131565  1
  Co  Co135  1  0.18778314  0.58465484  0.09306783  1
  Co  Co136  1  0.22262912  0.31607747  0.41593692  1
  Co  Co137  1  0.88170007  0.21097878  0.42992646  1
  Co  Co138  1  0.65700181  0.13612904  0.56055973  1
  Co  Co139  1  0.67173614  0.32834129  -0.04759529  1
  Co  Co140  1  0.23406537  -0.02534566  -0.01009793  1
  Co  Co141  1  -0.02696246  0.88450152  0.57892995  1
  Co  Co142  1  0.06848521  0.51639501  0.19855659  1
  Co  Co143  1  0.69357004  0.03243025  0.27958891  1
  Co  Co144  1  -0.04054946  0.81159748  0.88605124  1
  Co  Co145  1  -0.05382868  -0.09389244  0.08240065  1
  Co  Co146  1  0.34601710  0.56958074  0.84746739  1
  Co  Co147  1  0.06124539  0.37133465  0.30862425  1
  Co  Co148  1  0.25007071  0.29343675  0.78743450  1
  Co  Co149  1  0.47019727  0.61478531  0.25483152  1
  Co  Co150  1  0.69117008  0.83577088  0.22028631  1
  Co  Co151  1  0.13395460  0.22222125  0.31316341  1
  Co  Co152  1  0.34438605  0.62671052  0.00444709  1
  Co  Co153  1  -0.07047302  0.11652241  0.93912405  1
  Co  Co154  1  0.66394935  0.00670907  0.77557526  1
  Co  Co155  1  0.26918159  0.59026528  0.48156257  1
  Co  Co156  1  0.53446056  0.70307626  0.53692672  1
  Co  Co157  1  0.32637333  0.76341447  0.42648248  1
  Co  Co158  1  0.63174649  0.86226124  0.48174040  1
  Co  Co159  1  0.04707094  0.75711656  0.64711481  1
  Co  Co160  1  0.86547584  0.38031876  0.67933785  1
  Co  Co161  1  0.28791793  0.01913580  0.32555976  1
  Ni  Ni162  1  0.45281029  0.36875959  0.09444615  1
  Ni  Ni163  1  0.83951054  -0.05594129  0.23548516  1
  Ni  Ni164  1  -0.04912343  0.65814032  0.31696797  1
  Ni  Ni165  1  0.68322473  0.26031959  0.12790120  1
  Ni  Ni166  1  0.52017035  0.84706251  0.62110635  1
  Ni  Ni167  1  0.07843760  0.76423770  0.34728923  1
  Ni  Ni168  1  0.79075981  0.02676037  0.00911627  1
  Ni  Ni169  1  0.52097334  0.05920598  0.21058579  1
  Ni  Ni170  1  0.47919848  0.82508726  0.44437155  1
  Ni  Ni171  1  0.90789809  0.85866259  0.37874582  1
  Ni  Ni172  1  0.23057880  0.13672104  0.87586059  1
  Ni  Ni173  1  0.90797779  0.46693116  -0.07340821  1
  Ni  Ni174  1  0.00450898  0.35469550  0.01215829  1
  Ni  Ni175  1  0.52134534  0.04311516  0.87099902  1
  Ni  Ni176  1  0.50947608  0.05231136  0.04357552  1
  Ni  Ni177  1  0.09811226  0.87801680  -0.04966700  1
  Ni  Ni178  1  0.67679811  0.56221190  0.13964480  1
  Ni  Ni179  1  0.01456168  0.33263186  0.72373899  1
  Ni  Ni180  1  0.07904302  0.19404448  -0.03140378  1
  Ni  Ni181  1  0.12261178  0.43689630  0.45241850  1
  Ni  Ni182  1  0.67176126  0.83287011  0.73577992  1
  Ni  Ni183  1  0.95416502  0.21370512  0.07185058  1
  Ni  Ni184  1  0.09689647  0.18386195  0.62981519  1
  Ni  Ni185  1  0.05986088  0.58146838  0.84938930  1
  Ni  Ni186  1  -0.09202463  0.02719738  0.60762176  1
  Ni  Ni187  1  0.36765717  0.47884758  0.20924548  1
  Ni  Ni188  1  0.27105854  0.79683834  0.18455971  1
  Ni  Ni189  1  0.06022271  0.13050658  0.17557302  1
  Ni  Ni190  1  0.52298072  -0.00609474  0.47434627  1
  Ni  Ni191  1  0.50185933  0.40676966  0.62768004  1
  Ni  Ni192  1  0.64144643  0.52515288  0.76998059  1
  Ni  Ni193  1  0.80610080  0.78401905  -0.05525926  1
  Ni  Ni194  1  0.36885267  0.26044003  -0.01552452  1
  Ni  Ni195  1  0.93804602  0.49402996  0.29850726  1
  Ni  Ni196  1  0.22180200  0.64458650  0.78867977  1
  Ni  Ni197  1  0.45491908  0.28051682  0.51627218  1
  Ni  Ni198  1  0.20130136  -0.02296103  0.46525571  1
  Ni  Ni199  1  0.14371811  0.04957835  0.73930853  1
  Ni  Ni200  1  0.61682452  0.65034901  0.01108503  1
  Ni  Ni201  1  0.30707537  0.22687071  0.55420205  1
  Ni  Ni202  1  0.78308454  0.55294309  0.84910056  1
  Ni  Ni203  1  0.43496526  0.25611919  0.67445173  1
  Ni  Ni204  1  0.26600458  0.29654659  0.10946336  1
  Ni  Ni205  1  -0.03406304  0.03340466  0.28976719  1
  Ni  Ni206  1  0.73736503  0.66640356  0.26916989  1
  Ni  Ni207  1  0.03148141  0.10762869  0.43079261  1
  Ni  Ni208  1  0.37249128  0.31319200  0.22610847  1
  Ni  Ni209  1  0.86071521  0.23173736  0.74166223  1
  Ni  Ni210  1  0.23335347  0.67806826  0.32429699  1
  Ni  Ni211  1  0.55517262  0.29486146  0.39645233  1
  Ni  Ni212  1  0.14171400  0.87196855  0.57705846  1
  Ni  Ni213  1  0.65774348  0.37134276  0.29910764  1
  Ni  Ni214  1  0.41238916  0.05081876  0.73872224  1
