# generated using pymatgen
data_Ti108Co54Ni53
_symmetry_space_group_name_H-M   'P 1'
_cell_length_a   14.56701117
_cell_length_b   14.63808791
_cell_length_c   14.61642236
_cell_angle_alpha   89.95148715
_cell_angle_beta   90.01766693
_cell_angle_gamma   90.04379801
_symmetry_Int_Tables_number   1
_chemical_formula_structural   Ti108Co54Ni53
_chemical_formula_sum   'Ti108 Co54 Ni53'
_cell_volume   3116.70419464
_cell_formula_units_Z   1
loop_
 _symmetry_equiv_pos_site_id
 _symmetry_equiv_pos_as_xyz
  1  'x, y, z'
loop_
 _atom_site_type_symbol
 _atom_site_label
 _atom_site_symmetry_multiplicity
 _atom_site_fract_x
 _atom_site_fract_y
 _atom_site_fract_z
 _atom_site_occupancy
  Ti  Ti0  1  0.02351877  0.10820782  0.24002796  1
  Ti  Ti1  1  0.16917144  0.07384385  0.55799239  1
  Ti  Ti2  1  0.09369487  -0.01096568  0.93421490  1
  Ti  Ti3  1  0.15980950  0.38454570  0.23437930  1
  Ti  Ti4  1  0.06968224  0.38660171  0.60201347  1
  Ti  Ti5  1  0.09245761  0.37865178  0.92659991  1
  Ti  Ti6  1  0.03045622  0.67939032  0.24626713  1
  Ti  Ti7  1  0.06205172  0.78372634  0.51671179  1
  Ti  Ti8  1  0.04606570  0.67072251  0.93422458  1
  Ti  Ti9  1  0.44482276  0.02824323  0.25031435  1
  Ti  Ti10  1  0.37999055  0.07011761  0.63580919  1
  Ti  Ti11  1  0.40752981  0.13985080  0.95591854  1
  Ti  Ti12  1  0.46521405  0.38069548  0.34636923  1
  Ti  Ti13  1  0.50246841  0.36040473  0.57340910  1
  Ti  Ti14  1  0.41360058  0.41659277  0.83953374  1
  Ti  Ti15  1  0.44362816  0.78538737  0.28106641  1
  Ti  Ti16  1  0.39149569  0.73895911  0.61532412  1
  Ti  Ti17  1  0.41062563  0.77333282  0.93419003  1
  Ti  Ti18  1  0.84050906  0.08910012  0.16739317  1
  Ti  Ti19  1  0.73547522  0.11316177  0.57344469  1
  Ti  Ti20  1  0.79808667  0.12647843  0.93963382  1
  Ti  Ti21  1  0.71828775  0.38546012  0.14229342  1
  Ti  Ti22  1  0.73296872  0.45098261  0.65292129  1
  Ti  Ti23  1  0.75496709  0.38017995  0.84960035  1
  Ti  Ti24  1  0.79591187  0.78988318  0.24290269  1
  Ti  Ti25  1  0.79931316  0.72833172  0.59734398  1
  Ti  Ti26  1  0.75835107  0.77212794  0.86064074  1
  Ti  Ti27  1  0.05815120  0.27735857  0.13423507  1
  Ti  Ti28  1  0.12932966  0.32075403  0.41964438  1
  Ti  Ti29  1  0.09478366  0.19291784  0.82755882  1
  Ti  Ti30  1  0.14678087  0.64294033  0.09600292  1
  Ti  Ti31  1  0.07883073  0.62719773  0.42484431  1
  Ti  Ti32  1  0.15227652  0.64254674  0.77425175  1
  Ti  Ti33  1  0.04144374  0.93891749  0.13389081  1
  Ti  Ti34  1  0.15865482  0.94985444  0.41151601  1
  Ti  Ti35  1  0.09200830  0.92423737  0.73247820  1
  Ti  Ti36  1  0.35365084  0.15029223  0.13619898  1
  Ti  Ti37  1  0.46323745  0.18454868  0.41190498  1
  Ti  Ti38  1  0.34849266  0.22606740  0.78526990  1
  Ti  Ti39  1  0.41423083  0.59557620  0.14689723  1
  Ti  Ti40  1  0.38993543  0.59759052  0.35340687  1
  Ti  Ti41  1  0.45386634  0.54954535  0.68511841  1
  Ti  Ti42  1  0.39096065  0.93811404  0.08197679  1
  Ti  Ti43  1  0.35899294  0.92353852  0.37710264  1
  Ti  Ti44  1  0.42210671  0.87595769  0.76637645  1
  Ti  Ti45  1  0.68295291  0.21509446  0.06690491  1
  Ti  Ti46  1  0.72022913  0.25005655  0.33355956  1
  Ti  Ti47  1  0.78995228  0.17402348  0.75976744  1
  Ti  Ti48  1  0.66699463  0.55196927  0.05795141  1
  Ti  Ti49  1  0.76228205  0.59453121  0.36949256  1
  Ti  Ti50  1  0.76473389  0.57368963  0.83496863  1
  Ti  Ti51  1  0.69557759  0.86776726  0.05510232  1
  Ti  Ti52  1  0.68325619  0.97101777  0.43747528  1
  Ti  Ti53  1  0.74481491  0.97329823  0.74426817  1
  Ti  Ti54  1  0.16861345  0.10954335  0.07808193  1
  Ti  Ti55  1  0.27391609  0.19391029  0.45937758  1
  Ti  Ti56  1  0.20487529  0.07937162  0.73379611  1
  Ti  Ti57  1  0.26768816  0.43668477  0.09013359  1
  Ti  Ti58  1  0.28959988  0.43566585  0.38625678  1
  Ti  Ti59  1  0.20202444  0.37519633  0.76551084  1
  Ti  Ti60  1  0.25826219  0.79169172  0.06495575  1
  Ti  Ti61  1  0.23310262  0.76263292  0.34567156  1
  Ti  Ti62  1  0.18288286  0.77454873  0.65897702  1
  Ti  Ti63  1  0.55764876  0.05096154  0.05733769  1
  Ti  Ti64  1  0.50522868  0.01290377  0.47322966  1
  Ti  Ti65  1  0.50901682  0.08911922  0.79986121  1
  Ti  Ti66  1  0.51280349  0.41021603  0.08672826  1
  Ti  Ti67  1  0.58897673  0.50870913  0.42460314  1
  Ti  Ti68  1  0.57803217  0.39177496  0.76115741  1
  Ti  Ti69  1  0.57479142  0.72241821  0.08156614  1
  Ti  Ti70  1  0.66115460  0.77218792  0.39700235  1
  Ti  Ti71  1  0.56506125  0.71133792  0.78191434  1
  Ti  Ti72  1  0.89988021  -0.01970059  0.00373531  1
  Ti  Ti73  1  0.99405529  0.07023734  0.45749810  1
  Ti  Ti74  1  0.92374575  0.01307859  0.79393829  1
  Ti  Ti75  1  0.91297015  0.44124990  0.13167071  1
  Ti  Ti76  1  0.96731669  0.41158765  0.32586808  1
  Ti  Ti77  1  0.91653362  0.46457617  0.73984874  1
  Ti  Ti78  1  0.96058153  0.76681356  0.08632161  1
  Ti  Ti79  1  0.90668675  0.73764716  0.39736642  1
  Ti  Ti80  1  0.93380701  0.66771150  0.77222544  1
  Ti  Ti81  1  0.30896103  0.26566981  0.29266171  1
  Ti  Ti82  1  0.23924373  0.25933834  0.62414878  1
  Ti  Ti83  1  0.24019499  0.24999713  0.95717584  1
  Ti  Ti84  1  0.22131602  0.57022680  0.25455563  1
  Ti  Ti85  1  0.25420560  0.56618025  0.52424913  1
  Ti  Ti86  1  0.20214671  0.54477077  0.93375315  1
  Ti  Ti87  1  0.21836270  1.00242022  0.23250741  1
  Ti  Ti88  1  0.26367088  0.89421426  0.54752550  1
  Ti  Ti89  1  0.25833285  0.90403358  0.88424979  1
  Ti  Ti90  1  0.54524488  0.22882757  0.23097685  1
  Ti  Ti91  1  0.55604729  0.17469945  0.59335471  1
  Ti  Ti92  1  0.63558764  0.22792111  0.87329512  1
  Ti  Ti93  1  0.56898610  0.64298920  0.27572239  1
  Ti  Ti94  1  0.60095040  0.68206689  0.57001392  1
  Ti  Ti95  1  0.48930146  0.59625620  0.93174814  1
  Ti  Ti96  1  0.68555113  0.96394204  0.23298212  1
  Ti  Ti97  1  0.58268000  0.97069303  0.64591351  1
  Ti  Ti98  1  0.59731130  0.89357571  0.85781811  1
  Ti  Ti99  1  0.87024552  0.27121915  0.20211486  1
  Ti  Ti100  1  0.93812384  0.21868910  0.58949116  1
  Ti  Ti101  1  0.91387197  0.28381787  0.87882533  1
  Ti  Ti102  1  0.84543556  0.59515632  0.19100316  1
  Ti  Ti103  1  1.03026181  0.59880770  0.61545018  1
  Ti  Ti104  1  0.93930551  0.50139207  0.93269149  1
  Ti  Ti105  1  0.87676320  0.96667162  0.31747395  1
  Ti  Ti106  1  0.90743642  0.91467409  0.59653848  1
  Ti  Ti107  1  0.95778379  0.83954699  0.86795491  1
  Co  Co108  1  0.70252056  0.66990929  0.19530974  1
  Co  Co109  1  0.31094339  0.09954475  0.32207431  1
  Co  Co110  1  0.58192545  0.30578204  0.43471239  1
  Co  Co111  1  0.29586386  0.70199451  0.20321431  1
  Co  Co112  1  0.89571848  0.19878820  0.05228831  1
  Co  Co113  1  0.23052190  0.39956374  0.54522472  1
  Co  Co114  1  0.28402842  0.77195621  0.78704344  1
  Co  Co115  1  0.18152204  0.18686888  0.23279707  1
  Co  Co116  1  0.27155723  0.40106026  0.91162069  1
  Co  Co117  1  0.84347126  -0.08387998  0.14632986  1
  Co  Co118  1  0.07598164  0.79871183  0.35063975  1
  Co  Co119  1  0.84184119  0.58241519  0.65947745  1
  Co  Co120  1  0.79345195  0.31062171  0.00120243  1
  Co  Co121  1  0.53074526  0.86378969  0.00553828  1
  Co  Co122  1  0.39837499  0.23014764  0.61013800  1
  Co  Co123  1  0.29712936  0.03342446  -0.00069002  1
  Co  Co124  1  0.03290227  0.25730754  0.30298570  1
  Co  Co125  1  0.28607406  0.63513530  0.66844045  1
  Co  Co126  1  0.63385225  0.15425144  0.45097466  1
  Co  Co127  1  -0.03860831  0.11516550  -0.09076287  1
  Co  Co128  1  0.21291178  0.71685905  0.92718285  1
  Co  Co129  1  0.19748147  -0.06285149  0.07624102  1
  Co  Co130  1  0.72721915  0.57705721  0.53200083  1
  Co  Co131  1  0.34959479  0.45731769  0.23199181  1
  Co  Co132  1  0.64324725  0.11376600  0.72372654  1
  Co  Co133  1  0.30605758  0.86896040  0.21596276  1
  Co  Co134  1  0.13332089  0.80644799  0.18063800  1
  Co  Co135  1  0.22959710  0.72227885  0.50875441  1
  Co  Co136  1  -0.02636089  0.90154016  0.43628393  1
  Co  Co137  1  0.50502168  0.25033215  0.73307774  1
  Co  Co138  1  0.04965537  -0.03566020  0.30252026  1
  Co  Co139  1  0.08581834  0.20721612  0.51354128  1
  Co  Co140  1  0.11023014  0.80066667  0.83401314  1
  Co  Co141  1  0.87352161  0.07061153  0.64057467  1
  Co  Co142  1  0.68156995  0.61394930  0.69216531  1
  Co  Co143  1  0.42545343  0.77341948  0.11753341  1
  Co  Co144  1  0.01350100  0.77831974  0.68454744  1
  Co  Co145  1  0.79046925  0.46882621  -0.00657160  1
  Co  Co146  1  0.63195739  0.80434628  0.23703017  1
  Co  Co147  1  0.37634462  0.31759933  0.01079459  1
  Co  Co148  1  0.37143296  0.32358063  0.47451932  1
  Co  Co149  1  -0.07541580  0.57117380  0.33921169  1
  Co  Co150  1  0.24619744  0.27648766  0.11967184  1
  Co  Co151  1  0.84191768  0.02069245  0.47881104  1
  Co  Co152  1  -0.04921745  0.18324882  0.74846239  1
  Co  Co153  1  0.09378416  0.22433634  0.66970744  1
  Co  Co154  1  0.81027855  0.42550979  0.27924012  1
  Co  Co155  1  0.77290878  -0.05663524  0.90051171  1
  Co  Co156  1  0.21762487  0.10301899  0.89021573  1
  Co  Co157  1  -0.04270250  0.34752027  0.02091386  1
  Co  Co158  1  0.09575769  0.82106392  0.00489599  1
  Co  Co159  1  0.00426132  0.08918973  0.07387306  1
  Co  Co160  1  0.07772888  0.93434189  0.56965957  1
  Co  Co161  1  0.33365289  0.04092349  0.48136218  1
  Ni  Ni162  1  0.75355317  0.08655955  0.34419802  1
  Ni  Ni163  1  0.64449175  0.05365725  0.90222375  1
  Ni  Ni164  1  0.12758757  0.48529171  0.37123315  1
  Ni  Ni165  1  0.53693108  -0.09047369  0.16407040  1
  Ni  Ni166  1  0.67779550  0.12894150  0.20159779  1
  Ni  Ni167  1  0.51286548  0.23201988  0.05913203  1
  Ni  Ni168  1  0.58652296  0.50667346  0.59558112  1
  Ni  Ni169  1  0.02781264  0.34144102  0.76268683  1
  Ni  Ni170  1  0.31750928  0.63384509  0.02437453  1
  Ni  Ni171  1  0.59950999  0.54115740  0.81952805  1
  Ni  Ni172  1  0.67565951  0.27831055  0.68917228  1
  Ni  Ni173  1  0.86062008  0.83104194  0.73369329  1
  Ni  Ni174  1  0.72433762  0.03039653  0.05842186  1
  Ni  Ni175  1  0.64222954  0.66942075  -0.07132555  1
  Ni  Ni176  1  0.89506218  0.15889010  0.33765821  1
  Ni  Ni177  1  -0.03873738  0.83558320  0.24326030  1
  Ni  Ni178  1  0.39005649  0.48555904  -0.00676089  1
  Ni  Ni179  1  0.37665911  0.77200217  0.45049834  1
  Ni  Ni180  1  0.54986606  0.90974581  0.33808648  1
  Ni  Ni181  1  0.51247355  0.67656079  0.43298061  1
  Ni  Ni182  1  0.81351949  0.86203428  0.45803818  1
  Ni  Ni183  1  0.03348595  0.06906148  0.66171776  1
  Ni  Ni184  1  0.51621913  0.49415523  0.23707310  1
  Ni  Ni185  1  0.00460091  0.48209667  0.48194910  1
  Ni  Ni186  1  0.67010415  0.84712817  0.54940546  1
  Ni  Ni187  1  0.44764336  -0.03260006  0.91635933  1
  Ni  Ni188  1  0.54065427  0.81640898  0.65778072  1
  Ni  Ni189  1  0.40034881  0.66208582  0.79838045  1
  Ni  Ni190  1  0.58279280  0.07585716  0.32319404  1
  Ni  Ni191  1  0.62539109  0.37779151  0.29068751  1
  Ni  Ni192  1  0.40888378  0.31133353  0.17142661  1
  Ni  Ni193  1  0.27524721  -0.07472659  0.70781580  1
  Ni  Ni194  1  0.13873255  0.12161076  0.37523392  1
  Ni  Ni195  1  0.29654204  0.52580252  0.79103005  1
  Ni  Ni196  1  0.42397269  -0.08877948  0.57997401  1
  Ni  Ni197  1  0.08745688  0.46531862  0.06756414  1
  Ni  Ni198  1  0.87598896  0.66206087  0.94372764  1
  Ni  Ni199  1  0.63520818  0.37065928  -0.02287939  1
  Ni  Ni200  1  0.41639749  0.49203825  0.50315215  1
  Ni  Ni201  1  0.84929218  0.31989131  0.69676666  1
  Ni  Ni202  1  0.17961725  0.50585065  0.66547672  1
  Ni  Ni203  1  0.69578934  0.80000830  0.70560488  1
  Ni  Ni204  1  0.89882974  0.60845731  0.50387248  1
  Ni  Ni205  1  0.68029360  0.51925986  0.23876413  1
  Ni  Ni206  1  0.48522688  0.27947962  0.89573997  1
  Ni  Ni207  1  0.84499459  0.82346111  -0.00744967  1
  Ni  Ni208  1  -0.02255591  0.59644232  0.07834793  1
  Ni  Ni209  1  0.34802747  0.41275427  0.66867933  1
  Ni  Ni210  1  0.06327907  0.21516357  -0.01470798  1
  Ni  Ni211  1  0.75473864  0.70202158  0.04907321  1
  Ni  Ni212  1  0.06640130  0.50383086  0.80047768  1
  Ni  Ni213  1  0.04709019  0.52001665  0.21864083  1
  Ni  Ni214  1  0.34974831  0.04276510  0.80961502  1
