# generated using pymatgen
data_Ti108Co54Ni53
_symmetry_space_group_name_H-M   'P 1'
_cell_length_a   14.63772763
_cell_length_b   14.65705617
_cell_length_c   14.68820650
_cell_angle_alpha   90.03102485
_cell_angle_beta   90.20475595
_cell_angle_gamma   89.83991734
_symmetry_Int_Tables_number   1
_chemical_formula_structural   Ti108Co54Ni53
_chemical_formula_sum   'Ti108 Co54 Ni53'
_cell_volume   3151.26302650
_cell_formula_units_Z   1
loop_
 _symmetry_equiv_pos_site_id
 _symmetry_equiv_pos_as_xyz
  1  'x, y, z'
loop_
 _atom_site_type_symbol
 _atom_site_label
 _atom_site_symmetry_multiplicity
 _atom_site_fract_x
 _atom_site_fract_y
 _atom_site_fract_z
 _atom_site_occupancy
  Ti  Ti0  1  0.07633687  0.09124200  0.26034402  1
  Ti  Ti1  1  0.06261500  0.05910016  0.57928635  1
  Ti  Ti2  1  0.16690741  0.03620447  0.92814119  1
  Ti  Ti3  1  0.11596541  0.37879027  0.21700970  1
  Ti  Ti4  1  0.07009827  0.47365058  0.55893030  1
  Ti  Ti5  1  0.07641270  0.36490804  0.90951485  1
  Ti  Ti6  1  0.16403155  0.71703260  0.28670138  1
  Ti  Ti7  1  0.09634158  0.72147592  0.55309169  1
  Ti  Ti8  1  0.10783260  0.82290464  0.91696916  1
  Ti  Ti9  1  0.45743255  0.05372180  0.24995121  1
  Ti  Ti10  1  0.35463617  0.09602048  0.56267689  1
  Ti  Ti11  1  0.37171882  0.05778706  0.91441146  1
  Ti  Ti12  1  0.42398595  0.38448500  0.25123680  1
  Ti  Ti13  1  0.40630403  0.41843765  0.56329251  1
  Ti  Ti14  1  0.35873508  0.45848316  0.88122887  1
  Ti  Ti15  1  0.43155906  0.71999023  0.23094702  1
  Ti  Ti16  1  0.38218513  0.73619120  0.60974974  1
  Ti  Ti17  1  0.44272229  0.74990704  0.94081211  1
  Ti  Ti18  1  0.79349601  0.08291174  0.22684206  1
  Ti  Ti19  1  0.71805779  0.13813315  0.54922905  1
  Ti  Ti20  1  0.73330540  0.08782465  0.89496481  1
  Ti  Ti21  1  0.72619560  0.42495873  0.18574061  1
  Ti  Ti22  1  0.66912440  0.46640573  0.57468635  1
  Ti  Ti23  1  0.60670450  0.43868717  0.88687481  1
  Ti  Ti24  1  0.74929872  0.76893439  0.22446505  1
  Ti  Ti25  1  0.78162004  0.73301364  0.58395437  1
  Ti  Ti26  1  0.76404548  0.76044276  0.91198572  1
  Ti  Ti27  1  0.11716351  0.21124396  0.07368939  1
  Ti  Ti28  1  0.08614633  0.24273754  0.39735388  1
  Ti  Ti29  1  0.11327322  0.28549862  0.68011659  1
  Ti  Ti30  1  0.07972822  0.50801955  0.05530139  1
  Ti  Ti31  1  0.06318817  0.59001556  0.38944950  1
  Ti  Ti32  1  0.04067654  0.60708713  0.71878456  1
  Ti  Ti33  1  0.01076133  0.89847575  0.15353917  1
  Ti  Ti34  1  0.07151109  0.95062179  0.38523843  1
  Ti  Ti35  1  0.06848278  0.82342955  0.71079084  1
  Ti  Ti36  1  0.43883639  0.19281074  0.11129240  1
  Ti  Ti37  1  0.40875074  0.28951878  0.42950829  1
  Ti  Ti38  1  0.37446253  0.21923091  0.77003535  1
  Ti  Ti39  1  0.42748724  0.61860929  0.06517324  1
  Ti  Ti40  1  0.45667253  0.65864736  0.43178461  1
  Ti  Ti41  1  0.41895504  0.56134960  0.71118932  1
  Ti  Ti42  1  0.38952777  0.90300688  0.13279807  1
  Ti  Ti43  1  0.47259219  0.95081791  0.41833717  1
  Ti  Ti44  1  0.47276807  0.90093626  0.81040259  1
  Ti  Ti45  1  0.70295560  0.23955541  0.14548577  1
  Ti  Ti46  1  0.77504766  0.24763966  0.40696050  1
  Ti  Ti47  1  0.72189194  0.34339331  0.75326812  1
  Ti  Ti48  1  0.78415784  0.52536904  0.03314191  1
  Ti  Ti49  1  0.74997058  0.50285857  0.35503504  1
  Ti  Ti50  1  0.75009514  0.54622221  0.81462114  1
  Ti  Ti51  1  0.84392352  0.96769455  0.00825107  1
  Ti  Ti52  1  0.73936645  0.95776156  0.48253623  1
  Ti  Ti53  1  0.67595328  0.87709810  0.74463973  1
  Ti  Ti54  1  0.27648196  0.09624303  0.18326831  1
  Ti  Ti55  1  0.25755406  0.06718106  0.38059018  1
  Ti  Ti56  1  0.27697347  0.02186691  0.74277995  1
  Ti  Ti57  1  0.31411970  0.46754985  0.08161388  1
  Ti  Ti58  1  0.26806768  0.46856094  0.44353752  1
  Ti  Ti59  1  0.21459573  0.54907682  0.79403276  1
  Ti  Ti60  1  0.18585869  0.76456861  0.10455774  1
  Ti  Ti61  1  0.25468856  0.72090259  0.45658216  1
  Ti  Ti62  1  0.27765255  0.74961602  0.78535046  1
  Ti  Ti63  1  0.60244617  0.13954212  0.02582366  1
  Ti  Ti64  1  0.64481457  0.08214003  0.35985470  1
  Ti  Ti65  1  0.59737274  0.05206486  0.76542770  1
  Ti  Ti66  1  0.54569257  0.47538227  0.11232666  1
  Ti  Ti67  1  0.57415313  0.40432297  0.40905538  1
  Ti  Ti68  1  0.52860282  0.37185970  0.70989626  1
  Ti  Ti69  1  0.57010266  0.80484523  0.08489779  1
  Ti  Ti70  1  0.62081729  0.80277766  0.39879649  1
  Ti  Ti71  1  0.64131773  0.69312626  0.75709740  1
  Ti  Ti72  1  0.95636245  0.09043930  0.11262076  1
  Ti  Ti73  1  0.88748333  0.06183610  0.41360898  1
  Ti  Ti74  1  0.81171999  0.05575977  0.72259907  1
  Ti  Ti75  1  0.92969750  0.45507903  0.17619796  1
  Ti  Ti76  1  0.94094482  0.35094219  0.48096037  1
  Ti  Ti77  1  0.92284075  0.44332620  0.78805363  1
  Ti  Ti78  1  0.93312009  0.79155889  -0.00011649  1
  Ti  Ti79  1  0.90417635  0.68530781  0.43699363  1
  Ti  Ti80  1  0.86956977  0.80503942  0.74220501  1
  Ti  Ti81  1  0.28796192  0.29442271  0.15658275  1
  Ti  Ti82  1  0.29719675  0.27172089  0.60241128  1
  Ti  Ti83  1  0.28717195  0.29732699  0.95039735  1
  Ti  Ti84  1  0.24036068  0.51716663  0.26226809  1
  Ti  Ti85  1  0.23473751  0.45821386  0.64262071  1
  Ti  Ti86  1  0.23526340  0.63593136  0.96801527  1
  Ti  Ti87  1  0.19221570  0.93064693  0.21873872  1
  Ti  Ti88  1  0.30409953  0.90871509  0.51444551  1
  Ti  Ti89  1  0.29301479  0.87154741  0.93921743  1
  Ti  Ti90  1  0.53169606  0.22671353  0.29097048  1
  Ti  Ti91  1  0.53301192  0.18474353  0.62065075  1
  Ti  Ti92  1  0.58391179  0.22247243  0.84252723  1
  Ti  Ti93  1  0.57733194  0.58471693  0.27841324  1
  Ti  Ti94  1  0.60095184  0.67417252  0.57151254  1
  Ti  Ti95  1  0.62753593  0.63020334  0.97237701  1
  Ti  Ti96  1  0.64713396  0.93629522  0.21324018  1
  Ti  Ti97  1  0.50628012  0.95383456  0.60937678  1
  Ti  Ti98  1  0.63759210  0.92866418  0.94977483  1
  Ti  Ti99  1  0.87947293  0.26486722  0.18967944  1
  Ti  Ti100  1  0.85978483  0.23926480  0.63653039  1
  Ti  Ti101  1  0.75599395  0.26913789  0.94782177  1
  Ti  Ti102  1  0.87494408  0.61854520  0.24954175  1
  Ti  Ti103  1  0.89289937  0.53554679  0.58433529  1
  Ti  Ti104  1  0.91806339  0.61026381  0.91364965  1
  Ti  Ti105  1  0.90687330  0.85032364  0.32274257  1
  Ti  Ti106  1  0.94084375  0.87844932  0.53028616  1
  Ti  Ti107  1  0.96803313  0.94085591  0.84398811  1
  Co  Co108  1  0.79046355  0.68332100  0.05930481  1
  Co  Co109  1  0.00470267  0.34239230  0.07561444  1
  Co  Co110  1  0.49032193  0.81034230  0.50989769  1
  Co  Co111  1  0.82982845  0.36768022  0.31602194  1
  Co  Co112  1  0.54110107  0.33208880  0.55156341  1
  Co  Co113  1  0.59837035  0.22622116  0.44205290  1
  Co  Co114  1  0.12866636  0.68588691  0.82845590  1
  Co  Co115  1  0.84069001  -0.07341926  0.17022697  1
  Co  Co116  1  0.72134056  0.58865097  0.19524602  1
  Co  Co117  1  0.34340248  0.75741328  0.07808467  1
  Co  Co118  1  0.06196468  0.53360948  0.88346322  1
  Co  Co119  1  0.92852475  0.19955742  0.33951379  1
  Co  Co120  1  0.78559980  0.81047576  0.42819867  1
  Co  Co121  1  0.06327339  0.78679412  0.41026446  1
  Co  Co122  1  0.38319252  0.80271744  0.38645792  1
  Co  Co123  1  -0.02562033  0.74775222  0.84561745  1
  Co  Co124  1  0.36098186  0.20613797  0.28813713  1
  Co  Co125  1  0.22400795  0.65277230  0.66127792  1
  Co  Co126  1  0.32120558  0.63783618  0.33558938  1
  Co  Co127  1  0.76778322  -0.05622586  0.32341704  1
  Co  Co128  1  0.66356821  0.00880441  0.62729742  1
  Co  Co129  1  0.29473518  0.79977068  0.24727887  1
  Co  Co130  1  0.16948445  0.36485422  0.05986995  1
  Co  Co131  1  0.83300873  0.36251390  0.06287756  1
  Co  Co132  1  0.58836715  0.64896865  0.12601370  1
  Co  Co133  1  0.12770452  0.05335228  0.10301041  1
  Co  Co134  1  0.29110469  -0.00333972  0.05274083  1
  Co  Co135  1  0.68774860  0.18197334  0.70886775  1
  Co  Co136  1  -0.08230381  0.50515882  0.40618579  1
  Co  Co137  1  0.59348766  0.74937579  0.25124522  1
  Co  Co138  1  -0.06133510  0.00801625  0.27004349  1
  Co  Co139  1  0.53353970  0.05700157  0.91094115  1
  Co  Co140  1  0.05708857  0.55427273  0.23292060  1
  Co  Co141  1  0.03343170  0.23961814  0.21487616  1
  Co  Co142  1  0.36672398  0.39025341  0.72916238  1
  Co  Co143  1  0.59082077  0.77912372  0.88595762  1
  Co  Co144  1  0.53588752  -0.00660859  0.09528649  1
  Co  Co145  1  0.48151009  0.50244224  -0.03212567  1
  Co  Co146  1  0.20536951  0.46179435  -0.05897554  1
  Co  Co147  1  0.18091898  0.58274784  0.52199781  1
  Co  Co148  1  0.81888687  0.40489100  0.64420186  1
  Co  Co149  1  0.08573961  0.44177701  0.74206659  1
  Co  Co150  1  0.79116107  0.40341974  0.48058742  1
  Co  Co151  1  0.74076351  0.58777084  0.65517781  1
  Co  Co152  1  0.77082425  0.58719865  0.49175133  1
  Co  Co153  1  0.87989451  0.05594937  0.57347308  1
  Co  Co154  1  0.70066105  0.29730787  0.57714232  1
  Co  Co155  1  0.72828593  0.67179569  0.35385758  1
  Co  Co156  1  0.79239085  0.41959149  0.90471579  1
  Co  Co157  1  -0.02596003  0.36633447  0.64714290  1
  Co  Co158  1  0.70503612  0.01421948  0.08150519  1
  Co  Co159  1  0.21425739  0.87031769  0.38277868  1
  Co  Co160  1  0.42310976  0.35490429  0.04106195  1
  Co  Co161  1  0.93777717  0.45675424  -0.02518319  1
  Ni  Ni162  1  0.43560535  0.06369783  0.72390301  1
  Ni  Ni163  1  0.18111958  -0.09358979  0.79725391  1
  Ni  Ni164  1  0.87347209  0.63491235  0.74279389  1
  Ni  Ni165  1  0.44250094  0.12521968  0.41183830  1
  Ni  Ni166  1  0.19397164  0.21099862  0.27427765  1
  Ni  Ni167  1  0.23214950  0.17124940  0.83926335  1
  Ni  Ni168  1  0.46178518  0.91462354  -0.02447399  1
  Ni  Ni169  1  0.66907934  0.31980169  0.30009448  1
  Ni  Ni170  1  0.12024819  -0.10416210  0.53353979  1
  Ni  Ni171  1  0.44778033  0.72558520  0.77276038  1
  Ni  Ni172  1  0.18580325  0.60520257  0.13524932  1
  Ni  Ni173  1  0.51058299  0.53588867  0.56229071  1
  Ni  Ni174  1  0.25966771  0.21881890  0.44006639  1
  Ni  Ni175  1  -0.03463630  -0.03914974  0.67778362  1
  Ni  Ni176  1  -0.01547714  0.36564975  0.31845118  1
  Ni  Ni177  1  0.36942484  -0.11373364  0.68700132  1
  Ni  Ni178  1  0.65400103  0.84478627  0.56813420  1
  Ni  Ni179  1  0.34149322  -0.05394163  0.30308014  1
  Ni  Ni180  1  0.44442173  0.20351756  -0.05384707  1
  Ni  Ni181  1  0.81638936  0.20865757  0.80475024  1
  Ni  Ni182  1  0.56502071  0.06869885  0.50363463  1
  Ni  Ni183  1  0.74568551  0.84110439  0.06534273  1
  Ni  Ni184  1  0.22491328  0.82140405  0.63733385  1
  Ni  Ni185  1  0.00283003  0.72173127  0.27136954  1
  Ni  Ni186  1  0.52878381  0.59952348  0.84549224  1
  Ni  Ni187  1  0.55585711  0.31362772  0.14436490  1
  Ni  Ni188  1  0.34642978  0.58139317  0.55103607  1
  Ni  Ni189  1  -0.05479388  0.71424863  0.61219881  1
  Ni  Ni190  1  0.60681931  0.10655188  0.19251339  1
  Ni  Ni191  1  0.11679500  0.43006335  0.38375947  1
  Ni  Ni192  1  0.01697144  -0.02499455  -0.00169513  1
  Ni  Ni193  1  0.06705268  0.67253815  -0.01321704  1
  Ni  Ni194  1  0.26471113  0.34888599  0.32379947  1
  Ni  Ni195  1  0.53519063  0.80273768  0.67042794  1
  Ni  Ni196  1  0.20737153  0.14369185  0.66176395  1
  Ni  Ni197  1  0.41321221  0.54640566  0.22740065  1
  Ni  Ni198  1  0.36779623  0.62134324  0.87063341  1
  Ni  Ni199  1  0.80269838  0.91459465  0.63079277  1
  Ni  Ni200  1  0.66863676  0.38280937  0.03187740  1
  Ni  Ni201  1  0.15700956  0.90943157  0.04730761  1
  Ni  Ni202  1  0.59882863  0.52482380  0.71786404  1
  Ni  Ni203  1  0.94324811  0.61405506  0.09031033  1
  Ni  Ni204  1  -0.10162125  0.76809289  0.15565851  1
  Ni  Ni205  1  0.27407035  0.15186141  0.01914168  1
  Ni  Ni206  1  0.61149270  0.57292229  0.43744824  1
  Ni  Ni207  1  0.49463967  0.88020620  0.26688815  1
  Ni  Ni208  1  0.79659960  -0.07004924  0.84980270  1
  Ni  Ni209  1  0.43144105  0.49597695  0.39323699  1
  Ni  Ni210  1  0.80832080  0.14001724  0.04851092  1
  Ni  Ni211  1  0.22192989  0.35440157  0.79653999  1
  Ni  Ni212  1  0.16411963  0.33601601  0.51752496  1
  Ni  Ni213  1  0.46698337  0.34164049  0.86842821  1
  Ni  Ni214  1  -0.03553450  0.18224283  0.50831784  1
