# generated using pymatgen
data_Ti108Co54Ni53
_symmetry_space_group_name_H-M   'P 1'
_cell_length_a   14.67402018
_cell_length_b   14.63008830
_cell_length_c   14.66117943
_cell_angle_alpha   90.16904789
_cell_angle_beta   90.02890640
_cell_angle_gamma   90.02597308
_symmetry_Int_Tables_number   1
_chemical_formula_structural   Ti108Co54Ni53
_chemical_formula_sum   'Ti108 Co54 Ni53'
_cell_volume   3147.47998894
_cell_formula_units_Z   1
loop_
 _symmetry_equiv_pos_site_id
 _symmetry_equiv_pos_as_xyz
  1  'x, y, z'
loop_
 _atom_site_type_symbol
 _atom_site_label
 _atom_site_symmetry_multiplicity
 _atom_site_fract_x
 _atom_site_fract_y
 _atom_site_fract_z
 _atom_site_occupancy
  Ti  Ti0  1  0.09811984  0.05845977  0.25303750  1
  Ti  Ti1  1  0.13355275  0.19728058  0.56732185  1
  Ti  Ti2  1  0.11394625  0.06379041  0.93592426  1
  Ti  Ti3  1  0.06178028  0.48878121  0.18907048  1
  Ti  Ti4  1  0.13359027  0.43948856  0.53127441  1
  Ti  Ti5  1  0.02255147  0.38782579  0.95400702  1
  Ti  Ti6  1  0.06970492  0.70471045  0.17886783  1
  Ti  Ti7  1  0.15952499  0.80622229  0.56841374  1
  Ti  Ti8  1  0.04021785  0.69165897  0.87699620  1
  Ti  Ti9  1  0.51718914  0.08895113  0.30864484  1
  Ti  Ti10  1  0.48454619  0.07498921  0.59552206  1
  Ti  Ti11  1  0.44641446  0.09124133  0.91964910  1
  Ti  Ti12  1  0.40385350  0.44893195  0.27495281  1
  Ti  Ti13  1  0.40883028  0.36745728  0.64913365  1
  Ti  Ti14  1  0.40072287  0.43957360  0.97902896  1
  Ti  Ti15  1  0.40783052  0.78248905  0.33217767  1
  Ti  Ti16  1  0.41913955  0.80248653  0.61771592  1
  Ti  Ti17  1  0.39214013  0.66711020  0.98807996  1
  Ti  Ti18  1  0.70005746  0.13354673  0.21149779  1
  Ti  Ti19  1  0.79157785  0.14370055  0.56985303  1
  Ti  Ti20  1  0.80980023  0.02335489  0.92646544  1
  Ti  Ti21  1  0.70161803  0.44575336  0.22145606  1
  Ti  Ti22  1  0.79584089  0.43747377  0.54385889  1
  Ti  Ti23  1  0.72405642  0.44111758  0.87578791  1
  Ti  Ti24  1  0.75276337  0.74926298  0.20351242  1
  Ti  Ti25  1  0.82459414  0.76087515  0.59426728  1
  Ti  Ti26  1  0.70613490  0.70989198  0.90716559  1
  Ti  Ti27  1  0.13120116  0.25740305  0.06533825  1
  Ti  Ti28  1  0.06879316  0.30007369  0.40340128  1
  Ti  Ti29  1  0.02326477  0.20932833  0.74646705  1
  Ti  Ti30  1  0.09602797  0.56713898  0.01136610  1
  Ti  Ti31  1  0.06162245  0.62541247  0.45680620  1
  Ti  Ti32  1  0.13916605  0.66468876  0.71246688  1
  Ti  Ti33  1  0.08278537  0.91384046  0.07353168  1
  Ti  Ti34  1  0.03088367  0.95014344  0.47886627  1
  Ti  Ti35  1  0.07099774  0.93626931  0.69555393  1
  Ti  Ti36  1  0.45137249  0.23404754  0.05718746  1
  Ti  Ti37  1  0.38427888  0.25248234  0.32513490  1
  Ti  Ti38  1  0.37412418  0.20995983  0.77758237  1
  Ti  Ti39  1  0.34013583  0.67291272  0.18642652  1
  Ti  Ti40  1  0.48443236  0.53254933  0.44151431  1
  Ti  Ti41  1  0.47047452  0.50749023  0.78543062  1
  Ti  Ti42  1  0.45186984  0.87484843  -0.03005089  1
  Ti  Ti43  1  0.39228323  0.97379756  0.42345918  1
  Ti  Ti44  1  0.34815553  0.91303231  0.79261749  1
  Ti  Ti45  1  0.71638948  0.32298068  0.07871176  1
  Ti  Ti46  1  0.74806592  0.26226762  0.42895031  1
  Ti  Ti47  1  0.72919754  0.26268495  0.74574340  1
  Ti  Ti48  1  0.75363351  0.53668150  0.05523788  1
  Ti  Ti49  1  0.69488431  0.57801544  0.37937822  1
  Ti  Ti50  1  0.79928407  0.60006533  0.72691791  1
  Ti  Ti51  1  0.80226032  0.89973165  0.08436222  1
  Ti  Ti52  1  0.77444481  0.95121156  0.45860537  1
  Ti  Ti53  1  0.74205603  0.92274495  0.73763167  1
  Ti  Ti54  1  0.29143104  0.12713650  0.02483246  1
  Ti  Ti55  1  0.23567107  0.09403622  0.43447140  1
  Ti  Ti56  1  0.20761947  0.08586842  0.72162947  1
  Ti  Ti57  1  0.24250335  0.41961007  0.11914868  1
  Ti  Ti58  1  0.31698649  0.40988905  0.45935627  1
  Ti  Ti59  1  0.29410555  0.38246643  0.80714031  1
  Ti  Ti60  1  0.21254060  0.73623328  0.04225293  1
  Ti  Ti61  1  0.24919114  0.68379253  0.43411848  1
  Ti  Ti62  1  0.34319532  0.70320162  0.77295637  1
  Ti  Ti63  1  0.54615411  0.02588673  0.10909188  1
  Ti  Ti64  1  0.63792136  0.11715157  0.45644681  1
  Ti  Ti65  1  0.60365407  0.07282059  0.75852167  1
  Ti  Ti66  1  0.53819177  0.47585427  0.12428794  1
  Ti  Ti67  1  0.62373177  0.39662300  0.44784578  1
  Ti  Ti68  1  0.60047292  0.39382107  0.71457343  1
  Ti  Ti69  1  0.53982979  0.80603546  0.14760884  1
  Ti  Ti70  1  0.58148775  0.70383836  0.47728176  1
  Ti  Ti71  1  0.57377880  0.74722928  0.73327259  1
  Ti  Ti72  1  0.89262336  0.08579514  0.11831301  1
  Ti  Ti73  1  0.87883305  0.15899297  0.33470678  1
  Ti  Ti74  1  0.84811996  0.10564047  0.73350874  1
  Ti  Ti75  1  0.90436811  0.40492345  0.11733156  1
  Ti  Ti76  1  0.91810012  0.49435787  0.39271496  1
  Ti  Ti77  1  0.95881637  0.43692162  0.70832644  1
  Ti  Ti78  1  0.86719241  0.70000975  0.05377646  1
  Ti  Ti79  1  0.85613371  0.69559144  0.39319223  1
  Ti  Ti80  1  0.92124245  0.80976367  0.75678520  1
  Ti  Ti81  1  0.25838294  0.19530873  0.19169330  1
  Ti  Ti82  1  0.32512760  0.20182036  0.58660788  1
  Ti  Ti83  1  0.20427604  0.23074670  0.87966341  1
  Ti  Ti84  1  0.22731658  0.52856279  0.30054964  1
  Ti  Ti85  1  0.29913169  0.53183724  0.67700123  1
  Ti  Ti86  1  0.18895802  0.52257554  0.85447382  1
  Ti  Ti87  1  0.28383357  0.95924484  0.22293741  1
  Ti  Ti88  1  0.29124799  0.95115531  0.61051183  1
  Ti  Ti89  1  0.25997557  0.94082638  0.98101203  1
  Ti  Ti90  1  0.54779454  0.28962320  0.21450941  1
  Ti  Ti91  1  0.53866033  0.26165322  0.55712707  1
  Ti  Ti92  1  0.58768647  0.25197323  0.89476735  1
  Ti  Ti93  1  0.51319613  0.62042434  0.27124807  1
  Ti  Ti94  1  0.48533248  0.60805454  0.62285150  1
  Ti  Ti95  1  0.57882708  0.57593073  0.95855638  1
  Ti  Ti96  1  0.57660027  0.88943364  0.33251651  1
  Ti  Ti97  1  0.62770920  0.86570955  0.58266358  1
  Ti  Ti98  1  0.64257047  0.91070281  0.98646378  1
  Ti  Ti99  1  1.00696120  0.23445059  0.21379483  1
  Ti  Ti100  1  0.94855172  0.22908933  0.54180585  1
  Ti  Ti101  1  0.87440293  0.22294426  0.90185483  1
  Ti  Ti102  1  0.85229430  0.56186795  0.23033068  1
  Ti  Ti103  1  0.93181892  0.58205189  0.57282648  1
  Ti  Ti104  1  0.89505893  0.53551192  0.92284056  1
  Ti  Ti105  1  0.91353952  0.86165040  0.29672328  1
  Ti  Ti106  1  0.88599743  0.95316638  0.61330747  1
  Ti  Ti107  1  0.93431966  0.84899725  0.94794463  1
  Co  Co108  1  0.21343508  0.67505579  0.88617997  1
  Co  Co109  1  -0.04962572  0.56874288  0.08629186  1
  Co  Co110  1  0.05806053  0.11151364  0.09357751  1
  Co  Co111  1  0.19567967  0.03250919  0.11137933  1
  Co  Co112  1  0.78279262  0.85729621  -0.10729997  1
  Co  Co113  1  0.56556626  0.24090233  0.37148048  1
  Co  Co114  1  0.46163081  0.35104491  0.44029236  1
  Co  Co115  1  0.76531067  0.43373442  0.37274074  1
  Co  Co116  1  0.41397860  0.69459745  0.48255981  1
  Co  Co117  1  0.03643131  0.93444352  0.86068082  1
  Co  Co118  1  0.05574777  0.11790866  0.42738135  1
  Co  Co119  1  0.23637481  0.27144054  0.46050139  1
  Co  Co120  1  -0.00973658  0.38344855  0.28408558  1
  Co  Co121  1  0.71302379  0.30544996  0.58927229  1
  Co  Co122  1  0.22154835  0.81538906  0.72385516  1
  Co  Co123  1  0.19735577  0.24644049  0.72073488  1
  Co  Co124  1  0.19011637  -0.05056682  0.81267253  1
  Co  Co125  1  0.56415033  0.44389804  0.30563094  1
  Co  Co126  1  -0.03624485  0.00093623  0.00247974  1
  Co  Co127  1  0.56439235  0.34902471  0.03261130  1
  Co  Co128  1  0.77937132  0.61582375  0.51641075  1
  Co  Co129  1  0.51876546  0.44542626  0.57888962  1
  Co  Co130  1  0.87501763  0.28895088  0.67037876  1
  Co  Co131  1  0.55468577  0.75418139  -0.02595508  1
  Co  Co132  1  0.37908316  0.34126241  0.15543274  1
  Co  Co133  1  0.66138621  0.91969579  0.17963356  1
  Co  Co134  1  0.34350844  0.08543359  0.31283059  1
  Co  Co135  1  0.83645258  0.37172909  -0.02137375  1
  Co  Co136  1  0.34629323  0.56466731  0.86114497  1
  Co  Co137  1  0.60464258  0.18633468  0.07761006  1
  Co  Co138  1  0.52705777  0.22293285  0.72602385  1
  Co  Co139  1  0.69903617  0.01044179  0.60483357  1
  Co  Co140  1  0.64060954  0.15922886  0.62774090  1
  Co  Co141  1  0.04697800  0.22580196  -0.08546425  1
  Co  Co142  1  0.38195726  0.52952307  0.12521765  1
  Co  Co143  1  0.03961731  0.74596318  0.02841699  1
  Co  Co144  1  0.91931611  0.70719940  0.22986351  1
  Co  Co145  1  0.57014284  0.42759789  -0.10551574  1
  Co  Co146  1  0.72573213  0.77595029  0.46406898  1
  Co  Co147  1  0.67466157  0.68816780  0.62019205  1
  Co  Co148  1  0.25902727  0.35208946  0.30598694  1
  Co  Co149  1  0.29184183  0.70421139  0.61161519  1
  Co  Co150  1  0.36234235  0.60457701  0.35050219  1
  Co  Co151  1  0.26661164  0.56130317  0.00696031  1
  Co  Co152  1  0.45803908  0.34395082  0.81787660  1
  Co  Co153  1  0.71544804  0.03943217  0.08132671  1
  Co  Co154  1  0.15562306  0.01921253  0.55972338  1
  Co  Co155  1  0.13106524  0.34079771  0.22281785  1
  Co  Co156  1  0.18961617  0.40131165  -0.04006188  1
  Co  Co157  1  0.63119015  0.55167948  0.53912129  1
  Co  Co158  1  0.89490201  -0.03975440  0.79257392  1
  Co  Co159  1  0.28841351  0.07015269  0.86758969  1
  Co  Co160  1  0.74495130  0.75771822  0.75326283  1
  Co  Co161  1  0.06651757  0.33039404  0.64450294  1
  Ni  Ni162  1  0.17552200  0.59577032  0.56970777  1
  Ni  Ni163  1  0.86833495  0.36576795  0.82147017  1
  Ni  Ni164  1  0.49287133  0.66437777  0.84459656  1
  Ni  Ni165  1  0.72530520  0.14051432  0.85369026  1
  Ni  Ni166  1  0.89689284  0.32576715  0.41206693  1
  Ni  Ni167  1  0.66247583  0.60392332  0.20232848  1
  Ni  Ni168  1  0.30931534  0.29872781  -0.00553977  1
  Ni  Ni169  1  -0.03373964  0.40831256  0.53677352  1
  Ni  Ni170  1  0.61168825  0.07653812  -0.04903889  1
  Ni  Ni171  1  0.50126338  0.92985715  0.68603504  1
  Ni  Ni172  1  0.39408952  0.05698451  0.72895508  1
  Ni  Ni173  1  -0.04178894  0.01644023  0.32636434  1
  Ni  Ni174  1  0.00575346  0.07929660  0.60953905  1
  Ni  Ni175  1  0.62338718  0.85922351  0.83464204  1
  Ni  Ni176  1  0.63209302  0.73112011  0.31487820  1
  Ni  Ni177  1  0.83324664  0.23129424  0.16753416  1
  Ni  Ni178  1  0.10288035  0.35914292  0.80950505  1
  Ni  Ni179  1  0.90532981  0.06450823  0.47463746  1
  Ni  Ni180  1  0.51089265  0.64532957  0.10341237  1
  Ni  Ni181  1  0.84241502  0.35698164  0.26046419  1
  Ni  Ni182  1  0.09954252  0.46503894  0.37012796  1
  Ni  Ni183  1  -0.04701013  0.25087981  0.04995826  1
  Ni  Ni184  1  0.55853095  -0.01793626  0.47613102  1
  Ni  Ni185  1  0.68242131  0.01672003  0.32867683  1
  Ni  Ni186  1  0.35447941  0.82381293  0.09892743  1
  Ni  Ni187  1  0.42550079  0.15807147  0.45582765  1
  Ni  Ni188  1  0.50662201  -0.03399311  0.84269397  1
  Ni  Ni189  1  0.86470364  0.69380533  0.86563400  1
  Ni  Ni190  1  0.41972292  0.12108103  0.17550440  1
  Ni  Ni191  1  0.16692769  0.19898894  0.32488976  1
  Ni  Ni192  1  0.33388318  0.56205125  0.52095928  1
  Ni  Ni193  1  0.67316962  0.69337277  0.06859953  1
  Ni  Ni194  1  -0.05454436  0.84015070  0.13363732  1
  Ni  Ni195  1  0.01939163  0.60506506  0.30352904  1
  Ni  Ni196  1  0.02927990  0.52950570  0.82441173  1
  Ni  Ni197  1  0.31246705  0.83105657  0.48433377  1
  Ni  Ni198  1  0.81312438  -0.00915780  0.23449256  1
  Ni  Ni199  1  0.74534662  0.85915868  0.32193620  1
  Ni  Ni200  1  -0.02995015  0.08790039  0.85672926  1
  Ni  Ni201  1  0.44628067  -0.06265967  0.23190770  1
  Ni  Ni202  1  0.14092132  0.82773425  -0.08279700  1
  Ni  Ni203  1  0.13629867  0.48086560  0.69682132  1
  Ni  Ni204  1  -0.02953860  0.65878128  0.71139317  1
  Ni  Ni205  1  -0.00701115  0.80923033  0.59610693  1
  Ni  Ni206  1  0.48225287  0.84108201  0.47125106  1
  Ni  Ni207  1  0.30964668  0.80010206  0.91205711  1
  Ni  Ni208  1  0.38341462  -0.01031829  0.08213899  1
  Ni  Ni209  1  0.19940793  0.59441288  0.14970570  1
  Ni  Ni210  1  0.76869867  0.42661681  0.70531009  1
  Ni  Ni211  1  0.63920904  0.58523936  0.78899773  1
  Ni  Ni212  1  0.76264523  0.17769989  0.01810019  1
  Ni  Ni213  1  0.24383823  0.36165120  0.62598042  1
  Ni  Ni214  1  0.69988851  0.28714895  0.27698932  1
