# generated using pymatgen
data_Ti108Co54Ni53
_symmetry_space_group_name_H-M   'P 1'
_cell_length_a   14.65618455
_cell_length_b   14.73492053
_cell_length_c   14.67454903
_cell_angle_alpha   90.05343530
_cell_angle_beta   90.30926260
_cell_angle_gamma   89.97159370
_symmetry_Int_Tables_number   1
_chemical_formula_structural   Ti108Co54Ni53
_chemical_formula_sum   'Ti108 Co54 Ni53'
_cell_volume   3169.03414629
_cell_formula_units_Z   1
loop_
 _symmetry_equiv_pos_site_id
 _symmetry_equiv_pos_as_xyz
  1  'x, y, z'
loop_
 _atom_site_type_symbol
 _atom_site_label
 _atom_site_symmetry_multiplicity
 _atom_site_fract_x
 _atom_site_fract_y
 _atom_site_fract_z
 _atom_site_occupancy
  Ti  Ti0  1  0.01821913  0.14042156  0.26555995  1
  Ti  Ti1  1  -0.01025743  0.09811185  0.59935527  1
  Ti  Ti2  1  -0.00763540  0.14588987  0.95488037  1
  Ti  Ti3  1  0.08674520  0.44745363  0.25494274  1
  Ti  Ti4  1  0.03407249  0.42498568  0.56496639  1
  Ti  Ti5  1  0.09118829  0.39395623  0.87785559  1
  Ti  Ti6  1  0.10193171  0.71579574  0.32547493  1
  Ti  Ti7  1  0.13112950  0.75170352  0.55246589  1
  Ti  Ti8  1  0.06461628  0.74380726  0.94283816  1
  Ti  Ti9  1  0.42549644  0.00382992  0.30286958  1
  Ti  Ti10  1  0.43420575  0.11383802  0.55242098  1
  Ti  Ti11  1  0.42020060  0.07117182  0.96194795  1
  Ti  Ti12  1  0.43347391  0.41832342  0.18717244  1
  Ti  Ti13  1  0.43641715  0.34090943  0.60868543  1
  Ti  Ti14  1  0.35651508  0.47652203  0.91351607  1
  Ti  Ti15  1  0.37120178  0.80545335  0.29275552  1
  Ti  Ti16  1  0.42841554  0.74656140  0.49112578  1
  Ti  Ti17  1  0.46728271  0.64956722  0.94473392  1
  Ti  Ti18  1  0.73741751  0.02425537  0.26087918  1
  Ti  Ti19  1  0.76407796  0.06177168  0.62203654  1
  Ti  Ti20  1  0.77516943  0.15426964  0.94824483  1
  Ti  Ti21  1  0.72775629  0.42499737  0.27251713  1
  Ti  Ti22  1  0.70924953  0.35514214  0.61732497  1
  Ti  Ti23  1  0.73097636  0.39996946  0.93214680  1
  Ti  Ti24  1  0.79014668  0.71506633  0.31115322  1
  Ti  Ti25  1  0.73719537  0.75297151  0.55021643  1
  Ti  Ti26  1  0.75058407  0.70570590  0.87059563  1
  Ti  Ti27  1  0.15999352  0.26197080  0.21643847  1
  Ti  Ti28  1  0.10031754  0.23552701  0.44516226  1
  Ti  Ti29  1  0.15163372  0.27335085  0.72072480  1
  Ti  Ti30  1  0.14637615  0.58717884  0.05964847  1
  Ti  Ti31  1  0.03166116  0.56994154  0.43583191  1
  Ti  Ti32  1  0.10688922  0.59557330  0.65026183  1
  Ti  Ti33  1  0.04905854  0.86213821  0.09960289  1
  Ti  Ti34  1  0.07016757  0.88973896  0.44059305  1
  Ti  Ti35  1  0.01400347  0.87156361  0.77795205  1
  Ti  Ti36  1  0.48636544  0.23710024  0.11319621  1
  Ti  Ti37  1  0.38710395  0.29230621  0.44043313  1
  Ti  Ti38  1  0.44325822  0.33839328  0.80957263  1
  Ti  Ti39  1  0.38901293  0.64266601  0.16455970  1
  Ti  Ti40  1  0.37440758  0.57980437  0.39547762  1
  Ti  Ti41  1  0.40803112  0.59879089  0.75895209  1
  Ti  Ti42  1  0.47843840  0.93555084  0.10823073  1
  Ti  Ti43  1  0.34890593  0.94851714  0.48294782  1
  Ti  Ti44  1  0.47155195  0.91571749  0.83480559  1
  Ti  Ti45  1  0.70812732  0.29059124  0.10744188  1
  Ti  Ti46  1  0.76769310  0.19260569  0.44542278  1
  Ti  Ti47  1  0.71737257  0.23356543  0.77309234  1
  Ti  Ti48  1  0.80942090  0.58205292  0.06113922  1
  Ti  Ti49  1  0.71899813  0.55620387  0.41929088  1
  Ti  Ti50  1  0.73907093  0.55464933  0.73474603  1
  Ti  Ti51  1  0.78317886  0.97183231  0.07439221  1
  Ti  Ti52  1  0.77734034  0.87953457  0.39469062  1
  Ti  Ti53  1  0.78193680  0.88580665  0.76376425  1
  Ti  Ti54  1  0.23040683  0.11805230  0.11563655  1
  Ti  Ti55  1  0.26337460  0.12242308  0.45405427  1
  Ti  Ti56  1  0.28904786  0.10509886  0.69506067  1
  Ti  Ti57  1  0.19096762  0.39028322  0.06515568  1
  Ti  Ti58  1  0.26230322  0.36736619  0.33460749  1
  Ti  Ti59  1  0.30553436  0.45614579  0.67733246  1
  Ti  Ti60  1  0.20878728  0.74230220  0.15419696  1
  Ti  Ti61  1  0.24507352  0.80345241  0.41917157  1
  Ti  Ti62  1  0.26662394  0.74531638  0.73211007  1
  Ti  Ti63  1  0.59857975  0.08735597  0.01745776  1
  Ti  Ti64  1  0.59409570  0.06213694  0.46240040  1
  Ti  Ti65  1  0.58021188  0.07972468  0.67672814  1
  Ti  Ti66  1  0.54947587  0.38229086  -0.00041449  1
  Ti  Ti67  1  0.55689853  0.42513706  0.36128713  1
  Ti  Ti68  1  0.55271127  0.46613282  0.70148018  1
  Ti  Ti69  1  0.53798391  0.73688046  0.14226827  1
  Ti  Ti70  1  0.60195671  0.77812177  0.40274148  1
  Ti  Ti71  1  0.53678309  0.75547995  0.76140992  1
  Ti  Ti72  1  0.87141607  0.13053906  0.12453677  1
  Ti  Ti73  1  0.92751938  0.02352487  0.42789141  1
  Ti  Ti74  1  0.89651639  0.14799278  0.77023263  1
  Ti  Ti75  1  0.99053699  0.32276544  0.13948785  1
  Ti  Ti76  1  0.91122394  0.41217236  0.34356326  1
  Ti  Ti77  1  0.96017069  0.39440223  0.73281421  1
  Ti  Ti78  1  0.85515340  0.77471203  0.07215089  1
  Ti  Ti79  1  0.93823346  0.77216847  0.51409536  1
  Ti  Ti80  1  0.93121747  0.66778476  0.79375135  1
  Ti  Ti81  1  0.34228452  0.17512056  0.26905708  1
  Ti  Ti82  1  0.20991415  0.35241747  0.54454268  1
  Ti  Ti83  1  0.28383017  0.27798054  0.92513602  1
  Ti  Ti84  1  0.26727032  0.50830013  0.20435310  1
  Ti  Ti85  1  0.28998464  0.63340866  0.58532845  1
  Ti  Ti86  1  0.24725516  0.66314785  0.91075634  1
  Ti  Ti87  1  0.23403873  0.93747867  0.21941873  1
  Ti  Ti88  1  0.18130019  0.96935410  0.58175328  1
  Ti  Ti89  1  0.32697248  0.88652356  0.96480350  1
  Ti  Ti90  1  0.56844605  0.17367307  0.28049295  1
  Ti  Ti91  1  0.57939319  0.27404973  0.47457595  1
  Ti  Ti92  1  0.54519922  0.17654729  0.83601040  1
  Ti  Ti93  1  0.60358178  0.54557411  0.15982553  1
  Ti  Ti94  1  0.57508497  0.62843103  0.60268474  1
  Ti  Ti95  1  0.64191751  0.57136952  0.96034110  1
  Ti  Ti96  1  0.66611908  0.85792649  0.19106364  1
  Ti  Ti97  1  0.47033083  0.90755841  0.62713410  1
  Ti  Ti98  1  0.61623385  0.88957820  0.98559448  1
  Ti  Ti99  1  0.83892271  0.26328671  0.26027685  1
  Ti  Ti100  1  0.89602286  0.31489417  0.51997023  1
  Ti  Ti101  1  0.89049037  0.31002964  0.88371447  1
  Ti  Ti102  1  0.94077946  0.60516665  0.21316968  1
  Ti  Ti103  1  0.91571090  0.59833426  0.61558587  1
  Ti  Ti104  1  0.97782449  0.56436261  0.95139730  1
  Ti  Ti105  1  0.93425237  0.96490757  0.22212871  1
  Ti  Ti106  1  0.85292636  0.91788753  0.57282822  1
  Ti  Ti107  1  0.89616741  0.97594549  0.90373246  1
  Co  Co108  1  0.31038745  0.29794327  0.16776851  1
  Co  Co109  1  0.19522701  0.50338552  -0.06884765  1
  Co  Co110  1  0.37696379  0.37439381  0.03880782  1
  Co  Co111  1  0.48452133  0.70445075  0.32068724  1
  Co  Co112  1  0.36521353  0.82870473  0.13524485  1
  Co  Co113  1  0.72359083  0.06918018  0.77699604  1
  Co  Co114  1  0.16149861  0.23755541  0.02699702  1
  Co  Co115  1  0.09370860  0.06648924  0.46394642  1
  Co  Co116  1  0.64236921  0.85639942  0.83324604  1
  Co  Co117  1  0.70969231  0.45364354  0.09008811  1
  Co  Co118  1  0.31273786  0.55029835  0.04786357  1
  Co  Co119  1  0.81735340  -0.14363622  0.21771528  1
  Co  Co120  1  0.62836851  -0.04927514  0.35404755  1
  Co  Co121  1  0.33286386  0.71944333  0.02532771  1
  Co  Co122  1  0.29556589  0.82195617  0.58195269  1
  Co  Co123  1  0.41957924  0.73245679  0.65128429  1
  Co  Co124  1  0.09444190  0.40188829  0.41620256  1
  Co  Co125  1  0.19535245  0.51701855  0.35400684  1
  Co  Co126  1  0.06505911  -0.00349365  0.32189417  1
  Co  Co127  1  0.42881323  0.56315966  0.58503648  1
  Co  Co128  1  0.75048491  0.38206822  0.44413794  1
  Co  Co129  1  0.63084343  -0.07351394  0.69117769  1
  Co  Co130  1  0.57992590  0.02209927  0.85182885  1
  Co  Co131  1  0.86868653  0.56266888  0.34845131  1
  Co  Co132  1  0.93487463  0.86598901  0.35337187  1
  Co  Co133  1  0.58659567  0.35450757  0.19774848  1
  Co  Co134  1  0.84129103  0.64710240  0.48033028  1
  Co  Co135  1  0.75805784  0.02964656  0.44479588  1
  Co  Co136  1  0.02563772  0.23753311  0.81817151  1
  Co  Co137  1  0.09590418  0.01655742  0.16640394  1
  Co  Co138  1  0.57361923  0.79050046  0.58448078  1
  Co  Co139  1  0.13479170  0.43660119  0.69640886  1
  Co  Co140  1  0.14817397  0.84261730  0.68617121  1
  Co  Co141  1  0.45537633  0.29536550  0.29408275  1
  Co  Co142  1  0.24887576  0.39911723  0.81942504  1
  Co  Co143  1  0.48562999  0.44255990  0.49999669  1
  Co  Co144  1  0.45208091  0.14882328  0.39649269  1
  Co  Co145  1  0.45288130  0.24332922  -0.04289022  1
  Co  Co146  1  0.31095384  0.28557141  0.73133594  1
  Co  Co147  1  0.04824143  0.15735800  0.10499083  1
  Co  Co148  1  0.63192439  0.24383982  -0.04063333  1
  Co  Co149  1  0.01176504  0.68058506  0.08612555  1
  Co  Co150  1  0.43676747  0.03966287  0.74085337  1
  Co  Co151  1  0.76977194  0.56716338  0.22391809  1
  Co  Co152  1  0.59676945  0.61080946  0.79401267  1
  Co  Co153  1  0.02314017  0.30394875  -0.01123152  1
  Co  Co154  1  0.11700204  0.59890804  0.21792906  1
  Co  Co155  1  0.09729252  0.85886059  0.25847684  1
  Co  Co156  1  0.57319395  0.28255922  0.68126538  1
  Co  Co157  1  0.32055453  -0.01288706  0.08969793  1
  Co  Co158  1  0.00672282  0.25296518  0.64063475  1
  Co  Co159  1  0.61932277  0.36040408  0.81584782  1
  Co  Co160  1  0.72260787  0.70295887  0.15983274  1
  Co  Co161  1  0.77430806  0.84923822  -0.05416876  1
  Ni  Ni162  1  0.63417541  0.64302837  0.29359252  1
  Ni  Ni163  1  0.00913308  0.74649513  0.66487301  1
  Ni  Ni164  1  -0.03626126  0.00603840  0.05564497  1
  Ni  Ni165  1  0.48019294  0.52324603  0.04751780  1
  Ni  Ni166  1  0.86190206  0.27384753  0.04436849  1
  Ni  Ni167  1  -0.09182396  -0.00859567  0.71913229  1
  Ni  Ni168  1  0.36397871  0.16174833  0.83713729  1
  Ni  Ni169  1  -0.08460269  0.79807623  0.89979898  1
  Ni  Ni170  1  0.18340184  0.11188936  0.30111535  1
  Ni  Ni171  1  -0.04096019  0.77423078  0.21556408  1
  Ni  Ni172  1  0.22248866  0.56558468  0.77399991  1
  Ni  Ni173  1  0.85934833  0.42775535  0.16737577  1
  Ni  Ni174  1  0.66107780  0.92262590  0.52726977  1
  Ni  Ni175  1  0.21795085  -0.02958927  0.38410820  1
  Ni  Ni176  1  0.78722479  0.39315354  0.77328914  1
  Ni  Ni177  1  0.43482365  0.08807382  0.14772944  1
  Ni  Ni178  1  0.05139960  0.54143251  0.80081583  1
  Ni  Ni179  1  0.89091668  0.43204115  0.00440884  1
  Ni  Ni180  1  0.52128778  0.49107084  0.86828798  1
  Ni  Ni181  1  0.85452075  0.11088467  0.30918566  1
  Ni  Ni182  1  0.20201945  0.63837542  0.44963370  1
  Ni  Ni183  1  0.19174934  0.82127912  0.01274277  1
  Ni  Ni184  1  0.84249323  0.45218690  0.63449793  1
  Ni  Ni185  1  0.69005448  0.72570711  0.71008594  1
  Ni  Ni186  1  0.00698512  0.49686067  0.10700060  1
  Ni  Ni187  1  0.26315380  0.66101820  0.29370609  1
  Ni  Ni188  1  0.38272125  0.76262579  0.85383633  1
  Ni  Ni189  1  0.32236363  0.45887529  0.49408565  1
  Ni  Ni190  1  0.72728532  -0.00179588  -0.08325693  1
  Ni  Ni191  1  0.63707083  0.47657027  0.53685233  1
  Ni  Ni192  1  -0.05176438  0.70238441  0.36811694  1
  Ni  Ni193  1  0.49966268  -0.09520808  0.44346257  1
  Ni  Ni194  1  0.11146220  0.70223870  0.78898562  1
  Ni  Ni195  1  0.54410964  0.59628200  0.43756446  1
  Ni  Ni196  1  0.51997021  0.86703489  0.26676563  1
  Ni  Ni197  1  0.67915518  0.28027075  0.33101673  1
  Ni  Ni198  1  -0.05884891  0.19426502  0.41758056  1
  Ni  Ni199  1  0.43946280  0.19443800  0.69571284  1
  Ni  Ni200  1  0.82171297  0.53699215  0.88209035  1
  Ni  Ni201  1  0.15183599  0.15655681  0.59315026  1
  Ni  Ni202  1  0.30616591  0.22511369  0.58157874  1
  Ni  Ni203  1  0.01975411  0.91594592  0.60612830  1
  Ni  Ni204  1  0.58161880  0.02438407  0.20229870  1
  Ni  Ni205  1  0.47416151  0.80632939  -0.00805433  1
  Ni  Ni206  1  0.48849056  0.55104171  0.27802923  1
  Ni  Ni207  1  0.01819658  0.29830195  0.31208158  1
  Ni  Ni208  1  0.67029940  0.73265334  0.01637322  1
  Ni  Ni209  1  0.84720663  0.75874946  0.67686367  1
  Ni  Ni210  1  0.67062380  0.19170957  0.58582562  1
  Ni  Ni211  1  1.02870227  0.05412299  0.81245088  1
  Ni  Ni212  1  0.69709858  0.13249694  0.13950968  1
  Ni  Ni213  1  0.83377955  0.21737761  0.63242291  1
  Ni  Ni214  1  -0.11413610  0.48615780  0.48863695  1
