# generated using pymatgen
data_Ti108Co54Ni53
_symmetry_space_group_name_H-M   'P 1'
_cell_length_a   14.63618974
_cell_length_b   14.65699653
_cell_length_c   14.65220509
_cell_angle_alpha   90.34082491
_cell_angle_beta   89.95269872
_cell_angle_gamma   89.78481873
_symmetry_Int_Tables_number   1
_chemical_formula_structural   Ti108Co54Ni53
_chemical_formula_sum   'Ti108 Co54 Ni53'
_cell_volume   3143.14996396
_cell_formula_units_Z   1
loop_
 _symmetry_equiv_pos_site_id
 _symmetry_equiv_pos_as_xyz
  1  'x, y, z'
loop_
 _atom_site_type_symbol
 _atom_site_label
 _atom_site_symmetry_multiplicity
 _atom_site_fract_x
 _atom_site_fract_y
 _atom_site_fract_z
 _atom_site_occupancy
  Ti  Ti0  1  0.14542534  0.12765192  0.28100568  1
  Ti  Ti1  1  0.13674325  0.09841472  0.59670139  1
  Ti  Ti2  1  0.12846544  0.21421437  0.90917629  1
  Ti  Ti3  1  0.06209987  0.39158018  0.22249028  1
  Ti  Ti4  1  0.06883285  0.43907594  0.61247764  1
  Ti  Ti5  1  0.06479664  0.40068032  0.97189398  1
  Ti  Ti6  1  0.14535471  0.75892789  0.27529780  1
  Ti  Ti7  1  0.13945146  0.77600802  0.49139246  1
  Ti  Ti8  1  0.12146865  0.70692013  0.94721824  1
  Ti  Ti9  1  0.46180267  0.06209573  0.32240982  1
  Ti  Ti10  1  0.42396075  0.10250800  0.59190674  1
  Ti  Ti11  1  0.41376643  0.02027917  0.91942518  1
  Ti  Ti12  1  0.51377413  0.39339394  0.25723367  1
  Ti  Ti13  1  0.39560541  0.44141772  0.55557018  1
  Ti  Ti14  1  0.39056503  0.36356269  0.95682849  1
  Ti  Ti15  1  0.35855311  0.81166317  0.28191800  1
  Ti  Ti16  1  0.44166452  0.76252783  0.57826908  1
  Ti  Ti17  1  0.45081814  0.73135866  0.84064386  1
  Ti  Ti18  1  0.81141111  0.08100137  0.37379368  1
  Ti  Ti19  1  0.81498518  0.00223713  0.56571297  1
  Ti  Ti20  1  0.74605559  0.10653947  0.94525112  1
  Ti  Ti21  1  0.77985893  0.42299079  0.33772249  1
  Ti  Ti22  1  0.61896930  0.41710161  0.58773479  1
  Ti  Ti23  1  0.72399462  0.41165326  0.94115245  1
  Ti  Ti24  1  0.78854101  0.75321896  0.19741587  1
  Ti  Ti25  1  0.74701444  0.74647709  0.64872672  1
  Ti  Ti26  1  0.67691808  0.68142278  0.86654883  1
  Ti  Ti27  1  0.10540770  0.22570738  0.10066492  1
  Ti  Ti28  1  0.06343934  0.30243769  0.39287099  1
  Ti  Ti29  1  0.02874259  0.13929547  0.76777541  1
  Ti  Ti30  1  0.14951930  0.54732021  0.05360584  1
  Ti  Ti31  1  0.02298111  0.58148687  0.27963529  1
  Ti  Ti32  1  0.13060749  0.62330408  0.73226122  1
  Ti  Ti33  1  0.10789741  0.99206146  0.09673987  1
  Ti  Ti34  1  0.01985866  0.86498173  0.37515035  1
  Ti  Ti35  1  0.13814741  0.92834140  0.71857595  1
  Ti  Ti36  1  0.43317433  0.25171893  0.11714388  1
  Ti  Ti37  1  0.43232643  0.30880282  0.40252975  1
  Ti  Ti38  1  0.43995195  0.28656935  0.74999697  1
  Ti  Ti39  1  0.33707613  0.56125311  0.07930904  1
  Ti  Ti40  1  0.45900923  0.63382008  0.37244946  1
  Ti  Ti41  1  0.37745194  0.58790405  0.71434650  1
  Ti  Ti42  1  0.41098899  0.98256360  0.14059475  1
  Ti  Ti43  1  0.40035059  0.92109439  0.45012437  1
  Ti  Ti44  1  0.37999342  0.92245226  0.75830163  1
  Ti  Ti45  1  0.73818600  0.34284068  0.14898480  1
  Ti  Ti46  1  0.72759926  0.25502486  0.44396292  1
  Ti  Ti47  1  0.75352917  0.30759033  0.73024596  1
  Ti  Ti48  1  0.70639824  0.57531939  0.09501640  1
  Ti  Ti49  1  0.75741675  0.66646829  0.44949423  1
  Ti  Ti50  1  0.80225862  0.52619629  0.66385249  1
  Ti  Ti51  1  0.70804898  0.96866001  0.18113655  1
  Ti  Ti52  1  0.71705929  0.91744869  0.39150817  1
  Ti  Ti53  1  0.70089007  0.98502956  0.73223497  1
  Ti  Ti54  1  0.23601925  0.09364724  -0.01023714  1
  Ti  Ti55  1  0.26945238  0.04787937  0.45107092  1
  Ti  Ti56  1  0.21812886  0.07488011  0.78756991  1
  Ti  Ti57  1  0.24558418  0.37757679  0.12235593  1
  Ti  Ti58  1  0.25851151  0.36732307  0.36769467  1
  Ti  Ti59  1  0.18716207  0.41674318  0.79149225  1
  Ti  Ti60  1  0.27656297  0.74558744  0.10001425  1
  Ti  Ti61  1  0.26554433  0.65930263  0.36892329  1
  Ti  Ti62  1  0.26160038  0.76465601  0.77925189  1
  Ti  Ti63  1  0.55489213  0.12646828  0.02407516  1
  Ti  Ti64  1  0.55006020  0.16232949  0.44169797  1
  Ti  Ti65  1  0.53274954  0.10026543  0.75505208  1
  Ti  Ti66  1  0.57292246  0.40603650  0.05758155  1
  Ti  Ti67  1  0.62652176  0.52387926  0.39383939  1
  Ti  Ti68  1  0.63757382  0.46988841  0.77594031  1
  Ti  Ti69  1  0.55327018  0.70826757  0.04377793  1
  Ti  Ti70  1  0.64468586  0.76182151  0.33861112  1
  Ti  Ti71  1  0.56818445  0.75732447  0.71183712  1
  Ti  Ti72  1  0.90682460  0.14205848  0.09391267  1
  Ti  Ti73  1  0.99758929  0.07558676  0.39669881  1
  Ti  Ti74  1  0.83907443  0.10839182  0.77503077  1
  Ti  Ti75  1  0.88609125  0.45839490  0.01628348  1
  Ti  Ti76  1  0.91276337  0.35592718  0.48874678  1
  Ti  Ti77  1  0.90187417  0.39530310  0.82065655  1
  Ti  Ti78  1  0.96774497  0.73385898  0.09641637  1
  Ti  Ti79  1  0.94478167  0.70642259  0.42840128  1
  Ti  Ti80  1  0.96340070  0.75491746  0.69855996  1
  Ti  Ti81  1  0.32247207  0.17205939  0.28895102  1
  Ti  Ti82  1  0.26360484  0.25897516  0.57927540  1
  Ti  Ti83  1  0.28046446  0.25469401  0.82008165  1
  Ti  Ti84  1  0.21921962  0.54565070  0.23011830  1
  Ti  Ti85  1  0.19742113  0.58507710  0.52981193  1
  Ti  Ti86  1  0.28357342  0.59538374  0.88451075  1
  Ti  Ti87  1  0.15397151  0.95040603  0.28578453  1
  Ti  Ti88  1  0.26876879  0.87374988  0.58730482  1
  Ti  Ti89  1  0.19042444  0.89468723  0.90689388  1
  Ti  Ti90  1  0.67918225  0.16651745  0.26116965  1
  Ti  Ti91  1  0.60957070  0.21627802  0.60703010  1
  Ti  Ti92  1  0.57998104  0.25953745  0.88762725  1
  Ti  Ti93  1  0.50961392  0.56746076  0.17921324  1
  Ti  Ti94  1  0.53324622  0.58720085  0.59920569  1
  Ti  Ti95  1  0.47432578  0.55053738  0.94651951  1
  Ti  Ti96  1  0.53927550  0.89620059  0.25399791  1
  Ti  Ti97  1  0.61972751  0.87563508  0.56536898  1
  Ti  Ti98  1  0.54858209  0.87893973  0.93164010  1
  Ti  Ti99  1  0.86848279  0.26497185  0.27980922  1
  Ti  Ti100  1  0.89864390  0.19640625  0.61264441  1
  Ti  Ti101  1  0.93967629  0.23470252  0.92804068  1
  Ti  Ti102  1  0.82933465  0.59294709  0.28322784  1
  Ti  Ti103  1  0.90329392  0.53493131  0.47847905  1
  Ti  Ti104  1  0.95045248  0.59716804  0.84244648  1
  Ti  Ti105  1  0.88857988  0.91760235  0.25405956  1
  Ti  Ti106  1  1.03273441  0.92931998  0.56663550  1
  Ti  Ti107  1  0.96301366  0.93862070  0.80468778  1
  Co  Co108  1  0.35810301  0.45073380  0.82391427  1
  Co  Co109  1  -0.00837671  0.59774480  -0.00370403  1
  Co  Co110  1  0.12329563  -0.00428289  0.44934148  1
  Co  Co111  1  0.81008158  0.60483089  -0.03799938  1
  Co  Co112  1  0.25293066  0.88503291  0.17749067  1
  Co  Co113  1  0.82572584  0.79124540  0.35338078  1
  Co  Co114  1  0.35196578  0.32525064  0.23858066  1
  Co  Co115  1  0.16640252  0.49947112  0.36695200  1
  Co  Co116  1  0.74086428  0.13522374  0.63080519  1
  Co  Co117  1  0.09193335  0.63993876  0.41357389  1
  Co  Co118  1  -0.05250436  0.43200073  0.33618251  1
  Co  Co119  1  0.68643303  0.08562741  0.47469332  1
  Co  Co120  1  0.37533942  0.11463451  0.06115406  1
  Co  Co121  1  0.31995000  0.37096879  0.68199370  1
  Co  Co122  1  0.24890437  0.05121623  0.16265351  1
  Co  Co123  1  0.33179766  0.75985036  0.46544140  1
  Co  Co124  1  0.59142939  0.31303151  0.73304289  1
  Co  Co125  1  0.47971059  0.44691183  0.70511186  1
  Co  Co126  1  0.59477946  0.24904654  0.14857080  1
  Co  Co127  1  0.26186267  0.26910903  -0.00513484  1
  Co  Co128  1  0.49843265  0.21644305  0.27497901  1
  Co  Co129  1  0.23238527  0.87277639  0.40510360  1
  Co  Co130  1  0.26122476  0.20742504  0.14226172  1
  Co  Co131  1  0.77139515  0.31455499  0.57823411  1
  Co  Co132  1  0.17542440  0.28289239  0.26109834  1
  Co  Co133  1  0.04958789  0.47032690  0.45888870  1
  Co  Co134  1  0.67098481  0.61586151  0.71871830  1
  Co  Co135  1  0.05692829  0.32162666  0.82780834  1
  Co  Co136  1  0.72007096  0.13569854  0.10649344  1
  Co  Co137  1  0.03123473  0.47262681  0.76552068  1
  Co  Co138  1  0.35763150  0.65422510  0.22378687  1
  Co  Co139  1  0.58231063  0.34449149  0.45716743  1
  Co  Co140  1  0.66946638  0.26295045  0.01194496  1
  Co  Co141  1  0.67804750  0.16307939  0.78417098  1
  Co  Co142  1  0.63455361  0.55166683  -0.05169263  1
  Co  Co143  1  0.36914442  0.17411974  0.45878092  1
  Co  Co144  1  0.52419922  0.58915721  0.79214459  1
  Co  Co145  1  0.83461474  0.08025935  0.21821223  1
  Co  Co146  1  -0.04626450  0.73686854  0.26233923  1
  Co  Co147  1  -0.08149229  0.06656618  0.91469646  1
  Co  Co148  1  0.56080315  0.06940175  0.17284035  1
  Co  Co149  1  0.15990866  0.23058631  0.71420052  1
  Co  Co150  1  0.82224339  0.66536146  0.76992643  1
  Co  Co151  1  0.03749583  0.86475964  0.19565099  1
  Co  Co152  1  0.04321237  0.10948006  0.00461472  1
  Co  Co153  1  0.65879562  0.47104961  0.21782631  1
  Co  Co154  1  0.37385714  0.49693651  0.26679324  1
  Co  Co155  1  0.75638909  0.45114710  0.49191379  1
  Co  Co156  1  0.68826218  0.58168726  0.55880251  1
  Co  Co157  1  0.77299315  0.82732246  0.51195703  1
  Co  Co158  1  0.78710847  0.51894691  0.83440549  1
  Co  Co159  1  0.82428824  0.27465629  0.03537680  1
  Co  Co160  1  0.47791693  0.47237771  0.41270153  1
  Co  Co161  1  0.52521968  0.41445518  0.87412955  1
  Ni  Ni162  1  0.60598079  0.02989741  0.88119138  1
  Ni  Ni163  1  0.77984282  0.25970877  0.88107660  1
  Ni  Ni164  1  0.41309947  0.19329883  -0.08332707  1
  Ni  Ni165  1  0.29067244  0.02411075  0.64057428  1
  Ni  Ni166  1  0.28103457  0.70072697  0.62027249  1
  Ni  Ni167  1  0.49276696  0.79695420  0.39722976  1
  Ni  Ni168  1  0.90580738  0.20305969  0.44440722  1
  Ni  Ni169  1  0.21491333  0.41588672  0.52331299  1
  Ni  Ni170  1  0.05593542  0.23000368  0.53947463  1
  Ni  Ni171  1  0.43683609  0.83573398  0.06801753  1
  Ni  Ni172  1  -0.07332339  0.81508267  0.54767786  1
  Ni  Ni173  1  0.37321276  0.11295271  0.77142575  1
  Ni  Ni174  1  0.88530408  -0.06482941  0.43090889  1
  Ni  Ni175  1  -0.04037876  0.03661410  0.66059539  1
  Ni  Ni176  1  0.41987234  0.42725870  0.11674932  1
  Ni  Ni177  1  0.59235470  0.04129050  0.60229362  1
  Ni  Ni178  1  0.32180024  0.51468967  0.42449897  1
  Ni  Ni179  1  0.64156829  -0.01433481  0.03464654  1
  Ni  Ni180  1  0.63832180  0.80112582  0.15264528  1
  Ni  Ni181  1  0.87530369  0.65993194  0.58904486  1
  Ni  Ni182  1  0.38860847  0.69708438  -0.01357878  1
  Ni  Ni183  1  0.46002491  0.93446735  0.61187118  1
  Ni  Ni184  1  0.65508361  0.62997899  0.24955802  1
  Ni  Ni185  1  0.64925895  0.32086113  0.30472832  1
  Ni  Ni186  1  0.00218120  0.03508066  0.22382396  1
  Ni  Ni187  1  0.00529624  0.20227595  0.23792434  1
  Ni  Ni188  1  0.28431404  -0.06130941  0.03309924  1
  Ni  Ni189  1  0.85100689  0.89369679  0.68418557  1
  Ni  Ni190  1  0.32297779  -0.02154789  0.29782064  1
  Ni  Ni191  1  0.04015676  0.63462868  0.58074057  1
  Ni  Ni192  1  0.24011524  0.44012109  -0.04723065  1
  Ni  Ni193  1  0.00974235  0.50885143  0.12700646  1
  Ni  Ni194  1  0.01146355  0.29680800  0.68282211  1
  Ni  Ni195  1  0.62717468  0.03035461  0.32170677  1
  Ni  Ni196  1  0.87092683  0.44194145  0.19107066  1
  Ni  Ni197  1  0.55353290  -0.02434050  0.45272305  1
  Ni  Ni198  1  0.13085389  0.77212181  0.65480137  1
  Ni  Ni199  1  0.50621183  0.73172286  0.22219600  1
  Ni  Ni200  1  0.11751072  0.54559268  0.88852931  1
  Ni  Ni201  1  0.59826006  0.71614576  0.50432379  1
  Ni  Ni202  1  0.19503164  0.20028448  0.43368835  1
  Ni  Ni203  1  0.08165513  0.79250548  0.81406019  1
  Ni  Ni204  1  0.54977547  0.91895110  0.75645353  1
  Ni  Ni205  1  0.87104544  0.59934217  0.11922483  1
  Ni  Ni206  1  0.11348709  0.67852989  0.13921999  1
  Ni  Ni207  1  0.08986470  0.02255308  0.88288102  1
  Ni  Ni208  1  0.80516308  -0.03922380  0.85761297  1
  Ni  Ni209  1  0.24337193  0.51253478  0.66674466  1
  Ni  Ni210  1  0.89942500  0.40125244  0.64654488  1
  Ni  Ni211  1  -0.03952628  0.31728406  0.10740572  1
  Ni  Ni212  1  0.36044461  0.85197956  0.91485711  1
  Ni  Ni213  1  0.13227089  0.82888804  0.06443147  1
  Ni  Ni214  1  0.45361484  0.27770122  0.57397478  1
