# generated using pymatgen
data_Ti108Co54Ni53
_symmetry_space_group_name_H-M   'P 1'
_cell_length_a   14.69138285
_cell_length_b   14.68074126
_cell_length_c   14.62830471
_cell_angle_alpha   90.23491848
_cell_angle_beta   90.25054489
_cell_angle_gamma   89.99016258
_symmetry_Int_Tables_number   1
_chemical_formula_structural   Ti108Co54Ni53
_chemical_formula_sum   'Ti108 Co54 Ni53'
_cell_volume   3154.98175006
_cell_formula_units_Z   1
loop_
 _symmetry_equiv_pos_site_id
 _symmetry_equiv_pos_as_xyz
  1  'x, y, z'
loop_
 _atom_site_type_symbol
 _atom_site_label
 _atom_site_symmetry_multiplicity
 _atom_site_fract_x
 _atom_site_fract_y
 _atom_site_fract_z
 _atom_site_occupancy
  Ti  Ti0  1  0.04030176  0.04402203  0.28429686  1
  Ti  Ti1  1  0.15532899  0.12249132  0.56579446  1
  Ti  Ti2  1  0.03889603  0.04999869  0.92929730  1
  Ti  Ti3  1  0.12517974  0.37724473  0.19978159  1
  Ti  Ti4  1  0.12463695  0.43811713  0.54161303  1
  Ti  Ti5  1  0.02811596  0.38787335  0.92341479  1
  Ti  Ti6  1  0.13891415  0.76077194  0.25152861  1
  Ti  Ti7  1  0.08282295  0.76690937  0.60701728  1
  Ti  Ti8  1  0.11387999  0.73233322  0.89720740  1
  Ti  Ti9  1  0.35944049  0.00561494  0.20365863  1
  Ti  Ti10  1  0.44190785  0.14984999  0.63489372  1
  Ti  Ti11  1  0.50349988  0.03328471  0.92597532  1
  Ti  Ti12  1  0.42518915  0.39692840  0.19117959  1
  Ti  Ti13  1  0.47398680  0.48429736  0.62417969  1
  Ti  Ti14  1  0.24562550  0.40488928  0.88562878  1
  Ti  Ti15  1  0.41473708  0.72850814  0.19167111  1
  Ti  Ti16  1  0.42837414  0.74591761  0.55899797  1
  Ti  Ti17  1  0.36838274  0.72220938  0.89368255  1
  Ti  Ti18  1  0.73893027  0.17072109  0.24849616  1
  Ti  Ti19  1  0.73093158  0.13286145  0.61037682  1
  Ti  Ti20  1  0.71641184  0.06251616  0.96177071  1
  Ti  Ti21  1  0.71555631  0.38186676  0.22480951  1
  Ti  Ti22  1  0.78767036  0.45517516  0.55629155  1
  Ti  Ti23  1  0.71648527  0.42140080  0.89600612  1
  Ti  Ti24  1  0.77753504  0.76243109  0.22241705  1
  Ti  Ti25  1  0.75854916  0.84825486  0.65244962  1
  Ti  Ti26  1  0.71780423  0.73187038  0.92963549  1
  Ti  Ti27  1  0.12992566  0.18371104  0.10605846  1
  Ti  Ti28  1  0.05483714  0.25114068  0.41860819  1
  Ti  Ti29  1  0.06048642  0.20581337  0.71494948  1
  Ti  Ti30  1  0.10095884  0.59353639  0.13897488  1
  Ti  Ti31  1  0.01289310  0.55440923  0.42874950  1
  Ti  Ti32  1  0.09718642  0.54198661  0.75528255  1
  Ti  Ti33  1  0.08142659  0.90436354  0.14977285  1
  Ti  Ti34  1  0.08847083  0.94727290  0.49249320  1
  Ti  Ti35  1  0.03129159  0.94059487  0.70340141  1
  Ti  Ti36  1  0.41374728  0.21616409  0.11836861  1
  Ti  Ti37  1  0.43623542  0.21718478  0.41555660  1
  Ti  Ti38  1  0.37037862  0.26558434  0.78180872  1
  Ti  Ti39  1  0.41957396  0.49464283  0.01380420  1
  Ti  Ti40  1  0.41612034  0.57989970  0.47485883  1
  Ti  Ti41  1  0.38307385  0.53765744  0.82740184  1
  Ti  Ti42  1  0.38847612  0.90718454  0.04217133  1
  Ti  Ti43  1  0.42458450  1.01730283  0.49415092  1
  Ti  Ti44  1  0.39656803  0.97404681  0.74425175  1
  Ti  Ti45  1  0.84331509  0.32192029  0.01152107  1
  Ti  Ti46  1  0.71009879  0.31123933  0.39756557  1
  Ti  Ti47  1  0.73441824  0.27571839  0.75098177  1
  Ti  Ti48  1  0.78889133  0.50378662  0.09412064  1
  Ti  Ti49  1  0.74523590  0.52787414  0.37369939  1
  Ti  Ti50  1  0.79815289  0.59361636  0.82590268  1
  Ti  Ti51  1  0.77131859  0.88038893  0.03930942  1
  Ti  Ti52  1  0.72505861  0.96299259  0.48180776  1
  Ti  Ti53  1  0.69782254  0.91347290  0.83983243  1
  Ti  Ti54  1  0.20116686  0.00091011  0.02796733  1
  Ti  Ti55  1  0.18557221  0.09602030  0.38490066  1
  Ti  Ti56  1  0.23074314  0.08720757  0.81505426  1
  Ti  Ti57  1  0.26387030  0.48606419  0.12304144  1
  Ti  Ti58  1  0.27864962  0.44676441  0.41604707  1
  Ti  Ti59  1  0.20084734  0.36450468  0.69245146  1
  Ti  Ti60  1  0.23747910  0.77772108  0.05138744  1
  Ti  Ti61  1  0.23746042  0.80620151  0.49904916  1
  Ti  Ti62  1  0.30600504  0.76943112  0.70999457  1
  Ti  Ti63  1  0.59459387  0.17187191  0.06031802  1
  Ti  Ti64  1  0.59926588  0.11118625  0.39161159  1
  Ti  Ti65  1  0.59584668  0.10246216  0.77755054  1
  Ti  Ti66  1  0.59236565  0.47753963  0.11655680  1
  Ti  Ti67  1  0.59586134  0.44903128  0.47857516  1
  Ti  Ti68  1  0.54747019  0.41641590  0.77765057  1
  Ti  Ti69  1  0.64003944  0.70467620  0.11166597  1
  Ti  Ti70  1  0.63763395  0.73764364  0.53069510  1
  Ti  Ti71  1  0.63113353  0.73860338  0.73659690  1
  Ti  Ti72  1  0.89045688  0.12611770  0.07317006  1
  Ti  Ti73  1  0.86862153  0.09025154  0.35749354  1
  Ti  Ti74  1  0.85061592  0.00592279  0.68111163  1
  Ti  Ti75  1  0.96699502  0.43812135  0.11448299  1
  Ti  Ti76  1  0.91313922  0.38561793  0.43067910  1
  Ti  Ti77  1  0.91074003  0.37350812  0.69018862  1
  Ti  Ti78  1  0.93764676  0.78768171  0.09223898  1
  Ti  Ti79  1  0.87612587  0.70632040  0.37970340  1
  Ti  Ti80  1  0.96043263  0.68666717  0.76574180  1
  Ti  Ti81  1  0.29297611  0.19155208  0.27182012  1
  Ti  Ti82  1  0.31831027  0.29749247  0.55709962  1
  Ti  Ti83  1  0.27120415  0.21236669  0.96233538  1
  Ti  Ti84  1  0.18920742  0.57306792  0.31718875  1
  Ti  Ti85  1  0.23191431  0.61460727  0.58760107  1
  Ti  Ti86  1  0.21727886  0.58371725  0.94695925  1
  Ti  Ti87  1  0.24064688  0.91458085  0.33570490  1
  Ti  Ti88  1  0.21399608  0.93258756  0.66441375  1
  Ti  Ti89  1  0.26595702  0.88309081  0.87692299  1
  Ti  Ti90  1  0.56796150  0.25941498  0.22980126  1
  Ti  Ti91  1  0.58797508  0.25283556  0.54069183  1
  Ti  Ti92  1  0.57369412  0.27282180  0.90005097  1
  Ti  Ti93  1  0.55889012  0.58155252  0.28979998  1
  Ti  Ti94  1  0.66835223  0.56190836  0.65104135  1
  Ti  Ti95  1  0.54296028  0.62712728  0.93475319  1
  Ti  Ti96  1  0.58385406  1.02626880  0.20955015  1
  Ti  Ti97  1  0.55248637  0.90805743  0.60814929  1
  Ti  Ti98  1  0.58406922  0.85835875  0.99803270  1
  Ti  Ti99  1  0.97157584  0.20824783  0.22300104  1
  Ti  Ti100  1  0.90579478  0.21050782  0.53330992  1
  Ti  Ti101  1  0.94374426  0.22332085  0.86899567  1
  Ti  Ti102  1  0.91118172  0.62118216  0.19918934  1
  Ti  Ti103  1  0.90893756  0.67528466  0.56667863  1
  Ti  Ti104  1  0.97278840  0.60026738  0.98023984  1
  Ti  Ti105  1  0.86289306  0.95380508  0.20404979  1
  Ti  Ti106  1  0.91617992  0.87715161  0.53244079  1
  Ti  Ti107  1  0.88364181  0.92296436  0.86303841  1
  Co  Co108  1  -0.00548439  0.27608780  0.05941631  1
  Co  Co109  1  0.77986271  0.68732701  0.66328896  1
  Co  Co110  1  0.86856605  0.48035407  -0.04350387  1
  Co  Co111  1  0.30906196  0.14546117  0.49037214  1
  Co  Co112  1  0.08556315  0.73056400  0.06731823  1
  Co  Co113  1  -0.01815448  0.35255151  0.28881172  1
  Co  Co114  1  0.30871486  0.46477502  0.57924700  1
  Co  Co115  1  0.25276461  -0.01865922  0.49503864  1
  Co  Co116  1  0.03323320  0.31576466  0.58980305  1
  Co  Co117  1  0.42399184  0.37306054  0.89275147  1
  Co  Co118  1  0.30855615  0.05883981  0.63217597  1
  Co  Co119  1  0.28820761  0.11983050  0.09876768  1
  Co  Co120  1  0.50676765  0.61591851  0.10920618  1
  Co  Co121  1  0.63430698  0.56185628  0.81907576  1
  Co  Co122  1  0.00338014  0.83059941  0.83300873  1
  Co  Co123  1  0.56557010  0.45260382  -0.05808998  1
  Co  Co124  1  0.42845564  0.88071341  0.88368739  1
  Co  Co125  1  0.87459213  0.20139347  0.69428558  1
  Co  Co126  1  0.80677679  0.67667969  0.07205015  1
  Co  Co127  1  0.36826172  0.41063030  0.72856530  1
  Co  Co128  1  0.25078859  0.51619215  0.73326640  1
  Co  Co129  1  0.58978645  0.60537186  0.45332502  1
  Co  Co130  1  0.08456902  0.89461792  0.32733252  1
  Co  Co131  1  -0.05466458  0.80924490  0.26370658  1
  Co  Co132  1  0.91998440  0.82396586  0.68790883  1
  Co  Co133  1  0.70491227  0.68827510  0.36486510  1
  Co  Co134  1  -0.04368001  0.07972193  0.77892097  1
  Co  Co135  1  0.54852936  0.77612791  0.86625637  1
  Co  Co136  1  0.66986103  0.34990257  0.04248429  1
  Co  Co137  1  0.23290686  0.65919599  0.79765671  1
  Co  Co138  1  0.01528296  0.08869000  0.45087050  1
  Co  Co139  1  0.26205976  0.29995655  0.15822175  1
  Co  Co140  1  0.85629816  0.25737017  0.34500564  1
  Co  Co141  1  0.05648031  0.37262323  0.76373867  1
  Co  Co142  1  0.03194324  0.05338211  0.11732063  1
  Co  Co143  1  0.09329130  0.20053765  -0.05737774  1
  Co  Co144  1  0.53127503  0.63616141  0.60603846  1
  Co  Co145  1  0.45743613  0.06193452  0.08244625  1
  Co  Co146  1  0.50977746  0.33516174  0.04967856  1
  Co  Co147  1  0.34547838  0.05052228  0.35994302  1
  Co  Co148  1  0.14799500  0.79689605  0.74893187  1
  Co  Co149  1  0.37164868  0.60659942  0.66215135  1
  Co  Co150  1  0.46748271  0.32215072  0.61955436  1
  Co  Co151  1  0.86369344  0.03983510  0.51431100  1
  Co  Co152  1  0.74261303  0.04757896  0.13621872  1
  Co  Co153  1  0.44238501  0.19840864  -0.04463384  1
  Co  Co154  1  0.39054191  0.55903649  0.19538872  1
  Co  Co155  1  0.60879131  -0.00594526  0.05774611  1
  Co  Co156  1  0.68684523  0.88929393  0.17297942  1
  Co  Co157  1  0.33842833  0.05065214  -0.05042555  1
  Co  Co158  1  0.40734034  0.11688291  0.81295135  1
  Co  Co159  1  0.13025077  0.22957478  0.27485183  1
  Co  Co160  1  0.76009086  0.61614815  0.51080574  1
  Co  Co161  1  0.85546447  0.35611140  0.84152656  1
  Ni  Ni162  1  0.86042589  0.47005811  0.26398418  1
  Ni  Ni163  1  0.55440547  -0.06887477  0.77814013  1
  Ni  Ni164  1  0.12802130  -0.05291858  0.83588059  1
  Ni  Ni165  1  0.28855343  0.84967342  0.18768577  1
  Ni  Ni166  1  0.69853093  0.57265329  -0.02273435  1
  Ni  Ni167  1  0.78345501  0.78474889  0.49128740  1
  Ni  Ni168  1  0.18108728  0.26079636  0.82530401  1
  Ni  Ni169  1  0.56916337  0.25126204  0.71972158  1
  Ni  Ni170  1  0.67664076  -0.00662482  0.67911084  1
  Ni  Ni171  1  0.25816481  0.66339761  0.18927512  1
  Ni  Ni172  1  0.02568715  0.50752592  0.26490290  1
  Ni  Ni173  1  -0.07273145  -0.04557838  0.03183059  1
  Ni  Ni174  1  0.34450405  0.64030416  0.04977670  1
  Ni  Ni175  1  0.46578706  0.12873571  0.27006186  1
  Ni  Ni176  1  0.42637406  0.48731735  0.33625172  1
  Ni  Ni177  1  0.36425582  0.33386486  0.32700309  1
  Ni  Ni178  1  0.43797992  0.39182784  0.47084438  1
  Ni  Ni179  1  0.14368545  0.67111862  0.45170886  1
  Ni  Ni180  1  0.11246333  0.41468315  0.37419088  1
  Ni  Ni181  1  0.46434921  0.75355988  0.02900847  1
  Ni  Ni182  1  0.12234983  0.47278848  0.02516342  1
  Ni  Ni183  1  0.72016896  0.00705714  0.30981535  1
  Ni  Ni184  1  0.46726638  0.80889382  0.71914384  1
  Ni  Ni185  1  0.57804836  0.07146101  0.56096399  1
  Ni  Ni186  1  0.72199259  0.59054916  0.21885965  1
  Ni  Ni187  1  0.08180852  0.87876362  -0.01774065  1
  Ni  Ni188  1  -0.04010469  0.47708690  0.56841843  1
  Ni  Ni189  1  0.22426590  0.27574449  0.41183875  1
  Ni  Ni190  1  0.74308154  0.22406731  0.91544353  1
  Ni  Ni191  1  0.36665901  0.89505140  0.59228558  1
  Ni  Ni192  1  0.87013450  0.08111736  -0.08345016  1
  Ni  Ni193  1  0.56468495  0.39969575  0.31645309  1
  Ni  Ni194  1  0.74552259  0.21406045  0.09385693  1
  Ni  Ni195  1  0.24271332  0.19722136  0.68435936  1
  Ni  Ni196  1  -0.05930235  -0.06023373  0.38341856  1
  Ni  Ni197  1  0.76020763  0.29157112  0.56503350  1
  Ni  Ni198  1  0.76650457  0.10328584  0.78898762  1
  Ni  Ni199  1  0.79837292  0.86777734  0.35155962  1
  Ni  Ni200  1  0.86693610  0.55124711  0.67827708  1
  Ni  Ni201  1  0.49148088  0.64851792  0.76732249  1
  Ni  Ni202  1  -0.00875367  0.08208052  0.61562488  1
  Ni  Ni203  1  0.06209853  0.60113650  0.59551858  1
  Ni  Ni204  1  0.80924538  0.77499709  0.80012270  1
  Ni  Ni205  1  0.74766341  0.15674943  0.44674998  1
  Ni  Ni206  1  0.89462130  0.73869871  -0.06563099  1
  Ni  Ni207  1  -0.05417970  0.49943485  0.81555857  1
  Ni  Ni208  1  0.02862217  0.66608305  0.31040435  1
  Ni  Ni209  1  0.18861116  0.04035013  0.20515255  1
  Ni  Ni210  1  0.85774834  0.31677751  0.17961735  1
  Ni  Ni211  1  0.02701739  0.78452741  0.43518240  1
  Ni  Ni212  1  0.63993887  0.38677212  0.63656543  1
  Ni  Ni213  1  0.33917265  0.35173238  0.02986394  1
  Ni  Ni214  1  0.34682726  0.63507245  0.33318993  1
