# generated using pymatgen
data_Ti108Co54Ni53
_symmetry_space_group_name_H-M   'P 1'
_cell_length_a   14.69033680
_cell_length_b   14.65906059
_cell_length_c   14.65790682
_cell_angle_alpha   90.39090075
_cell_angle_beta   90.09839053
_cell_angle_gamma   90.18569803
_symmetry_Int_Tables_number   1
_chemical_formula_structural   Ti108Co54Ni53
_chemical_formula_sum   'Ti108 Co54 Ni53'
_cell_volume   3156.43465964
_cell_formula_units_Z   1
loop_
 _symmetry_equiv_pos_site_id
 _symmetry_equiv_pos_as_xyz
  1  'x, y, z'
loop_
 _atom_site_type_symbol
 _atom_site_label
 _atom_site_symmetry_multiplicity
 _atom_site_fract_x
 _atom_site_fract_y
 _atom_site_fract_z
 _atom_site_occupancy
  Ti  Ti0  1  0.17546324  0.14864656  0.19133212  1
  Ti  Ti1  1  0.08413349  0.02452194  0.61546092  1
  Ti  Ti2  1  0.12086282  0.05202853  0.93165305  1
  Ti  Ti3  1  0.08343683  0.46560725  0.17474561  1
  Ti  Ti4  1  0.01433347  0.42982813  0.52387032  1
  Ti  Ti5  1  0.05783399  0.37005176  0.84379218  1
  Ti  Ti6  1  0.05816419  0.84337643  0.25572253  1
  Ti  Ti7  1  0.09659560  0.71018537  0.66462763  1
  Ti  Ti8  1  0.08819590  0.72330854  0.88220259  1
  Ti  Ti9  1  0.37521135  0.11266801  0.21579652  1
  Ti  Ti10  1  0.36380711  0.10797331  0.56386212  1
  Ti  Ti11  1  0.45576077  0.15648765  0.96779436  1
  Ti  Ti12  1  0.39763503  0.39688683  0.26810305  1
  Ti  Ti13  1  0.38087065  0.44175973  0.62520014  1
  Ti  Ti14  1  0.47621010  0.41166316  0.91980504  1
  Ti  Ti15  1  0.45294107  0.70825036  0.29822791  1
  Ti  Ti16  1  0.48841109  0.81138374  0.55497944  1
  Ti  Ti17  1  0.44537960  0.81772084  0.86672810  1
  Ti  Ti18  1  0.71193508  0.11050784  0.23160158  1
  Ti  Ti19  1  0.76386394  0.02136912  0.66504747  1
  Ti  Ti20  1  0.78150754  0.00286490  0.90855516  1
  Ti  Ti21  1  0.75386179  0.40612733  0.21111376  1
  Ti  Ti22  1  0.73662978  0.45483401  0.63390708  1
  Ti  Ti23  1  0.72226700  0.33681620  0.91866790  1
  Ti  Ti24  1  0.74186185  0.74122827  0.26704862  1
  Ti  Ti25  1  0.71321711  0.73366674  0.53040051  1
  Ti  Ti26  1  0.82671193  0.65824776  0.99481449  1
  Ti  Ti27  1  0.08090819  0.30228799  0.04353572  1
  Ti  Ti28  1  0.06356365  0.34180978  0.36304486  1
  Ti  Ti29  1  0.04848334  0.19291085  0.71869960  1
  Ti  Ti30  1  0.13353902  0.63224169  0.09596114  1
  Ti  Ti31  1  0.07009778  0.53840613  0.37345614  1
  Ti  Ti32  1  0.11991138  0.54367162  0.79022936  1
  Ti  Ti33  1  0.03417251  0.97830412  0.10051611  1
  Ti  Ti34  1  0.04174223  0.99208386  0.40977517  1
  Ti  Ti35  1  0.03657514  0.95372366  0.79580362  1
  Ti  Ti36  1  0.44141904  0.27913685  0.11872418  1
  Ti  Ti37  1  0.38764279  0.30154125  0.48007288  1
  Ti  Ti38  1  0.37645710  0.22558150  0.79261429  1
  Ti  Ti39  1  0.39331799  0.61939416  0.10800614  1
  Ti  Ti40  1  0.39022619  0.60017603  0.49439821  1
  Ti  Ti41  1  0.38233709  0.57408773  0.77252860  1
  Ti  Ti42  1  0.38598047  0.81963581  0.10653496  1
  Ti  Ti43  1  0.35321045  0.92290048  0.47694970  1
  Ti  Ti44  1  0.38185021  0.99960258  0.76023674  1
  Ti  Ti45  1  0.74110299  0.24918148  0.08052484  1
  Ti  Ti46  1  0.78390672  0.27763241  0.38284348  1
  Ti  Ti47  1  0.79796833  0.26495596  0.74264570  1
  Ti  Ti48  1  0.68757796  0.56677821  0.07685069  1
  Ti  Ti49  1  0.73354582  0.55542469  0.30832936  1
  Ti  Ti50  1  0.76199882  0.60849456  0.77360564  1
  Ti  Ti51  1  0.70145810  0.91867445  0.12982502  1
  Ti  Ti52  1  0.81862250  0.94659212  0.45037219  1
  Ti  Ti53  1  0.76132803  0.80163636  0.83466303  1
  Ti  Ti54  1  0.23490161  -0.00807527  0.09882342  1
  Ti  Ti55  1  0.24937934  0.06458225  0.35605910  1
  Ti  Ti56  1  0.21509955  0.10444985  0.77447790  1
  Ti  Ti57  1  0.25305104  0.33337901  0.12395091  1
  Ti  Ti58  1  0.20749774  0.43389440  0.50256156  1
  Ti  Ti59  1  0.28768527  0.41650800  0.84155227  1
  Ti  Ti60  1  0.20799396  0.79301142  0.06251506  1
  Ti  Ti61  1  0.19501877  0.72987374  0.37121163  1
  Ti  Ti62  1  0.28576369  0.81436396  0.71978291  1
  Ti  Ti63  1  0.55226521  0.05733999  0.11687359  1
  Ti  Ti64  1  0.57273844  0.00089503  0.31498878  1
  Ti  Ti65  1  0.55813905  0.06833738  0.81639233  1
  Ti  Ti66  1  0.60838258  0.39545188  0.07759161  1
  Ti  Ti67  1  0.60136987  0.39471035  0.36457295  1
  Ti  Ti68  1  0.57360181  0.50897456  0.75586669  1
  Ti  Ti69  1  0.57022050  0.75134625  0.02438265  1
  Ti  Ti70  1  0.61483439  0.82480203  0.40199989  1
  Ti  Ti71  1  0.63646145  0.80213941  0.68860968  1
  Ti  Ti72  1  0.86597041  0.10265655  0.09300994  1
  Ti  Ti73  1  0.94539807  0.16884584  0.39859769  1
  Ti  Ti74  1  0.90620358  0.11147313  0.82159832  1
  Ti  Ti75  1  0.92295069  0.36825686  0.13702078  1
  Ti  Ti76  1  0.85809788  0.46242053  0.42140196  1
  Ti  Ti77  1  0.92526697  0.44751906  0.69217704  1
  Ti  Ti78  1  0.87515487  0.79581059  0.12336024  1
  Ti  Ti79  1  0.88810845  0.76176947  0.45709768  1
  Ti  Ti80  1  0.87355909  0.73747119  0.67639007  1
  Ti  Ti81  1  0.25536799  0.27905347  0.32975861  1
  Ti  Ti82  1  0.25212664  0.28475806  0.63180422  1
  Ti  Ti83  1  0.22081092  0.24801114  0.92588049  1
  Ti  Ti84  1  0.31591001  0.57371633  0.28758146  1
  Ti  Ti85  1  0.24167378  0.58901227  0.62563079  1
  Ti  Ti86  1  0.24451218  0.61378814  0.93741320  1
  Ti  Ti87  1  0.30857837  0.87598064  0.27754915  1
  Ti  Ti88  1  0.17630563  0.85423631  0.53865890  1
  Ti  Ti89  1  0.30073913  0.91907556  0.94086672  1
  Ti  Ti90  1  0.52626844  0.20136175  0.29862802  1
  Ti  Ti91  1  0.56453598  0.35234011  0.62746916  1
  Ti  Ti92  1  0.57508144  0.26254697  0.80267467  1
  Ti  Ti93  1  0.55082340  0.52170057  0.22281337  1
  Ti  Ti94  1  0.63376572  0.54623068  0.48848030  1
  Ti  Ti95  1  0.50688467  0.62562059  0.90436123  1
  Ti  Ti96  1  0.56644160  0.83101949  0.21220823  1
  Ti  Ti97  1  0.54817017  0.98347332  0.64134289  1
  Ti  Ti98  1  0.61632373  0.93600733  0.94188525  1
  Ti  Ti99  1  0.98842089  0.19461517  0.20403534  1
  Ti  Ti100  1  0.97127691  0.25335332  0.56234725  1
  Ti  Ti101  1  0.91099605  0.26366196  0.94721618  1
  Ti  Ti102  1  0.97629134  0.65757402  0.20246076  1
  Ti  Ti103  1  0.96565940  0.61028294  0.53636236  1
  Ti  Ti104  1  0.93775525  0.55070097  0.87656699  1
  Ti  Ti105  1  0.87715649  0.95796087  0.23793149  1
  Ti  Ti106  1  0.97340140  0.87781689  0.58959878  1
  Ti  Ti107  1  0.93933927  0.83937752  0.94448980  1
  Co  Co108  1  0.18924214  0.90158459  0.38275219  1
  Co  Co109  1  0.44812412  0.38680378  0.76070214  1
  Co  Co110  1  0.83142738  0.24054945  0.21641047  1
  Co  Co111  1  0.04667515  0.79844313  0.09179002  1
  Co  Co112  1  0.46160659  0.84853120  0.71069966  1
  Co  Co113  1  0.81556867  0.61645122  0.16935031  1
  Co  Co114  1  0.60019765  0.78048022  0.85019586  1
  Co  Co115  1  0.87304180  0.39249423  0.83532824  1
  Co  Co116  1  0.61250229  0.65922086  0.33253305  1
  Co  Co117  1  0.47646638  0.13243925  0.69156792  1
  Co  Co118  1  0.85152976  -0.05495105  0.06034001  1
  Co  Co119  1  0.15650862  0.60547941  0.25670791  1
  Co  Co120  1  0.16317332  0.15137032  0.03961396  1
  Co  Co121  1  0.46509117  0.87174629  0.35316337  1
  Co  Co122  1  0.71006635  0.73100965  0.10796673  1
  Co  Co123  1  0.08090093  0.13537382  0.50020698  1
  Co  Co124  1  0.52252215  0.54317146  0.04883896  1
  Co  Co125  1  0.08693244  0.53098317  0.62863295  1
  Co  Co126  1  -0.03511067  0.60830977  0.72265992  1
  Co  Co127  1  0.56334832  0.27929861  -0.02515042  1
  Co  Co128  1  0.41560946  0.02620369  0.36155028  1
  Co  Co129  1  0.88006309  0.16173971  0.65481897  1
  Co  Co130  1  0.78433896  0.17015008  -0.06955030  1
  Co  Co131  1  0.37530289  0.53517328  0.96023479  1
  Co  Co132  1  0.23552161  0.57891186  0.43251104  1
  Co  Co133  1  0.37482126  0.71820089  -0.02292105  1
  Co  Co134  1  0.06144606  0.20230460  0.88009184  1
  Co  Co135  1  0.21052837  -0.05424320  0.81081629  1
  Co  Co136  1  0.24405669  0.18728214  0.46907971  1
  Co  Co137  1  0.90356843  0.70794303  0.84483898  1
  Co  Co138  1  0.23892400  0.66174979  0.77490223  1
  Co  Co139  1  0.38320202  0.17980628  0.37824302  1
  Co  Co140  1  0.11384779  0.66214888  0.50341471  1
  Co  Co141  1  0.67614197  0.27056069  0.26146314  1
  Co  Co142  1  0.12913649  0.28926282  0.50683179  1
  Co  Co143  1  0.62622311  0.13395583  -0.05120598  1
  Co  Co144  1  0.20835411  0.02102783  0.50058030  1
  Co  Co145  1  0.18490863  0.28269705  0.77528383  1
  Co  Co146  1  0.12775390  0.87080067  0.69070897  1
  Co  Co147  1  0.66872517  -0.05608568  0.78038175  1
  Co  Co148  1  -0.00087676  0.79986824  0.76234603  1
  Co  Co149  1  -0.01417352  0.67972724  0.00585209  1
  Co  Co150  1  0.25000485  0.77875386  0.88812057  1
  Co  Co151  1  0.11916004  0.30592908  0.21654823  1
  Co  Co152  1  0.71027121  0.06425763  0.05961634  1
  Co  Co153  1  0.42417939  0.27074112  0.64107141  1
  Co  Co154  1  0.20120914  0.13734063  0.61792367  1
  Co  Co155  1  0.01514668  0.04712508  0.25828539  1
  Co  Co156  1  0.54760777  0.35295713  0.21853788  1
  Co  Co157  1  0.85648910  0.10182884  0.29376932  1
  Co  Co158  1  0.52351461  0.68353803  0.74288596  1
  Co  Co159  1  0.00558239  0.14902746  0.03029943  1
  Co  Co160  1  0.68942279  0.39682323  0.77567243  1
  Co  Co161  1  0.92940749  0.05865497  0.52282531  1
  Ni  Ni162  1  0.68788468  0.37176487  0.49797339  1
  Ni  Ni163  1  0.84319365  0.35401835  0.54748766  1
  Ni  Ni164  1  0.75090005  0.83011721  -0.00925527  1
  Ni  Ni165  1  -0.03400570  0.41863122  -0.02127080  1
  Ni  Ni166  1  0.44061645  -0.04494614  0.20905252  1
  Ni  Ni167  1  0.49919790  0.43871174  0.49843549  1
  Ni  Ni168  1  0.20112331  0.42636539  -0.01380502  1
  Ni  Ni169  1  0.27874351  0.71971126  0.20704046  1
  Ni  Ni170  1  0.51233430  0.90689647  0.06242759  1
  Ni  Ni171  1  0.53951118  0.67951751  0.47323840  1
  Ni  Ni172  1  0.86725875  -0.08853474  0.78044807  1
  Ni  Ni173  1  0.10908996  0.17748194  0.34486990  1
  Ni  Ni174  1  0.48997175  0.54339543  0.37112233  1
  Ni  Ni175  1  0.15785315  -0.02518926  0.23860306  1
  Ni  Ni176  1  0.80437304  0.86824759  0.60977993  1
  Ni  Ni177  1  0.67646101  0.65122036  -0.08101286  1
  Ni  Ni178  1  0.81909250  0.59147229  0.60958922  1
  Ni  Ni179  1  0.21683191  0.43995545  0.69456900  1
  Ni  Ni180  1  0.91365832  0.50624673  0.25201492  1
  Ni  Ni181  1  0.52117744  -0.03246920  0.47679806  1
  Ni  Ni182  1  0.62097872  0.48919670  -0.07855693  1
  Ni  Ni183  1  0.30722274  0.08625537  0.91875658  1
  Ni  Ni184  1  0.56378514  0.67052532  0.16733875  1
  Ni  Ni185  1  0.26858823  0.72307446  0.54016135  1
  Ni  Ni186  1  0.71324178  0.12150125  0.79329421  1
  Ni  Ni187  1  0.08131729  0.54031683  0.96410539  1
  Ni  Ni188  1  -0.05871096  0.54014673  0.08365171  1
  Ni  Ni189  1  -0.07021198  0.01525746  0.67959665  1
  Ni  Ni190  1  0.66375875  0.90774460  0.54182714  1
  Ni  Ni191  1  0.34845776  0.45288501  0.41535922  1
  Ni  Ni192  1  0.31686796  0.17058969  0.06931833  1
  Ni  Ni193  1  0.04768448  0.82274037  0.44085031  1
  Ni  Ni194  1  0.38877835  0.69626963  0.65327076  1
  Ni  Ni195  1  0.20666443  0.44179285  0.29832812  1
  Ni  Ni196  1  0.37473501  0.76121900  0.42810102  1
  Ni  Ni197  1  -0.08690891  0.35040780  0.30484690  1
  Ni  Ni198  1  0.25195879  0.50635047  0.13790021  1
  Ni  Ni199  1  0.59116209  0.21151131  0.12767470  1
  Ni  Ni200  1  0.72373006  -0.08719558  0.30114000  1
  Ni  Ni201  1  0.01779966  0.69276931  0.35673700  1
  Ni  Ni202  1  0.89590989  0.80714994  0.30148730  1
  Ni  Ni203  1  0.26034643  -0.02527389  0.64698911  1
  Ni  Ni204  1  0.80183675  0.61973067  0.44646060  1
  Ni  Ni205  1  -0.04382948  0.00604660  -0.05613624  1
  Ni  Ni206  1  0.36103756  0.31010592  -0.02359275  1
  Ni  Ni207  1  0.65309424  0.62650037  0.64394980  1
  Ni  Ni208  1  0.80064324  0.42893056  0.04033646  1
  Ni  Ni209  1  0.11625808  0.88564470  -0.04435523  1
  Ni  Ni210  1  0.50139696  0.56789135  0.61556481  1
  Ni  Ni211  1  0.07635851  0.35874898  0.66702472  1
  Ni  Ni212  1  0.39029639  0.01921345  0.06609149  1
  Ni  Ni213  1  0.77483885  0.50778831  0.89866521  1
  Ni  Ni214  1  0.45396831  -0.01042926  0.92087889  1
