# generated using pymatgen
data_Ti108Co54Ni53
_symmetry_space_group_name_H-M   'P 1'
_cell_length_a   14.67427692
_cell_length_b   14.62797117
_cell_length_c   14.63453212
_cell_angle_alpha   90.19918140
_cell_angle_beta   90.35164850
_cell_angle_gamma   90.32292590
_symmetry_Int_Tables_number   1
_chemical_formula_structural   Ti108Co54Ni53
_chemical_formula_sum   'Ti108 Co54 Ni53'
_cell_volume   3141.24560332
_cell_formula_units_Z   1
loop_
 _symmetry_equiv_pos_site_id
 _symmetry_equiv_pos_as_xyz
  1  'x, y, z'
loop_
 _atom_site_type_symbol
 _atom_site_label
 _atom_site_symmetry_multiplicity
 _atom_site_fract_x
 _atom_site_fract_y
 _atom_site_fract_z
 _atom_site_occupancy
  Ti  Ti0  1  0.07817556  0.04423098  0.17731492  1
  Ti  Ti1  1  0.11920106  0.05398520  0.57742949  1
  Ti  Ti2  1  0.02696661  0.18235136  0.88926388  1
  Ti  Ti3  1  0.15297859  0.36533289  0.21950886  1
  Ti  Ti4  1  0.11262430  0.39539259  0.59625577  1
  Ti  Ti5  1  0.04986474  0.40883122  0.95931651  1
  Ti  Ti6  1  0.10629824  0.69500791  0.22823856  1
  Ti  Ti7  1  0.04643387  0.74638995  0.57942372  1
  Ti  Ti8  1  0.09578007  0.70799896  0.91849579  1
  Ti  Ti9  1  0.49198926  0.04914421  0.25427806  1
  Ti  Ti10  1  0.43326408  0.06527483  0.51518786  1
  Ti  Ti11  1  0.47203760  0.04792875  0.98559422  1
  Ti  Ti12  1  0.44935936  0.37018873  0.26099553  1
  Ti  Ti13  1  0.32206604  0.41551169  0.56493721  1
  Ti  Ti14  1  0.39909770  0.45703553  0.91229128  1
  Ti  Ti15  1  0.36733953  0.74854714  0.26178390  1
  Ti  Ti16  1  0.38374163  0.76241889  0.61775362  1
  Ti  Ti17  1  0.36096194  0.77122338  0.92816379  1
  Ti  Ti18  1  0.81997929  0.07603692  0.19739948  1
  Ti  Ti19  1  0.73488580  0.03550017  0.57375492  1
  Ti  Ti20  1  0.80824537  0.12806721  0.85981463  1
  Ti  Ti21  1  0.71324413  0.40451464  0.20848414  1
  Ti  Ti22  1  0.65382580  0.39850860  0.63319890  1
  Ti  Ti23  1  0.77666996  0.48475403  0.87298615  1
  Ti  Ti24  1  0.80396787  0.74053096  0.24425807  1
  Ti  Ti25  1  0.73761708  0.67629726  0.55170446  1
  Ti  Ti26  1  0.62330540  0.74942875  0.93141764  1
  Ti  Ti27  1  0.14175950  0.24511665  0.06120159  1
  Ti  Ti28  1  0.06505343  0.25005423  0.37008418  1
  Ti  Ti29  1  0.05877123  0.31600300  0.77298793  1
  Ti  Ti30  1  0.06669637  0.53110550  0.12627988  1
  Ti  Ti31  1  0.09729394  0.63702990  0.42076963  1
  Ti  Ti32  1  0.07623157  0.63047944  0.72708439  1
  Ti  Ti33  1  0.06396352  0.85110436  0.10620186  1
  Ti  Ti34  1  0.09081440  0.89956696  0.45758672  1
  Ti  Ti35  1  0.10226597  0.88126638  0.72768083  1
  Ti  Ti36  1  0.40864860  0.22328863  0.05988190  1
  Ti  Ti37  1  0.47226351  0.22485668  0.40151009  1
  Ti  Ti38  1  0.40104827  0.25097243  0.82130217  1
  Ti  Ti39  1  0.40929538  0.54525986  0.19320627  1
  Ti  Ti40  1  0.49283715  0.62274439  0.35883556  1
  Ti  Ti41  1  0.48893979  0.58407146  0.73848617  1
  Ti  Ti42  1  0.34593254  0.90109852  0.07305159  1
  Ti  Ti43  1  0.43460173  0.91138957  0.36496148  1
  Ti  Ti44  1  0.43534827  0.97802062  0.71611186  1
  Ti  Ti45  1  0.71478157  0.23434982  0.10172969  1
  Ti  Ti46  1  0.76948321  0.15003327  0.40517579  1
  Ti  Ti47  1  0.74359987  0.19183176  0.68724560  1
  Ti  Ti48  1  0.73701582  0.60700477  0.02665845  1
  Ti  Ti49  1  0.80451307  0.59150814  0.37603682  1
  Ti  Ti50  1  0.78868073  0.66068802  0.80573998  1
  Ti  Ti51  1  0.71028014  0.88754135  0.05689855  1
  Ti  Ti52  1  0.77225710  0.94237031  0.37324904  1
  Ti  Ti53  1  0.72471909  0.98190697  0.74824255  1
  Ti  Ti54  1  0.27717381  0.10922640  0.14177030  1
  Ti  Ti55  1  0.21516069  0.13512559  0.43959158  1
  Ti  Ti56  1  0.24033269  0.04765881  0.73467147  1
  Ti  Ti57  1  0.24259964  0.43234945  0.05306613  1
  Ti  Ti58  1  0.18420796  0.44286107  0.40948500  1
  Ti  Ti59  1  0.24630002  0.36284252  0.76290729  1
  Ti  Ti60  1  0.22976072  0.70361578  0.07270970  1
  Ti  Ti61  1  0.21258487  0.79441770  0.36185639  1
  Ti  Ti62  1  0.31542634  0.65787081  0.77202292  1
  Ti  Ti63  1  0.63792299  0.05661875  0.10534332  1
  Ti  Ti64  1  0.59884246  -0.00426758  0.43587299  1
  Ti  Ti65  1  0.56280625  0.13745473  0.82273545  1
  Ti  Ti66  1  0.55115769  0.37315170  0.07720723  1
  Ti  Ti67  1  0.53473939  0.44767938  0.44348545  1
  Ti  Ti68  1  0.52738661  0.40122764  0.77548831  1
  Ti  Ti69  1  0.51836796  0.80277637  0.12366097  1
  Ti  Ti70  1  0.62315758  0.79452895  0.44361026  1
  Ti  Ti71  1  0.62334412  0.70525966  0.72255563  1
  Ti  Ti72  1  0.95955642  0.09316810  0.04464894  1
  Ti  Ti73  1  0.99955470  0.07781823  0.44007425  1
  Ti  Ti74  1  0.95027270  0.00957693  0.84478164  1
  Ti  Ti75  1  0.97103701  0.38080518  0.14145300  1
  Ti  Ti76  1  0.97459883  0.48174533  0.41659180  1
  Ti  Ti77  1  0.91633940  0.44713026  0.73042595  1
  Ti  Ti78  1  0.88261731  0.73352225  0.05784253  1
  Ti  Ti79  1  0.96110933  0.74994247  0.38308490  1
  Ti  Ti80  1  0.86774435  0.85032842  0.78706593  1
  Ti  Ti81  1  0.28577842  0.26277061  0.32562401  1
  Ti  Ti82  1  0.22958062  0.22332112  0.63840447  1
  Ti  Ti83  1  0.22890639  0.17774054  0.88183193  1
  Ti  Ti84  1  0.26556156  0.59699867  0.32240904  1
  Ti  Ti85  1  0.22238737  0.60890961  0.55280007  1
  Ti  Ti86  1  0.22134451  0.52330266  0.86375797  1
  Ti  Ti87  1  0.26105396  0.96697683  0.27308722  1
  Ti  Ti88  1  0.25458924  0.90530559  0.59998797  1
  Ti  Ti89  1  0.23352098  0.94807331  0.89765612  1
  Ti  Ti90  1  0.56466356  0.22052000  0.21100036  1
  Ti  Ti91  1  0.52278812  0.21066494  0.63661608  1
  Ti  Ti92  1  0.67693198  0.29352056  0.91701942  1
  Ti  Ti93  1  0.57856254  0.64406963  0.18931505  1
  Ti  Ti94  1  0.50794835  0.63596172  0.54454025  1
  Ti  Ti95  1  0.58888281  0.52625383  0.92880133  1
  Ti  Ti96  1  0.63322844  0.88415549  0.24756163  1
  Ti  Ti97  1  0.60452060  0.87211656  0.63377216  1
  Ti  Ti98  1  0.59149101  0.94509165  0.87228739  1
  Ti  Ti99  1  0.87303075  0.27857468  0.26119292  1
  Ti  Ti100  1  0.92834111  0.15788639  0.60102475  1
  Ti  Ti101  1  0.87867304  0.32536290  0.90486023  1
  Ti  Ti102  1  0.88534166  0.56652590  0.15757999  1
  Ti  Ti103  1  0.90750060  0.59243539  0.57564692  1
  Ti  Ti104  1  0.96322959  0.57100339  0.91321453  1
  Ti  Ti105  1  0.94889763  0.93840294  0.29278988  1
  Ti  Ti106  1  0.92050228  0.93118525  0.61138554  1
  Ti  Ti107  1  0.90786213  0.88964274  0.97191984  1
  Co  Co108  1  0.05332341  0.86539059  0.87466099  1
  Co  Co109  1  0.57402650  0.48465862  0.26500975  1
  Co  Co110  1  0.46321704  0.52592538  0.04723814  1
  Co  Co111  1  0.09346278  0.87285026  0.27527808  1
  Co  Co112  1  0.17434872  0.34036220  0.90480650  1
  Co  Co113  1  0.01332871  0.38314906  0.30174494  1
  Co  Co114  1  0.18349784  0.83501087  -0.00738556  1
  Co  Co115  1  0.28840218  0.06847817  0.57742938  1
  Co  Co116  1  -0.13785110  0.46198295  0.28121667  1
  Co  Co117  1  0.85906176  0.05971682  0.71037448  1
  Co  Co118  1  0.05992258  -0.02637576  -0.00706436  1
  Co  Co119  1  0.78884914  0.90034921  0.21129337  1
  Co  Co120  1  0.71605235  0.41600236  0.01507167  1
  Co  Co121  1  0.38877193  0.39270396  0.10274806  1
  Co  Co122  1  0.35741080  0.22502091  0.52417667  1
  Co  Co123  1  0.76672533  -0.05132259  0.90095551  1
  Co  Co124  1  0.69898274  0.73842179  0.11503575  1
  Co  Co125  1  0.71934227  0.22200107  0.26726855  1
  Co  Co126  1  0.19452055  0.76790308  0.51897889  1
  Co  Co127  1  0.67160272  0.69493034  0.32431972  1
  Co  Co128  1  -0.08860264  0.22267570  0.75898786  1
  Co  Co129  1  0.28240313  0.28477067  0.15806662  1
  Co  Co130  1  0.08905381  0.17695990  0.70564641  1
  Co  Co131  1  0.50743625  0.31687085  0.92288105  1
  Co  Co132  1  0.24038745  -0.02479771  0.43808789  1
  Co  Co133  1  0.40081324  -0.07009605  0.87719662  1
  Co  Co134  1  0.19951061  -0.03399392  0.09321176  1
  Co  Co135  1  0.15186178  0.09834275  0.00406013  1
  Co  Co136  1  0.31183740  0.06166963  -0.00964099  1
  Co  Co137  1  0.11398925  0.04519013  0.83832103  1
  Co  Co138  1  0.83193336  0.33852059  0.08821958  1
  Co  Co139  1  0.86130515  0.03644395  0.48021895  1
  Co  Co140  1  0.36626949  0.47154714  0.74635859  1
  Co  Co141  1  0.78701306  0.53593350  0.68315079  1
  Co  Co142  1  0.50241093  0.86175251  -0.02305283  1
  Co  Co143  1  0.31674218  0.86006288  0.74930667  1
  Co  Co144  1  0.48823871  0.46211502  0.62000512  1
  Co  Co145  1  0.32604438  0.59001081  -0.01444859  1
  Co  Co146  1  0.69548847  0.82789235  0.80721256  1
  Co  Co147  1  0.46682407  0.76669687  0.45249265  1
  Co  Co148  1  0.03236472  0.67805404  0.06886493  1
  Co  Co149  1  0.79471837  0.76849725  0.40758109  1
  Co  Co150  1  0.51018645  -0.03996972  0.11883815  1
  Co  Co151  1  0.53806559  0.66188997  0.03073539  1
  Co  Co152  1  0.62030456  0.51690646  0.09864452  1
  Co  Co153  1  0.29484558  0.43653445  0.26501335  1
  Co  Co154  1  -0.03885451  0.76554054  0.20846568  1
  Co  Co155  1  -0.02335280  0.26134739  0.02684610  1
  Co  Co156  1  0.60722307  0.15338365  0.36678717  1
  Co  Co157  1  0.38237690  0.14645030  0.68320712  1
  Co  Co158  1  0.48691130  0.32754055  0.53371784  1
  Co  Co159  1  0.78346171  0.77784183  -0.06340291  1
  Co  Co160  1  0.07799608  0.21703908  0.53560136  1
  Co  Co161  1  0.36643737  0.36584806  0.41590714  1
  Ni  Ni162  1  0.47605827  0.79974958  0.75996921  1
  Ni  Ni163  1  0.22863017  0.82454446  0.18699800  1
  Ni  Ni164  1  0.39204319  0.69115957  0.10507606  1
  Ni  Ni165  1  0.15313927  0.57266055  -0.00034854  1
  Ni  Ni166  1  -0.02742096  0.31461675  0.62813828  1
  Ni  Ni167  1  0.72916706  0.57251298  0.21988090  1
  Ni  Ni168  1  0.39580195  0.32028430  0.67090543  1
  Ni  Ni169  1  0.06548640  0.54803615  0.56147134  1
  Ni  Ni170  1  0.02225123  0.03099435  0.70198085  1
  Ni  Ni171  1  0.91688443  -0.05642272  0.12565431  1
  Ni  Ni172  1  0.88259600  0.76498727  0.55362876  1
  Ni  Ni173  1  0.21302912  0.30330444  0.48441233  1
  Ni  Ni174  1  0.94558107  0.12299329  0.29408336  1
  Ni  Ni175  1  0.32165193  0.31506909  -0.04029060  1
  Ni  Ni176  1  0.47215553  -0.09493986  0.54287124  1
  Ni  Ni177  1  0.93827056  0.73225099  0.87688958  1
  Ni  Ni178  1  0.37301978  0.52391734  0.43286542  1
  Ni  Ni179  1  -0.03496649  0.60557885  0.29789074  1
  Ni  Ni180  1  0.75198046  0.87613898  0.52852107  1
  Ni  Ni181  1  0.11269382  0.52583080  0.28594163  1
  Ni  Ni182  1  0.16332023  0.17962703  0.24601145  1
  Ni  Ni183  1  0.11543704  0.03390809  0.33530063  1
  Ni  Ni184  1  0.76562423  0.36328325  0.75954362  1
  Ni  Ni185  1  0.47973501  0.67078446  0.87479299  1
  Ni  Ni186  1  0.67013416  0.09939359  0.94475161  1
  Ni  Ni187  1  0.33230120  0.68205862  0.44909079  1
  Ni  Ni188  1  0.33118460  0.84529273  0.46975246  1
  Ni  Ni189  1  0.36048908  0.08208002  0.35706550  1
  Ni  Ni190  1  -0.08152576  0.69989335  0.70649070  1
  Ni  Ni191  1  0.36755526  0.57558112  0.61193578  1
  Ni  Ni192  1  0.76490031  0.79571075  0.66813363  1
  Ni  Ni193  1  0.20262351  0.74448399  0.67774434  1
  Ni  Ni194  1  0.60923607  0.33203892  0.33359670  1
  Ni  Ni195  1  0.87864309  0.47672816  0.01427698  1
  Ni  Ni196  1  0.07737557  0.47901233  0.79532365  1
  Ni  Ni197  1  0.52470854  0.77837220  0.29944735  1
  Ni  Ni198  1  0.63306098  0.55951906  0.60902723  1
  Ni  Ni199  1  0.37908905  0.08675024  0.83802574  1
  Ni  Ni200  1  0.61757733  0.14080216  0.52547876  1
  Ni  Ni201  1  -0.08438118  0.88891460  0.45238101  1
  Ni  Ni202  1  0.40196487  0.19085544  0.23277875  1
  Ni  Ni203  1  0.21100143  0.51744624  0.69163631  1
  Ni  Ni204  1  0.58843310  0.05012172  0.67152169  1
  Ni  Ni205  1  0.62406404  0.27488801  0.76127421  1
  Ni  Ni206  1  0.64222040  0.58589091  0.43759519  1
  Ni  Ni207  1  0.56805802  0.19883232  0.02414631  1
  Ni  Ni208  1  0.23445835  0.56170422  0.15875397  1
  Ni  Ni209  1  0.20981274  0.77928014  0.83597081  1
  Ni  Ni210  1  0.67481491  0.04844775  0.27138285  1
  Ni  Ni211  1  0.83109805  0.19538209  0.00340188  1
  Ni  Ni212  1  0.80170138  0.03607219  0.03148356  1
  Ni  Ni213  1  0.64953618  0.52487286  0.76884097  1
  Ni  Ni214  1  0.01748177  0.22043675  0.18270889  1
