# generated using pymatgen
data_Ti108Co54Ni53
_symmetry_space_group_name_H-M   'P 1'
_cell_length_a   14.61329684
_cell_length_b   14.62899556
_cell_length_c   14.60518666
_cell_angle_alpha   89.80421824
_cell_angle_beta   89.99912512
_cell_angle_gamma   90.05657022
_symmetry_Int_Tables_number   1
_chemical_formula_structural   Ti108Co54Ni53
_chemical_formula_sum   'Ti108 Co54 Ni53'
_cell_volume   3122.24572019
_cell_formula_units_Z   1
loop_
 _symmetry_equiv_pos_site_id
 _symmetry_equiv_pos_as_xyz
  1  'x, y, z'
loop_
 _atom_site_type_symbol
 _atom_site_label
 _atom_site_symmetry_multiplicity
 _atom_site_fract_x
 _atom_site_fract_y
 _atom_site_fract_z
 _atom_site_occupancy
  Ti  Ti0  1  0.11305586  0.13534405  0.28124265  1
  Ti  Ti1  1  0.03806450  0.04318252  0.60644488  1
  Ti  Ti2  1  0.09798415  0.03986445  0.92226645  1
  Ti  Ti3  1  0.06275129  0.48954459  0.21854112  1
  Ti  Ti4  1  0.08950775  0.38604573  0.57665462  1
  Ti  Ti5  1  0.06966270  0.38764898  0.92980934  1
  Ti  Ti6  1  0.00113029  0.74625127  0.23125365  1
  Ti  Ti7  1  0.07716914  0.74592576  0.67285305  1
  Ti  Ti8  1  0.06002078  0.74175601  0.90582067  1
  Ti  Ti9  1  0.40407798  0.10865116  0.19282585  1
  Ti  Ti10  1  0.40460681  0.03834803  0.55683402  1
  Ti  Ti11  1  0.45292654  0.06556088  0.86054540  1
  Ti  Ti12  1  0.42511619  0.42208861  0.22302261  1
  Ti  Ti13  1  0.39086316  0.55950437  0.56659357  1
  Ti  Ti14  1  0.43032819  0.40516368  0.92509107  1
  Ti  Ti15  1  0.47259981  0.74054792  0.28428234  1
  Ti  Ti16  1  0.39022393  0.76186055  0.54386142  1
  Ti  Ti17  1  0.41878615  0.73574633  0.85862601  1
  Ti  Ti18  1  0.75005151  0.12624467  0.24878726  1
  Ti  Ti19  1  0.79549062  -0.01317463  0.58841517  1
  Ti  Ti20  1  0.74818892  0.08759966  0.92386585  1
  Ti  Ti21  1  0.63013248  0.39387029  0.21530117  1
  Ti  Ti22  1  0.75253683  0.39490533  0.55822987  1
  Ti  Ti23  1  0.79371394  0.38706479  0.85781501  1
  Ti  Ti24  1  0.71174386  0.77282959  0.25405797  1
  Ti  Ti25  1  0.78814365  0.69022826  0.60726762  1
  Ti  Ti26  1  0.81218827  0.74394653  0.92294541  1
  Ti  Ti27  1  0.14943783  0.23885578  0.13402726  1
  Ti  Ti28  1  0.03272812  0.28025694  0.39373581  1
  Ti  Ti29  1  0.02991855  0.24367829  0.68973140  1
  Ti  Ti30  1  0.08230414  0.63587454  0.07815143  1
  Ti  Ti31  1  0.08717193  0.62092042  0.37300456  1
  Ti  Ti32  1  0.08806152  0.55561604  0.71807635  1
  Ti  Ti33  1  -0.02917848  0.94874725  0.05310151  1
  Ti  Ti34  1  0.09698055  0.88230120  0.44900952  1
  Ti  Ti35  1  0.10460322  0.90569950  0.78077934  1
  Ti  Ti36  1  0.43607527  0.21010357  -0.00202004  1
  Ti  Ti37  1  0.38013873  0.28665084  0.42341467  1
  Ti  Ti38  1  0.37331094  0.25978957  0.80500935  1
  Ti  Ti39  1  0.39238279  0.60346619  0.05834952  1
  Ti  Ti40  1  0.39631493  0.57222515  0.36984602  1
  Ti  Ti41  1  0.39369398  0.55029893  0.80332563  1
  Ti  Ti42  1  0.39639027  0.91305544  0.14474679  1
  Ti  Ti43  1  0.33680620  0.89513111  0.41257802  1
  Ti  Ti44  1  0.40258466  0.94568041  0.72649995  1
  Ti  Ti45  1  0.77064672  0.26385811  0.03868823  1
  Ti  Ti46  1  0.81643657  0.32110763  0.38325179  1
  Ti  Ti47  1  0.79706099  0.22755032  0.74117745  1
  Ti  Ti48  1  0.73592841  0.46807154  0.01967715  1
  Ti  Ti49  1  0.77697080  0.54433992  0.39775379  1
  Ti  Ti50  1  0.80525265  0.50856021  0.69616666  1
  Ti  Ti51  1  0.72232530  0.96432105  0.07768761  1
  Ti  Ti52  1  0.73330442  0.91718482  0.40659882  1
  Ti  Ti53  1  0.67053837  0.89785076  0.89465306  1
  Ti  Ti54  1  0.23897578  0.04158560  0.06599076  1
  Ti  Ti55  1  0.29167394  0.10253683  0.37021428  1
  Ti  Ti56  1  0.27901250  0.10624603  0.72154382  1
  Ti  Ti57  1  0.23767835  0.41314708  0.13579234  1
  Ti  Ti58  1  0.25763797  0.43796549  0.47170607  1
  Ti  Ti59  1  0.23785041  0.42757458  0.80396052  1
  Ti  Ti60  1  0.22170662  0.78801071  0.11049018  1
  Ti  Ti61  1  0.24215121  0.73983341  0.37136367  1
  Ti  Ti62  1  0.27760204  0.79815444  0.72849654  1
  Ti  Ti63  1  0.59637715  0.10456864  0.10234982  1
  Ti  Ti64  1  0.58858977  0.05354658  0.36112370  1
  Ti  Ti65  1  0.57222124  0.07791719  0.67310019  1
  Ti  Ti66  1  0.59042088  0.35194460  0.00946693  1
  Ti  Ti67  1  0.57734029  0.47824437  0.51209873  1
  Ti  Ti68  1  0.63040199  0.48132869  0.80588198  1
  Ti  Ti69  1  0.58307057  0.67873778  0.10228055  1
  Ti  Ti70  1  0.56054256  0.79790119  0.44781225  1
  Ti  Ti71  1  0.66181626  0.75609459  0.75016686  1
  Ti  Ti72  1  0.86005995  0.10634964  0.08221669  1
  Ti  Ti73  1  0.97814561  0.07152503  0.42325436  1
  Ti  Ti74  1  0.96600156  0.11037713  0.80114244  1
  Ti  Ti75  1  0.87797233  0.39192294  0.13343659  1
  Ti  Ti76  1  0.96000588  0.46498710  0.43325966  1
  Ti  Ti77  1  0.95314414  0.47353603  0.80872845  1
  Ti  Ti78  1  0.84647160  0.81911473  0.12023274  1
  Ti  Ti79  1  0.82885453  0.75063469  0.42579298  1
  Ti  Ti80  1  0.91923646  0.77767424  0.76162738  1
  Ti  Ti81  1  0.32029190  0.25720980  0.23885258  1
  Ti  Ti82  1  0.29871750  0.29573581  0.62489035  1
  Ti  Ti83  1  0.25084804  0.30447495  0.95146845  1
  Ti  Ti84  1  0.23578326  0.54575613  0.28206076  1
  Ti  Ti85  1  0.23612210  0.64456945  0.61995411  1
  Ti  Ti86  1  0.23112811  0.62645553  0.92896063  1
  Ti  Ti87  1  0.24035406  0.96325020  0.24427708  1
  Ti  Ti88  1  0.21701392  1.01108707  0.53217303  1
  Ti  Ti89  1  0.33381015  0.91295929  0.94462726  1
  Ti  Ti90  1  0.53621713  0.22881173  0.28829327  1
  Ti  Ti91  1  0.51300134  0.30986409  0.63405455  1
  Ti  Ti92  1  0.56641965  0.23225288  0.80813936  1
  Ti  Ti93  1  0.63400665  0.58308638  0.28331806  1
  Ti  Ti94  1  0.55481959  0.67319932  0.60396501  1
  Ti  Ti95  1  0.55835639  0.56845754  0.94582564  1
  Ti  Ti96  1  0.58192929  0.86382434  0.15067086  1
  Ti  Ti97  1  0.55780449  0.89544119  0.60731302  1
  Ti  Ti98  1  0.50461980  0.83606581  0.99037679  1
  Ti  Ti99  1  0.95879705  0.21972755  0.19615898  1
  Ti  Ti100  1  0.84908607  0.19038447  0.52969224  1
  Ti  Ti101  1  0.99294169  0.21592846  0.99297436  1
  Ti  Ti102  1  0.87855133  0.57349681  0.20890705  1
  Ti  Ti103  1  0.97660380  0.64303815  0.53282631  1
  Ti  Ti104  1  0.88610135  0.56630120  0.98262453  1
  Ti  Ti105  1  1.00390295  0.95891621  0.25980740  1
  Ti  Ti106  1  0.93861015  0.84056893  0.56765662  1
  Ti  Ti107  1  0.83218191  0.96358838  0.79546888  1
  Co  Co108  1  -0.08557810  0.68205402  0.08660428  1
  Co  Co109  1  -0.06912201  0.62287762  0.68097033  1
  Co  Co110  1  0.06928495  0.56781223  0.90499529  1
  Co  Co111  1  0.82288800  0.90717091  -0.03658119  1
  Co  Co112  1  0.31870784  0.81437486  0.25030404  1
  Co  Co113  1  0.25710073  0.60860610  0.46236584  1
  Co  Co114  1  0.48630138  0.57959829  0.21145395  1
  Co  Co115  1  0.22794717  0.79602173  0.88315355  1
  Co  Co116  1  0.14561354  -0.00024728  0.36443064  1
  Co  Co117  1  0.17499956  0.67642962  0.78701081  1
  Co  Co118  1  0.20904785  0.25956480  0.36385489  1
  Co  Co119  1  0.80048092  0.27716272  0.22460322  1
  Co  Co120  1  0.48791670  0.27484962  0.14551371  1
  Co  Co121  1  0.43145008  0.75511961  0.12424372  1
  Co  Co122  1  0.91379743  0.34263870  0.53803948  1
  Co  Co123  1  0.66671572  0.59031429  0.68392399  1
  Co  Co124  1  0.75244886  0.65234066  0.14811879  1
  Co  Co125  1  0.89301055  0.17943361  0.33807463  1
  Co  Co126  1  0.16236242  0.16062362  0.62371839  1
  Co  Co127  1  0.18358072  0.27875278  0.51399968  1
  Co  Co128  1  0.33474022  0.75479514  -0.00140525  1
  Co  Co129  1  0.74116284  0.08043866  0.72141875  1
  Co  Co130  1  0.08795917  0.38324631  0.75323008  1
  Co  Co131  1  0.23937009  0.58761452  0.11171391  1
  Co  Co132  1  -0.04450606  -0.06391992  0.70003744  1
  Co  Co133  1  0.96564958  0.46926965  0.63420883  1
  Co  Co134  1  0.04415671  0.35769522  0.10876146  1
  Co  Co135  1  0.63175171  0.52513804  0.11842413  1
  Co  Co136  1  -0.01124576  0.50236212  0.06970989  1
  Co  Co137  1  0.33813901  0.65656809  0.22058096  1
  Co  Co138  1  0.54018578  0.63560043  0.77995637  1
  Co  Co139  1  0.43225878  0.16219086  0.68398126  1
  Co  Co140  1  0.28215167  0.39653589  0.31317079  1
  Co  Co141  1  0.39280606  0.66482944  0.69109537  1
  Co  Co142  1  0.21250948  0.26228788  0.76157672  1
  Co  Co143  1  0.13196486  0.83697666  0.28281208  1
  Co  Co144  1  0.70227337  0.26767653  -0.11942867  1
  Co  Co145  1  0.69200356  0.58727695  0.52325324  1
  Co  Co146  1  0.11833792  0.33567778  0.25552799  1
  Co  Co147  1  0.49122805  0.46730430  0.07840955  1
  Co  Co148  1  0.30891368  0.16348546  0.52865877  1
  Co  Co149  1  0.44486321  0.13574798  0.39821638  1
  Co  Co150  1  0.89193261  0.10189577  0.65698463  1
  Co  Co151  1  0.71133134  0.63023810  -0.00300702  1
  Co  Co152  1  0.57062115  -0.00074429  -0.02264525  1
  Co  Co153  1  0.30109686  0.20113528  0.08447238  1
  Co  Co154  1  0.85545169  0.20525758  -0.08911901  1
  Co  Co155  1  0.15960215  0.68025134  0.22463522  1
  Co  Co156  1  0.10435603  0.89093887  0.61631228  1
  Co  Co157  1  0.37174378  0.35412836  0.06966379  1
  Co  Co158  1  0.85263581  0.54075832  0.54008584  1
  Co  Co159  1  -0.08409210  0.04690553  -0.06342229  1
  Co  Co160  1  0.24709506  -0.05144879  0.67418470  1
  Co  Co161  1  0.14451743  0.89734107  -0.02574132  1
  Ni  Ni162  1  0.16262962  0.17224688  -0.01123439  1
  Ni  Ni163  1  0.67700260  0.70025080  0.40050653  1
  Ni  Ni164  1  0.11499543  0.54593351  0.52870184  1
  Ni  Ni165  1  0.48465266  0.79035185  0.70941290  1
  Ni  Ni166  1  0.67037021  0.40465216  0.38912634  1
  Ni  Ni167  1  0.01865217  0.20666275  0.53666311  1
  Ni  Ni168  1  0.05759790  0.09028923  0.11030489  1
  Ni  Ni169  1  -0.02421228  0.89501085  0.88742092  1
  Ni  Ni170  1  0.41683816  -0.00856986  0.31308741  1
  Ni  Ni171  1  0.59864652  0.18054394  -0.03480935  1
  Ni  Ni172  1  0.53103657  0.62866407  0.43923039  1
  Ni  Ni173  1  0.84983023  -0.01303659  0.19464727  1
  Ni  Ni174  1  0.24220207  0.83221931  0.54450353  1
  Ni  Ni175  1  0.65214596  0.24777475  0.14768880  1
  Ni  Ni176  1  0.78190691  0.44276565  0.26482058  1
  Ni  Ni177  1  0.69584586  0.79616837  0.03903263  1
  Ni  Ni178  1  0.69652085  -0.03833438  0.24689626  1
  Ni  Ni179  1  0.66521591  -0.06537951  0.72558083  1
  Ni  Ni180  1  0.09033573  0.22891465  0.85382266  1
  Ni  Ni181  1  0.24245237  -0.02023704  0.83542406  1
  Ni  Ni182  1  0.76929622  0.56546713  0.85738709  1
  Ni  Ni183  1  0.94489024  0.30341134  0.82217502  1
  Ni  Ni184  1  0.42249791  0.40350543  0.53307708  1
  Ni  Ni185  1  0.90277721  -0.07305677  0.43348634  1
  Ni  Ni186  1  0.86505197  0.85341715  0.29086235  1
  Ni  Ni187  1  0.13805321  0.13542751  0.45511968  1
  Ni  Ni188  1  0.41822095  0.04007729  0.03237272  1
  Ni  Ni189  1  0.12002519  -0.06764665  0.13500681  1
  Ni  Ni190  1  -0.00922175  0.77575627  0.39450555  1
  Ni  Ni191  1  0.49611973  -0.04754646  0.45633362  1
  Ni  Ni192  1  0.12385395  0.72252108  0.50728990  1
  Ni  Ni193  1  0.56541290  0.88836038  0.31529871  1
  Ni  Ni194  1  0.14354087  0.48725505  0.02894679  1
  Ni  Ni195  1  0.90974427  0.37533647  -0.02531505  1
  Ni  Ni196  1  0.69954259  0.82228242  0.54704724  1
  Ni  Ni197  1  0.52564185  0.46552678  0.34690830  1
  Ni  Ni198  1  0.67377661  0.34600406  0.71171455  1
  Ni  Ni199  1  0.61860238  0.06819539  0.83265122  1
  Ni  Ni200  1  0.53773038  0.00937365  0.20920584  1
  Ni  Ni201  1  0.51879192  -0.10594178  0.83053162  1
  Ni  Ni202  1  0.51508979  0.50847273  0.67141530  1
  Ni  Ni203  1  -0.07680355  0.62621844  0.36155821  1
  Ni  Ni204  1  0.11802978  0.43560371  0.38579043  1
  Ni  Ni205  1  0.37598736  0.42246831  0.69594643  1
  Ni  Ni206  1  0.50601516  0.38514744  0.78287264  1
  Ni  Ni207  1  0.60858844  0.72937423  0.90639555  1
  Ni  Ni208  1  0.79818283  0.84410425  0.67739158  1
  Ni  Ni209  1  0.22697501  0.47728081  0.64163576  1
  Ni  Ni210  1  0.04056811  0.79952281  0.06816726  1
  Ni  Ni211  1  0.30373781  0.11589268  0.92215665  1
  Ni  Ni212  1  0.93094895  0.63607673  0.84071303  1
  Ni  Ni213  1  0.29612980  0.47977802  0.97457257  1
  Ni  Ni214  1  -0.05328626  0.37416644  0.28169666  1
