# generated using pymatgen
data_Ti108Co54Ni53
_symmetry_space_group_name_H-M   'P 1'
_cell_length_a   14.67296424
_cell_length_b   14.73328089
_cell_length_c   14.62617726
_cell_angle_alpha   89.97932647
_cell_angle_beta   89.94557341
_cell_angle_gamma   90.00359315
_symmetry_Int_Tables_number   1
_chemical_formula_structural   Ti108Co54Ni53
_chemical_formula_sum   'Ti108 Co54 Ni53'
_cell_volume   3161.89857784
_cell_formula_units_Z   1
loop_
 _symmetry_equiv_pos_site_id
 _symmetry_equiv_pos_as_xyz
  1  'x, y, z'
loop_
 _atom_site_type_symbol
 _atom_site_label
 _atom_site_symmetry_multiplicity
 _atom_site_fract_x
 _atom_site_fract_y
 _atom_site_fract_z
 _atom_site_occupancy
  Ti  Ti0  1  -0.00794433  0.04545042  0.24233906  1
  Ti  Ti1  1  0.04070230  0.15491118  0.62451904  1
  Ti  Ti2  1  0.06346962  0.10236872  1.00248425  1
  Ti  Ti3  1  0.15705170  0.47877021  0.17479418  1
  Ti  Ti4  1  0.05226405  0.45457658  0.61900064  1
  Ti  Ti5  1  0.14814059  0.41818266  0.88561138  1
  Ti  Ti6  1  0.13538938  0.74990739  0.28249466  1
  Ti  Ti7  1  0.07947973  0.66273783  0.59273062  1
  Ti  Ti8  1  0.09777968  0.75942660  1.00031819  1
  Ti  Ti9  1  0.43509339  0.05974517  0.17010157  1
  Ti  Ti10  1  0.43624555  0.01377338  0.54338090  1
  Ti  Ti11  1  0.32019442  0.09417718  0.91366594  1
  Ti  Ti12  1  0.54895930  0.48061120  0.24892008  1
  Ti  Ti13  1  0.44229502  0.47724334  0.55973946  1
  Ti  Ti14  1  0.43512939  0.38159050  0.91303665  1
  Ti  Ti15  1  0.46442863  0.69867310  0.22543089  1
  Ti  Ti16  1  0.36426400  0.79862355  0.62972282  1
  Ti  Ti17  1  0.43258316  0.77993515  0.93556818  1
  Ti  Ti18  1  0.78576719  0.04544553  0.32532940  1
  Ti  Ti19  1  0.72867219  0.11016656  0.55606315  1
  Ti  Ti20  1  0.63824765  0.09800484  0.91571548  1
  Ti  Ti21  1  0.77280021  0.50217730  0.21042307  1
  Ti  Ti22  1  0.69498663  0.34672503  0.59314374  1
  Ti  Ti23  1  0.76877020  0.47329499  0.89784820  1
  Ti  Ti24  1  0.77198051  0.72184481  0.24605456  1
  Ti  Ti25  1  0.71962955  0.75697068  0.62577157  1
  Ti  Ti26  1  0.78656647  0.74696453  0.91430756  1
  Ti  Ti27  1  0.02968758  0.28462324  -0.08254624  1
  Ti  Ti28  1  0.11290664  0.27130231  0.43643108  1
  Ti  Ti29  1  0.10924094  0.29476365  0.72312857  1
  Ti  Ti30  1  0.03892604  0.63070206  0.13702144  1
  Ti  Ti31  1  0.01127784  0.71455037  0.41554487  1
  Ti  Ti32  1  0.15430237  0.55215112  0.75194146  1
  Ti  Ti33  1  0.01492384  0.92328779  0.06518429  1
  Ti  Ti34  1  0.07941117  0.89778104  0.41517027  1
  Ti  Ti35  1  0.11899140  0.94435051  0.70622027  1
  Ti  Ti36  1  0.43441402  0.25275275  0.09185480  1
  Ti  Ti37  1  0.47498815  0.18782687  0.44400129  1
  Ti  Ti38  1  0.43394788  0.30879858  0.72487904  1
  Ti  Ti39  1  0.39518041  0.57701568  -0.04351992  1
  Ti  Ti40  1  0.44238906  0.67639679  0.47335433  1
  Ti  Ti41  1  0.44464758  0.51165639  0.76369415  1
  Ti  Ti42  1  0.36141046  0.88663504  0.10432774  1
  Ti  Ti43  1  0.39532117  0.97170559  0.35741194  1
  Ti  Ti44  1  0.41154641  0.91641668  0.80674371  1
  Ti  Ti45  1  0.74303684  0.27905385  0.13220745  1
  Ti  Ti46  1  0.79627319  0.27371779  0.42410864  1
  Ti  Ti47  1  0.74945509  0.19887680  0.75855199  1
  Ti  Ti48  1  0.74168261  0.61794939  0.05476805  1
  Ti  Ti49  1  0.71432940  0.52715628  0.38481336  1
  Ti  Ti50  1  0.77945348  0.57046268  0.69390766  1
  Ti  Ti51  1  0.68320768  0.82900522  0.07209060  1
  Ti  Ti52  1  0.78041731  0.92226825  0.46334843  1
  Ti  Ti53  1  0.71633529  0.88712159  0.77557465  1
  Ti  Ti54  1  0.20901579  -0.00879760  0.03901943  1
  Ti  Ti55  1  0.20150272  0.05322621  0.36821509  1
  Ti  Ti56  1  0.33591672  0.06640286  0.71094548  1
  Ti  Ti57  1  0.29609358  0.42545781  0.03370886  1
  Ti  Ti58  1  0.17932372  0.45638180  0.39796590  1
  Ti  Ti59  1  0.27072236  0.41246380  0.69080343  1
  Ti  Ti60  1  0.33585198  0.69762886  0.08442306  1
  Ti  Ti61  1  0.25260995  0.75985317  0.45060019  1
  Ti  Ti62  1  0.20064656  0.74781359  0.75356319  1
  Ti  Ti63  1  0.59843040  0.13688899  0.12137917  1
  Ti  Ti64  1  0.61433942  0.03353497  0.41286011  1
  Ti  Ti65  1  0.58180408  0.03890281  0.72619437  1
  Ti  Ti66  1  0.64265558  0.44724804  0.08725545  1
  Ti  Ti67  1  0.58927496  0.37199620  0.41444836  1
  Ti  Ti68  1  0.62555012  0.35752268  0.81053120  1
  Ti  Ti69  1  0.56119333  0.66689335  0.03665589  1
  Ti  Ti70  1  0.54926238  0.85161826  0.39221036  1
  Ti  Ti71  1  0.54660513  0.77908510  0.74329443  1
  Ti  Ti72  1  0.87273516  0.07451004  0.08276212  1
  Ti  Ti73  1  1.01604855  0.09906712  0.42949334  1
  Ti  Ti74  1  0.91857389  0.05031390  0.76010870  1
  Ti  Ti75  1  0.97850203  0.33695968  0.09788653  1
  Ti  Ti76  1  0.96225618  0.39989055  0.46271155  1
  Ti  Ti77  1  0.94784519  0.42158558  0.78222806  1
  Ti  Ti78  1  0.90238562  0.76773665  0.07406996  1
  Ti  Ti79  1  0.89336245  0.78381822  0.53781367  1
  Ti  Ti80  1  0.89630845  0.73923926  0.73483196  1
  Ti  Ti81  1  0.15170509  0.28415751  0.19763933  1
  Ti  Ti82  1  0.23091381  0.17878973  0.57564467  1
  Ti  Ti83  1  0.19514797  0.21437169  0.87382066  1
  Ti  Ti84  1  0.29478140  0.62239786  0.30428240  1
  Ti  Ti85  1  0.28283776  0.62453770  0.60198584  1
  Ti  Ti86  1  0.18513730  0.58120009  0.99446566  1
  Ti  Ti87  1  0.15035524  0.92002583  0.21206782  1
  Ti  Ti88  1  0.25550761  0.94907803  0.53531861  1
  Ti  Ti89  1  0.24736798  0.86688262  0.90199667  1
  Ti  Ti90  1  0.64470153  0.20704444  0.30437200  1
  Ti  Ti91  1  0.57644405  0.22103837  0.64939932  1
  Ti  Ti92  1  0.59212068  0.28016781  0.98707483  1
  Ti  Ti93  1  0.61263977  0.67748820  0.36084305  1
  Ti  Ti94  1  0.58825046  0.60795660  0.64112928  1
  Ti  Ti95  1  0.57010045  0.50305281  0.93433837  1
  Ti  Ti96  1  0.62370974  0.96181132  0.22403707  1
  Ti  Ti97  1  0.62847044  0.91995118  0.57905431  1
  Ti  Ti98  1  0.55899837  0.93167382  0.93404345  1
  Ti  Ti99  1  0.97030211  0.27277285  0.30193167  1
  Ti  Ti100  1  0.88455265  0.30429078  0.63606302  1
  Ti  Ti101  1  0.87133841  0.19284315  0.92217642  1
  Ti  Ti102  1  0.92909913  0.56802048  0.32069389  1
  Ti  Ti103  1  0.89322317  0.58529707  0.52857450  1
  Ti  Ti104  1  0.92283813  0.56669259  0.99863796  1
  Ti  Ti105  1  0.83067615  0.90802472  0.19594729  1
  Ti  Ti106  1  0.94009058  0.98311796  0.56456776  1
  Ti  Ti107  1  0.91229796  0.88436129  0.87549083  1
  Co  Co108  1  0.04407442  0.83760678  0.56048514  1
  Co  Co109  1  0.28922811  0.23104885  0.72276522  1
  Co  Co110  1  0.32354637  0.55701066  0.45416733  1
  Co  Co111  1  0.88573827  0.46204121  0.62789657  1
  Co  Co112  1  0.48428734  0.11330595  0.00667211  1
  Co  Co113  1  0.40976817  0.17691549  0.60863855  1
  Co  Co114  1  0.15416465  0.34665394  0.04031846  1
  Co  Co115  1  0.17780962  0.62832719  0.43544076  1
  Co  Co116  1  0.68137698  0.61722804  -0.09363175  1
  Co  Co117  1  0.56127855  0.42339304  0.67276365  1
  Co  Co118  1  0.39709414  -0.02946574  -0.02431372  1
  Co  Co119  1  0.57836811  0.31560076  0.17114501  1
  Co  Co120  1  0.17552403  0.19279582  0.05329799  1
  Co  Co121  1  0.16735122  0.33958731  0.56777358  1
  Co  Co122  1  0.46856935  0.88625762  0.23298013  1
  Co  Co123  1  0.50510882  0.32543632  0.54927252  1
  Co  Co124  1  -0.05599812  0.22494409  0.76035117  1
  Co  Co125  1  0.74350323  0.32773977  -0.03197777  1
  Co  Co126  1  0.29795422  0.34077673  0.84153366  1
  Co  Co127  1  0.41625860  0.85849836  0.49098029  1
  Co  Co128  1  0.31449418  0.10639209  0.07721128  1
  Co  Co129  1  0.83154327  0.32068131  0.83155788  1
  Co  Co130  1  0.56459377  0.09034822  0.56033613  1
  Co  Co131  1  0.48238157  0.56055217  0.11971612  1
  Co  Co132  1  0.53475637  -0.03576464  0.08617985  1
  Co  Co133  1  0.84456953  0.91385278  0.02903449  1
  Co  Co134  1  0.48019475  0.41143387  0.07192239  1
  Co  Co135  1  0.69834309  -0.00598180  0.06526755  1
  Co  Co136  1  0.52681816  0.09668813  0.29631387  1
  Co  Co137  1  0.24661505  0.89114058  0.35701982  1
  Co  Co138  1  0.20442769  0.81985690  0.09183362  1
  Co  Co139  1  0.72241967  -0.09256230  -0.07209567  1
  Co  Co140  1  0.27493552  -0.09730185  0.72014470  1
  Co  Co141  1  -0.05988986  0.02752728  -0.06497127  1
  Co  Co142  1  0.26716241  0.70868950  -0.07178385  1
  Co  Co143  1  0.57359291  0.20437279  0.81216839  1
  Co  Co144  1  0.85904963  0.34975596  0.21030903  1
  Co  Co145  1  0.39652234  0.77933545  0.35006515  1
  Co  Co146  1  0.63434172  0.22337003  0.47800392  1
  Co  Co147  1  0.63461620  0.52881679  0.77582479  1
  Co  Co148  1  0.74357488  0.16044439  0.01770765  1
  Co  Co149  1  0.04980128  0.41288331  0.30495055  1
  Co  Co150  1  0.32502915  0.54564169  0.13914534  1
  Co  Co151  1  -0.07561448  0.40190857  -0.05205576  1
  Co  Co152  1  0.70419968  0.70310029  0.77405489  1
  Co  Co153  1  0.06020167  0.47769123  0.02887457  1
  Co  Co154  1  0.29101112  0.78739754  0.23291309  1
  Co  Co155  1  0.54330456  0.76940038  0.56870429  1
  Co  Co156  1  0.71230200  -0.13358292  0.32301516  1
  Co  Co157  1  0.82036963  0.44228885  0.06865079  1
  Co  Co158  1  0.85623998  0.09991689  0.45621770  1
  Co  Co159  1  0.75641145  0.41082154  0.72721281  1
  Co  Co160  1  0.50509452  0.80690036  0.08529812  1
  Co  Co161  1  -0.03885076  0.71810160  0.25408169  1
  Ni  Ni162  1  0.52090889  0.53889590  0.40980031  1
  Ni  Ni163  1  0.30421954  0.26338469  -0.00573667  1
  Ni  Ni164  1  0.87417910  0.62099884  0.15608735  1
  Ni  Ni165  1  0.82648355  0.19830461  0.27565227  1
  Ni  Ni166  1  0.07233989  0.83863840  0.84248494  1
  Ni  Ni167  1  0.51733690  0.64500844  0.83979841  1
  Ni  Ni168  1  0.47396294  0.06861962  0.84522818  1
  Ni  Ni169  1  0.75617122  0.03581352  0.70482234  1
  Ni  Ni170  1  0.29074895  0.50304665  0.85238652  1
  Ni  Ni171  1  0.02390713  0.17834982  0.14841499  1
  Ni  Ni172  1  0.29362634  -0.00695711  0.22471086  1
  Ni  Ni173  1  0.33894642  0.31960109  0.57548652  1
  Ni  Ni174  1  0.11075220  0.67069559  0.86182892  1
  Ni  Ni175  1  0.61348666  0.77476912  0.90368741  1
  Ni  Ni176  1  -0.05030768  0.23627496  0.49334115  1
  Ni  Ni177  1  0.63285785  0.61484566  0.19068405  1
  Ni  Ni178  1  0.69726981  0.37177292  0.28290047  1
  Ni  Ni179  1  0.04255744  0.54585453  0.45592062  1
  Ni  Ni180  1  0.62395262  0.48849197  0.53079071  1
  Ni  Ni181  1  0.10202633  0.16486684  0.29992848  1
  Ni  Ni182  1  -0.04096312  0.72173089  -0.09599926  1
  Ni  Ni183  1  -0.03794404  -0.11278704  0.70450994  1
  Ni  Ni184  1  0.84876939  0.42279482  0.34707487  1
  Ni  Ni185  1  0.87422138  0.13950228  0.62318424  1
  Ni  Ni186  1  0.43465549  0.64936396  0.66456089  1
  Ni  Ni187  1  0.32561387  0.10788617  0.46437227  1
  Ni  Ni188  1  0.04625124  0.12709248  0.83431713  1
  Ni  Ni189  1  0.87267295  0.81694167  0.35471646  1
  Ni  Ni190  1  0.36513748  0.73650405  0.79154471  1
  Ni  Ni191  1  0.85921398  0.60641844  0.83879703  1
  Ni  Ni192  1  0.11261990  0.02127521  0.54555016  1
  Ni  Ni193  1  0.60774783  0.78490199  0.21984915  1
  Ni  Ni194  1  0.16837804  0.08800264  0.17583798  1
  Ni  Ni195  1  0.78899546  0.43679838  0.49943489  1
  Ni  Ni196  1  0.74406008  0.09987739  0.17957217  1
  Ni  Ni197  1  -0.03058982  0.58536812  0.71153747  1
  Ni  Ni198  1  0.68974992  0.77729570  0.46493206  1
  Ni  Ni199  1  0.42904598  0.22293993  0.88813147  1
  Ni  Ni200  1  0.48136766  0.90957267  0.65533101  1
  Ni  Ni201  1  0.19395057  0.80331338  0.60061469  1
  Ni  Ni202  1  0.19897686  0.65082011  0.16449767  1
  Ni  Ni203  1  0.19179781  0.50479537  0.55737105  1
  Ni  Ni204  1  0.79033788  0.04475927  0.87319785  1
  Ni  Ni205  1  -0.00953321  0.87430737  0.24487987  1
  Ni  Ni206  1  0.09979924  0.58185686  0.29802985  1
  Ni  Ni207  1  -0.03844392  0.48167290  0.17749951  1
  Ni  Ni208  1  -0.07272461  -0.03584563  0.38127461  1
  Ni  Ni209  1  0.17053250  0.01669340  0.86456410  1
  Ni  Ni210  1  0.02035927  0.53786432  0.86955124  1
  Ni  Ni211  1  0.72213636  0.62271742  0.52457715  1
  Ni  Ni212  1  0.81020410  0.89803663  0.63480735  1
  Ni  Ni213  1  0.17154545  0.11389765  0.72717469  1
  Ni  Ni214  1  0.82065562  0.67428749  0.40346085  1
