# generated using pymatgen
data_Ti108Co54Ni53
_symmetry_space_group_name_H-M   'P 1'
_cell_length_a   14.64904321
_cell_length_b   14.63211651
_cell_length_c   14.66818728
_cell_angle_alpha   89.88561051
_cell_angle_beta   90.08169037
_cell_angle_gamma   89.59667781
_symmetry_Int_Tables_number   1
_chemical_formula_structural   Ti108Co54Ni53
_chemical_formula_sum   'Ti108 Co54 Ni53'
_cell_volume   3143.98728623
_cell_formula_units_Z   1
loop_
 _symmetry_equiv_pos_site_id
 _symmetry_equiv_pos_as_xyz
  1  'x, y, z'
loop_
 _atom_site_type_symbol
 _atom_site_label
 _atom_site_symmetry_multiplicity
 _atom_site_fract_x
 _atom_site_fract_y
 _atom_site_fract_z
 _atom_site_occupancy
  Ti  Ti0  1  0.02984223  0.08344994  0.28459253  1
  Ti  Ti1  1  0.15054579  0.06385320  0.66340022  1
  Ti  Ti2  1  0.10533061  0.06807414  0.87375042  1
  Ti  Ti3  1  0.09281781  0.47323704  0.16456523  1
  Ti  Ti4  1  0.06763186  0.37902796  0.63371652  1
  Ti  Ti5  1  0.04730190  0.42150766  0.97723537  1
  Ti  Ti6  1  0.06260066  0.77307653  0.29167004  1
  Ti  Ti7  1  0.08754644  0.73062040  0.60392257  1
  Ti  Ti8  1  0.14094440  0.73286414  0.89459656  1
  Ti  Ti9  1  0.46449064  0.14235172  0.17511448  1
  Ti  Ti10  1  0.34249955  0.07371306  0.57780838  1
  Ti  Ti11  1  0.41720973  0.04625625  0.93859742  1
  Ti  Ti12  1  0.37997211  0.33518306  0.35370247  1
  Ti  Ti13  1  0.46621025  0.39783259  0.51363117  1
  Ti  Ti14  1  0.37597288  0.41977938  0.93924416  1
  Ti  Ti15  1  0.38133145  0.68851082  0.26075963  1
  Ti  Ti16  1  0.45714666  0.77397711  0.68254371  1
  Ti  Ti17  1  0.45434048  0.74830855  0.93526352  1
  Ti  Ti18  1  0.72220457  0.11420890  0.14730583  1
  Ti  Ti19  1  0.65612449  0.09233803  0.52754240  1
  Ti  Ti20  1  0.75348714  0.15124811  0.93393970  1
  Ti  Ti21  1  0.59924362  0.43589269  0.22660554  1
  Ti  Ti22  1  0.73608049  0.51386781  0.60645047  1
  Ti  Ti23  1  0.75756344  0.47847491  0.88414426  1
  Ti  Ti24  1  0.74109981  0.72589364  0.19607400  1
  Ti  Ti25  1  0.77205682  0.75791363  0.49444164  1
  Ti  Ti26  1  0.77490409  0.83932675  0.95488203  1
  Ti  Ti27  1  0.15011451  0.30132101  0.09499904  1
  Ti  Ti28  1  0.05980333  0.27828375  0.38807333  1
  Ti  Ti29  1  0.11505881  0.27275200  0.78411985  1
  Ti  Ti30  1  0.08998816  0.61858354  0.02184141  1
  Ti  Ti31  1  0.08719972  0.53531189  0.49628356  1
  Ti  Ti32  1  0.04899379  0.57974201  0.70482350  1
  Ti  Ti33  1  0.07545406  0.93369823  0.14823665  1
  Ti  Ti34  1  0.17101124  0.90404508  0.36985315  1
  Ti  Ti35  1  0.04363405  0.83289677  0.77566136  1
  Ti  Ti36  1  0.47325141  0.30853353  0.06543264  1
  Ti  Ti37  1  0.48315852  0.19279667  0.49669923  1
  Ti  Ti38  1  0.41676075  0.19092603  0.75004422  1
  Ti  Ti39  1  0.39492595  0.60028631  0.07947148  1
  Ti  Ti40  1  0.47715583  0.60299655  0.42146514  1
  Ti  Ti41  1  0.39367955  0.54183764  0.75314775  1
  Ti  Ti42  1  0.34613943  0.97667734  0.09436515  1
  Ti  Ti43  1  0.37686323  0.97694126  0.39166990  1
  Ti  Ti44  1  0.38954058  0.89982943  0.80709223  1
  Ti  Ti45  1  0.82184906  0.26068801  0.06743805  1
  Ti  Ti46  1  0.74122153  0.31381060  0.38447088  1
  Ti  Ti47  1  0.75329206  0.27594284  0.76746708  1
  Ti  Ti48  1  0.76315929  0.55250246  0.08541153  1
  Ti  Ti49  1  0.79317173  0.58014687  0.38361980  1
  Ti  Ti50  1  0.84585994  0.59499186  0.74206727  1
  Ti  Ti51  1  0.77351460  0.91395197  0.14583098  1
  Ti  Ti52  1  0.66976801  0.92390192  0.42648162  1
  Ti  Ti53  1  0.73495100  0.92623490  0.76248273  1
  Ti  Ti54  1  0.18602828  0.10337875  0.09830214  1
  Ti  Ti55  1  0.19743015  0.10047050  0.39203835  1
  Ti  Ti56  1  0.29173678  0.06539905  0.78583814  1
  Ti  Ti57  1  0.32567748  0.43011025  0.15684895  1
  Ti  Ti58  1  0.27139044  0.46677585  0.43626622  1
  Ti  Ti59  1  0.29580095  0.34778480  0.77874988  1
  Ti  Ti60  1  0.20757538  0.77002261  0.10994487  1
  Ti  Ti61  1  0.16597969  0.70711710  0.43172497  1
  Ti  Ti62  1  0.23940196  0.78036246  0.73380511  1
  Ti  Ti63  1  0.56730138  0.00248896  0.09285374  1
  Ti  Ti64  1  0.55693263  0.04901313  0.33014359  1
  Ti  Ti65  1  0.64586027  0.09400562  0.74963985  1
  Ti  Ti66  1  0.66186394  0.39116458  0.05921932  1
  Ti  Ti67  1  0.63838356  0.46189438  0.44564268  1
  Ti  Ti68  1  0.60629988  0.42913505  0.77102705  1
  Ti  Ti69  1  0.53852529  0.73274201  0.12602638  1
  Ti  Ti70  1  0.51453887  0.81290217  0.43182954  1
  Ti  Ti71  1  0.65505026  0.74714477  0.75406772  1
  Ti  Ti72  1  0.89683610  0.06239802  0.07812805  1
  Ti  Ti73  1  0.84618910  0.03272323  0.38737319  1
  Ti  Ti74  1  0.85352882  0.10261784  0.74344196  1
  Ti  Ti75  1  0.89179946  0.42304262  0.15978163  1
  Ti  Ti76  1  0.90829290  0.40818534  0.33891121  1
  Ti  Ti77  1  0.96383552  0.43767394  0.79775003  1
  Ti  Ti78  1  0.88764004  0.71293255  0.05323679  1
  Ti  Ti79  1  0.93963985  0.84411743  0.43305865  1
  Ti  Ti80  1  0.85914469  0.77534389  0.80153389  1
  Ti  Ti81  1  0.30562267  0.23754472  0.20874120  1
  Ti  Ti82  1  0.26849975  0.25846877  0.54213842  1
  Ti  Ti83  1  0.24515487  0.20408839  0.91988872  1
  Ti  Ti84  1  0.19306514  0.56693270  0.29488063  1
  Ti  Ti85  1  0.25937518  0.46240881  0.62651652  1
  Ti  Ti86  1  0.24560552  0.54973444  0.89620266  1
  Ti  Ti87  1  0.30478346  0.88438912  0.23958872  1
  Ti  Ti88  1  0.27250822  0.81928917  0.54702236  1
  Ti  Ti89  1  0.28547242  0.85444544  0.94741345  1
  Ti  Ti90  1  0.61961914  0.24222934  0.23004734  1
  Ti  Ti91  1  0.56442250  0.25918263  0.66779427  1
  Ti  Ti92  1  0.57433847  0.25123517  0.88533913  1
  Ti  Ti93  1  0.62449837  0.61255896  0.29004059  1
  Ti  Ti94  1  0.54730315  0.60173112  0.62017754  1
  Ti  Ti95  1  0.59654375  0.58936700  0.94547292  1
  Ti  Ti96  1  0.61309803  0.86915363  0.24953117  1
  Ti  Ti97  1  0.61678416  0.90966583  0.60453145  1
  Ti  Ti98  1  0.59354030  0.92458612  0.90466560  1
  Ti  Ti99  1  0.90469605  0.21972630  0.23520102  1
  Ti  Ti100  1  0.85347908  0.32097419  0.58361526  1
  Ti  Ti101  1  0.91121417  0.28437394  0.88725042  1
  Ti  Ti102  1  0.99308349  0.58694011  0.30185136  1
  Ti  Ti103  1  0.90522378  0.60031778  0.54511047  1
  Ti  Ti104  1  0.91638454  0.57629180  0.93170181  1
  Ti  Ti105  1  0.91982778  0.82457397  0.20429769  1
  Ti  Ti106  1  0.93990717  0.90015048  0.62521579  1
  Ti  Ti107  1  0.93841998  0.95955317  0.89023093  1
  Co  Co108  1  0.21545517  0.46924304  0.04117696  1
  Co  Co109  1  0.47127878  0.32678784  0.22237649  1
  Co  Co110  1  0.76406426  0.01843766  0.63253247  1
  Co  Co111  1  0.20900119  0.38672195  0.26286500  1
  Co  Co112  1  0.42692911  0.57898736  0.92008637  1
  Co  Co113  1  0.87433030  0.02154139  0.22985441  1
  Co  Co114  1  -0.02890460  0.79554702  0.93331694  1
  Co  Co115  1  0.80207151  0.42525810  0.73748887  1
  Co  Co116  1  0.38865389  0.54824128  0.55500376  1
  Co  Co117  1  0.08560241  0.85078993  0.49802718  1
  Co  Co118  1  0.70530605  0.69894223  0.04186403  1
  Co  Co119  1  0.47737208  0.19766722  0.32634731  1
  Co  Co120  1  0.08269482  0.44454376  0.35308357  1
  Co  Co121  1  0.33919781  0.15057080  0.05514429  1
  Co  Co122  1  0.74018243  0.67073941  0.62875092  1
  Co  Co123  1  -0.06594974  0.29710619  0.72183606  1
  Co  Co124  1  0.34171797  0.66639431  0.66156677  1
  Co  Co125  1  0.60554445  0.57919218  0.11185925  1
  Co  Co126  1  0.31052057  0.63426602  0.41175633  1
  Co  Co127  1  0.64227555  0.22787944  0.05476378  1
  Co  Co128  1  0.37775101  0.77903704  0.09696634  1
  Co  Co129  1  0.46638555  0.89113358  0.00913451  1
  Co  Co130  1  0.18902032  0.36451681  0.91726709  1
  Co  Co131  1  0.04742297  0.03465806  0.01948316  1
  Co  Co132  1  0.59303233  0.75304928  0.56829966  1
  Co  Co133  1  0.92761007  0.90022925  0.04955789  1
  Co  Co134  1  0.15198421  0.37370151  0.49693505  1
  Co  Co135  1  0.49361008  0.46752523  0.34591791  1
  Co  Co136  1  0.46053447  0.82740273  0.27612433  1
  Co  Co137  1  0.82132246  0.44720767  0.47683250  1
  Co  Co138  1  0.61857357  0.75489626  0.91705026  1
  Co  Co139  1  0.25315528  0.20202770  0.69541483  1
  Co  Co140  1  0.92308877  0.46629309  0.63159691  1
  Co  Co141  1  0.46083700  -0.02425932  0.22279119  1
  Co  Co142  1  0.18123434  0.01914744  0.24074126  1
  Co  Co143  1  0.78492942  0.01193825  0.87404768  1
  Co  Co144  1  -0.04267454  0.55828955  0.09776639  1
  Co  Co145  1  0.48827317  0.44523937  0.66257227  1
  Co  Co146  1  0.56331612  0.32818331  0.37225587  1
  Co  Co147  1  0.46137813  0.35403441  0.79600388  1
  Co  Co148  1  0.63449875  0.18049700  0.39511220  1
  Co  Co149  1  0.61016505  0.08283729  0.91889147  1
  Co  Co150  1  -0.00771326  0.67342702  -0.17553157  1
  Co  Co151  1  0.75087523  0.47157162  0.26913993  1
  Co  Co152  1  0.12673255  0.89424947  0.64815202  1
  Co  Co153  1  -0.02490753  0.30757970  0.06983148  1
  Co  Co154  1  0.76116562  0.31512481  0.21092540  1
  Co  Co155  1  0.30055570  0.31050939  0.03645534  1
  Co  Co156  1  0.08686396  0.55012456  0.86868384  1
  Co  Co157  1  0.04679487  0.78329696  0.08246144  1
  Co  Co158  1  0.48580535  0.57116761  0.21771672  1
  Co  Co159  1  0.34327796  0.69983220  0.82463596  1
  Co  Co160  1  -0.01131332  -0.06675644  0.31092212  1
  Co  Co161  1  0.61688706  0.28471128  0.51498367  1
  Ni  Ni162  1  0.72040118  -0.00475850  0.01703600  1
  Ni  Ni163  1  -0.07462212  0.72651391  0.65430188  1
  Ni  Ni164  1  0.09774640  0.65192234  0.18252403  1
  Ni  Ni165  1  0.51631410  0.65597626  0.79763323  1
  Ni  Ni166  1  0.03627308  0.32861055  0.22824166  1
  Ni  Ni167  1  0.35011758  0.51858732  0.29301965  1
  Ni  Ni168  1  0.22714087  0.61470302  0.56049261  1
  Ni  Ni169  1  0.54880153  0.90510142  0.74885666  1
  Ni  Ni170  1  0.80149540  0.87509839  0.32084703  1
  Ni  Ni171  1  0.65012288  0.62939006  0.47443423  1
  Ni  Ni172  1  0.40416573  0.24559075  0.91406486  1
  Ni  Ni173  1  0.28787643  0.68546711  -0.01603730  1
  Ni  Ni174  1  0.69086955  0.36027439  0.62820539  1
  Ni  Ni175  1  -0.01767781  0.40233913  0.48722997  1
  Ni  Ni176  1  0.03068249  0.16550218  0.12255763  1
  Ni  Ni177  1  0.80910232  -0.07503436  0.51361267  1
  Ni  Ni178  1  0.18989624  -0.07000830  0.80949581  1
  Ni  Ni179  1  0.15534418  0.44500195  0.76555729  1
  Ni  Ni180  1  0.67228607  0.58108539  0.76361458  1
  Ni  Ni181  1  0.20996571  0.60727998  0.73861462  1
  Ni  Ni182  1  0.07166739  0.23024017  -0.04879098  1
  Ni  Ni183  1  0.22530103  0.27398757  0.37918083  1
  Ni  Ni184  1  0.14657281  0.20149183  0.24744056  1
  Ni  Ni185  1  0.86604576  0.41853665  -0.00515246  1
  Ni  Ni186  1  0.41384569  0.71743420  0.52665697  1
  Ni  Ni187  1  0.73006716  0.31853577  -0.07050765  1
  Ni  Ni188  1  0.34430162  0.15833279  0.41013360  1
  Ni  Ni189  1  0.50493370  0.47080960  0.04007837  1
  Ni  Ni190  1  0.33755428  0.80681494  0.39341339  1
  Ni  Ni191  1  0.71267917  0.00998252  0.27959664  1
  Ni  Ni192  1  0.28780328  -0.06136983  0.66870214  1
  Ni  Ni193  1  0.50541299  0.15293075  0.01611632  1
  Ni  Ni194  1  0.76917289  0.16309385  0.30492761  1
  Ni  Ni195  1  0.74036725  0.19162710  0.62475534  1
  Ni  Ni196  1  0.48761716  0.04820635  0.79456728  1
  Ni  Ni197  1  0.01431164  -0.00191950  0.73676162  1
  Ni  Ni198  1  0.32767031  0.07242071  0.24691616  1
  Ni  Ni199  1  0.63701738  0.84900071  0.06270298  1
  Ni  Ni200  1  0.51478384  0.08520331  0.63342556  1
  Ni  Ni201  1  0.78611922  0.82659929  0.64509348  1
  Ni  Ni202  1  0.11483329  0.89388604  -0.03709721  1
  Ni  Ni203  1  0.39073909  0.31253215  0.63940592  1
  Ni  Ni204  1  0.00267930  0.15769018  0.78128598  1
  Ni  Ni205  1  0.85029345  0.59737356  0.21968999  1
  Ni  Ni206  1  0.68371230  0.75387497  0.35779188  1
  Ni  Ni207  1  0.22502133  0.73942349  0.28050314  1
  Ni  Ni208  1  -0.00261865  0.68574550  0.43830077  1
  Ni  Ni209  1  0.93342397  0.13026921  -0.06707919  1
  Ni  Ni210  1  0.51358505  -0.00614937  0.49140813  1
  Ni  Ni211  1  0.76185070  0.65611577  0.88993168  1
  Ni  Ni212  1  0.20553954  -0.02002988  0.52066983  1
  Ni  Ni213  1  0.24384750  0.01893945  -0.04485106  1
  Ni  Ni214  1  0.86855520  0.72050114  0.33517904  1
