# generated using pymatgen
data_Ti108Co54Ni53
_symmetry_space_group_name_H-M   'P 1'
_cell_length_a   14.62718033
_cell_length_b   14.61035605
_cell_length_c   14.66086745
_cell_angle_alpha   89.73509942
_cell_angle_beta   89.87569193
_cell_angle_gamma   89.81512332
_symmetry_Int_Tables_number   1
_chemical_formula_structural   Ti108Co54Ni53
_chemical_formula_sum   'Ti108 Co54 Ni53'
_cell_volume   3133.09217580
_cell_formula_units_Z   1
loop_
 _symmetry_equiv_pos_site_id
 _symmetry_equiv_pos_as_xyz
  1  'x, y, z'
loop_
 _atom_site_type_symbol
 _atom_site_label
 _atom_site_symmetry_multiplicity
 _atom_site_fract_x
 _atom_site_fract_y
 _atom_site_fract_z
 _atom_site_occupancy
  Ti  Ti0  1  0.10174448  0.03653997  0.23391342  1
  Ti  Ti1  1  0.05754705  0.09966995  0.63016140  1
  Ti  Ti2  1  0.13873227  0.07134292  0.93420136  1
  Ti  Ti3  1  0.09799205  0.39248457  0.21435864  1
  Ti  Ti4  1  0.02593565  0.42813374  0.58420140  1
  Ti  Ti5  1  0.07420311  0.42402735  0.91202665  1
  Ti  Ti6  1  0.09435152  0.72669608  0.27608144  1
  Ti  Ti7  1  0.13279482  0.76514218  0.56713902  1
  Ti  Ti8  1  0.04435472  0.73103174  0.92057543  1
  Ti  Ti9  1  0.39395645  0.11458993  0.29438535  1
  Ti  Ti10  1  0.41541537  0.13248888  0.60926478  1
  Ti  Ti11  1  0.43948626  0.07646411  0.84791624  1
  Ti  Ti12  1  0.48688788  0.43825932  0.32177648  1
  Ti  Ti13  1  0.47313242  0.37939634  0.58226359  1
  Ti  Ti14  1  0.43233293  0.40099584  0.98629237  1
  Ti  Ti15  1  0.40487639  0.70887613  0.22691390  1
  Ti  Ti16  1  0.36490338  0.77239972  0.59815001  1
  Ti  Ti17  1  0.44166554  0.72057051  0.96499378  1
  Ti  Ti18  1  0.78655569  0.11153473  0.27721835  1
  Ti  Ti19  1  0.86060834  0.01713497  0.60264981  1
  Ti  Ti20  1  0.70310683  0.13009381  1.01159991  1
  Ti  Ti21  1  0.77976480  0.38348914  0.32465210  1
  Ti  Ti22  1  0.76599588  0.44591521  0.62519180  1
  Ti  Ti23  1  0.72740512  0.39955354  0.88617773  1
  Ti  Ti24  1  0.71746153  0.73792910  0.21836957  1
  Ti  Ti25  1  0.79877863  0.80051466  0.64567866  1
  Ti  Ti26  1  0.66537891  0.78782435  0.94530894  1
  Ti  Ti27  1  0.04169744  0.19411441  0.07295166  1
  Ti  Ti28  1  0.07219968  0.24163345  0.50146845  1
  Ti  Ti29  1  0.09453216  0.22997961  0.79282543  1
  Ti  Ti30  1  0.10877413  0.66111725  0.09068855  1
  Ti  Ti31  1  0.12034862  0.63975515  0.42980266  1
  Ti  Ti32  1  0.11121416  0.56456331  0.76952277  1
  Ti  Ti33  1  0.05746047  0.85325272  0.13431078  1
  Ti  Ti34  1  0.11273222  0.96158151  0.44935204  1
  Ti  Ti35  1  0.14682178  0.90121595  0.84509527  1
  Ti  Ti36  1  0.37407393  0.24852923  0.12001467  1
  Ti  Ti37  1  0.35328351  0.28300493  0.45099805  1
  Ti  Ti38  1  0.40492483  0.32427747  0.79306970  1
  Ti  Ti39  1  0.46525100  0.54795929  0.09483866  1
  Ti  Ti40  1  0.37294643  0.55784466  0.42792346  1
  Ti  Ti41  1  0.39002894  0.57262567  0.63680409  1
  Ti  Ti42  1  0.45337998  0.95205966  0.06453217  1
  Ti  Ti43  1  0.33578299  0.96354344  0.43422072  1
  Ti  Ti44  1  0.45520673  0.90992680  0.72002654  1
  Ti  Ti45  1  0.78442517  0.30729408  0.06324872  1
  Ti  Ti46  1  0.69184822  0.21716973  0.41605495  1
  Ti  Ti47  1  0.76023076  0.16273781  0.72268442  1
  Ti  Ti48  1  0.74915034  0.52213845  0.04500596  1
  Ti  Ti49  1  0.84227729  0.53372411  0.42885420  1
  Ti  Ti50  1  0.72670463  0.62866733  0.70282514  1
  Ti  Ti51  1  0.78564119  0.95117928  -0.01466296  1
  Ti  Ti52  1  0.67998379  0.99551395  0.44147624  1
  Ti  Ti53  1  0.81708787  0.90368054  0.81328911  1
  Ti  Ti54  1  0.22166689  0.13118746  0.09575688  1
  Ti  Ti55  1  0.18113656  0.12810412  0.40009473  1
  Ti  Ti56  1  0.27505320  0.00514718  0.69409251  1
  Ti  Ti57  1  0.28093880  0.45240985  0.11448307  1
  Ti  Ti58  1  0.19595421  0.39746371  0.41533532  1
  Ti  Ti59  1  0.27159870  0.44755889  0.70834344  1
  Ti  Ti60  1  0.24298901  0.75424563  -0.00728368  1
  Ti  Ti61  1  0.24262818  0.79925931  0.40766713  1
  Ti  Ti62  1  0.25096292  0.80921685  0.73244260  1
  Ti  Ti63  1  0.51797854  0.13909078  0.04902710  1
  Ti  Ti64  1  0.50597793  0.12920887  0.43379303  1
  Ti  Ti65  1  0.58219482  0.05619531  0.71472466  1
  Ti  Ti66  1  0.61551944  0.40793715  0.14826624  1
  Ti  Ti67  1  0.64221218  0.40943762  0.47651899  1
  Ti  Ti68  1  0.62261411  0.34986613  0.71683211  1
  Ti  Ti69  1  0.60288796  0.66302950  0.08971763  1
  Ti  Ti70  1  0.62668991  0.72779747  0.43018717  1
  Ti  Ti71  1  0.52949720  0.73038935  0.71643909  1
  Ti  Ti72  1  0.88492132  0.11506735  0.03523763  1
  Ti  Ti73  1  0.97889136  0.14426587  0.35435435  1
  Ti  Ti74  1  0.97089396  0.03068785  0.77986139  1
  Ti  Ti75  1  0.94309141  0.47554168  0.07384655  1
  Ti  Ti76  1  0.96635732  0.36863296  0.40342118  1
  Ti  Ti77  1  0.93798367  0.38926999  0.75202843  1
  Ti  Ti78  1  0.87621119  0.79874674  0.07090671  1
  Ti  Ti79  1  0.90173950  0.75906624  0.39438876  1
  Ti  Ti80  1  0.92772229  0.71343950  0.75934254  1
  Ti  Ti81  1  0.24543316  0.24087356  0.27040484  1
  Ti  Ti82  1  0.22416228  0.19342578  0.60811950  1
  Ti  Ti83  1  0.28311234  0.21197178  0.89883087  1
  Ti  Ti84  1  0.20297342  0.55583477  0.25613537  1
  Ti  Ti85  1  0.18922291  0.53275797  0.55941900  1
  Ti  Ti86  1  0.25974556  0.55619799  0.93787304  1
  Ti  Ti87  1  0.24676557  0.91334455  0.13769528  1
  Ti  Ti88  1  0.09654582  0.92140076  0.65847422  1
  Ti  Ti89  1  0.32575864  0.91544531  0.93392789  1
  Ti  Ti90  1  0.56082381  0.22890545  0.23752426  1
  Ti  Ti91  1  0.59035123  0.21265246  0.58163933  1
  Ti  Ti92  1  0.58975845  0.20301281  0.86360166  1
  Ti  Ti93  1  0.67725874  0.54492697  0.29323424  1
  Ti  Ti94  1  0.57745505  0.54986505  0.61039499  1
  Ti  Ti95  1  0.51373496  0.56912909  0.86578347  1
  Ti  Ti96  1  0.64468414  0.94464463  0.23120503  1
  Ti  Ti97  1  0.63111234  0.88371940  0.60974761  1
  Ti  Ti98  1  0.59497996  0.97865293  0.92232729  1
  Ti  Ti99  1  0.92620394  0.28850863  0.21019814  1
  Ti  Ti100  1  0.88245833  0.22436354  0.56997026  1
  Ti  Ti101  1  0.92123165  0.28708069  0.91748064  1
  Ti  Ti102  1  0.85215651  0.60276351  0.20375602  1
  Ti  Ti103  1  0.90000847  0.58116092  0.63270770  1
  Ti  Ti104  1  0.83802872  0.61922173  0.90048975  1
  Ti  Ti105  1  0.85026870  0.88863259  0.23191745  1
  Ti  Ti106  1  0.87534736  0.95657178  0.41311657  1
  Ti  Ti107  1  0.97770667  0.94584829  0.95680476  1
  Co  Co108  1  0.14692742  0.88391642  -0.00002948  1
  Co  Co109  1  0.03348937  0.27505699  0.65193168  1
  Co  Co110  1  0.19326351  0.29366530  0.12343862  1
  Co  Co111  1  0.48988107  0.46555151  0.72813256  1
  Co  Co112  1  0.81010581  0.49758188  0.77605904  1
  Co  Co113  1  0.80965378  0.68195971  0.53196076  1
  Co  Co114  1  0.44534077  0.24447227  -0.04837813  1
  Co  Co115  1  0.85107815  0.24265665  0.36951419  1
  Co  Co116  1  0.34612177  0.30140007  0.63497259  1
  Co  Co117  1  0.73017552  0.28393958  0.59680502  1
  Co  Co118  1  0.49995919  0.83642273  0.54362425  1
  Co  Co119  1  0.52435844  0.29523746  0.43573933  1
  Co  Co120  1  0.92049216  0.19275622  0.74582957  1
  Co  Co121  1  0.88045275  0.44706551  -0.07223810  1
  Co  Co122  1  0.62372787  -0.00908353  0.07607159  1
  Co  Co123  1  0.64136862  0.71639270  0.58887275  1
  Co  Co124  1  0.28162789  0.66279649  0.50851328  1
  Co  Co125  1  0.54907574  0.82528708  0.05527035  1
  Co  Co126  1  -0.01582661  0.07096017  0.49560216  1
  Co  Co127  1  0.23407847  0.28982729  0.75008797  1
  Co  Co128  1  0.86885769  0.78436998  -0.08427682  1
  Co  Co129  1  0.79275825  0.32107659  0.75128849  1
  Co  Co130  1  0.18562595  0.35304134  0.58629186  1
  Co  Co131  1  0.39418510  -0.02888583  0.57826554  1
  Co  Co132  1  0.60962123  0.08373719  0.32087188  1
  Co  Co133  1  0.85204001  0.07922700  0.88041142  1
  Co  Co134  1  0.28074304  0.66508323  0.33509732  1
  Co  Co135  1  0.76888626  0.66922882  0.36202510  1
  Co  Co136  1  0.33401232  0.16352715  0.74268937  1
  Co  Co137  1  -0.03712647  0.54765563  0.81270933  1
  Co  Co138  1  0.70773380  0.84640913  0.09912473  1
  Co  Co139  1  -0.05191385  0.73412951  0.20711382  1
  Co  Co140  1  0.73922127  0.26590197  0.21889029  1
  Co  Co141  1  0.62390973  0.35605192  0.31505394  1
  Co  Co142  1  0.05955929  0.80968009  0.41541848  1
  Co  Co143  1  -0.00480833  0.85561820  0.82332212  1
  Co  Co144  1  0.24838256  0.88375906  0.56758154  1
  Co  Co145  1  0.41797182  0.27882703  0.29834941  1
  Co  Co146  1  0.03666850  0.35042146  0.06090026  1
  Co  Co147  1  -0.06338773  -0.03563760  0.11151342  1
  Co  Co148  1  0.22394099  0.40258988  0.86053944  1
  Co  Co149  1  0.32444956  0.43586083  0.53393917  1
  Co  Co150  1  0.33198954  0.12228938  0.46487319  1
  Co  Co151  1  0.10960998  0.40016175  0.73563262  1
  Co  Co152  1  0.09493877  0.28630902  0.34950278  1
  Co  Co153  1  0.66598780  0.12453784  0.16704768  1
  Co  Co154  1  0.12885366  0.25887881  -0.04833174  1
  Co  Co155  1  0.70155995  0.09462524  0.57204927  1
  Co  Co156  1  0.76164363  0.68538839  0.04856756  1
  Co  Co157  1  0.50463466  0.21569694  0.72461512  1
  Co  Co158  1  0.08917926  0.01579141  0.07648822  1
  Co  Co159  1  0.81917670  0.10443437  0.45539420  1
  Co  Co160  1  0.08765076  0.19639620  0.22432954  1
  Co  Co161  1  0.21743439  0.03981889  0.54795161  1
  Ni  Ni162  1  0.66810603  0.61564337  -0.08123360  1
  Ni  Ni163  1  0.54812515  0.01747326  0.55373306  1
  Ni  Ni164  1  0.61750919  0.29562772  0.00794031  1
  Ni  Ni165  1  0.12761512  0.49765532  0.06291536  1
  Ni  Ni166  1  0.35260518  0.05229563  0.15148317  1
  Ni  Ni167  1  0.37619189  0.79008786  0.82407930  1
  Ni  Ni168  1  -0.03899519  0.61688669  0.33373227  1
  Ni  Ni169  1  0.59461930  0.48059966  -0.00522375  1
  Ni  Ni170  1  0.55076296  0.37702705  0.87036752  1
  Ni  Ni171  1  0.22939585  0.64972496  0.67678125  1
  Ni  Ni172  1  0.73231536  -0.01709310  0.70048513  1
  Ni  Ni173  1  0.43831409  0.39205595  0.16946665  1
  Ni  Ni174  1  0.23791133  0.74990027  0.18452217  1
  Ni  Ni175  1  0.79878263  0.43031533  0.17229507  1
  Ni  Ni176  1  -0.00888226  0.55843816  0.48944685  1
  Ni  Ni177  1  -0.00313187  0.14306467  0.90291366  1
  Ni  Ni178  1  0.03826725  0.56219889  0.19930369  1
  Ni  Ni179  1  0.37325897  0.48479796  0.84274151  1
  Ni  Ni180  1  0.06004816  0.62509341  0.62331088  1
  Ni  Ni181  1  0.53347296  0.59755753  0.24500964  1
  Ni  Ni182  1  0.37411089  0.80251155  0.09207199  1
  Ni  Ni183  1  0.69603841  0.57626497  0.49491670  1
  Ni  Ni184  1  0.62595043  0.87348540  0.78230972  1
  Ni  Ni185  1  0.74472735  0.74650851  0.80841952  1
  Ni  Ni186  1  0.55105298  0.56312161  0.41835106  1
  Ni  Ni187  1  0.75816520  0.84182735  0.49597420  1
  Ni  Ni188  1  0.37131814  0.54421929  0.23837074  1
  Ni  Ni189  1  0.09074738  0.74646227  0.73746367  1
  Ni  Ni190  1  0.35683809  0.09102481  -0.00574894  1
  Ni  Ni191  1  0.29958519  0.40036893  0.27797729  1
  Ni  Ni192  1  0.82243048  0.36523725  0.48982578  1
  Ni  Ni193  1  0.93595529  0.88320785  0.68245677  1
  Ni  Ni194  1  0.27349560  0.04611767  0.84959217  1
  Ni  Ni195  1  0.93084530  0.45827714  0.26645681  1
  Ni  Ni196  1  0.76327480  0.22909372  -0.10872795  1
  Ni  Ni197  1  0.78172802  0.00905708  0.13895805  1
  Ni  Ni198  1  0.49175250  -0.13262168  0.89324536  1
  Ni  Ni199  1  0.48395765  0.66967819  0.53046133  1
  Ni  Ni200  1  0.31774750  0.63074518  0.08981004  1
  Ni  Ni201  1  0.51463833  0.05433495  0.19285278  1
  Ni  Ni202  1  0.27674969  0.33850669  -0.00379955  1
  Ni  Ni203  1  -0.06157503  0.09723455  0.19878985  1
  Ni  Ni204  1  0.07129769  0.49272111  0.35814283  1
  Ni  Ni205  1  0.25925364  0.01338106  0.28495177  1
  Ni  Ni206  1  0.70242419  0.06534927  0.84476105  1
  Ni  Ni207  1  0.20559450  0.69014257  0.84695898  1
  Ni  Ni208  1  -0.02118623  -0.10126048  0.52954958  1
  Ni  Ni209  1  0.36254848  0.63996978  0.78450631  1
  Ni  Ni210  1  0.64238222  0.50742704  0.77964539  1
  Ni  Ni211  1  -0.00369217  -0.07733381  0.30107095  1
  Ni  Ni212  1  -0.06277682  0.64272631  0.05292221  1
  Ni  Ni213  1  0.73272092  0.84877877  0.34309339  1
  Ni  Ni214  1  0.15928781  0.88152284  0.28865818  1
