# generated using pymatgen
data_Ti108Co54Ni53
_symmetry_space_group_name_H-M   'P 1'
_cell_length_a   14.65093936
_cell_length_b   14.61912014
_cell_length_c   14.61307581
_cell_angle_alpha   89.82159330
_cell_angle_beta   90.29008673
_cell_angle_gamma   89.71598754
_symmetry_Int_Tables_number   1
_chemical_formula_structural   Ti108Co54Ni53
_chemical_formula_sum   'Ti108 Co54 Ni53'
_cell_volume   3129.79074315
_cell_formula_units_Z   1
loop_
 _symmetry_equiv_pos_site_id
 _symmetry_equiv_pos_as_xyz
  1  'x, y, z'
loop_
 _atom_site_type_symbol
 _atom_site_label
 _atom_site_symmetry_multiplicity
 _atom_site_fract_x
 _atom_site_fract_y
 _atom_site_fract_z
 _atom_site_occupancy
  Ti  Ti0  1  0.11872236  -0.00569596  0.24635837  1
  Ti  Ti1  1  0.04770275  0.11997867  0.64791076  1
  Ti  Ti2  1  0.09848587  0.12578425  0.94337222  1
  Ti  Ti3  1  0.11660431  0.41823654  0.24383969  1
  Ti  Ti4  1  0.05307913  0.44321325  0.56460996  1
  Ti  Ti5  1  0.05769860  0.49320530  0.93255239  1
  Ti  Ti6  1  0.13594876  0.77972921  0.25810065  1
  Ti  Ti7  1  0.00597688  0.73790935  0.54723180  1
  Ti  Ti8  1  0.12092275  0.77845410  0.93997792  1
  Ti  Ti9  1  0.42088309  0.13719490  0.20727322  1
  Ti  Ti10  1  0.38570260  0.16870668  0.58793937  1
  Ti  Ti11  1  0.41210162  0.10364782  0.87033643  1
  Ti  Ti12  1  0.46026421  0.36776066  0.36132955  1
  Ti  Ti13  1  0.40992546  0.46780611  0.60244588  1
  Ti  Ti14  1  0.40511577  0.47949660  0.86137754  1
  Ti  Ti15  1  0.42362964  0.65894010  0.22331941  1
  Ti  Ti16  1  0.34728209  0.81378253  0.64643674  1
  Ti  Ti17  1  0.39349566  0.74445380  0.86729245  1
  Ti  Ti18  1  0.79694028  0.09816729  0.22754603  1
  Ti  Ti19  1  0.75386158  0.10667799  0.61281005  1
  Ti  Ti20  1  0.71045856  0.03713630  0.92914253  1
  Ti  Ti21  1  0.75445455  0.39882752  0.25108493  1
  Ti  Ti22  1  0.76957230  0.46022051  0.55108208  1
  Ti  Ti23  1  0.69647111  0.39646070  0.88949283  1
  Ti  Ti24  1  0.75388859  0.74326179  0.29361815  1
  Ti  Ti25  1  0.80497880  0.69350665  0.53313000  1
  Ti  Ti26  1  0.78901781  0.71417647  0.91936078  1
  Ti  Ti27  1  0.08751964  0.23711713  0.13128825  1
  Ti  Ti28  1  0.09487881  0.23638387  0.47271019  1
  Ti  Ti29  1  0.16240075  0.24513053  0.76443362  1
  Ti  Ti30  1  0.08109816  0.60502916  0.07750334  1
  Ti  Ti31  1  0.03112059  0.55843020  0.35666960  1
  Ti  Ti32  1  0.14231642  0.60575732  0.67951284  1
  Ti  Ti33  1  0.04954807  0.83247703  0.09776279  1
  Ti  Ti34  1  0.13214538  0.88146275  0.46915595  1
  Ti  Ti35  1  0.09685312  0.91802337  0.65507697  1
  Ti  Ti36  1  0.44107454  0.22785199  0.03714250  1
  Ti  Ti37  1  0.40256191  0.17624705  0.39260615  1
  Ti  Ti38  1  0.35802748  0.28685566  0.84298039  1
  Ti  Ti39  1  0.40483389  0.53832797  0.05572259  1
  Ti  Ti40  1  0.38627974  0.60796784  0.41951230  1
  Ti  Ti41  1  0.44230723  0.61334882  0.73142902  1
  Ti  Ti42  1  0.40531691  0.88472020  0.08915770  1
  Ti  Ti43  1  0.38477728  0.82678956  0.36147985  1
  Ti  Ti44  1  0.41218468  0.91821401  0.79839089  1
  Ti  Ti45  1  0.78709979  0.26898854  0.12593947  1
  Ti  Ti46  1  0.77331644  0.31821429  0.41607204  1
  Ti  Ti47  1  0.76795672  0.28493507  0.73405326  1
  Ti  Ti48  1  0.73493746  0.64068397  0.09791423  1
  Ti  Ti49  1  0.73912918  0.56895013  0.38463313  1
  Ti  Ti50  1  0.71595917  0.57259693  0.69531082  1
  Ti  Ti51  1  0.74705135  0.96596152  0.11491209  1
  Ti  Ti52  1  0.72088931  0.97714792  0.37351257  1
  Ti  Ti53  1  0.82455821  0.95348091  0.78778727  1
  Ti  Ti54  1  0.29083276  0.09112764  0.05666082  1
  Ti  Ti55  1  0.24067861  0.04419975  0.40262162  1
  Ti  Ti56  1  0.22018578  0.04226778  0.77044161  1
  Ti  Ti57  1  0.27278210  0.40053517  0.11974050  1
  Ti  Ti58  1  0.26047946  0.34080172  0.38109818  1
  Ti  Ti59  1  0.23748331  0.45309780  0.79772009  1
  Ti  Ti60  1  0.24583123  0.71012690  0.10998590  1
  Ti  Ti61  1  0.22118787  0.70387991  0.46245318  1
  Ti  Ti62  1  0.20880774  0.77297666  0.77662477  1
  Ti  Ti63  1  0.60704578  0.11142659  0.10561114  1
  Ti  Ti64  1  0.63695187  0.17641587  0.43410427  1
  Ti  Ti65  1  0.56494145  0.05650044  0.74150254  1
  Ti  Ti66  1  0.65992208  0.43885184  0.08913428  1
  Ti  Ti67  1  0.58716921  0.39259046  0.51012855  1
  Ti  Ti68  1  0.53797373  0.36979730  0.76609013  1
  Ti  Ti69  1  0.54188551  0.73146227  0.08197432  1
  Ti  Ti70  1  0.56298415  0.71296581  0.38430542  1
  Ti  Ti71  1  0.61430735  0.69624842  0.79922303  1
  Ti  Ti72  1  0.94513393  0.11462913  0.06244535  1
  Ti  Ti73  1  0.91845027  0.02147914  0.36006193  1
  Ti  Ti74  1  0.99813083  0.02550682  0.79996744  1
  Ti  Ti75  1  0.91630236  0.41206228  0.06144107  1
  Ti  Ti76  1  0.95497065  0.37755812  0.41000143  1
  Ti  Ti77  1  0.96477844  0.34227928  0.75688329  1
  Ti  Ti78  1  0.86695227  0.78182431  0.10018037  1
  Ti  Ti79  1  0.88193079  0.83669038  0.41415809  1
  Ti  Ti80  1  0.85342782  0.72906273  0.73325174  1
  Ti  Ti81  1  0.22512949  0.18106792  0.26812865  1
  Ti  Ti82  1  0.24904788  0.31958994  0.59264474  1
  Ti  Ti83  1  0.20252362  0.29056761  0.97078103  1
  Ti  Ti84  1  0.29560812  0.51026260  0.27285379  1
  Ti  Ti85  1  0.22901609  0.50757662  0.54531002  1
  Ti  Ti86  1  0.25152380  0.61721408  0.93363856  1
  Ti  Ti87  1  0.30558048  0.97848532  0.21715816  1
  Ti  Ti88  1  0.26626728  1.00676737  0.59325953  1
  Ti  Ti89  1  0.21425671  0.95917751  0.95614332  1
  Ti  Ti90  1  0.57120006  0.30686929  0.19476109  1
  Ti  Ti91  1  0.56736849  0.23758665  0.61868446  1
  Ti  Ti92  1  0.61012680  0.19599068  0.87731691  1
  Ti  Ti93  1  0.56698689  0.52257742  0.29405903  1
  Ti  Ti94  1  0.52511104  0.67484293  0.57809655  1
  Ti  Ti95  1  0.62999583  0.59111442  0.95804175  1
  Ti  Ti96  1  0.62017777  0.87980781  0.23412760  1
  Ti  Ti97  1  0.59158864  0.86220929  0.62375026  1
  Ti  Ti98  1  0.61363109  0.88684527  0.84963178  1
  Ti  Ti99  1  0.91265390  0.21294635  0.32108847  1
  Ti  Ti100  1  0.89316614  0.23337341  0.57023548  1
  Ti  Ti101  1  0.84567027  0.22662724  0.90926531  1
  Ti  Ti102  1  0.89221165  0.62227817  0.21561697  1
  Ti  Ti103  1  0.93335040  0.57969043  0.64989430  1
  Ti  Ti104  1  0.90558065  0.57209164  0.86701326  1
  Ti  Ti105  1  0.94186913  0.95132158  0.19141477  1
  Ti  Ti106  1  0.90940513  0.88147455  0.62669041  1
  Ti  Ti107  1  0.93241401  0.85181864  0.91935595  1
  Co  Co108  1  0.58089853  0.52332292  0.80387167  1
  Co  Co109  1  0.55712721  0.55909197  0.12965482  1
  Co  Co110  1  0.48701392  0.38079391  0.07979878  1
  Co  Co111  1  0.48151486  0.19859859  0.75032592  1
  Co  Co112  1  0.71498875  0.55871033  0.22637715  1
  Co  Co113  1  0.88997408  0.06396902  0.91104006  1
  Co  Co114  1  -0.00156569  0.12055812  0.21766850  1
  Co  Co115  1  0.51184470  0.31543070  0.91892280  1
  Co  Co116  1  0.05728433  0.28337399  0.62431067  1
  Co  Co117  1  0.74606985  0.55989618  0.84849705  1
  Co  Co118  1  0.48910008  0.84460896  -0.04843275  1
  Co  Co119  1  0.39134624  0.70120201  0.03622419  1
  Co  Co120  1  0.37430511  -0.03961024  -0.05474632  1
  Co  Co121  1  0.22115192  0.46471148  -0.03024211  1
  Co  Co122  1  0.72627738  0.81977828  0.75323672  1
  Co  Co123  1  0.62408513  0.34678112  0.35166719  1
  Co  Co124  1  0.88970189  -0.04497494  0.03819586  1
  Co  Co125  1  -0.02044199  0.85576307  0.77024294  1
  Co  Co126  1  0.54055866  0.01970858  0.91563595  1
  Co  Co127  1  0.91733384  0.58142153  0.05744332  1
  Co  Co128  1  0.64259180  0.76902720  -0.03581336  1
  Co  Co129  1  0.59682903  -0.07113927  0.04916890  1
  Co  Co130  1  0.45913858  0.05056197  0.05704634  1
  Co  Co131  1  0.47459203  0.61525567  0.91658511  1
  Co  Co132  1  0.47845083  0.81068015  0.23131713  1
  Co  Co133  1  0.20220080  0.54477565  0.39061440  1
  Co  Co134  1  0.86979687  0.39748669  0.89078924  1
  Co  Co135  1  -0.00261485  0.50391043  0.17989186  1
  Co  Co136  1  0.04431796  0.73393050  0.70065125  1
  Co  Co137  1  0.23271148  0.88343822  0.33961546  1
  Co  Co138  1  0.31087583  0.80925303  0.21308038  1
  Co  Co139  1  0.25758243  0.19438223  0.46448273  1
  Co  Co140  1  0.19827350  0.16422205  0.61287594  1
  Co  Co141  1  0.60807480  0.69011480  0.23417629  1
  Co  Co142  1  0.31029413  0.17591422  0.73003810  1
  Co  Co143  1  0.42062466  0.31103102  0.51380325  1
  Co  Co144  1  0.35901778  0.37424723  -0.01950505  1
  Co  Co145  1  0.28385111  0.61703707  0.77551450  1
  Co  Co146  1  0.09597605  0.35798175  0.86372601  1
  Co  Co147  1  0.53681802  0.46407155  -0.04212151  1
  Co  Co148  1  0.29559847  0.88198228  0.49383561  1
  Co  Co149  1  0.11793036  0.40669493  0.41646121  1
  Co  Co150  1  0.67581989  0.72226608  0.63191564  1
  Co  Co151  1  0.20333936  0.88541950  0.10430615  1
  Co  Co152  1  0.12053942  0.05229987  0.51718027  1
  Co  Co153  1  0.70544295  0.80285959  0.11430205  1
  Co  Co154  1  0.80562002  0.89516539  0.25807817  1
  Co  Co155  1  -0.09359032  0.04390161  0.63655681  1
  Co  Co156  1  -0.05942971  0.77780017  0.25362272  1
  Co  Co157  1  0.62959532  0.06165550  0.26052437  1
  Co  Co158  1  0.71536526  0.22240002  0.28464304  1
  Co  Co159  1  0.13799358  0.40599822  0.69399383  1
  Co  Co160  1  0.35350977  0.45389658  0.45061090  1
  Co  Co161  1  0.88470401  0.16901287  0.73399515  1
  Ni  Ni162  1  0.56166965  0.51716201  0.63527528  1
  Ni  Ni163  1  -0.02177468  0.69540144  -0.03260389  1
  Ni  Ni164  1  0.39321329  0.32364074  0.68220282  1
  Ni  Ni165  1  0.00363480  0.28130441  -0.01677363  1
  Ni  Ni166  1  0.27248705  0.67781104  0.30272718  1
  Ni  Ni167  1  0.83838622  0.46159166  0.73599673  1
  Ni  Ni168  1  0.27973539  0.23650100  0.12157581  1
  Ni  Ni169  1  0.07904793  0.11198268  0.36099549  1
  Ni  Ni170  1  0.87350243  0.49266171  0.32222864  1
  Ni  Ni171  1  0.25627753  0.14845258  -0.10619731  1
  Ni  Ni172  1  0.79877983  0.13496271  0.42811923  1
  Ni  Ni173  1  0.39888489  0.74997555  0.50655462  1
  Ni  Ni174  1  0.40028103  0.04275208  0.69685745  1
  Ni  Ni175  1  0.09665545  0.63881005  0.84221881  1
  Ni  Ni176  1  0.31348365  0.64331000  0.61030274  1
  Ni  Ni177  1  0.54334935  0.19671738  0.30437368  1
  Ni  Ni178  1  0.13787698  0.60362925  0.23514329  1
  Ni  Ni179  1  0.49468776  0.78370535  0.72752834  1
  Ni  Ni180  1  0.92954452  0.35581225  0.23141213  1
  Ni  Ni181  1  0.90516028  0.39081313  0.59606591  1
  Ni  Ni182  1  0.11970942  -0.08633972  0.82824470  1
  Ni  Ni183  1  0.73892940  0.11698475  0.78619126  1
  Ni  Ni184  1  -0.01221286  0.95565674  0.50340310  1
  Ni  Ni185  1  0.18435459  0.78221338  0.60815577  1
  Ni  Ni186  1  0.89211903  0.66611808  0.38744246  1
  Ni  Ni187  1  0.77781375  0.13012946  0.04268264  1
  Ni  Ni188  1  0.04039467  -0.03366741  -0.02437331  1
  Ni  Ni189  1  0.63695415  0.27250062  0.02951990  1
  Ni  Ni190  1  0.49162402  -0.01802915  0.20240985  1
  Ni  Ni191  1  0.69569991  -0.02751362  0.69239560  1
  Ni  Ni192  1  0.82178834  -0.01457406  0.50713319  1
  Ni  Ni193  1  0.43870404  0.45978404  0.20877476  1
  Ni  Ni194  1  0.28274935  0.80726446  0.96894957  1
  Ni  Ni195  1  0.02733237  0.50267585  0.76327042  1
  Ni  Ni196  1  0.09672477  0.40100883  0.07054413  1
  Ni  Ni197  1  0.39269923  0.00140252  0.35837476  1
  Ni  Ni198  1  0.02798676  -0.11300007  0.34048218  1
  Ni  Ni199  1  0.78644440  0.50348995  -0.00298983  1
  Ni  Ni200  1  0.72084897  0.27748003  0.56657805  1
  Ni  Ni201  1  0.75925652  0.85297575  0.58896014  1
  Ni  Ni202  1  0.52723205  0.53936247  0.46157266  1
  Ni  Ni203  1  -0.03636391  0.11775670  0.48563814  1
  Ni  Ni204  1  0.68904377  0.79463990  0.45357048  1
  Ni  Ni205  1  0.37048623  0.30153556  0.24055115  1
  Ni  Ni206  1  0.00594907  0.19851146  0.83538277  1
  Ni  Ni207  1  0.66419316  0.59585975  0.52584468  1
  Ni  Ni208  1  0.76361476  0.87899971  -0.03996172  1
  Ni  Ni209  1  0.12750032  0.05006801  0.09467952  1
  Ni  Ni210  1  0.08214256  0.59941241  0.50740144  1
  Ni  Ni211  1  0.07228461  0.27135980  0.30281130  1
  Ni  Ni212  1  0.66892610  0.39908517  0.67339383  1
  Ni  Ni213  1  -0.09060484  0.53467688  0.48814902  1
  Ni  Ni214  1  0.04806582  0.72583227  0.38674401  1
