# generated using pymatgen
data_Ti108Co54Ni53
_symmetry_space_group_name_H-M   'P 1'
_cell_length_a   14.64029322
_cell_length_b   14.63503554
_cell_length_c   14.62371597
_cell_angle_alpha   89.91387642
_cell_angle_beta   89.75563630
_cell_angle_gamma   90.18060043
_symmetry_Int_Tables_number   1
_chemical_formula_structural   Ti108Co54Ni53
_chemical_formula_sum   'Ti108 Co54 Ni53'
_cell_volume   3133.24743588
_cell_formula_units_Z   1
loop_
 _symmetry_equiv_pos_site_id
 _symmetry_equiv_pos_as_xyz
  1  'x, y, z'
loop_
 _atom_site_type_symbol
 _atom_site_label
 _atom_site_symmetry_multiplicity
 _atom_site_fract_x
 _atom_site_fract_y
 _atom_site_fract_z
 _atom_site_occupancy
  Ti  Ti0  1  0.00350268  0.07486292  0.25199241  1
  Ti  Ti1  1  0.10612516  0.08990964  0.56953341  1
  Ti  Ti2  1  0.00668272  0.06128423  0.90217174  1
  Ti  Ti3  1  0.16241924  0.39156582  0.30986611  1
  Ti  Ti4  1  0.01541849  0.41920820  0.60347463  1
  Ti  Ti5  1  0.01978273  0.36493274  0.89081451  1
  Ti  Ti6  1  0.08013675  0.63119779  0.33096220  1
  Ti  Ti7  1  0.09049654  0.75998859  0.64088505  1
  Ti  Ti8  1  0.03964973  0.75806388  0.96358191  1
  Ti  Ti9  1  0.43478794  0.03667399  0.29444390  1
  Ti  Ti10  1  0.43773222  0.05900469  0.61189193  1
  Ti  Ti11  1  0.39029518  0.12637707  0.91134328  1
  Ti  Ti12  1  0.44015823  0.40573992  0.15624468  1
  Ti  Ti13  1  0.42963434  0.44922067  0.55316055  1
  Ti  Ti14  1  0.38927269  0.37829573  0.89765947  1
  Ti  Ti15  1  0.44750249  0.71367213  0.18161276  1
  Ti  Ti16  1  0.42040825  0.74607927  0.49711578  1
  Ti  Ti17  1  0.36559423  0.81063579  0.95821335  1
  Ti  Ti18  1  0.73748229  -0.00181226  0.21321888  1
  Ti  Ti19  1  0.74869643  0.13909254  0.55365634  1
  Ti  Ti20  1  0.72346833  0.00476314  0.87128614  1
  Ti  Ti21  1  0.80265051  0.38482714  0.29526005  1
  Ti  Ti22  1  0.71823814  0.33636109  0.54262575  1
  Ti  Ti23  1  0.82150562  0.39100625  0.94852551  1
  Ti  Ti24  1  0.72255760  0.66601223  0.23554143  1
  Ti  Ti25  1  0.77890037  0.78984946  0.55846746  1
  Ti  Ti26  1  0.84211548  0.71490970  0.95442642  1
  Ti  Ti27  1  0.05778367  0.22842082  0.05767835  1
  Ti  Ti28  1  0.06955825  0.27162915  0.44238703  1
  Ti  Ti29  1  0.12685306  0.28466847  0.71486852  1
  Ti  Ti30  1  0.13971502  0.57873399  0.07783784  1
  Ti  Ti31  1  0.02903567  0.60350325  0.51363564  1
  Ti  Ti32  1  0.16674735  0.58736007  0.76629769  1
  Ti  Ti33  1  0.05574298  0.94431191  0.09631748  1
  Ti  Ti34  1  0.09053914  0.95150930  0.40302421  1
  Ti  Ti35  1  0.06421150  0.95210502  0.73814214  1
  Ti  Ti36  1  0.41748483  0.12754321  0.11551637  1
  Ti  Ti37  1  0.42246925  0.25181880  0.43373213  1
  Ti  Ti38  1  0.46835079  0.34945497  0.71973714  1
  Ti  Ti39  1  0.35990693  0.54288549  0.05172027  1
  Ti  Ti40  1  0.51680022  0.59659960  0.42695580  1
  Ti  Ti41  1  0.39378305  0.55918301  0.77444818  1
  Ti  Ti42  1  0.36415706  0.91184356  0.15567077  1
  Ti  Ti43  1  0.41765378  0.93351332  0.47125538  1
  Ti  Ti44  1  0.39917080  0.89430728  0.70053546  1
  Ti  Ti45  1  0.72052044  0.25384872  0.03636344  1
  Ti  Ti46  1  0.78879561  0.21847630  0.39228623  1
  Ti  Ti47  1  0.69889503  0.21341684  0.73838259  1
  Ti  Ti48  1  0.76526403  0.50076365  0.11750639  1
  Ti  Ti49  1  0.70601274  0.62878960  0.47099741  1
  Ti  Ti50  1  0.74621442  0.49457702  0.68458048  1
  Ti  Ti51  1  0.76171516  0.84346224  0.08908341  1
  Ti  Ti52  1  0.77614583  0.93411265  0.40561147  1
  Ti  Ti53  1  0.83150258  0.92073791  0.70911507  1
  Ti  Ti54  1  0.23940652  0.17342706  0.09062371  1
  Ti  Ti55  1  0.28523245  0.06636540  0.44357233  1
  Ti  Ti56  1  0.29894568  0.04287679  0.76368849  1
  Ti  Ti57  1  0.22692767  0.37516683  0.01990491  1
  Ti  Ti58  1  0.27578266  0.41618037  0.45650350  1
  Ti  Ti59  1  0.27049944  0.42273017  0.70681191  1
  Ti  Ti60  1  0.19267949  0.80594056  0.08877967  1
  Ti  Ti61  1  0.24717692  0.72439977  0.38797526  1
  Ti  Ti62  1  0.29058323  0.74379526  0.77192401  1
  Ti  Ti63  1  0.61237936  0.12881077  0.11953562  1
  Ti  Ti64  1  0.61116107  0.13096184  0.31952498  1
  Ti  Ti65  1  0.55619511  0.07370521  0.78284403  1
  Ti  Ti66  1  0.60014551  0.40915482  0.01306191  1
  Ti  Ti67  1  0.50604746  0.41771362  0.35613168  1
  Ti  Ti68  1  0.57547386  0.54495381  0.76560818  1
  Ti  Ti69  1  0.61188561  0.74956869  0.08790108  1
  Ti  Ti70  1  0.61375746  0.81520342  0.44707441  1
  Ti  Ti71  1  0.56069065  0.74365253  0.71338178  1
  Ti  Ti72  1  0.85276130  0.15718117  0.13766091  1
  Ti  Ti73  1  0.93704709  0.08886756  0.44922939  1
  Ti  Ti74  1  0.98958333  0.14514966  0.73658717  1
  Ti  Ti75  1  0.97546838  0.44278296  0.05141199  1
  Ti  Ti76  1  0.84804089  0.47805515  0.47267679  1
  Ti  Ti77  1  0.90578567  0.48598367  0.77708638  1
  Ti  Ti78  1  1.02287673  0.73436630  0.17905944  1
  Ti  Ti79  1  0.96071973  0.78523157  0.40769058  1
  Ti  Ti80  1  0.94299545  0.72241165  0.77492170  1
  Ti  Ti81  1  0.26466893  0.20231260  0.29450860  1
  Ti  Ti82  1  0.27491391  0.17300411  0.62058124  1
  Ti  Ti83  1  0.21328814  0.19488603  0.89280312  1
  Ti  Ti84  1  0.29064222  0.57389176  0.25920892  1
  Ti  Ti85  1  0.31144322  0.59903162  0.59403770  1
  Ti  Ti86  1  0.21093603  0.66939409  0.93385774  1
  Ti  Ti87  1  0.21298361  0.97344081  0.25981371  1
  Ti  Ti88  1  0.26333829  0.81246270  0.57828415  1
  Ti  Ti89  1  0.24285612  0.98391050  1.01260030  1
  Ti  Ti90  1  0.60118667  0.31295064  0.20976802  1
  Ti  Ti91  1  0.55348750  0.20268474  0.61192084  1
  Ti  Ti92  1  0.53656470  0.24181051  0.91767771  1
  Ti  Ti93  1  0.56721373  0.55998200  0.13083483  1
  Ti  Ti94  1  0.60500296  0.50372952  0.57493378  1
  Ti  Ti95  1  0.63939775  0.59725391  0.94094731  1
  Ti  Ti96  1  0.56827268  0.89630059  0.20614647  1
  Ti  Ti97  1  0.60359172  1.01063680  0.52324136  1
  Ti  Ti98  1  0.56203742  0.90873388  0.94904550  1
  Ti  Ti99  1  0.98154007  0.31640402  0.21203042  1
  Ti  Ti100  1  0.92013777  0.22968288  0.58625236  1
  Ti  Ti101  1  0.85601181  0.21087878  0.86123242  1
  Ti  Ti102  1  0.93915853  0.52862273  0.21861219  1
  Ti  Ti103  1  0.86555440  0.62040920  0.62585187  1
  Ti  Ti104  1  1.00050605  0.58029850  0.89660739  1
  Ti  Ti105  1  0.86430262  0.82949923  0.24383919  1
  Ti  Ti106  1  0.96064566  0.90969971  0.54087787  1
  Ti  Ti107  1  0.88347986  0.94211389  0.97929794  1
  Co  Co108  1  0.13956734  0.07443797  0.15911115  1
  Co  Co109  1  0.47693404  0.83788205  0.06640170  1
  Co  Co110  1  0.83434540  0.54923568  -0.03956184  1
  Co  Co111  1  0.57097649  0.69988959  0.55893971  1
  Co  Co112  1  0.46020197  0.21020695  0.26309838  1
  Co  Co113  1  0.44659266  -0.02575458  0.83681793  1
  Co  Co114  1  0.07676293  0.91086588  -0.05782574  1
  Co  Co115  1  0.40840242  0.73000589  0.65935837  1
  Co  Co116  1  0.92740326  0.77430208  0.62132985  1
  Co  Co117  1  0.02883711  0.89654010  0.24692561  1
  Co  Co118  1  0.12877417  0.09183588  -0.00500901  1
  Co  Co119  1  -0.02479076  0.08346597  0.06482969  1
  Co  Co120  1  0.51232933  0.26730215  0.07986338  1
  Co  Co121  1  0.73177183  0.64981634  0.06018609  1
  Co  Co122  1  0.10169701  0.20763597  0.25893266  1
  Co  Co123  1  0.89547975  0.32557004  0.46234457  1
  Co  Co124  1  0.82065790  0.11506872  0.69772273  1
  Co  Co125  1  0.19320901  0.54919977  0.41006665  1
  Co  Co126  1  0.85947036  0.68210794  0.14294084  1
  Co  Co127  1  -0.02533074  0.40800728  0.34370671  1
  Co  Co128  1  0.54786424  0.07262524  -0.03791824  1
  Co  Co129  1  0.87654920  0.02939660  0.81724944  1
  Co  Co130  1  0.47272174  0.10019683  0.43964023  1
  Co  Co131  1  0.51512371  0.00014077  0.10889331  1
  Co  Co132  1  -0.07416285  -0.04666847  0.35488085  1
  Co  Co133  1  0.15136229  0.12538235  0.74410789  1
  Co  Co134  1  0.30987629  0.69136996  0.07577102  1
  Co  Co135  1  0.82753507  0.10191812  -0.02128891  1
  Co  Co136  1  -0.03004217  0.61394418  0.05270733  1
  Co  Co137  1  0.93111520  0.81803188  0.07503755  1
  Co  Co138  1  0.51033985  0.86208371  0.58925106  1
  Co  Co139  1  0.21322121  0.88578163  0.72432194  1
  Co  Co140  1  0.89291702  -0.02878495  0.16194333  1
  Co  Co141  1  0.55072852  0.41387004  0.85588891  1
  Co  Co142  1  0.23742543  0.89890142  0.44481410  1
  Co  Co143  1  0.48669658  0.52631224  -0.05389472  1
  Co  Co144  1  0.48442037  0.67176580  0.02457472  1
  Co  Co145  1  0.17379866  0.67357959  0.20042981  1
  Co  Co146  1  0.08168042  0.44922324  0.76200292  1
  Co  Co147  1  0.35440061  0.57273969  0.43520789  1
  Co  Co148  1  0.67332091  0.04727292  0.67250397  1
  Co  Co149  1  0.10672715  0.78641882  0.46504290  1
  Co  Co150  1  0.08155733  0.44637735  0.45589973  1
  Co  Co151  1  0.66093645  0.32285618  0.36035566  1
  Co  Co152  1  0.36412870  0.26195144  0.00504296  1
  Co  Co153  1  0.67066946  0.47150690  0.42679664  1
  Co  Co154  1  0.15126513  0.81583973  0.29488824  1
  Co  Co155  1  -0.08910794  0.25539930  0.00926791  1
  Co  Co156  1  0.05463493  0.21713674  0.87446126  1
  Co  Co157  1  0.35013977  0.36185465  0.31251157  1
  Co  Co158  1  0.47488740  0.58700347  0.62986257  1
  Co  Co159  1  -0.04897312  0.22141106  0.34211230  1
  Co  Co160  1  0.17566045  0.00828689  0.85805452  1
  Co  Co161  1  0.69765724  0.83249209  0.26429556  1
  Ni  Ni162  1  0.63343273  0.37076549  0.71189424  1
  Ni  Ni163  1  0.85793884  0.38893521  0.62050790  1
  Ni  Ni164  1  0.68357618  0.31875148  -0.12119080  1
  Ni  Ni165  1  0.30534924  0.26383781  0.76905115  1
  Ni  Ni166  1  0.87315164  0.64795126  0.45953753  1
  Ni  Ni167  1  0.24365024  0.23558992  0.46121912  1
  Ni  Ni168  1  0.64948549  0.47627417  0.25711652  1
  Ni  Ni169  1  0.84022801  0.08945733  0.30115062  1
  Ni  Ni170  1  0.79858006  0.35180505  0.76886468  1
  Ni  Ni171  1  0.11291120  0.76363261  0.80781128  1
  Ni  Ni172  1  0.43551777  0.17752253  0.73621363  1
  Ni  Ni173  1  0.49133989  0.84745123  0.34061499  1
  Ni  Ni174  1  0.67985148  -0.01004252  0.04595253  1
  Ni  Ni175  1  -0.05908856  0.04863763  0.61548072  1
  Ni  Ni176  1  0.79199177  -0.01896999  0.56132547  1
  Ni  Ni177  1  0.12924489  0.49166003  -0.07160506  1
  Ni  Ni178  1  -0.04757659  0.87599950  0.83758787  1
  Ni  Ni179  1  0.16502632  0.31245567  0.16138447  1
  Ni  Ni180  1  0.02325170  0.58227399  0.68237341  1
  Ni  Ni181  1  0.09338195  0.46107345  0.17717455  1
  Ni  Ni182  1  0.26882973  0.43902776  0.17191036  1
  Ni  Ni183  1  0.19912172  0.36320759  0.85175434  1
  Ni  Ni184  1  0.83308217  0.34669246  0.12826410  1
  Ni  Ni185  1  0.45886326  0.55427212  0.26407951  1
  Ni  Ni186  1  0.21828505  0.84908361  0.89794936  1
  Ni  Ni187  1  -0.09466134  0.66834190  0.30020503  1
  Ni  Ni188  1  0.33860535  -0.12023415  0.32707731  1
  Ni  Ni189  1  0.57930673  0.71048662  0.30926155  1
  Ni  Ni190  1  0.73304607  0.21659821  0.23068689  1
  Ni  Ni191  1  0.29555483  0.76860170  0.22126445  1
  Ni  Ni192  1  0.18016100  0.66052140  0.53253052  1
  Ni  Ni193  1  -0.04064287  0.31683357  0.73787325  1
  Ni  Ni194  1  0.40597189  -0.02256288  -0.00496626  1
  Ni  Ni195  1  0.71536696  0.47860293  0.85304969  1
  Ni  Ni196  1  0.77597210  0.75827333  0.38498763  1
  Ni  Ni197  1  0.55669652  0.35113405  0.50426650  1
  Ni  Ni198  1  0.16228682  0.50635343  0.60399444  1
  Ni  Ni199  1  0.27559838  -0.00841177  0.59764482  1
  Ni  Ni200  1  0.37495691  0.64997855  0.91106102  1
  Ni  Ni201  1  0.17024587  0.33889820  0.56718868  1
  Ni  Ni202  1  0.33964291  0.31552092  0.59310487  1
  Ni  Ni203  1  0.69562917  0.65468674  0.65537419  1
  Ni  Ni204  1  0.68144848  0.15655318  0.90481297  1
  Ni  Ni205  1  0.61531139  0.19951863  0.46368534  1
  Ni  Ni206  1  0.12664027  -0.08284397  0.57510558  1
  Ni  Ni207  1  0.80072756  0.61986884  0.80575108  1
  Ni  Ni208  1  0.61533738  -0.03429714  0.35412871  1
  Ni  Ni209  1  0.66433453  0.88378829  0.62722889  1
  Ni  Ni210  1  0.13038483  0.11904028  0.39360890  1
  Ni  Ni211  1  0.33836548  0.28292729  0.16727841  1
  Ni  Ni212  1  0.40794074  0.70091516  0.33797724  1
  Ni  Ni213  1  0.79079741  0.54819193  0.32791470  1
  Ni  Ni214  1  0.28486038  0.50883603  0.89560494  1
