# generated using pymatgen
data_Ti108Co54Ni53
_symmetry_space_group_name_H-M   'P 1'
_cell_length_a   14.66127521
_cell_length_b   14.63857323
_cell_length_c   14.67155371
_cell_angle_alpha   90.05175922
_cell_angle_beta   90.05410540
_cell_angle_gamma   90.00233093
_symmetry_Int_Tables_number   1
_chemical_formula_structural   Ti108Co54Ni53
_chemical_formula_sum   'Ti108 Co54 Ni53'
_cell_volume   3148.80837556
_cell_formula_units_Z   1
loop_
 _symmetry_equiv_pos_site_id
 _symmetry_equiv_pos_as_xyz
  1  'x, y, z'
loop_
 _atom_site_type_symbol
 _atom_site_label
 _atom_site_symmetry_multiplicity
 _atom_site_fract_x
 _atom_site_fract_y
 _atom_site_fract_z
 _atom_site_occupancy
  Ti  Ti0  1  0.03163947  0.02457956  0.24637024  1
  Ti  Ti1  1  0.13157024  0.04777925  0.61711852  1
  Ti  Ti2  1  0.10126228  0.10684127  0.96878157  1
  Ti  Ti3  1  0.03956430  0.42828551  0.23707757  1
  Ti  Ti4  1  0.03571978  0.38585077  0.57570753  1
  Ti  Ti5  1  0.05374696  0.43604228  0.89048339  1
  Ti  Ti6  1  0.17660942  0.76483432  0.28992303  1
  Ti  Ti7  1  0.09623280  0.68680738  0.57424046  1
  Ti  Ti8  1  0.12064788  0.75955116  0.97405239  1
  Ti  Ti9  1  0.46499893  0.15182584  0.32973511  1
  Ti  Ti10  1  0.34886699  0.12841111  0.56452398  1
  Ti  Ti11  1  0.48193643  0.04159326  0.85524586  1
  Ti  Ti12  1  0.41549393  0.42571586  0.17506557  1
  Ti  Ti13  1  0.35086740  0.44733162  0.59274801  1
  Ti  Ti14  1  0.41265395  0.38440120  0.89992123  1
  Ti  Ti15  1  0.39430951  0.79898238  0.28709045  1
  Ti  Ti16  1  0.40820391  0.67695028  0.59437959  1
  Ti  Ti17  1  0.42079566  0.76137234  0.94188362  1
  Ti  Ti18  1  0.65026697  0.07722991  0.20133357  1
  Ti  Ti19  1  0.70101742  0.08620366  0.61750806  1
  Ti  Ti20  1  0.79874290  0.14267414  0.92916709  1
  Ti  Ti21  1  0.80288860  0.40630909  0.17241280  1
  Ti  Ti22  1  0.71132329  0.42154542  0.53717768  1
  Ti  Ti23  1  0.67610385  0.45512956  0.93915130  1
  Ti  Ti24  1  0.71600443  0.71326617  0.18626636  1
  Ti  Ti25  1  0.82221394  0.73064278  0.58610106  1
  Ti  Ti26  1  0.79593831  0.76599530  0.87506157  1
  Ti  Ti27  1  0.07504474  0.22243798  0.14550510  1
  Ti  Ti28  1  0.12632906  0.27356679  0.42845324  1
  Ti  Ti29  1  0.08719596  0.21791076  0.72478487  1
  Ti  Ti30  1  0.10873001  0.56786467  0.04543168  1
  Ti  Ti31  1  0.07453337  0.52206503  0.43407513  1
  Ti  Ti32  1  0.02275731  0.54004644  0.73017002  1
  Ti  Ti33  1  -0.00426063  0.89813862  0.04895448  1
  Ti  Ti34  1  0.10184948  0.94038578  0.42014902  1
  Ti  Ti35  1  0.03112452  0.92129829  0.87055970  1
  Ti  Ti36  1  0.46259679  0.26712315  0.05403551  1
  Ti  Ti37  1  0.35986983  0.30400644  0.33101652  1
  Ti  Ti38  1  0.41515460  0.21974679  0.75779584  1
  Ti  Ti39  1  0.43581135  0.60335058  0.08839031  1
  Ti  Ti40  1  0.43631246  0.58492878  0.30382951  1
  Ti  Ti41  1  0.43971506  0.52826894  0.76929208  1
  Ti  Ti42  1  0.43554447  0.93139319  0.12538926  1
  Ti  Ti43  1  0.39288026  0.98203282  0.39806164  1
  Ti  Ti44  1  0.37468565  0.89398556  0.80998384  1
  Ti  Ti45  1  0.79531658  0.19953293  0.14995483  1
  Ti  Ti46  1  0.69970814  0.23608466  0.45824506  1
  Ti  Ti47  1  0.62774664  0.18055274  0.77309135  1
  Ti  Ti48  1  0.78037045  0.56653709  0.09518745  1
  Ti  Ti49  1  0.77155879  0.58590447  0.44995275  1
  Ti  Ti50  1  0.73894410  0.64539755  0.74749929  1
  Ti  Ti51  1  0.78683992  0.92292929  0.15126145  1
  Ti  Ti52  1  0.70297572  0.83484000  0.43471642  1
  Ti  Ti53  1  0.72956050  0.87816381  0.71821035  1
  Ti  Ti54  1  0.29718859  0.06877370  0.06490010  1
  Ti  Ti55  1  0.24615770  0.12319319  0.35946311  1
  Ti  Ti56  1  0.27700019  0.08774029  0.86330939  1
  Ti  Ti57  1  0.16566528  0.38689926  0.08331290  1
  Ti  Ti58  1  0.31274609  0.46661399  0.38870547  1
  Ti  Ti59  1  0.23421795  0.47595249  0.78031599  1
  Ti  Ti60  1  0.27025483  0.84675487  0.06237474  1
  Ti  Ti61  1  0.26442807  0.78830256  0.48656992  1
  Ti  Ti62  1  0.25763702  0.76127058  0.69605971  1
  Ti  Ti63  1  0.54217831  0.07797913  0.02943993  1
  Ti  Ti64  1  0.60963021  0.05456827  0.41973220  1
  Ti  Ti65  1  0.54820841  -0.03308744  0.68203844  1
  Ti  Ti66  1  0.61546007  0.39304177  0.11356916  1
  Ti  Ti67  1  0.49665686  0.39288049  0.47437113  1
  Ti  Ti68  1  0.65263490  0.45800252  0.74080258  1
  Ti  Ti69  1  0.57591205  0.76720316  0.05189719  1
  Ti  Ti70  1  0.58853307  0.69109415  0.36402924  1
  Ti  Ti71  1  0.56296757  0.71502127  0.71695186  1
  Ti  Ti72  1  0.90791524  0.05419993  0.08312498  1
  Ti  Ti73  1  0.80588116  0.00458423  0.42789487  1
  Ti  Ti74  1  0.92368414  0.06411552  0.76176817  1
  Ti  Ti75  1  0.95683318  0.38020025  0.06174404  1
  Ti  Ti76  1  0.82406788  0.39523315  0.35926387  1
  Ti  Ti77  1  0.84605723  0.48413830  0.81460976  1
  Ti  Ti78  1  0.86226655  0.75918935  0.05901800  1
  Ti  Ti79  1  0.90396299  0.77252643  0.41038591  1
  Ti  Ti80  1  1.05718693  0.75808808  0.76971248  1
  Ti  Ti81  1  0.30691314  0.23298198  0.17093531  1
  Ti  Ti82  1  0.23459384  0.29112766  0.63423532  1
  Ti  Ti83  1  0.21393932  0.30489273  0.88014773  1
  Ti  Ti84  1  0.19983096  0.56582610  0.25699708  1
  Ti  Ti85  1  0.25830176  0.59046996  0.51704079  1
  Ti  Ti86  1  0.25243743  0.64488656  0.86980192  1
  Ti  Ti87  1  0.22198438  0.95346470  0.22493209  1
  Ti  Ti88  1  0.33109645  0.93366262  0.61197887  1
  Ti  Ti89  1  0.19578081  0.93654105  0.76718459  1
  Ti  Ti90  1  0.66362220  0.28765707  0.27058199  1
  Ti  Ti91  1  0.58419856  0.28636894  0.62372448  1
  Ti  Ti92  1  0.63284192  0.27042158  0.95017409  1
  Ti  Ti93  1  0.61095900  0.53007011  0.23382360  1
  Ti  Ti94  1  0.54644243  0.53150178  0.59734157  1
  Ti  Ti95  1  0.55733667  0.60636319  0.91367604  1
  Ti  Ti96  1  0.59684516  0.84793987  0.23520982  1
  Ti  Ti97  1  0.50754966  0.84109658  0.53345317  1
  Ti  Ti98  1  0.65132171  0.93577425  0.90187642  1
  Ti  Ti99  1  0.88544900  0.20857963  0.35747841  1
  Ti  Ti100  1  0.90609742  0.24928562  0.65276808  1
  Ti  Ti101  1  0.88205215  0.30990206  0.87239493  1
  Ti  Ti102  1  0.90687004  0.57057000  0.29814086  1
  Ti  Ti103  1  0.86756113  0.53472825  0.62070213  1
  Ti  Ti104  1  0.93036395  0.60360438  0.95741889  1
  Ti  Ti105  1  0.98271588  0.83567622  0.24546670  1
  Ti  Ti106  1  0.97791323  0.85198469  0.57823233  1
  Ti  Ti107  1  0.84003276  0.94221963  0.91723587  1
  Co  Co108  1  -0.04413193  0.68873006  0.65601117  1
  Co  Co109  1  0.89982948  0.64869769  0.80106678  1
  Co  Co110  1  0.11749297  0.37686357  0.73467928  1
  Co  Co111  1  0.07259444  0.62392727  0.87905306  1
  Co  Co112  1  -0.03960689  0.38330897  0.73600646  1
  Co  Co113  1  0.17448738  0.26883051  0.27037265  1
  Co  Co114  1  0.92516411  0.31762760  0.23435471  1
  Co  Co115  1  0.64396675  0.09801299  0.90814970  1
  Co  Co116  1  0.66537037  0.41011701  0.38172314  1
  Co  Co117  1  0.49757459  0.28577494  0.21931078  1
  Co  Co118  1  0.64949854  -0.04917741  0.54455957  1
  Co  Co119  1  -0.05399541  -0.05740918  0.37608347  1
  Co  Co120  1  0.74084421  0.25189364  0.61520594  1
  Co  Co121  1  0.41131817  0.76859269  0.12711341  1
  Co  Co122  1  0.30688823  0.59161568  0.68686515  1
  Co  Co123  1  0.54830763  0.27908584  0.37993834  1
  Co  Co124  1  0.61025176  0.57811468  0.07186653  1
  Co  Co125  1  0.55538578  0.34217886  0.81350678  1
  Co  Co126  1  0.49805224  0.20032120  -0.10495102  1
  Co  Co127  1  0.31978321  0.36327611  0.04334493  1
  Co  Co128  1  -0.04568296  0.05724629  -0.07393824  1
  Co  Co129  1  0.42675103  0.81765517  0.67533393  1
  Co  Co130  1  -0.00930677  0.36179608  0.39278269  1
  Co  Co131  1  0.30683158  0.65714895  0.36043491  1
  Co  Co132  1  0.88427317  0.70902375  0.21709526  1
  Co  Co133  1  0.20535897  0.40583629  0.50204425  1
  Co  Co134  1  0.84994114  0.02930398  0.26123339  1
  Co  Co135  1  0.68630553  -0.03625488  0.30899584  1
  Co  Co136  1  0.84393326  0.45965401  -0.01718213  1
  Co  Co137  1  0.06873862  0.79109157  0.44524171  1
  Co  Co138  1  0.10080579  0.06638440  0.80507871  1
  Co  Co139  1  0.43488607  0.73444019  0.42914012  1
  Co  Co140  1  0.59267631  0.53981810  0.42732397  1
  Co  Co141  1  0.18891067  0.11901325  0.20454396  1
  Co  Co142  1  0.73234910  0.03963609  0.04474761  1
  Co  Co143  1  0.74115914  0.13583445  0.32749663  1
  Co  Co144  1  0.38789697  0.56641522  0.92661731  1
  Co  Co145  1  0.35076643  -0.04865096  -0.03655587  1
  Co  Co146  1  0.25815601  0.80927837  0.88719360  1
  Co  Co147  1  0.71247642  0.68921090  0.00973319  1
  Co  Co148  1  0.15753276  0.65962300  0.41328490  1
  Co  Co149  1  0.74858541  0.54288516  0.29286807  1
  Co  Co150  1  0.72688640  0.84938843  0.01860026  1
  Co  Co151  1  0.95439491  0.64392367  0.49211488  1
  Co  Co152  1  0.15653996  0.41196477  0.34571474  1
  Co  Co153  1  0.23491380  0.12898600  0.70938682  1
  Co  Co154  1  0.40947226  0.28001920  0.59622297  1
  Co  Co155  1  0.49107050  0.40016671  0.67529696  1
  Co  Co156  1  0.75436139  0.59043933  0.89819414  1
  Co  Co157  1  0.43363020  0.56856839  0.46833437  1
  Co  Co158  1  -0.03986014  0.77727469  0.91376405  1
  Co  Co159  1  0.18213175  0.95578689  -0.05729790  1
  Co  Co160  1  0.50895218  0.42330582  0.31047835  1
  Co  Co161  1  0.50210282  0.90250626  -0.03759557  1
  Ni  Ni162  1  0.73679381  0.03245249  0.77930872  1
  Ni  Ni163  1  0.62862060  0.75170520  0.87867115  1
  Ni  Ni164  1  0.23107975  0.47773997  -0.04990103  1
  Ni  Ni165  1  0.46778357  0.13426711  0.16195888  1
  Ni  Ni166  1  0.02529893  0.68289195  0.32585394  1
  Ni  Ni167  1  0.53854814  0.88970979  0.38329655  1
  Ni  Ni168  1  0.49979948  0.45877247  0.01624758  1
  Ni  Ni169  1  0.15843192  0.62920216  0.73044014  1
  Ni  Ni170  1  0.21163634  0.21924973  0.03149459  1
  Ni  Ni171  1  0.69537660  0.60251348  0.59654677  1
  Ni  Ni172  1  0.11958453  0.00672194  0.09870935  1
  Ni  Ni173  1  0.53606169  -0.14350080  0.80196177  1
  Ni  Ni174  1  0.11908795  0.84404098  0.14408840  1
  Ni  Ni175  1  0.51122287  -0.00195255  0.26191097  1
  Ni  Ni176  1  0.15362708  0.86988615  0.59104940  1
  Ni  Ni177  1  0.48718797  0.01892024  0.53137574  1
  Ni  Ni178  1  0.66528685  0.78608968  0.59950449  1
  Ni  Ni179  1  -0.00082735  0.19683188  0.85720383  1
  Ni  Ni180  1  0.03474586  -0.06215310  0.70578602  1
  Ni  Ni181  1  0.34942079  0.05577226  0.23709867  1
  Ni  Ni182  1  0.89751602  0.82775909  0.74590053  1
  Ni  Ni183  1  0.24093216  0.00232924  0.49183379  1
  Ni  Ni184  1  0.62368120  0.22143328  0.11530837  1
  Ni  Ni185  1  0.80723147  0.38741079  0.67531791  1
  Ni  Ni186  1  0.52200951  0.18117514  0.50135031  1
  Ni  Ni187  1  0.92774355  0.21246523  0.01926485  1
  Ni  Ni188  1  0.25935486  0.40380787  0.21977717  1
  Ni  Ni189  1  0.77851632  0.31119564  0.02342773  1
  Ni  Ni190  1  0.37517847  0.04862094  0.72304754  1
  Ni  Ni191  1  0.79818450  0.18300809  0.75653615  1
  Ni  Ni192  1  0.29585422  0.67968579  0.02559704  1
  Ni  Ni193  1  0.01601066  0.71113114  0.10407266  1
  Ni  Ni194  1  0.53767355  0.68659077  0.20049879  1
  Ni  Ni195  1  0.51058765  0.12879112  0.65454578  1
  Ni  Ni196  1  0.76580053  0.70643107  0.33981175  1
  Ni  Ni197  1  0.34590791  0.36346307  0.74223744  1
  Ni  Ni198  1  0.81527338  0.86076799  0.29886561  1
  Ni  Ni199  1  0.40430609  0.69406917  0.79014940  1
  Ni  Ni200  1  0.72498654  0.32362821  0.81039405  1
  Ni  Ni201  1  0.15718698  0.50115802  0.62161486  1
  Ni  Ni202  1  0.86276921  0.32505761  0.50897759  1
  Ni  Ni203  1  0.18083996  0.68866609  0.13602769  1
  Ni  Ni204  1  0.06964967  0.28952381  -0.02465480  1
  Ni  Ni205  1  -0.08525932  0.48260683  0.47265899  1
  Ni  Ni206  1  0.60613647  0.93640087  0.09330896  1
  Ni  Ni207  1  -0.05712138  0.15938963  0.20968164  1
  Ni  Ni208  1  0.56554909  0.67966731  0.52385706  1
  Ni  Ni209  1  -0.04731896  0.55384137  0.13124418  1
  Ni  Ni210  1  0.80542739  -0.10408605  0.56381280  1
  Ni  Ni211  1  0.27313254  0.53068422  0.10517301  1
  Ni  Ni212  1  0.29393899  0.26312135  0.47531910  1
  Ni  Ni213  1  0.25945744  0.89672694  0.36784380  1
  Ni  Ni214  1  0.34418160  0.22182717  0.94276106  1
