# generated using pymatgen
data_Ti108Co54Ni53
_symmetry_space_group_name_H-M   'P 1'
_cell_length_a   14.66204271
_cell_length_b   14.59460861
_cell_length_c   14.67700979
_cell_angle_alpha   90.06388362
_cell_angle_beta   90.35492583
_cell_angle_gamma   90.08114872
_symmetry_Int_Tables_number   1
_chemical_formula_structural   Ti108Co54Ni53
_chemical_formula_sum   'Ti108 Co54 Ni53'
_cell_volume   3140.62059705
_cell_formula_units_Z   1
loop_
 _symmetry_equiv_pos_site_id
 _symmetry_equiv_pos_as_xyz
  1  'x, y, z'
loop_
 _atom_site_type_symbol
 _atom_site_label
 _atom_site_symmetry_multiplicity
 _atom_site_fract_x
 _atom_site_fract_y
 _atom_site_fract_z
 _atom_site_occupancy
  Ti  Ti0  1  0.13161638  0.11696715  0.22740743  1
  Ti  Ti1  1  0.09150042  0.12362648  0.55758561  1
  Ti  Ti2  1  0.08483273  0.06559071  0.90512628  1
  Ti  Ti3  1  0.07463536  0.43136295  0.20061097  1
  Ti  Ti4  1  0.07642870  0.33004905  0.57905860  1
  Ti  Ti5  1  0.08845942  0.42779663  0.89350880  1
  Ti  Ti6  1  0.12069274  0.80241792  0.13425986  1
  Ti  Ti7  1  0.11730738  0.81837123  0.60569983  1
  Ti  Ti8  1  0.12939753  0.87094547  0.94012692  1
  Ti  Ti9  1  0.42050991  0.10278392  0.23461206  1
  Ti  Ti10  1  0.37155149  0.02856209  0.54194416  1
  Ti  Ti11  1  0.42040398  0.07005778  0.92611847  1
  Ti  Ti12  1  0.50091193  0.39291733  0.36296921  1
  Ti  Ti13  1  0.41768012  0.42156630  0.54251475  1
  Ti  Ti14  1  0.39412229  0.42728595  0.99377064  1
  Ti  Ti15  1  0.35977172  0.70876366  0.28124053  1
  Ti  Ti16  1  0.46165528  0.74673910  0.45776267  1
  Ti  Ti17  1  0.47492511  0.75923266  0.94631303  1
  Ti  Ti18  1  0.74842557  0.11880129  0.15469180  1
  Ti  Ti19  1  0.76749886  0.10938314  0.58618176  1
  Ti  Ti20  1  0.72365080  0.08855844  0.91945034  1
  Ti  Ti21  1  0.66266653  0.40720739  0.26479221  1
  Ti  Ti22  1  0.66933283  0.46409720  0.62638005  1
  Ti  Ti23  1  0.75719927  0.28970717  0.89970382  1
  Ti  Ti24  1  0.77263748  0.74438120  0.25946667  1
  Ti  Ti25  1  0.70577840  0.66948599  0.60911680  1
  Ti  Ti26  1  0.80914902  0.77015346  0.93304956  1
  Ti  Ti27  1  0.07216457  0.30007445  0.06084269  1
  Ti  Ti28  1  0.09329938  0.31579068  0.35916777  1
  Ti  Ti29  1  0.10190001  0.26005526  0.76371866  1
  Ti  Ti30  1  0.11470222  0.59205780  0.07072635  1
  Ti  Ti31  1  0.11477386  0.58627788  0.48166046  1
  Ti  Ti32  1  0.07060813  0.54915957  0.69615715  1
  Ti  Ti33  1  0.06494595  0.98833859  0.09734026  1
  Ti  Ti34  1  0.05681721  0.93832547  0.38678078  1
  Ti  Ti35  1  0.01812301  0.90585250  0.78917505  1
  Ti  Ti36  1  0.36122519  0.30695403  0.16847628  1
  Ti  Ti37  1  0.44848624  0.21129620  0.49206725  1
  Ti  Ti38  1  0.41119968  0.21801114  0.78382494  1
  Ti  Ti39  1  0.36510074  0.61510362  0.07410400  1
  Ti  Ti40  1  0.42415620  0.57040131  0.41225833  1
  Ti  Ti41  1  0.37768479  0.50738474  0.81620505  1
  Ti  Ti42  1  0.39488476  0.83461869  0.12542263  1
  Ti  Ti43  1  0.38036116  0.90541455  0.34976635  1
  Ti  Ti44  1  0.48773547  0.93828288  0.67354594  1
  Ti  Ti45  1  0.69012741  0.30528874  0.08072908  1
  Ti  Ti46  1  0.78913244  0.23365613  0.40979822  1
  Ti  Ti47  1  0.76059759  0.29141923  0.71073206  1
  Ti  Ti48  1  0.73691346  0.60018257  -0.08644206  1
  Ti  Ti49  1  0.74589967  0.61769629  0.40686949  1
  Ti  Ti50  1  0.79232454  0.47086363  0.78829876  1
  Ti  Ti51  1  0.71018484  0.93223036  0.05055489  1
  Ti  Ti52  1  0.72936176  1.05577124  0.37870892  1
  Ti  Ti53  1  0.71003680  0.94512696  0.73768557  1
  Ti  Ti54  1  0.25254387  0.05104419  0.00666856  1
  Ti  Ti55  1  0.22668769  0.01487990  0.39327253  1
  Ti  Ti56  1  0.24759565  0.09434301  0.69277809  1
  Ti  Ti57  1  0.21987918  0.43174897  0.07022622  1
  Ti  Ti58  1  0.28728796  0.40571159  0.34158210  1
  Ti  Ti59  1  0.27452588  0.37378984  0.71931063  1
  Ti  Ti60  1  0.24386225  0.72780884  -0.01997841  1
  Ti  Ti61  1  0.27335915  0.71303114  0.50634756  1
  Ti  Ti62  1  0.28171025  0.69899336  0.77266671  1
  Ti  Ti63  1  0.55485954  0.06221336  0.09835909  1
  Ti  Ti64  1  0.53458639  0.02189123  0.38491259  1
  Ti  Ti65  1  0.55961661  0.07568718  0.79505123  1
  Ti  Ti66  1  0.66925400  0.50946211  0.08495518  1
  Ti  Ti67  1  0.71132860  0.42488067  0.45243620  1
  Ti  Ti68  1  0.59481197  0.40474183  0.78709721  1
  Ti  Ti69  1  0.65078281  0.71125890  0.05222721  1
  Ti  Ti70  1  0.62078392  0.83270570  0.37672498  1
  Ti  Ti71  1  0.57088835  0.77109905  0.73246124  1
  Ti  Ti72  1  0.94775313  0.13116740  0.12066718  1
  Ti  Ti73  1  0.92017234  0.06778844  0.45104359  1
  Ti  Ti74  1  0.87558744  0.06448908  0.79104646  1
  Ti  Ti75  1  0.89045784  0.32620804  0.07145266  1
  Ti  Ti76  1  0.91723405  0.40624536  0.45491031  1
  Ti  Ti77  1  0.94663301  0.38365251  0.71604611  1
  Ti  Ti78  1  0.93971677  0.71884229  0.11380215  1
  Ti  Ti79  1  0.90243388  0.82434285  0.47119078  1
  Ti  Ti80  1  0.89937110  0.75695291  0.69013255  1
  Ti  Ti81  1  0.25283582  0.20631214  0.33172533  1
  Ti  Ti82  1  0.25994951  0.32009838  0.50828937  1
  Ti  Ti83  1  0.25882970  0.25161381  1.01043457  1
  Ti  Ti84  1  0.26450096  0.54027566  0.22692449  1
  Ti  Ti85  1  0.32863984  0.56648021  0.63474340  1
  Ti  Ti86  1  0.10806142  0.64369001  0.86740525  1
  Ti  Ti87  1  0.27469471  0.99029718  0.20127695  1
  Ti  Ti88  1  0.28230544  0.89288120  0.68619115  1
  Ti  Ti89  1  0.32647749  0.89338740  0.89659107  1
  Ti  Ti90  1  0.55263356  0.24691970  0.20298272  1
  Ti  Ti91  1  0.57356309  0.23679234  0.65715224  1
  Ti  Ti92  1  0.55559463  0.21732913  0.96520503  1
  Ti  Ti93  1  0.50996155  0.56341711  0.22955539  1
  Ti  Ti94  1  0.51595993  0.59852326  0.62820640  1
  Ti  Ti95  1  0.54065357  0.55594624  0.90618697  1
  Ti  Ti96  1  0.67287473  0.94694798  0.23065724  1
  Ti  Ti97  1  0.64460113  0.94290968  0.53786567  1
  Ti  Ti98  1  0.63619961  0.86815791  0.89444278  1
  Ti  Ti99  1  0.88763520  0.33251316  0.27673190  1
  Ti  Ti100  1  0.90305933  0.24574105  0.56891187  1
  Ti  Ti101  1  0.95498271  0.22326012  0.90715706  1
  Ti  Ti102  1  0.89670359  0.53633046  0.17222533  1
  Ti  Ti103  1  0.87749719  0.56179680  0.64005569  1
  Ti  Ti104  1  0.93162678  0.59411121  0.95918129  1
  Ti  Ti105  1  0.87198849  0.97373066  0.25055526  1
  Ti  Ti106  1  0.89128204  0.94606188  0.63977588  1
  Ti  Ti107  1  0.94285816  0.88929995  0.98586126  1
  Co  Co108  1  0.71682539  0.58331637  0.22551591  1
  Co  Co109  1  -0.07336817  0.05581294  -0.05396535  1
  Co  Co110  1  0.60722581  0.68682831  0.29903366  1
  Co  Co111  1  0.73094428  0.77691237  0.47339204  1
  Co  Co112  1  0.24164051  0.38036459  0.88986254  1
  Co  Co113  1  0.12756939  0.23790349  -0.08527527  1
  Co  Co114  1  0.25592984  0.83124040  0.22809508  1
  Co  Co115  1  0.52481073  0.17909451  0.35625655  1
  Co  Co116  1  0.21021430  0.24162788  0.64255060  1
  Co  Co117  1  0.94856587  0.09474761  0.62981466  1
  Co  Co118  1  0.22059696  0.84592028  0.37886455  1
  Co  Co119  1  -0.00045516  0.06566425  0.29512833  1
  Co  Co120  1  0.05267244  0.72614506  -0.00196779  1
  Co  Co121  1  -0.03904713  0.23021181  0.41384995  1
  Co  Co122  1  0.00723464  0.48337867  0.56319827  1
  Co  Co123  1  0.82469827  0.41158256  0.59973393  1
  Co  Co124  1  0.78168406  0.88392332  0.35631224  1
  Co  Co125  1  0.56225544  0.50408128  0.50278773  1
  Co  Co126  1  0.10457726  0.14303806  0.39840537  1
  Co  Co127  1  0.61474522  0.70258882  -0.11981094  1
  Co  Co128  1  0.17742460  0.82061698  0.79462505  1
  Co  Co129  1  0.49677266  -0.04516609  0.21631910  1
  Co  Co130  1  0.51057780  0.54529737  0.06291438  1
  Co  Co131  1  0.38805888  0.46518802  0.15847290  1
  Co  Co132  1  0.13677345  0.42494784  0.46702597  1
  Co  Co133  1  0.37371480  0.10079422  0.38935506  1
  Co  Co134  1  0.37362266  0.02364317  0.76928331  1
  Co  Co135  1  0.18243066  0.65359470  0.63825190  1
  Co  Co136  1  0.19206307  0.47393099  0.61314522  1
  Co  Co137  1  0.44969930  0.41915308  0.69679857  1
  Co  Co138  1  0.61335611  0.09713355  0.25210410  1
  Co  Co139  1  0.79877027  0.64287227  0.07628110  1
  Co  Co140  1  0.85832702  -0.00444117  0.07891179  1
  Co  Co141  1  0.03515986  0.11392319  0.76787870  1
  Co  Co142  1  0.37039595  0.64027715  -0.08532287  1
  Co  Co143  1  0.18389801  0.29835040  0.19168697  1
  Co  Co144  1  0.58380057  0.01688986  -0.04926980  1
  Co  Co145  1  0.39822028  -0.00923613  0.07527096  1
  Co  Co146  1  0.39533679  0.24978368  -0.05634929  1
  Co  Co147  1  0.27259845  0.15620255  0.14942816  1
  Co  Co148  1  0.45957881  0.65311424  0.77573693  1
  Co  Co149  1  0.54326542  0.88026830  0.05318204  1
  Co  Co150  1  0.61154800  0.23820619  0.81811272  1
  Co  Co151  1  0.12414357  -0.06547313  0.24583166  1
  Co  Co152  1  0.49285058  -0.07474608  0.84794961  1
  Co  Co153  1  0.42091363  0.16221553  0.07715769  1
  Co  Co154  1  0.46087078  0.36025033  0.85333229  1
  Co  Co155  1  0.45312423  0.11478996  0.65294655  1
  Co  Co156  1  0.53786126  0.40425499  0.15625423  1
  Co  Co157  1  0.59628217  0.65914466  0.46929203  1
  Co  Co158  1  0.14691385  0.50470460  0.33237236  1
  Co  Co159  1  0.72997330  0.25027381  0.24650330  1
  Co  Co160  1  0.60930394  0.53737232  0.35645253  1
  Co  Co161  1  0.20789785  -0.01647502  0.82443758  1
  Ni  Ni162  1  0.40320651  0.74035308  0.62456239  1
  Ni  Ni163  1  0.02559732  0.95015990  0.54951030  1
  Ni  Ni164  1  -0.03712159  0.87651761  0.16385219  1
  Ni  Ni165  1  0.78859585  0.41468284  0.16736082  1
  Ni  Ni166  1  0.23443515  0.64480967  0.36179718  1
  Ni  Ni167  1  -0.00074217  0.45724260  0.04059000  1
  Ni  Ni168  1  0.50307794  0.70556253  0.13086087  1
  Ni  Ni169  1  0.49255344  0.80060445  0.27284482  1
  Ni  Ni170  1  0.56510630  0.33954293  0.52509267  1
  Ni  Ni171  1  0.24926509  0.89186983  0.06175131  1
  Ni  Ni172  1  0.23324908  0.54663668  -0.05571523  1
  Ni  Ni173  1  0.85180013  0.64211397  0.80005817  1
  Ni  Ni174  1  0.72074518  0.13147324  0.75079689  1
  Ni  Ni175  1  0.73451798  0.75781269  0.77601081  1
  Ni  Ni176  1  -0.03519535  0.75977315  0.86444697  1
  Ni  Ni177  1  0.12123799  0.14467580  0.05898028  1
  Ni  Ni178  1  0.81563451  0.48411798  0.32160582  1
  Ni  Ni179  1  0.90681775  0.38526391  0.89708346  1
  Ni  Ni180  1  0.82105304  0.17817706  0.01700006  1
  Ni  Ni181  1  0.62409068  0.14929352  0.49093698  1
  Ni  Ni182  1  0.80613135  -0.05867285  0.89633400  1
  Ni  Ni183  1  0.21322238  0.52546793  0.77850590  1
  Ni  Ni184  1  0.82635396  0.47494456  0.01356724  1
  Ni  Ni185  1  0.48368188  -0.09455461  0.49797121  1
  Ni  Ni186  1  0.26756587  0.14210392  0.85716107  1
  Ni  Ni187  1  -0.01672842  0.48475730  0.32573860  1
  Ni  Ni188  1  0.27642142  0.51908161  0.47318214  1
  Ni  Ni189  1  0.69010858  0.44030180  0.92447405  1
  Ni  Ni190  1  0.79893613  -0.05046310  0.50257164  1
  Ni  Ni191  1  0.85379409  0.68060240  0.52800829  1
  Ni  Ni192  1  0.71686011  0.28168052  0.55277758  1
  Ni  Ni193  1  0.38091657  0.26970696  0.63042768  1
  Ni  Ni194  1  0.19665137  -0.02258623  0.55450162  1
  Ni  Ni195  1  0.10322825  -0.00469395  0.68613757  1
  Ni  Ni196  1  0.55673670  0.38405687  -0.00654649  1
  Ni  Ni197  1  0.31785296  0.86982676  0.51304343  1
  Ni  Ni198  1  0.80423802  0.81982655  0.11656207  1
  Ni  Ni199  1  0.58566153  0.78956418  0.56934624  1
  Ni  Ni200  1  0.01690134  0.24461051  0.22590872  1
  Ni  Ni201  1  0.62955679  0.80321365  0.18207206  1
  Ni  Ni202  1  0.75865052  0.83211786  0.62393898  1
  Ni  Ni203  1  0.01093323  0.67683040  0.58104311  1
  Ni  Ni204  1  0.61103279  0.06566695  0.63837714  1
  Ni  Ni205  1  0.25507121  0.14699994  0.50791591  1
  Ni  Ni206  1  0.63617143  0.28464324  0.38521014  1
  Ni  Ni207  1  0.39982165  0.26905348  0.32689288  1
  Ni  Ni208  1  -0.04142873  0.52127603  0.81397140  1
  Ni  Ni209  1  0.40904807  0.81165874  0.77237535  1
  Ni  Ni210  1  -0.08867884  0.22078160  0.73949636  1
  Ni  Ni211  1  0.05958099  0.72613575  0.73147835  1
  Ni  Ni212  1  0.23934921  0.68844867  0.15528680  1
  Ni  Ni213  1  0.86364863  0.15106269  0.28260606  1
  Ni  Ni214  1  0.65075333  0.59091028  0.75342800  1
