# generated using pymatgen
data_Ti108Co54Ni53
_symmetry_space_group_name_H-M   'P 1'
_cell_length_a   14.63746460
_cell_length_b   14.60612300
_cell_length_c   14.61839286
_cell_angle_alpha   89.91219864
_cell_angle_beta   90.01803233
_cell_angle_gamma   89.94049369
_symmetry_Int_Tables_number   1
_chemical_formula_structural   Ti108Co54Ni53
_chemical_formula_sum   'Ti108 Co54 Ni53'
_cell_volume   3125.35729972
_cell_formula_units_Z   1
loop_
 _symmetry_equiv_pos_site_id
 _symmetry_equiv_pos_as_xyz
  1  'x, y, z'
loop_
 _atom_site_type_symbol
 _atom_site_label
 _atom_site_symmetry_multiplicity
 _atom_site_fract_x
 _atom_site_fract_y
 _atom_site_fract_z
 _atom_site_occupancy
  Ti  Ti0  1  0.08326161  0.05712490  0.27052288  1
  Ti  Ti1  1  0.13961918  0.05774453  0.57091681  1
  Ti  Ti2  1  0.08574133  0.02577464  0.86686278  1
  Ti  Ti3  1  0.12642603  0.39694552  0.25697887  1
  Ti  Ti4  1  0.08597232  0.37483488  0.59872876  1
  Ti  Ti5  1  0.11796520  0.41096949  0.91025936  1
  Ti  Ti6  1  0.07445917  0.69359317  0.23067291  1
  Ti  Ti7  1  0.13072951  0.75329921  0.56764132  1
  Ti  Ti8  1  0.08650831  0.77575157  0.83764144  1
  Ti  Ti9  1  0.48139264  0.10098099  0.26126054  1
  Ti  Ti10  1  0.35093013  0.10117148  0.54072500  1
  Ti  Ti11  1  0.44962288  0.10252093  0.95432808  1
  Ti  Ti12  1  0.36886008  0.42660371  0.23261342  1
  Ti  Ti13  1  0.41132797  0.42033482  0.66414029  1
  Ti  Ti14  1  0.45527698  0.38330229  0.92029822  1
  Ti  Ti15  1  0.40980577  0.73461164  0.33023357  1
  Ti  Ti16  1  0.33234485  0.71334553  0.54488429  1
  Ti  Ti17  1  0.40164275  0.78666462  0.93300728  1
  Ti  Ti18  1  0.82935720  0.09314057  0.24178416  1
  Ti  Ti19  1  0.79196801  0.15352629  0.56475691  1
  Ti  Ti20  1  0.71891247  0.07453409  0.95872510  1
  Ti  Ti21  1  0.68186178  0.47562126  0.22633319  1
  Ti  Ti22  1  0.76070141  0.41520739  0.64437946  1
  Ti  Ti23  1  0.71054692  0.47048255  0.94046714  1
  Ti  Ti24  1  0.72145323  0.81635451  0.28536954  1
  Ti  Ti25  1  0.80557481  0.78421259  0.59735567  1
  Ti  Ti26  1  0.82815296  0.77125444  0.96374800  1
  Ti  Ti27  1  0.08546372  0.26384481  0.09363712  1
  Ti  Ti28  1  0.12134333  0.23256939  0.42297979  1
  Ti  Ti29  1  0.02012753  0.22261053  0.75169670  1
  Ti  Ti30  1  0.03350161  0.54880071  0.02425010  1
  Ti  Ti31  1  0.06583744  0.56402920  0.36977769  1
  Ti  Ti32  1  0.08577282  0.58907944  0.67281125  1
  Ti  Ti33  1  0.05967613  0.96922238  0.08964860  1
  Ti  Ti34  1  0.08179369  0.89756898  0.41054770  1
  Ti  Ti35  1  0.14715907  0.90245312  0.71122842  1
  Ti  Ti36  1  0.42782344  0.27831041  0.11023371  1
  Ti  Ti37  1  0.40471069  0.28977558  0.47877607  1
  Ti  Ti38  1  0.41742207  0.13590908  0.72374137  1
  Ti  Ti39  1  0.47314670  0.65814458  0.09692848  1
  Ti  Ti40  1  0.47204617  0.56758765  0.38319438  1
  Ti  Ti41  1  0.41736925  0.62649921  0.73651962  1
  Ti  Ti42  1  0.35808504  0.92737595  0.09305473  1
  Ti  Ti43  1  0.43451022  0.95898409  0.40210332  1
  Ti  Ti44  1  0.36552561  0.90678354  0.73234242  1
  Ti  Ti45  1  0.74260075  0.20943065  0.11094843  1
  Ti  Ti46  1  0.71723313  0.18172910  0.39615703  1
  Ti  Ti47  1  0.67446743  0.22534500  0.69422211  1
  Ti  Ti48  1  0.79031607  0.57134366  0.09603337  1
  Ti  Ti49  1  0.74814234  0.52294947  0.39371682  1
  Ti  Ti50  1  0.84534623  0.60471990  0.67356780  1
  Ti  Ti51  1  0.73479973  0.90993063  0.06158660  1
  Ti  Ti52  1  0.75971872  0.98805573  0.39264359  1
  Ti  Ti53  1  0.73607806  0.90752886  0.74300341  1
  Ti  Ti54  1  0.25844190  0.07198912  -0.00556477  1
  Ti  Ti55  1  0.23564398  0.02735499  0.39557539  1
  Ti  Ti56  1  0.19744603  0.13415324  0.74638949  1
  Ti  Ti57  1  0.29927749  0.41843168  0.04237093  1
  Ti  Ti58  1  0.33700209  0.45167241  0.42377941  1
  Ti  Ti59  1  0.23019912  0.46600288  0.76276914  1
  Ti  Ti60  1  0.20542557  0.78040114  0.13515292  1
  Ti  Ti61  1  0.19845184  0.74303039  0.37371378  1
  Ti  Ti62  1  0.25684640  0.67157685  0.81891505  1
  Ti  Ti63  1  0.53074115  0.01848599  0.09589173  1
  Ti  Ti64  1  0.51716888  0.15024615  0.43415994  1
  Ti  Ti65  1  0.59500375  0.08046705  0.80724203  1
  Ti  Ti66  1  0.61318794  0.38612389  0.07358836  1
  Ti  Ti67  1  0.56220334  0.41454530  0.36592220  1
  Ti  Ti68  1  0.61390806  0.37224322  0.81236165  1
  Ti  Ti69  1  0.63594245  0.73033613  0.00583359  1
  Ti  Ti70  1  0.62188103  0.67183267  0.40410495  1
  Ti  Ti71  1  0.63744014  0.58791025  0.75046424  1
  Ti  Ti72  1  0.94796160  0.11005178  -0.00688895  1
  Ti  Ti73  1  0.91198270  0.15291525  0.41049120  1
  Ti  Ti74  1  0.86576369  0.03590842  0.69025702  1
  Ti  Ti75  1  0.95346680  0.41111273  0.14767355  1
  Ti  Ti76  1  0.90076868  0.45919614  0.47438493  1
  Ti  Ti77  1  0.91617164  0.42577556  0.84856080  1
  Ti  Ti78  1  0.94110969  0.69789764  0.09723201  1
  Ti  Ti79  1  0.87681532  0.81819448  0.40763506  1
  Ti  Ti80  1  0.88551622  0.76081687  0.79045116  1
  Ti  Ti81  1  0.30721545  0.19415872  0.24379833  1
  Ti  Ti82  1  0.28381047  0.27142533  0.63911365  1
  Ti  Ti83  1  0.20368525  0.24956329  0.91256517  1
  Ti  Ti84  1  0.24199888  0.57153111  0.26652464  1
  Ti  Ti85  1  0.23790942  0.47452172  0.57654777  1
  Ti  Ti86  1  0.23755153  0.56340683  0.96396632  1
  Ti  Ti87  1  0.29063278  0.87915244  0.27807753  1
  Ti  Ti88  1  0.25525521  0.90369781  0.54827499  1
  Ti  Ti89  1  0.19899028  0.88188074  0.97299728  1
  Ti  Ti90  1  0.63087603  0.27611027  0.25853275  1
  Ti  Ti91  1  0.61098344  0.29647014  0.52539736  1
  Ti  Ti92  1  0.58248419  0.22609822  0.98112886  1
  Ti  Ti93  1  0.65435838  0.65701663  0.20546830  1
  Ti  Ti94  1  0.54137815  0.56697698  0.58060782  1
  Ti  Ti95  1  0.54200791  0.55858399  0.92436961  1
  Ti  Ti96  1  0.61013543  0.94806093  0.24834377  1
  Ti  Ti97  1  0.62094973  0.91472467  0.53913188  1
  Ti  Ti98  1  0.55738422  0.91841424  0.94020572  1
  Ti  Ti99  1  0.97539910  0.25920464  0.27212493  1
  Ti  Ti100  1  0.93355918  0.28943153  0.55489721  1
  Ti  Ti101  1  0.85083180  0.23396118  0.89094784  1
  Ti  Ti102  1  0.90431396  0.57263621  0.26394580  1
  Ti  Ti103  1  0.95883653  0.64866148  0.51925971  1
  Ti  Ti104  1  0.86034526  0.58703455  0.92191852  1
  Ti  Ti105  1  0.88549416  0.90640249  0.21801020  1
  Ti  Ti106  1  0.94183308  0.97793981  0.52081901  1
  Ti  Ti107  1  0.86074277  0.95551275  0.89834590  1
  Co  Co108  1  0.30064574  0.70714684  0.03065910  1
  Co  Co109  1  0.90858752  0.88003698  0.05848190  1
  Co  Co110  1  0.90970303  0.88207650  0.65696732  1
  Co  Co111  1  0.34300885  0.57203642  0.13353416  1
  Co  Co112  1  0.81510554  0.25014659  0.26714792  1
  Co  Co113  1  0.37619292  0.10827541  0.11268851  1
  Co  Co114  1  0.85112996  0.20494314  0.71322071  1
  Co  Co115  1  0.35977608  -0.05548101  -0.07289382  1
  Co  Co116  1  0.63402757  0.82386748  0.13917554  1
  Co  Co117  1  0.07630121  0.77319240  0.02991224  1
  Co  Co118  1  0.13135888  0.42856078  0.07690618  1
  Co  Co119  1  0.67512644  0.04568362  0.66881529  1
  Co  Co120  1  -0.02350099  0.90680922  0.79403023  1
  Co  Co121  1  0.02008887  -0.10095587  -0.05400305  1
  Co  Co122  1  0.23558827  0.31601071  0.49681829  1
  Co  Co123  1  0.59161807  0.01118906  0.39729054  1
  Co  Co124  1  0.37004099  0.76466753  0.16995662  1
  Co  Co125  1  0.77360619  0.34150015  0.79902351  1
  Co  Co126  1  0.01973736  0.83124029  0.16779025  1
  Co  Co127  1  -0.07727639  0.34310244  0.70997382  1
  Co  Co128  1  0.05833377  0.53492329  0.19493776  1
  Co  Co129  1  0.74166968  0.31036250  -0.01734066  1
  Co  Co130  1  0.77851558  0.31807071  0.51402087  1
  Co  Co131  1  0.26050285  0.83273989  0.83549472  1
  Co  Co132  1  -0.00962667  0.72742461  0.67328392  1
  Co  Co133  1  0.24433383  -0.00535772  0.82657206  1
  Co  Co134  1  0.49020920  0.42910639  0.50923612  1
  Co  Co135  1  0.90902826  0.74746804  0.25994416  1
  Co  Co136  1  0.30564847  0.17874422  0.40686548  1
  Co  Co137  1  0.62104338  0.55705981  0.07240041  1
  Co  Co138  1  0.05497633  0.50774153  0.52098555  1
  Co  Co139  1  0.32862536  0.84287319  0.43375355  1
  Co  Co140  1  0.38234301  0.55778617  0.55017927  1
  Co  Co141  1  0.76558572  0.08933861  0.80411696  1
  Co  Co142  1  0.26762095  0.61130237  0.66217120  1
  Co  Co143  1  0.70591767  0.85987913  0.89396755  1
  Co  Co144  1  0.94130595  0.48134599  0.63405922  1
  Co  Co145  1  -0.01413208  0.81618370  0.53346408  1
  Co  Co146  1  0.50937542  0.49232138  0.76660478  1
  Co  Co147  1  0.68276088  0.21818882  0.85943919  1
  Co  Co148  1  -0.04202596  0.58424696  0.78720070  1
  Co  Co149  1  0.58362632  0.40111819  0.65188912  1
  Co  Co150  1  0.53766566  0.75594741  0.24317565  1
  Co  Co151  1  0.02151963  0.36563381  0.40645139  1
  Co  Co152  1  0.65061325  0.09153208  0.52171499  1
  Co  Co153  1  -0.06935689  -0.00699292  0.35279237  1
  Co  Co154  1  0.32327314  0.13377149  0.85358270  1
  Co  Co155  1  0.28041849  0.02705752  0.66272187  1
  Co  Co156  1  0.52149485  0.38808263  0.20648737  1
  Co  Co157  1  0.45940190  -0.00275001  0.82263332  1
  Co  Co158  1  0.31188648  0.61694271  0.40502534  1
  Co  Co159  1  0.51622164  0.55347933  0.22486192  1
  Co  Co160  1  0.45589837  -0.09381497  0.23082316  1
  Co  Co161  1  0.65266003  0.11242121  0.27005872  1
  Ni  Ni162  1  0.78736819  0.75389099  0.13535514  1
  Ni  Ni163  1  0.10983804  0.13072994  0.00551814  1
  Ni  Ni164  1  0.17996858  0.61225926  0.49925983  1
  Ni  Ni165  1  0.56126549  0.83982096  0.38706098  1
  Ni  Ni166  1  0.11127601  0.57949307  0.84784995  1
  Ni  Ni167  1  0.26085881  0.32747392  0.33383297  1
  Ni  Ni168  1  0.17033067  0.44909895  0.41532813  1
  Ni  Ni169  1  0.90116540  0.25483906  0.09640576  1
  Ni  Ni170  1  0.39401755  0.62037896  0.92936715  1
  Ni  Ni171  1  0.71109590  0.64699574  -0.11062606  1
  Ni  Ni172  1  0.18218087  0.59894095  0.11218835  1
  Ni  Ni173  1  0.46438469  0.47476857  0.07046391  1
  Ni  Ni174  1  -0.02438481  0.13289486  0.58299015  1
  Ni  Ni175  1  0.14071598  0.21647019  0.24840287  1
  Ni  Ni176  1  0.36376487  0.48940660  0.84201359  1
  Ni  Ni177  1  0.49742637  0.02061659  0.55701848  1
  Ni  Ni178  1  -0.01423519  0.12172902  0.15622923  1
  Ni  Ni179  1  0.13321668  0.89399156  0.25498084  1
  Ni  Ni180  1  0.69634887  0.61701286  0.59557191  1
  Ni  Ni181  1  0.16468799  0.31109457  0.75621016  1
  Ni  Ni182  1  -0.06355804  0.09751261  0.82347212  1
  Ni  Ni183  1  0.68513564  0.05782369  0.12368389  1
  Ni  Ni184  1  0.21633043  -0.00121586  0.14711709  1
  Ni  Ni185  1  0.36350113  0.25148894  -0.04060155  1
  Ni  Ni186  1  -0.01244744  0.34481631  -0.01604903  1
  Ni  Ni187  1  0.85611266  0.43323280  0.01456704  1
  Ni  Ni188  1  -0.00972669  0.68172482  -0.07409234  1
  Ni  Ni189  1  0.84782979  0.03241986  0.09062746  1
  Ni  Ni190  1  0.71350150  0.80197074  0.45570052  1
  Ni  Ni191  1  0.02640872  0.73422165  0.39069479  1
  Ni  Ni192  1  0.56274077  0.18642228  0.13927185  1
  Ni  Ni193  1  0.25741683  0.77591881  0.68159750  1
  Ni  Ni194  1  0.77173626  0.50860208  0.79212512  1
  Ni  Ni195  1  0.33278580  0.29965356  0.79752417  1
  Ni  Ni196  1  0.66178214  0.45816300  0.51348310  1
  Ni  Ni197  1  0.78561835  0.37092989  0.15695896  1
  Ni  Ni198  1  0.78331293  0.67082499  0.32303098  1
  Ni  Ni199  1  0.77821429  -0.03740730  0.55890725  1
  Ni  Ni200  1  0.53225993  0.16988284  0.60947381  1
  Ni  Ni201  1  0.05694796  0.07076732  0.43219185  1
  Ni  Ni202  1  0.12192720  0.21749346  0.60731815  1
  Ni  Ni203  1  0.03449309  0.02750671  0.69742799  1
  Ni  Ni204  1  0.49806425  0.23810278  0.83155201  1
  Ni  Ni205  1  0.23923723  0.31583865  0.15277579  1
  Ni  Ni206  1  0.80013590  0.65384644  0.48391831  1
  Ni  Ni207  1  0.33579942  0.03054172  0.25852215  1
  Ni  Ni208  1  0.45433261  0.26959245  0.31013960  1
  Ni  Ni209  1  0.88256152  0.40811693  0.30640774  1
  Ni  Ni210  1  0.05462071  0.44061908  0.75311482  1
  Ni  Ni211  1  0.72641067  0.73286608  0.74344649  1
  Ni  Ni212  1  0.48725748  0.71191230  0.49319517  1
  Ni  Ni213  1  0.49303069  0.83192982  0.07743545  1
  Ni  Ni214  1  0.73157212  0.35867366  0.36613028  1
