# generated using pymatgen
data_Ti108Co54Ni53
_symmetry_space_group_name_H-M   'P 1'
_cell_length_a   14.66157446
_cell_length_b   14.64732920
_cell_length_c   14.66523256
_cell_angle_alpha   89.76263836
_cell_angle_beta   90.29482856
_cell_angle_gamma   90.02655947
_symmetry_Int_Tables_number   1
_chemical_formula_structural   Ti108Co54Ni53
_chemical_formula_sum   'Ti108 Co54 Ni53'
_cell_volume   3149.33230639
_cell_formula_units_Z   1
loop_
 _symmetry_equiv_pos_site_id
 _symmetry_equiv_pos_as_xyz
  1  'x, y, z'
loop_
 _atom_site_type_symbol
 _atom_site_label
 _atom_site_symmetry_multiplicity
 _atom_site_fract_x
 _atom_site_fract_y
 _atom_site_fract_z
 _atom_site_occupancy
  Ti  Ti0  1  0.10500935  0.11038570  0.26365905  1
  Ti  Ti1  1  0.13732436  0.00858992  0.61753150  1
  Ti  Ti2  1  0.10561901  0.18900873  0.91639236  1
  Ti  Ti3  1  0.08814336  0.45798541  0.23462225  1
  Ti  Ti4  1  0.06255597  0.46446367  0.60383169  1
  Ti  Ti5  1  0.08309511  0.38696079  0.93372286  1
  Ti  Ti6  1  0.12230615  0.76102735  0.24107197  1
  Ti  Ti7  1  0.12427752  0.76422918  0.64192365  1
  Ti  Ti8  1  0.00320519  0.72929014  0.92124940  1
  Ti  Ti9  1  0.53691783  0.10319123  0.25098778  1
  Ti  Ti10  1  0.41585277  0.12665683  0.60000933  1
  Ti  Ti11  1  0.44420191  0.05519921  0.92778553  1
  Ti  Ti12  1  0.41385379  0.39680229  0.19104894  1
  Ti  Ti13  1  0.38529330  0.43972174  0.55108323  1
  Ti  Ti14  1  0.42704339  0.41139987  0.88172392  1
  Ti  Ti15  1  0.45296215  0.74463505  0.25609874  1
  Ti  Ti16  1  0.42893719  0.85814817  0.59178452  1
  Ti  Ti17  1  0.44665629  0.71981181  0.87848788  1
  Ti  Ti18  1  0.79596023  0.09384331  0.23501621  1
  Ti  Ti19  1  0.82052580  0.17243555  0.62744283  1
  Ti  Ti20  1  0.77597705  0.07714873  0.93758126  1
  Ti  Ti21  1  0.74299642  0.45691938  0.24003264  1
  Ti  Ti22  1  0.82653230  0.43160214  0.52656033  1
  Ti  Ti23  1  0.75284981  0.40157712  0.96968187  1
  Ti  Ti24  1  0.69329466  0.66454150  0.25942939  1
  Ti  Ti25  1  0.77307710  0.77032770  0.60793103  1
  Ti  Ti26  1  0.68674770  0.70553221  0.92246230  1
  Ti  Ti27  1  0.08444734  0.21784329  0.11198628  1
  Ti  Ti28  1  0.01855941  0.23206626  0.37530474  1
  Ti  Ti29  1  0.03739533  0.17718173  0.71884144  1
  Ti  Ti30  1  0.12272777  0.59321126  0.03788398  1
  Ti  Ti31  1  0.15184656  0.50168013  0.43496336  1
  Ti  Ti32  1  0.15404265  0.53828153  0.81912725  1
  Ti  Ti33  1  0.11888759  0.88274240  0.04850487  1
  Ti  Ti34  1  0.04354197  0.92515388  0.34551766  1
  Ti  Ti35  1  0.11823339  0.86840508  0.82396311  1
  Ti  Ti36  1  0.39888117  0.16355747  0.09001169  1
  Ti  Ti37  1  0.36724986  0.17702844  0.39725774  1
  Ti  Ti38  1  0.38691593  0.25091812  0.76501622  1
  Ti  Ti39  1  0.40067763  0.59220994  0.16030206  1
  Ti  Ti40  1  0.41904094  0.65084776  0.42034789  1
  Ti  Ti41  1  0.43837841  0.60290588  0.68309834  1
  Ti  Ti42  1  0.42540075  0.89462628  0.16053949  1
  Ti  Ti43  1  0.40195282  0.99300915  0.45376170  1
  Ti  Ti44  1  0.39379823  0.91843298  0.77183045  1
  Ti  Ti45  1  0.77966731  0.26909420  0.09500540  1
  Ti  Ti46  1  0.71566420  0.26157927  0.45632341  1
  Ti  Ti47  1  0.70165925  0.31088414  0.77507337  1
  Ti  Ti48  1  0.71754028  0.57147234  0.07001568  1
  Ti  Ti49  1  0.69544979  0.56264674  0.43328882  1
  Ti  Ti50  1  0.73617253  0.56789554  0.77036958  1
  Ti  Ti51  1  0.73926750  0.88976510  0.00507452  1
  Ti  Ti52  1  0.64886523  0.98559137  0.40743018  1
  Ti  Ti53  1  0.70209869  1.00748473  0.76890623  1
  Ti  Ti54  1  0.19653103  0.06976290  0.07076877  1
  Ti  Ti55  1  0.24934633  0.03924080  0.36078768  1
  Ti  Ti56  1  0.22636812  0.07268096  0.77156898  1
  Ti  Ti57  1  0.20002082  0.37319691  0.10035347  1
  Ti  Ti58  1  0.25163446  0.34078732  0.41788242  1
  Ti  Ti59  1  0.26153170  0.40655487  0.73706450  1
  Ti  Ti60  1  0.30054747  0.80301005  0.04608993  1
  Ti  Ti61  1  0.19406331  0.70828010  0.45610206  1
  Ti  Ti62  1  0.30627302  0.72944393  0.72587092  1
  Ti  Ti63  1  0.62014214  0.12468011  0.05419202  1
  Ti  Ti64  1  0.55261335  0.15413085  0.44862145  1
  Ti  Ti65  1  0.64127002  0.11122056  0.61639456  1
  Ti  Ti66  1  0.54658080  0.40938395  0.02932968  1
  Ti  Ti67  1  0.53825455  0.40121245  0.43221986  1
  Ti  Ti68  1  0.58373268  0.47051110  0.72150553  1
  Ti  Ti69  1  0.55876524  0.81768588  0.05701596  1
  Ti  Ti70  1  0.51528212  0.83830730  0.41092360  1
  Ti  Ti71  1  0.61710747  0.69967829  0.71377621  1
  Ti  Ti72  1  0.91644140  0.15509890  0.02416272  1
  Ti  Ti73  1  0.94446481  0.06007315  0.47799847  1
  Ti  Ti74  1  0.88833018  0.04218548  0.76101195  1
  Ti  Ti75  1  0.88265005  0.45018488  0.11402780  1
  Ti  Ti76  1  0.99306403  0.42337505  0.41008096  1
  Ti  Ti77  1  0.96163785  0.45463158  0.77520261  1
  Ti  Ti78  1  0.86423997  0.73924395  0.06516020  1
  Ti  Ti79  1  0.96471224  0.72917165  0.51260346  1
  Ti  Ti80  1  0.95536926  0.74258421  0.73125606  1
  Ti  Ti81  1  0.26877939  0.22710318  0.23205708  1
  Ti  Ti82  1  0.19203914  0.24014191  0.60695294  1
  Ti  Ti83  1  0.26341491  0.30492711  0.90873773  1
  Ti  Ti84  1  0.23710765  0.57757277  0.27538495  1
  Ti  Ti85  1  0.22497805  0.57985691  0.62908636  1
  Ti  Ti86  1  0.29206458  0.63031850  0.95162596  1
  Ti  Ti87  1  0.23038485  0.94472552  0.20516427  1
  Ti  Ti88  1  0.24832512  0.88024259  0.54372808  1
  Ti  Ti89  1  0.27292923  0.95694242  0.91716980  1
  Ti  Ti90  1  0.58280121  0.30353428  0.28209720  1
  Ti  Ti91  1  0.54387426  0.30669617  0.62321583  1
  Ti  Ti92  1  0.60315783  0.16143921  0.86679289  1
  Ti  Ti93  1  0.54314102  0.54170993  0.30396410  1
  Ti  Ti94  1  0.54379377  0.55950866  0.53805060  1
  Ti  Ti95  1  0.53363115  0.59721667  0.99709615  1
  Ti  Ti96  1  0.65441120  0.96024074  0.17120484  1
  Ti  Ti97  1  0.59839736  0.89058957  0.67302571  1
  Ti  Ti98  1  0.56122613  0.86940396  0.86778960  1
  Ti  Ti99  1  0.92815892  0.24733561  0.21705924  1
  Ti  Ti100  1  0.94010022  0.26407469  0.53437409  1
  Ti  Ti101  1  0.91454620  0.27194621  0.84815000  1
  Ti  Ti102  1  0.94143486  0.58325809  0.27525006  1
  Ti  Ti103  1  0.88791970  0.58185409  0.63962777  1
  Ti  Ti104  1  0.85344828  0.59046592  0.91758220  1
  Ti  Ti105  1  0.93122905  0.91205169  0.14314353  1
  Ti  Ti106  1  0.96757825  0.90736841  0.62166969  1
  Ti  Ti107  1  0.95164950  0.94265118  0.95009867  1
  Co  Co108  1  0.91618923  0.43549015  -0.05200040  1
  Co  Co109  1  0.80738357  0.01732041  0.08969546  1
  Co  Co110  1  0.82623715  0.61853543  0.17553975  1
  Co  Co111  1  0.85081115  0.78149510  -0.09296800  1
  Co  Co112  1  -0.04923221  0.87846349  0.79892501  1
  Co  Co113  1  0.08132741  0.62428581  0.53908468  1
  Co  Co114  1  0.28398433  0.79998510  0.20368748  1
  Co  Co115  1  0.47555292  0.77154263  0.72476516  1
  Co  Co116  1  -0.07839377  0.40285685  0.26298891  1
  Co  Co117  1  0.18572689  0.19461846  0.40069093  1
  Co  Co118  1  0.38593108  0.08509415  0.77190064  1
  Co  Co119  1  0.35721257  0.80894586  0.44601011  1
  Co  Co120  1  0.22267494  0.67621403  0.12884716  1
  Co  Co121  1  0.67651727  0.14482422  0.34177526  1
  Co  Co122  1  0.09890345  0.32398448  0.49975344  1
  Co  Co123  1  0.39679640  0.51315880  0.00920154  1
  Co  Co124  1  0.70552708  -0.04335325  0.57423319  1
  Co  Co125  1  0.61145342  -0.00314778  -0.05005024  1
  Co  Co126  1  0.55084848  0.60208623  0.82621805  1
  Co  Co127  1  0.53990358  0.31814516  0.80829704  1
  Co  Co128  1  0.42776345  0.88250547  -0.03317828  1
  Co  Co129  1  0.25815352  0.41353684  0.26200013  1
  Co  Co130  1  0.69891118  0.58686787  0.60703976  1
  Co  Co131  1  0.85843922  0.33687661  0.39446214  1
  Co  Co132  1  0.43154050  0.71665181  0.05573943  1
  Co  Co133  1  -0.04382489  0.07355718  0.31393960  1
  Co  Co134  1  0.81296156  0.88819047  0.70275940  1
  Co  Co135  1  0.23985229  0.88313346  0.72271374  1
  Co  Co136  1  0.43142054  0.22185952  0.24772325  1
  Co  Co137  1  0.43154927  0.42110952  0.70809549  1
  Co  Co138  1  0.76709221  0.16125676  0.78011337  1
  Co  Co139  1  0.77363644  0.24177575  -0.07685619  1
  Co  Co140  1  0.81031130  -0.06981079  0.86559506  1
  Co  Co141  1  0.64934901  0.43354791  0.54703537  1
  Co  Co142  1  0.71110430  0.29552350  0.61086033  1
  Co  Co143  1  0.26315377  0.10459572  0.52206439  1
  Co  Co144  1  0.07235084  -0.02856207  0.18740854  1
  Co  Co145  1  0.01579145  0.32357541  0.66237652  1
  Co  Co146  1  -0.05251654  0.07899490  0.16011910  1
  Co  Co147  1  0.24752445  0.46546849  -0.06261297  1
  Co  Co148  1  0.22331226  0.41582261  0.57130351  1
  Co  Co149  1  -0.02400220  0.10437699  0.88105817  1
  Co  Co150  1  -0.04717161  0.56040870  0.47581951  1
  Co  Co151  1  0.69744024  0.40457204  0.38315895  1
  Co  Co152  1  0.34138573  0.29393839  0.61322775  1
  Co  Co153  1  0.86170072  0.31562069  0.69633135  1
  Co  Co154  1  0.81028521  0.43034031  0.82374981  1
  Co  Co155  1  0.84349843  0.01324704  0.60135533  1
  Co  Co156  1  0.83643630  0.50936040  0.37080912  1
  Co  Co157  1  0.20788270  0.22904270  0.77263338  1
  Co  Co158  1  0.13311316  0.00081344  0.45632810  1
  Co  Co159  1  0.11158698  0.35194589  0.78535483  1
  Co  Co160  1  0.31933241  -0.00075113  0.63568528  1
  Co  Co161  1  0.04171242  0.04713430  0.04253134  1
  Ni  Ni162  1  0.84952683  0.17548287  0.38088171  1
  Ni  Ni163  1  0.46879070  0.24370595  -0.04930991  1
  Ni  Ni164  1  0.51870447  0.94676692  0.28727477  1
  Ni  Ni165  1  0.15569506  0.70256025  0.79773546  1
  Ni  Ni166  1  0.76906791  0.28851952  0.27047677  1
  Ni  Ni167  1  -0.04678127  0.59794240  0.06393673  1
  Ni  Ni168  1  0.04007898  0.45564608  0.07467113  1
  Ni  Ni169  1  0.75149904  0.09205117  0.48258218  1
  Ni  Ni170  1  0.80571777  0.70942710  0.77028373  1
  Ni  Ni171  1  0.08306374  0.14660315  0.52448143  1
  Ni  Ni172  1  0.63186739  0.27810369  -0.01255079  1
  Ni  Ni173  1  0.59191232  0.50106228  0.15645352  1
  Ni  Ni174  1  0.60564702  0.81184983  0.23356563  1
  Ni  Ni175  1  0.35949748  -0.09666292  0.31512569  1
  Ni  Ni176  1  0.07662663  0.62441545  0.35869103  1
  Ni  Ni177  1  0.56166209  0.66566086  0.15376462  1
  Ni  Ni178  1  0.12032893  0.01622480  0.91054927  1
  Ni  Ni179  1  0.24783981  0.22407662  0.04916145  1
  Ni  Ni180  1  -0.03625508  0.31115323  0.04160789  1
  Ni  Ni181  1  0.70339116  0.82622686  0.80602843  1
  Ni  Ni182  1  0.34311256  -0.00213217  0.06322626  1
  Ni  Ni183  1  0.75754384  0.44225566  0.67136566  1
  Ni  Ni184  1  0.66491184  0.19721250  0.18803427  1
  Ni  Ni185  1  0.33862308  0.69409009  0.56472523  1
  Ni  Ni186  1  0.03697265  0.74451454  0.09492108  1
  Ni  Ni187  1  0.53705279  0.01888174  0.78591922  1
  Ni  Ni188  1  0.29533146  0.71627496  0.32783931  1
  Ni  Ni189  1  0.58429485  0.68697506  0.39638469  1
  Ni  Ni190  1  0.50868522  0.00804661  0.08486470  1
  Ni  Ni191  1  0.52529836  0.26871687  0.11816958  1
  Ni  Ni192  1  0.01611731  0.55502832  0.91040428  1
  Ni  Ni193  1  0.05285064  0.60954113  0.70023314  1
  Ni  Ni194  1  0.44538855  0.27941244  0.49405413  1
  Ni  Ni195  1  0.52931780  0.17139969  0.72416002  1
  Ni  Ni196  1  0.51626391  0.71910665  0.56490088  1
  Ni  Ni197  1  0.29676767  0.55556552  0.47174459  1
  Ni  Ni198  1  0.36938301  0.55446401  0.82512882  1
  Ni  Ni199  1  0.37042563  0.35285749  0.03808234  1
  Ni  Ni200  1  0.04949189  0.00874786  0.75987161  1
  Ni  Ni201  1  0.40186852  0.34205254  0.34784240  1
  Ni  Ni202  1  0.20590131  0.85891759  0.36773097  1
  Ni  Ni203  1  0.38481013  0.50277636  0.33730468  1
  Ni  Ni204  1  0.37002490  0.05842652  0.23023676  1
  Ni  Ni205  1  0.66646944  0.52616972  0.91241365  1
  Ni  Ni206  1  0.16364503  0.74810241  -0.04009861  1
  Ni  Ni207  1  0.70046232  0.74187012  0.10351458  1
  Ni  Ni208  1  0.08308730  0.85067136  0.49719394  1
  Ni  Ni209  1  0.81748954  0.64256434  0.50196989  1
  Ni  Ni210  1  0.26462981  0.51592636  0.10757596  1
  Ni  Ni211  1  0.12468560  0.29907622  0.26582730  1
  Ni  Ni212  1  0.63375856  0.82620745  0.52219156  1
  Ni  Ni213  1  0.54320473  -0.01274530  0.53876510  1
  Ni  Ni214  1  0.29340936  0.80036108  0.87044903  1
