# generated using pymatgen
data_Ti108Co54Ni53
_symmetry_space_group_name_H-M   'P 1'
_cell_length_a   14.61018178
_cell_length_b   14.58371807
_cell_length_c   14.56993162
_cell_angle_alpha   90.06399246
_cell_angle_beta   90.06178754
_cell_angle_gamma   90.22684578
_symmetry_Int_Tables_number   1
_chemical_formula_structural   Ti108Co54Ni53
_chemical_formula_sum   'Ti108 Co54 Ni53'
_cell_volume   3104.39848910
_cell_formula_units_Z   1
loop_
 _symmetry_equiv_pos_site_id
 _symmetry_equiv_pos_as_xyz
  1  'x, y, z'
loop_
 _atom_site_type_symbol
 _atom_site_label
 _atom_site_symmetry_multiplicity
 _atom_site_fract_x
 _atom_site_fract_y
 _atom_site_fract_z
 _atom_site_occupancy
  Ti  Ti0  1  0.03450469  0.02720956  0.24021398  1
  Ti  Ti1  1  0.03777582  0.11843335  0.63008328  1
  Ti  Ti2  1  0.07143155  0.03707852  0.95802877  1
  Ti  Ti3  1  0.09594714  0.39207093  0.21861291  1
  Ti  Ti4  1  0.09971126  0.31872446  0.66356436  1
  Ti  Ti5  1  0.12705015  0.45846244  0.92959284  1
  Ti  Ti6  1  0.04154345  0.84545326  0.28294196  1
  Ti  Ti7  1  0.16204330  0.74105651  0.59914408  1
  Ti  Ti8  1  0.04413897  0.75645168  0.89704431  1
  Ti  Ti9  1  0.45226029  0.20250730  0.25750785  1
  Ti  Ti10  1  0.40493171  0.12348312  0.54261695  1
  Ti  Ti11  1  0.46891546  0.07383189  0.91673888  1
  Ti  Ti12  1  0.40550115  0.41177001  0.30625124  1
  Ti  Ti13  1  0.35007605  0.34605485  0.60470326  1
  Ti  Ti14  1  0.44384467  0.32865555  0.89356745  1
  Ti  Ti15  1  0.36008554  0.77480721  0.25151442  1
  Ti  Ti16  1  0.48480843  0.78661893  0.57954073  1
  Ti  Ti17  1  0.34502735  0.76876516  0.99280054  1
  Ti  Ti18  1  0.84992123  0.06541559  0.28800319  1
  Ti  Ti19  1  0.74079811  0.10538177  0.53632073  1
  Ti  Ti20  1  0.75796271  0.17191165  0.97767674  1
  Ti  Ti21  1  0.68853857  0.41692655  0.17879012  1
  Ti  Ti22  1  0.77108586  0.41757947  0.60337066  1
  Ti  Ti23  1  0.79066384  0.43846452  0.91428730  1
  Ti  Ti24  1  0.74956788  0.83912700  0.26362175  1
  Ti  Ti25  1  0.68995859  0.75021849  0.57445171  1
  Ti  Ti26  1  0.73223218  0.79351470  0.86867185  1
  Ti  Ti27  1  0.06157592  0.24088496  0.02954722  1
  Ti  Ti28  1  0.15872107  0.22893853  0.36749412  1
  Ti  Ti29  1  0.08625839  0.18633680  0.82937216  1
  Ti  Ti30  1  0.07998414  0.60731559  0.09230296  1
  Ti  Ti31  1  0.10497979  0.69872199  0.38501357  1
  Ti  Ti32  1  0.07718616  0.55897576  0.74467417  1
  Ti  Ti33  1  0.02018571  0.80470215  0.09636003  1
  Ti  Ti34  1  0.12126253  0.88855885  0.47025849  1
  Ti  Ti35  1  0.06502671  0.86561674  0.70509314  1
  Ti  Ti36  1  0.43589414  0.26648984  0.06851186  1
  Ti  Ti37  1  0.34616736  0.26663489  0.42084846  1
  Ti  Ti38  1  0.35727210  0.19502008  0.74664127  1
  Ti  Ti39  1  0.43635180  0.61160396  0.04073435  1
  Ti  Ti40  1  0.40178308  0.59568440  0.37271815  1
  Ti  Ti41  1  0.44274554  0.63028246  0.72027827  1
  Ti  Ti42  1  0.44287647  0.91768278  0.10174233  1
  Ti  Ti43  1  0.41063892  0.92242364  0.38048950  1
  Ti  Ti44  1  0.42452300  0.91482868  0.71560075  1
  Ti  Ti45  1  0.78903306  0.21864676  0.18165243  1
  Ti  Ti46  1  0.70378478  0.19014686  0.36634257  1
  Ti  Ti47  1  0.76563639  0.23969318  0.69850455  1
  Ti  Ti48  1  0.73322397  0.55030706  0.05883927  1
  Ti  Ti49  1  0.70241466  0.46544771  0.43141477  1
  Ti  Ti50  1  0.76629210  0.55027719  0.76873925  1
  Ti  Ti51  1  0.79341261  0.86033493  0.06856148  1
  Ti  Ti52  1  0.71573734  0.91260229  0.47209736  1
  Ti  Ti53  1  0.72047898  0.97419964  0.79046102  1
  Ti  Ti54  1  0.26417534  0.03713158  0.07492628  1
  Ti  Ti55  1  0.25288915  0.04023376  0.41239258  1
  Ti  Ti56  1  0.28094395  0.03931317  0.83633585  1
  Ti  Ti57  1  0.32285074  0.40157407  0.12026697  1
  Ti  Ti58  1  0.21022111  0.47070567  0.40858144  1
  Ti  Ti59  1  0.35863388  0.45609384  0.77019332  1
  Ti  Ti60  1  0.18037458  0.73385585  0.20057013  1
  Ti  Ti61  1  0.30949385  0.73067976  0.46816971  1
  Ti  Ti62  1  0.34336258  0.77097057  0.80892719  1
  Ti  Ti63  1  0.58850685  0.07806594  0.08925438  1
  Ti  Ti64  1  0.56078037  0.05293534  0.43154293  1
  Ti  Ti65  1  0.55006630  0.17451815  0.74723376  1
  Ti  Ti66  1  0.59533417  0.40949412  0.00616876  1
  Ti  Ti67  1  0.58180853  0.34351130  0.33393535  1
  Ti  Ti68  1  0.58249317  0.47378374  0.73449104  1
  Ti  Ti69  1  0.59166355  0.73941908  0.14306441  1
  Ti  Ti70  1  0.56060831  0.70813098  0.40432850  1
  Ti  Ti71  1  0.62794466  0.67991666  0.74814639  1
  Ti  Ti72  1  0.90902573  0.08212963  0.08656119  1
  Ti  Ti73  1  0.95621116  0.15147220  0.43503646  1
  Ti  Ti74  1  0.95630009  0.03428877  0.77831575  1
  Ti  Ti75  1  0.86732969  0.40750428  0.11013697  1
  Ti  Ti76  1  0.88137162  0.38564629  0.41640769  1
  Ti  Ti77  1  0.90639968  0.38512647  0.73612823  1
  Ti  Ti78  1  0.89887458  0.67048624  0.04702857  1
  Ti  Ti79  1  0.91114547  0.71611216  0.37068921  1
  Ti  Ti80  1  0.89688364  0.83550216  0.77398735  1
  Ti  Ti81  1  0.24395737  0.21518661  0.13115029  1
  Ti  Ti82  1  0.22558376  0.18347963  0.56813438  1
  Ti  Ti83  1  0.24248602  0.30223589  0.88755494  1
  Ti  Ti84  1  0.31596009  0.58238324  0.20096838  1
  Ti  Ti85  1  0.28932104  0.56138005  0.60953947  1
  Ti  Ti86  1  0.19850455  0.63942895  0.89987331  1
  Ti  Ti87  1  0.22239613  0.94451825  0.24629263  1
  Ti  Ti88  1  0.18059357  0.99601332  0.61849781  1
  Ti  Ti89  1  0.18374167  0.87072872  0.88466341  1
  Ti  Ti90  1  0.61094535  0.25524595  0.14427468  1
  Ti  Ti91  1  0.63014872  0.27294025  0.53362937  1
  Ti  Ti92  1  0.64535544  0.29916585  0.85836846  1
  Ti  Ti93  1  0.60157984  0.55180892  0.27561914  1
  Ti  Ti94  1  0.57901119  0.59508493  0.56516882  1
  Ti  Ti95  1  0.61362879  0.65241228  0.95596776  1
  Ti  Ti96  1  0.60524404  0.94847666  0.27796619  1
  Ti  Ti97  1  0.60321507  0.95888297  0.61293259  1
  Ti  Ti98  1  0.59933254  0.92578163  0.95432759  1
  Ti  Ti99  1  0.99624002  0.21658162  0.22128443  1
  Ti  Ti100  1  0.91864609  0.26433235  0.58671090  1
  Ti  Ti101  1  0.95175136  0.33489628  0.92358565  1
  Ti  Ti102  1  0.82982721  0.61643044  0.22321640  1
  Ti  Ti103  1  0.86170915  0.63826707  0.54010357  1
  Ti  Ti104  1  0.90987453  0.64375094  0.83561298  1
  Ti  Ti105  1  0.88992154  0.90111698  0.38267767  1
  Ti  Ti106  1  0.87626863  0.84078139  0.57272146  1
  Ti  Ti107  1  0.85163408  0.98250824  0.92561505  1
  Co  Co108  1  0.74401008  0.70856953  0.11334878  1
  Co  Co109  1  -0.06568828  0.15655761  0.92049264  1
  Co  Co110  1  0.89940062  0.25004337  0.06261590  1
  Co  Co111  1  0.24875057  0.64169072  0.33841891  1
  Co  Co112  1  0.16582226  0.76690785  0.02007865  1
  Co  Co113  1  0.74668748  0.33072436  0.30333349  1
  Co  Co114  1  0.55869476  0.80445635  0.85500416  1
  Co  Co115  1  0.56744688  0.11418516  0.58486151  1
  Co  Co116  1  0.73047882  0.57434293  0.61289030  1
  Co  Co117  1  0.20283439  0.46396461  0.77858492  1
  Co  Co118  1  0.12380622  0.56332604  0.26009669  1
  Co  Co119  1  0.29027896  0.28711280  0.26627834  1
  Co  Co120  1  0.90972952  0.52046909  -0.00271185  1
  Co  Co121  1  0.40643978  0.08971409  0.37568600  1
  Co  Co122  1  0.60492088  0.43371384  0.56634206  1
  Co  Co123  1  0.24092576  0.30941153  0.72357805  1
  Co  Co124  1  0.11772478  0.08777023  0.48305020  1
  Co  Co125  1  0.24746139  0.44769240  0.26186736  1
  Co  Co126  1  0.87214912  0.23365840  0.33338837  1
  Co  Co127  1  -0.03375390  -0.06360613  0.03480608  1
  Co  Co128  1  0.91705975  0.36361030  0.24837365  1
  Co  Co129  1  -0.03821578  0.48521915  0.83975964  1
  Co  Co130  1  0.62765365  0.32374609  0.68975945  1
  Co  Co131  1  0.64108544  0.09625256  0.89013764  1
  Co  Co132  1  0.77423609  0.77153440  0.42865355  1
  Co  Co133  1  0.59036329  0.83597490  0.71082846  1
  Co  Co134  1  0.12586562  0.00164558  0.78482027  1
  Co  Co135  1  0.57296284  0.55051481  0.11207889  1
  Co  Co136  1  0.44105989  0.90817988  0.88891980  1
  Co  Co137  1  0.62243577  0.90030505  0.12263325  1
  Co  Co138  1  0.47584478  0.34305276  0.73692183  1
  Co  Co139  1  0.45003986  -0.03298184  0.54403508  1
  Co  Co140  1  0.50943435  0.79188025  0.01203525  1
  Co  Co141  1  0.77651796  0.64628346  -0.07077068  1
  Co  Co142  1  0.68491020  0.09826434  0.70048220  1
  Co  Co143  1  0.48109998  0.24975856  0.60515454  1
  Co  Co144  1  -0.03252791  0.52359282  0.18797718  1
  Co  Co145  1  0.42577401  0.63114944  0.53331225  1
  Co  Co146  1  0.51815123  0.20743337  0.41661463  1
  Co  Co147  1  0.44541411  0.45218442  0.03181887  1
  Co  Co148  1  0.56586131  0.21571431  -0.02290881  1
  Co  Co149  1  0.07634734  0.35449001  0.81311000  1
  Co  Co150  1  0.89012722  0.80435814  -0.05908570  1
  Co  Co151  1  0.00903779  0.67891504  0.23308711  1
  Co  Co152  1  -0.05437839  0.21854308  0.75539286  1
  Co  Co153  1  0.81292157  0.28085832  0.85666694  1
  Co  Co154  1  0.72813510  0.02164852  0.36512122  1
  Co  Co155  1  0.64886593  0.51303780  0.88468476  1
  Co  Co156  1  0.18592365  0.49612138  0.11658083  1
  Co  Co157  1  0.00925736  0.91134541  0.87362148  1
  Co  Co158  1  0.79090848  0.26786744  0.48807772  1
  Co  Co159  1  0.45220233  0.48410704  0.62015334  1
  Co  Co160  1  0.74001605  0.32718567  0.02779479  1
  Co  Co161  1  0.19603856  0.14466221  0.72090784  1
  Ni  Ni162  1  0.17777962  0.11523021  0.25593244  1
  Ni  Ni163  1  -0.11406918  0.77657168  0.20074277  1
  Ni  Ni164  1  0.55511280  0.87022945  0.44966986  1
  Ni  Ni165  1  0.47706716  0.02859356  0.22758393  1
  Ni  Ni166  1  0.03765461  0.59605086  -0.06779728  1
  Ni  Ni167  1  0.42086383  0.10248248  0.08431278  1
  Ni  Ni168  1  0.25109119  0.85116889  0.37659598  1
  Ni  Ni169  1  0.55374391  -0.00687257  0.78858259  1
  Ni  Ni170  1  0.19609497  0.15532423  -0.03111893  1
  Ni  Ni171  1  0.00639627  -0.04676422  0.57235419  1
  Ni  Ni172  1  0.47593734  0.64869292  0.22406290  1
  Ni  Ni173  1  0.25962318  0.63460433  0.05618339  1
  Ni  Ni174  1  0.82047992  0.70038104  0.69412184  1
  Ni  Ni175  1  0.80735588  0.11954298  0.81725258  1
  Ni  Ni176  1  0.61430704  0.12079241  0.25519741  1
  Ni  Ni177  1  0.34247849  0.59515154  0.86538138  1
  Ni  Ni178  1  0.33239474  0.74085223  0.64239034  1
  Ni  Ni179  1  0.27408500  0.86005996  0.11419931  1
  Ni  Ni180  1  0.35186981  0.18376134  0.94044913  1
  Ni  Ni181  1  0.48212406  0.50746791  -0.11958610  1
  Ni  Ni182  1  0.51137640  0.39736046  0.17549659  1
  Ni  Ni183  1  0.47159200  0.68048465  0.88382483  1
  Ni  Ni184  1  0.16479204  0.73010260  0.76501680  1
  Ni  Ni185  1  0.32979757  0.03859452  0.66339892  1
  Ni  Ni186  1  0.32954112  0.08746801  0.22763001  1
  Ni  Ni187  1  0.91088621  0.55178394  0.68085568  1
  Ni  Ni188  1  0.75212262  0.85198214  0.68947196  1
  Ni  Ni189  1  0.07125998  0.24989975  0.50948331  1
  Ni  Ni190  1  0.71029752  0.62554170  0.44725182  1
  Ni  Ni191  1  0.01845644  -0.00351340  0.40178173  1
  Ni  Ni192  1  0.24598118  0.87418064  0.71614953  1
  Ni  Ni193  1  0.48415857  0.35537716  0.47462844  1
  Ni  Ni194  1  0.17769616  0.60609961  0.49912863  1
  Ni  Ni195  1  0.69252624  0.69293668  0.29773555  1
  Ni  Ni196  1  0.20869104  0.34443068  0.51750279  1
  Ni  Ni197  1  0.29964846  0.88608506  0.54926472  1
  Ni  Ni198  1  0.72621182  0.01008935  0.02898722  1
  Ni  Ni199  1  0.03237425  0.42635059  0.06486472  1
  Ni  Ni200  1  0.02371305  0.32210546  0.36457308  1
  Ni  Ni201  1  0.53080429  0.50393784  0.42574900  1
  Ni  Ni202  1  0.01050958  0.76493654  0.52015122  1
  Ni  Ni203  1  0.10496607  0.10599142  0.10948955  1
  Ni  Ni204  1  0.86323866  0.09779583  0.65546795  1
  Ni  Ni205  1  0.80227681  0.47833790  0.29033856  1
  Ni  Ni206  1  0.30542663  0.45233060  -0.05738293  1
  Ni  Ni207  1  0.18452696  0.35074503  0.04258209  1
  Ni  Ni208  1  0.36458570  0.46464215  0.47764909  1
  Ni  Ni209  1  0.87372717  0.01780036  0.50091864  1
  Ni  Ni210  1  0.12441926  -0.06634975  0.10291967  1
  Ni  Ni211  1  0.52047611  0.81066529  0.27985414  1
  Ni  Ni212  1  -0.00210570  0.70908307  0.68906759  1
  Ni  Ni213  1  0.31130581  -0.06907956  -0.03494887  1
  Ni  Ni214  1  0.89743662  -0.06343038  0.19259371  1
