# generated using pymatgen
data_Ti108Co54Ni53
_symmetry_space_group_name_H-M   'P 1'
_cell_length_a   14.64426263
_cell_length_b   14.67941415
_cell_length_c   14.62367397
_cell_angle_alpha   89.88930065
_cell_angle_beta   89.88943398
_cell_angle_gamma   89.99306050
_symmetry_Int_Tables_number   1
_chemical_formula_structural   Ti108Co54Ni53
_chemical_formula_sum   'Ti108 Co54 Ni53'
_cell_volume   3143.62769520
_cell_formula_units_Z   1
loop_
 _symmetry_equiv_pos_site_id
 _symmetry_equiv_pos_as_xyz
  1  'x, y, z'
loop_
 _atom_site_type_symbol
 _atom_site_label
 _atom_site_symmetry_multiplicity
 _atom_site_fract_x
 _atom_site_fract_y
 _atom_site_fract_z
 _atom_site_occupancy
  Ti  Ti0  1  0.11718364  -0.01847364  0.24824882  1
  Ti  Ti1  1  0.05373354  0.10501329  0.64267018  1
  Ti  Ti2  1  0.05981072  0.14811924  0.86512927  1
  Ti  Ti3  1  0.07020835  0.40159145  0.26321146  1
  Ti  Ti4  1  0.03122513  0.48794236  0.67595054  1
  Ti  Ti5  1  0.07865052  0.35134245  0.93524451  1
  Ti  Ti6  1  0.07863418  0.70007498  0.20037678  1
  Ti  Ti7  1  0.03795978  0.74826051  0.60186985  1
  Ti  Ti8  1  0.08950497  0.79371000  0.92186902  1
  Ti  Ti9  1  0.43531478  0.05318450  0.25191791  1
  Ti  Ti10  1  0.48727580  -0.00051610  0.55906926  1
  Ti  Ti11  1  0.40028539  0.12936857  0.83169765  1
  Ti  Ti12  1  0.44029441  0.37613707  0.19234577  1
  Ti  Ti13  1  0.45685940  0.42567153  0.56204097  1
  Ti  Ti14  1  0.41975927  0.39539550  0.88879557  1
  Ti  Ti15  1  0.42165274  0.72140334  0.32218400  1
  Ti  Ti16  1  0.43284460  0.70170633  0.64248075  1
  Ti  Ti17  1  0.40135529  0.69369903  0.88964024  1
  Ti  Ti18  1  0.75039559  0.11864907  0.23545801  1
  Ti  Ti19  1  0.70645470  0.13845592  0.61365796  1
  Ti  Ti20  1  0.73734969  0.11811560  0.92320102  1
  Ti  Ti21  1  0.76946823  0.41537861  0.27798341  1
  Ti  Ti22  1  0.75498517  0.42628886  0.60500511  1
  Ti  Ti23  1  0.73598824  0.42225912  0.91200435  1
  Ti  Ti24  1  0.77486982  0.70693358  0.30026189  1
  Ti  Ti25  1  0.73977332  0.81254686  0.59239945  1
  Ti  Ti26  1  0.74627681  0.79139979  0.92371202  1
  Ti  Ti27  1  0.11518303  0.23811496  0.15140737  1
  Ti  Ti28  1  0.04285101  0.22296848  0.35474994  1
  Ti  Ti29  1  0.07856895  0.28541429  0.71663035  1
  Ti  Ti30  1  0.11836081  0.50738846  0.10261777  1
  Ti  Ti31  1  0.08345084  0.62239730  0.38867881  1
  Ti  Ti32  1  0.02673089  0.65602792  0.80931219  1
  Ti  Ti33  1  0.05327256  0.89447970  0.09118668  1
  Ti  Ti34  1  0.15329611  0.90292668  0.41913072  1
  Ti  Ti35  1  0.12293327  0.94524045  0.72083315  1
  Ti  Ti36  1  0.33297224  0.26580431  0.04460789  1
  Ti  Ti37  1  0.37932650  0.24267896  0.43885684  1
  Ti  Ti38  1  0.47957588  0.27342886  0.73709571  1
  Ti  Ti39  1  0.43937080  0.59416868  0.14186066  1
  Ti  Ti40  1  0.48875349  0.61591493  0.47598849  1
  Ti  Ti41  1  0.44625715  0.53328215  0.75753354  1
  Ti  Ti42  1  0.38041236  0.93200967  0.09511156  1
  Ti  Ti43  1  0.36118245  0.90372128  0.41454530  1
  Ti  Ti44  1  0.41678087  0.94828924  0.75238319  1
  Ti  Ti45  1  0.72060686  0.29878390  0.12337480  1
  Ti  Ti46  1  0.82915819  0.25410374  0.39277142  1
  Ti  Ti47  1  0.73903781  0.28132742  0.75439100  1
  Ti  Ti48  1  0.70567437  0.60456106  0.02463478  1
  Ti  Ti49  1  0.74333990  0.53921935  0.40853837  1
  Ti  Ti50  1  0.85126733  0.52316893  0.76512785  1
  Ti  Ti51  1  0.79605857  0.88503966  0.08725549  1
  Ti  Ti52  1  0.78230252  0.88861487  0.38624339  1
  Ti  Ti53  1  0.80158323  0.94274431  0.72231961  1
  Ti  Ti54  1  0.25653836  0.09115929  0.11358755  1
  Ti  Ti55  1  0.23206058  0.11096921  0.40392689  1
  Ti  Ti56  1  0.24226147  0.06649745  0.90494747  1
  Ti  Ti57  1  0.31459666  0.46943963  0.06414083  1
  Ti  Ti58  1  0.23993443  0.44095179  0.37456773  1
  Ti  Ti59  1  0.29385155  0.41086139  0.73128649  1
  Ti  Ti60  1  0.26563014  0.79037373  0.03490604  1
  Ti  Ti61  1  0.28863109  0.71751781  0.47790442  1
  Ti  Ti62  1  0.18910551  0.74289569  0.71748913  1
  Ti  Ti63  1  0.60089894  0.12122430  0.07008537  1
  Ti  Ti64  1  0.56123469  0.11767481  0.39772338  1
  Ti  Ti65  1  0.56947403  0.06799335  0.74275923  1
  Ti  Ti66  1  0.56755447  0.43261391  0.03477802  1
  Ti  Ti67  1  0.56157308  0.46250555  0.35996515  1
  Ti  Ti68  1  0.59245339  0.41764133  0.70946170  1
  Ti  Ti69  1  0.59658517  0.79490750  0.07656146  1
  Ti  Ti70  1  0.59535068  0.81923188  0.35582732  1
  Ti  Ti71  1  0.63695255  0.69217636  0.74442344  1
  Ti  Ti72  1  0.89767391  0.04042384  0.09092385  1
  Ti  Ti73  1  0.77366640  0.07814952  0.43836091  1
  Ti  Ti74  1  0.93324303  0.02968698  0.81507771  1
  Ti  Ti75  1  0.90779891  0.42900934  0.14974834  1
  Ti  Ti76  1  0.91437290  0.41664763  0.47860253  1
  Ti  Ti77  1  0.92247063  0.34895616  0.81407647  1
  Ti  Ti78  1  0.93947893  0.74092516  0.07250269  1
  Ti  Ti79  1  0.95677757  0.81085600  0.42394932  1
  Ti  Ti80  1  0.86130514  0.76115346  0.76049176  1
  Ti  Ti81  1  0.30206004  0.23577373  0.25200384  1
  Ti  Ti82  1  0.25310797  0.17146837  0.59901960  1
  Ti  Ti83  1  0.23579528  0.25830249  0.86942486  1
  Ti  Ti84  1  0.26496606  0.65036047  0.19014810  1
  Ti  Ti85  1  0.30211227  0.55508576  0.59640313  1
  Ti  Ti86  1  0.16420690  0.55578670  0.91972729  1
  Ti  Ti87  1  0.28701277  0.83620832  0.25368133  1
  Ti  Ti88  1  0.27275632  0.98289959  0.57268531  1
  Ti  Ti89  1  0.25814781  0.88025596  0.85498882  1
  Ti  Ti90  1  0.62302292  0.28011064  0.30317625  1
  Ti  Ti91  1  0.51706848  0.19573822  0.57257297  1
  Ti  Ti92  1  0.50264190  0.23348179  0.95459816  1
  Ti  Ti93  1  0.64615078  0.57673176  0.21139751  1
  Ti  Ti94  1  0.67859960  0.61652637  0.56248527  1
  Ti  Ti95  1  0.58415553  0.55541093  0.88043244  1
  Ti  Ti96  1  0.60604119  0.95720921  0.19362183  1
  Ti  Ti97  1  0.54870377  0.85096419  0.64386633  1
  Ti  Ti98  1  0.56976428  0.89858237  0.89811491  1
  Ti  Ti99  1  0.90569974  0.24291425  0.19978119  1
  Ti  Ti100  1  0.89263739  0.18682441  0.65570425  1
  Ti  Ti101  1  0.95250034  0.21137150  1.01306171  1
  Ti  Ti102  1  0.85178837  0.59729820  0.17992050  1
  Ti  Ti103  1  0.87787244  0.65847597  0.49701841  1
  Ti  Ti104  1  0.87673075  0.55449643  0.97429732  1
  Ti  Ti105  1  0.93448593  0.96131469  0.27796369  1
  Ti  Ti106  1  0.95157289  1.00189966  0.48337590  1
  Ti  Ti107  1  0.92363138  0.88640606  0.92900614  1
  Co  Co108  1  0.87048777  0.52736999  0.59041701  1
  Co  Co109  1  0.16645898  0.53804971  0.26239353  1
  Co  Co110  1  0.70071546  0.82119689  0.21522217  1
  Co  Co111  1  0.46452793  0.23480076  0.29655931  1
  Co  Co112  1  0.19145131  0.34730482  0.05357556  1
  Co  Co113  1  0.61593417  0.19621802  0.82197614  1
  Co  Co114  1  0.80194120  -0.03147672  0.55248217  1
  Co  Co115  1  0.45610924  0.56517114  0.30517352  1
  Co  Co116  1  0.59826662  0.72039441  0.91658685  1
  Co  Co117  1  0.78170776  -0.04733675  0.88585559  1
  Co  Co118  1  0.77740148  0.72177341  0.10442105  1
  Co  Co119  1  0.14496897  0.68807707  0.05222755  1
  Co  Co120  1  -0.08958560  0.36564266  0.65550486  1
  Co  Co121  1  0.31696528  0.63417019  0.73855141  1
  Co  Co122  1  0.39380978  0.09598067  0.00658470  1
  Co  Co123  1  0.40313046  0.75869792  0.14586374  1
  Co  Co124  1  0.46740231  0.87424224  0.24529255  1
  Co  Co125  1  0.39720590  -0.04571043  -0.07932983  1
  Co  Co126  1  0.60755516  0.47037424  0.52019426  1
  Co  Co127  1  0.29910196  0.62856500  0.01987712  1
  Co  Co128  1  0.89974278  0.83481495  0.58113574  1
  Co  Co129  1  0.60655842  0.64147002  0.36989121  1
  Co  Co130  1  0.02854787  0.35264595  0.09083111  1
  Co  Co131  1  0.63822608  0.30368728  0.60234335  1
  Co  Co132  1  0.31352853  0.23983278  0.73569524  1
  Co  Co133  1  0.22535093  0.69840230  0.87432441  1
  Co  Co134  1  -0.05368496  0.64155064  0.67036883  1
  Co  Co135  1  0.54882879  0.27874237  0.11909996  1
  Co  Co136  1  0.07514719  -0.04136647  0.87725987  1
  Co  Co137  1  0.40587336  0.11134160  0.65521642  1
  Co  Co138  1  0.44675183  0.54237768  -0.03032406  1
  Co  Co139  1  0.42868390  0.17591053  0.14248056  1
  Co  Co140  1  0.79208474  0.16476981  0.07256710  1
  Co  Co141  1  0.66290511  0.00155936  0.33495004  1
  Co  Co142  1  0.68740917  0.53429238  0.74176892  1
  Co  Co143  1  0.45300712  0.80844986  -0.00763825  1
  Co  Co144  1  0.90222740  0.71081399  -0.08640484  1
  Co  Co145  1  0.58395483  0.14105997  0.22713974  1
  Co  Co146  1  0.65767116  0.26590132  -0.01883308  1
  Co  Co147  1  -0.07228303  0.36211148  0.31963231  1
  Co  Co148  1  -0.04973578  0.16195488  0.48852115  1
  Co  Co149  1  0.27960651  0.61357348  0.35376854  1
  Co  Co150  1  0.75636244  0.46003941  0.08701701  1
  Co  Co151  1  0.16917087  0.13650151  0.26104249  1
  Co  Co152  1  0.00935958  0.55626498  0.22913647  1
  Co  Co153  1  0.78419690  -0.03984568  0.23033808  1
  Co  Co154  1  -0.00217139  0.84732669  0.77060417  1
  Co  Co155  1  0.88210850  0.80871843  0.22838940  1
  Co  Co156  1  -0.05770321  0.68244193  0.31655761  1
  Co  Co157  1  0.05373285  0.06493368  0.36745713  1
  Co  Co158  1  0.78602711  0.64651961  0.67330729  1
  Co  Co159  1  0.80462154  0.27578359  0.55496415  1
  Co  Co160  1  0.55581065  0.63563703  0.05173537  1
  Co  Co161  1  0.32986102  0.50063806  0.24184331  1
  Ni  Ni162  1  -0.05045191  -0.02639627  0.65476021  1
  Ni  Ni163  1  0.17578309  0.14686740  0.75070806  1
  Ni  Ni164  1  0.65833153  -0.02303807  0.63900992  1
  Ni  Ni165  1  0.40224835  0.38044777  0.35141211  1
  Ni  Ni166  1  0.05272008  0.05469538  0.01690106  1
  Ni  Ni167  1  0.89651506  0.52430223  0.34166928  1
  Ni  Ni168  1  0.58651204  0.36127206  0.86452510  1
  Ni  Ni169  1  0.91563411  0.39553789  -0.02106750  1
  Ni  Ni170  1  0.22075077  -0.07159052  0.14027582  1
  Ni  Ni171  1  0.00390846  0.49406853  0.86395978  1
  Ni  Ni172  1  0.18532092  0.94228812  -0.00924845  1
  Ni  Ni173  1  0.16956409  0.57093141  0.73888796  1
  Ni  Ni174  1  0.18316887  0.74857678  0.34439825  1
  Ni  Ni175  1  0.01229198  0.10679862  0.19578753  1
  Ni  Ni176  1  0.75381250  0.62921066  0.86115851  1
  Ni  Ni177  1  0.64251647  0.92712432  0.48596806  1
  Ni  Ni178  1  0.13995279  0.41675536  0.79403084  1
  Ni  Ni179  1  0.37395966  0.29139581  0.59963633  1
  Ni  Ni180  1  0.57541662  0.75397392  0.51451410  1
  Ni  Ni181  1  0.38295129  0.85346866  0.58074417  1
  Ni  Ni182  1  0.25406545  0.40656663  -0.07988629  1
  Ni  Ni183  1  0.21100973  0.82665430  0.57184238  1
  Ni  Ni184  1  0.54010690  0.57102909  0.63361547  1
  Ni  Ni185  1  0.23549174  0.37921626  0.20676358  1
  Ni  Ni186  1  0.55808931  0.71582186  0.22001183  1
  Ni  Ni187  1  0.06707987  0.90723537  0.56256023  1
  Ni  Ni188  1  0.52186757  -0.03146000  0.04258245  1
  Ni  Ni189  1  0.50620968  0.78300074  0.79429541  1
  Ni  Ni190  1  0.28286162  0.00549000  0.28176744  1
  Ni  Ni191  1  0.15752700  0.18606150  0.00157706  1
  Ni  Ni192  1  0.76530748  0.10168382  0.76500801  1
  Ni  Ni193  1  0.04594066  0.83131382  0.28718591  1
  Ni  Ni194  1  0.53772662  0.06551788  0.91221633  1
  Ni  Ni195  1  -0.10331014  0.18971764  0.82924152  1
  Ni  Ni196  1  0.90371503  0.11858351  0.32896234  1
  Ni  Ni197  1  0.01730585  0.56813444  0.53008277  1
  Ni  Ni198  1  0.27838221  0.03104172  0.73119872  1
  Ni  Ni199  1  0.67335113  0.21560705  0.46515723  1
  Ni  Ni200  1  0.16254691  0.64065169  0.56887624  1
  Ni  Ni201  1  0.12617784  0.05624993  0.51090042  1
  Ni  Ni202  1  0.81294468  0.27490017  0.94037712  1
  Ni  Ni203  1  0.38908960  0.07841177  0.45862547  1
  Ni  Ni204  1  0.66606384  0.85908096  0.76860888  1
  Ni  Ni205  1  0.53999474  0.31880984  0.45255587  1
  Ni  Ni206  1  0.50849999  -0.03818641  0.38365243  1
  Ni  Ni207  1  0.02235352  0.61943969  -0.01679373  1
  Ni  Ni208  1  0.34702121  0.79694292  0.74465803  1
  Ni  Ni209  1  0.71053493  0.37284727  0.43973094  1
  Ni  Ni210  1  0.61288184  0.41615760  0.19628011  1
  Ni  Ni211  1  0.72579589  0.73347234  0.45036362  1
  Ni  Ni212  1  0.31952294  0.54199121  0.86865822  1
  Ni  Ni213  1  0.67975711  -0.02663617  0.00955395  1
  Ni  Ni214  1  0.36804952  0.51244902  0.44395798  1
