# generated using pymatgen
data_Ti108Co54Ni53
_symmetry_space_group_name_H-M   'P 1'
_cell_length_a   14.65423517
_cell_length_b   14.67592501
_cell_length_c   14.62851436
_cell_angle_alpha   89.56396765
_cell_angle_beta   89.85920861
_cell_angle_gamma   90.38011926
_symmetry_Int_Tables_number   1
_chemical_formula_structural   Ti108Co54Ni53
_chemical_formula_sum   'Ti108 Co54 Ni53'
_cell_volume   3145.90326262
_cell_formula_units_Z   1
loop_
 _symmetry_equiv_pos_site_id
 _symmetry_equiv_pos_as_xyz
  1  'x, y, z'
loop_
 _atom_site_type_symbol
 _atom_site_label
 _atom_site_symmetry_multiplicity
 _atom_site_fract_x
 _atom_site_fract_y
 _atom_site_fract_z
 _atom_site_occupancy
  Ti  Ti0  1  0.09605971  0.12616725  0.17238757  1
  Ti  Ti1  1  0.01598668  0.07536934  0.58216341  1
  Ti  Ti2  1  0.14569161  0.11219563  0.96699934  1
  Ti  Ti3  1  0.05501421  0.45592144  0.23416091  1
  Ti  Ti4  1  0.06860973  0.54647947  0.55669776  1
  Ti  Ti5  1  0.04536425  0.41578209  0.89776001  1
  Ti  Ti6  1  0.01860897  0.76172618  0.17390365  1
  Ti  Ti7  1  0.08226543  0.73109480  0.55460835  1
  Ti  Ti8  1  0.11164568  0.80041270  0.88434482  1
  Ti  Ti9  1  0.39903820  -0.00119587  0.25114015  1
  Ti  Ti10  1  0.43510712  -0.00567957  0.59127552  1
  Ti  Ti11  1  0.47195887  0.08766080  0.93550682  1
  Ti  Ti12  1  0.35820397  0.40003595  0.17072548  1
  Ti  Ti13  1  0.41917414  0.40363192  0.59217417  1
  Ti  Ti14  1  0.41869603  0.37430426  0.82773533  1
  Ti  Ti15  1  0.37898027  0.77868317  0.29079916  1
  Ti  Ti16  1  0.49084260  0.80036228  0.60225930  1
  Ti  Ti17  1  0.43968103  0.71702671  0.89399202  1
  Ti  Ti18  1  0.74227061  0.03427721  0.25148771  1
  Ti  Ti19  1  0.73052857  0.08128078  0.64064354  1
  Ti  Ti20  1  0.71379918  0.03281485  0.93127624  1
  Ti  Ti21  1  0.66678962  0.40393276  0.25150353  1
  Ti  Ti22  1  0.77419425  0.39190813  0.51986824  1
  Ti  Ti23  1  0.75611639  0.34822944  0.97337992  1
  Ti  Ti24  1  0.68659624  0.72297309  0.29509041  1
  Ti  Ti25  1  0.79965967  0.74725412  0.67081468  1
  Ti  Ti26  1  0.76585516  0.72932684  0.87311193  1
  Ti  Ti27  1  0.12279972  0.29172645  0.06018290  1
  Ti  Ti28  1  0.06711342  0.32062511  0.38885824  1
  Ti  Ti29  1  0.07337906  0.23071398  0.85103773  1
  Ti  Ti30  1  0.07721221  0.55450677  0.06452478  1
  Ti  Ti31  1  0.12911996  0.59876808  0.38350928  1
  Ti  Ti32  1  0.08439582  0.44167665  0.70272394  1
  Ti  Ti33  1  0.07705793  0.94750147  0.14167898  1
  Ti  Ti34  1  0.01845562  0.85432204  0.39719476  1
  Ti  Ti35  1  0.15853145  0.98308769  0.66045265  1
  Ti  Ti36  1  0.46098804  0.23294224  0.12807570  1
  Ti  Ti37  1  0.39642920  0.28456501  0.33431861  1
  Ti  Ti38  1  0.44083169  0.22146576  0.66983840  1
  Ti  Ti39  1  0.48753657  0.58841789  0.04758261  1
  Ti  Ti40  1  0.44432903  0.56956609  0.39969065  1
  Ti  Ti41  1  0.37812041  0.53817763  0.72171497  1
  Ti  Ti42  1  0.42772136  0.92466502  0.05629029  1
  Ti  Ti43  1  0.52225190  0.87277772  0.40088137  1
  Ti  Ti44  1  0.35983754  0.94061284  0.85082584  1
  Ti  Ti45  1  0.80170429  0.20539059  0.11976704  1
  Ti  Ti46  1  0.71416793  0.26316163  0.38822136  1
  Ti  Ti47  1  0.76548583  0.27906307  0.68446178  1
  Ti  Ti48  1  0.76541992  0.58850468  0.06390563  1
  Ti  Ti49  1  0.77765795  0.58071381  0.42057232  1
  Ti  Ti50  1  0.67585184  0.58428592  0.73942691  1
  Ti  Ti51  1  0.73305665  0.88511621  0.09000729  1
  Ti  Ti52  1  0.72984914  1.02864593  0.43560297  1
  Ti  Ti53  1  0.74678800  0.92425171  0.75932194  1
  Ti  Ti54  1  0.25843881  0.04922112  0.11143107  1
  Ti  Ti55  1  0.14795956  0.01091248  0.41825257  1
  Ti  Ti56  1  0.26344282  0.13184062  0.76656966  1
  Ti  Ti57  1  0.33168099  0.45943685  -0.01150706  1
  Ti  Ti58  1  0.24528317  0.47346430  0.48441857  1
  Ti  Ti59  1  0.22854041  0.46907303  0.82147860  1
  Ti  Ti60  1  0.21220066  0.70522861  0.11215735  1
  Ti  Ti61  1  0.22565234  0.80105285  0.41661550  1
  Ti  Ti62  1  0.29260014  0.76141869  0.77239687  1
  Ti  Ti63  1  0.61548237  0.12629494  0.05184363  1
  Ti  Ti64  1  0.55442453  0.13835120  0.43355266  1
  Ti  Ti65  1  0.59428674  0.14606597  0.76586847  1
  Ti  Ti66  1  0.63779943  0.46007370  0.05555688  1
  Ti  Ti67  1  0.58949957  0.42428778  0.45504278  1
  Ti  Ti68  1  0.69166642  0.40450652  0.80754024  1
  Ti  Ti69  1  0.58456887  0.76746962  0.01850483  1
  Ti  Ti70  1  0.59874736  0.70279954  0.46953123  1
  Ti  Ti71  1  0.59885339  0.78744634  0.78175128  1
  Ti  Ti72  1  0.90966685  0.01015108  0.03070283  1
  Ti  Ti73  1  0.93276595  0.06597253  0.40172016  1
  Ti  Ti74  1  0.91322169  0.16550252  0.74984907  1
  Ti  Ti75  1  0.84323291  0.41773147  0.14420969  1
  Ti  Ti76  1  0.95353392  0.46555366  0.43729307  1
  Ti  Ti77  1  0.88318137  0.45536189  0.79796832  1
  Ti  Ti78  1  0.86101791  0.74882413  0.04869442  1
  Ti  Ti79  1  0.87393845  0.74189327  0.36301245  1
  Ti  Ti80  1  0.99041778  0.73375967  0.73232807  1
  Ti  Ti81  1  0.20232839  0.27142322  0.24899819  1
  Ti  Ti82  1  0.11387845  0.24338285  0.63841104  1
  Ti  Ti83  1  0.25580185  0.28040472  0.90718249  1
  Ti  Ti84  1  0.27422602  0.56218216  0.24317625  1
  Ti  Ti85  1  0.21427843  0.59911369  0.66453606  1
  Ti  Ti86  1  0.21876085  0.63215973  0.92401192  1
  Ti  Ti87  1  0.26304580  0.87176853  0.17965069  1
  Ti  Ti88  1  0.28842861  0.82139248  0.59232496  1
  Ti  Ti89  1  0.23386867  0.92912158  0.98220548  1
  Ti  Ti90  1  0.63229051  0.18829131  0.23489038  1
  Ti  Ti91  1  0.61667342  0.26132615  0.57185421  1
  Ti  Ti92  1  0.55761853  0.28766746  0.94180846  1
  Ti  Ti93  1  0.56741453  0.56510455  0.22049820  1
  Ti  Ti94  1  0.52359903  0.57523542  0.59078536  1
  Ti  Ti95  1  0.54733814  0.51046786  0.88189138  1
  Ti  Ti96  1  0.56658047  0.86945178  0.20305900  1
  Ti  Ti97  1  0.69164912  0.87585738  0.56698997  1
  Ti  Ti98  1  0.56943399  0.97251324  0.83003567  1
  Ti  Ti99  1  0.96601688  0.24865430  0.22416055  1
  Ti  Ti100  1  0.94545785  0.34428900  0.59016802  1
  Ti  Ti101  1  0.93444574  0.29119909  0.98434406  1
  Ti  Ti102  1  0.88899066  0.55806150  0.26701719  1
  Ti  Ti103  1  0.88305587  0.58644679  0.59155711  1
  Ti  Ti104  1  0.92326308  0.61212021  0.91322181  1
  Ti  Ti105  1  0.88785781  0.90225800  0.23641832  1
  Ti  Ti106  1  0.95044100  0.88940578  0.59874264  1
  Ti  Ti107  1  1.00156989  0.95536477  0.82499347  1
  Co  Co108  1  0.28994286  -0.06485985  0.34771596  1
  Co  Co109  1  0.83560921  0.61204666  0.76046568  1
  Co  Co110  1  0.16703829  0.32235072  0.77202882  1
  Co  Co111  1  0.03876992  0.70092255  0.00703763  1
  Co  Co112  1  0.13422051  0.82263640  0.04717578  1
  Co  Co113  1  0.48372207  0.41576225  0.01725481  1
  Co  Co114  1  0.49426592  0.86919038  -0.08214330  1
  Co  Co115  1  0.74290031  0.53112578  0.90531441  1
  Co  Co116  1  0.13862618  0.66981809  0.77436932  1
  Co  Co117  1  0.07577293  -0.02824971  -0.02906966  1
  Co  Co118  1  0.30277057  0.08718236  -0.07210064  1
  Co  Co119  1  -0.05520302  0.77510151  0.88842021  1
  Co  Co120  1  0.82560055  0.15647544  0.32291672  1
  Co  Co121  1  0.03258773  0.00010196  0.29162608  1
  Co  Co122  1  0.10206143  0.38116988  0.53628953  1
  Co  Co123  1  -0.09484528  0.01136764  0.69435127  1
  Co  Co124  1  0.58285465  -0.01826604  0.50125475  1
  Co  Co125  1  -0.02795532  0.62781922  0.42691635  1
  Co  Co126  1  0.84438752  0.71245454  0.20510473  1
  Co  Co127  1  0.55560860  0.28684529  0.34204730  1
  Co  Co128  1  0.43965349  0.06564694  0.74571915  1
  Co  Co129  1  -0.07188703  0.59500170  0.10877694  1
  Co  Co130  1  0.24286039  0.54364315  0.09133954  1
  Co  Co131  1  0.07392593  0.56988338  0.88040126  1
  Co  Co132  1  0.62077153  0.56129310  0.37466731  1
  Co  Co133  1  0.40918550  0.09044121  0.08433207  1
  Co  Co134  1  0.36368740  0.56517214  0.54270067  1
  Co  Co135  1  0.88460830  0.85634006  0.76563564  1
  Co  Co136  1  0.58975102  -0.04832229  0.03011616  1
  Co  Co137  1  0.00905530  0.40416626  0.08665775  1
  Co  Co138  1  0.67448934  0.86450848  0.91715897  1
  Co  Co139  1  0.61711432  0.64901326  -0.08815907  1
  Co  Co140  1  0.75889830  0.17581697  0.50784524  1
  Co  Co141  1  -0.07386998  0.38262089  0.30011336  1
  Co  Co142  1  0.88368690  0.28984034  0.43276915  1
  Co  Co143  1  0.01999969  0.20858883  0.49021021  1
  Co  Co144  1  0.52637431  0.46737876  0.72614718  1
  Co  Co145  1  0.41541991  0.72640182  0.47411326  1
  Co  Co146  1  0.84970522  0.01795625  0.54837855  1
  Co  Co147  1  0.54702621  0.11518634  0.60359037  1
  Co  Co148  1  0.88968175  0.18673843  0.58730382  1
  Co  Co149  1  0.39446906  0.28827906  -0.00842970  1
  Co  Co150  1  0.16839778  0.44032854  -0.01420190  1
  Co  Co151  1  0.79679371  0.29582702  0.24873056  1
  Co  Co152  1  0.23972331  0.42657102  0.64391322  1
  Co  Co153  1  0.20203408  0.03956911  0.26194231  1
  Co  Co154  1  0.37334439  0.68908935  0.64184636  1
  Co  Co155  1  0.73238325  0.56441674  0.22954472  1
  Co  Co156  1  0.45631464  0.88000363  0.73694703  1
  Co  Co157  1  0.34773231  0.64204674  0.02870396  1
  Co  Co158  1  0.38257306  0.56500332  0.87788473  1
  Co  Co159  1  0.31468343  0.30679955  0.72582558  1
  Co  Co160  1  0.37878131  0.88531018  0.46623597  1
  Co  Co161  1  0.18899975  0.41014429  0.15116699  1
  Ni  Ni162  1  0.34368388  0.44127137  0.34682118  1
  Ni  Ni163  1  0.18687903  -0.01293636  0.82956308  1
  Ni  Ni164  1  0.63682923  0.71111376  0.63336784  1
  Ni  Ni165  1  0.59054473  -0.03062350  0.66733116  1
  Ni  Ni166  1  0.52352491  0.71334008  0.16914149  1
  Ni  Ni167  1  0.51332136  0.64535972  0.75009315  1
  Ni  Ni168  1  0.88700806  0.46495344  -0.01374683  1
  Ni  Ni169  1  0.31127133  -0.04147451  0.69897357  1
  Ni  Ni170  1  0.30018814  0.64888028  0.37727277  1
  Ni  Ni171  1  -0.08199404  0.74432769  0.53246091  1
  Ni  Ni172  1  0.76540276  0.04922636  0.09296565  1
  Ni  Ni173  1  -0.00175650  0.57368592  0.72590201  1
  Ni  Ni174  1  0.91157418  0.07289306  0.20043341  1
  Ni  Ni175  1  0.84515348  0.03772834  0.83943813  1
  Ni  Ni176  1  0.22753115  0.65843715  0.51690279  1
  Ni  Ni177  1  0.54686146  0.03393371  0.16918201  1
  Ni  Ni178  1  0.69845500  0.22313067  0.86444638  1
  Ni  Ni179  1  0.14048309  0.88057621  0.28840279  1
  Ni  Ni180  1  0.47780790  0.14082440  0.28144626  1
  Ni  Ni181  1  0.78778692  0.46720167  0.66581328  1
  Ni  Ni182  1  0.84272707  0.29403564  0.83736236  1
  Ni  Ni183  1  0.32609347  0.16357796  0.22259720  1
  Ni  Ni184  1  0.40265340  0.20473982  0.84138940  1
  Ni  Ni185  1  0.14173066  0.81977767  0.69976704  1
  Ni  Ni186  1  0.83762483  0.89264606  -0.07038337  1
  Ni  Ni187  1  0.18012132  0.72074292  0.27485362  1
  Ni  Ni188  1  0.03476528  0.62633551  0.25383695  1
  Ni  Ni189  1  -0.02413310  0.15915872  0.06571323  1
  Ni  Ni190  1  0.64905868  0.29156542  0.09671082  1
  Ni  Ni191  1  0.78447219  0.43009753  0.35730265  1
  Ni  Ni192  1  0.82563831  0.16194677  -0.04442031  1
  Ni  Ni193  1  0.09263505  0.15537283  0.33871632  1
  Ni  Ni194  1  0.85798036  0.89646876  0.44005388  1
  Ni  Ni195  1  0.18851340  0.43142318  0.32304275  1
  Ni  Ni196  1  0.68978746  0.56353067  0.55852986  1
  Ni  Ni197  1  0.07320742  0.09437322  0.75299644  1
  Ni  Ni198  1  0.69145392  0.72018555  0.13500688  1
  Ni  Ni199  1  0.49963244  0.43682487  0.31267455  1
  Ni  Ni200  1  0.11687468  -0.10971402  0.53529712  1
  Ni  Ni201  1  0.52776574  0.37902889  0.16754804  1
  Ni  Ni202  1  0.58605522  0.01161327  0.32625669  1
  Ni  Ni203  1  0.26930129  0.20916559  0.06933351  1
  Ni  Ni204  1  0.51877199  0.70492691  0.32851142  1
  Ni  Ni205  1  0.75818383  0.72407815  0.50695279  1
  Ni  Ni206  1  0.70182926  0.85149160  0.39811938  1
  Ni  Ni207  1  -0.02386548  0.85862680  0.03136112  1
  Ni  Ni208  1  0.63591972  0.41498499  0.62710964  1
  Ni  Ni209  1  0.38946548  0.77499121  0.10958781  1
  Ni  Ni210  1  -0.02083117  0.10641284  0.90711051  1
  Ni  Ni211  1  0.56830700  0.30671491  0.76311355  1
  Ni  Ni212  1  0.29817356  0.78493474  0.95934986  1
  Ni  Ni213  1  -0.01978147  0.32295568  0.75417653  1
  Ni  Ni214  1  0.46762659  0.28118389  0.49111272  1
