# generated using pymatgen
data_Ti108Co54Ni53
_symmetry_space_group_name_H-M   'P 1'
_cell_length_a   14.68726369
_cell_length_b   14.67852881
_cell_length_c   14.64164173
_cell_angle_alpha   89.90807402
_cell_angle_beta   90.15633943
_cell_angle_gamma   90.14854510
_symmetry_Int_Tables_number   1
_chemical_formula_structural   Ti108Co54Ni53
_chemical_formula_sum   'Ti108 Co54 Ni53'
_cell_volume   3156.52742556
_cell_formula_units_Z   1
loop_
 _symmetry_equiv_pos_site_id
 _symmetry_equiv_pos_as_xyz
  1  'x, y, z'
loop_
 _atom_site_type_symbol
 _atom_site_label
 _atom_site_symmetry_multiplicity
 _atom_site_fract_x
 _atom_site_fract_y
 _atom_site_fract_z
 _atom_site_occupancy
  Ti  Ti0  1  0.17796797  0.07631709  0.24579546  1
  Ti  Ti1  1  0.10616558  0.09858299  0.57553063  1
  Ti  Ti2  1  0.10747570  0.07640838  0.94776260  1
  Ti  Ti3  1  0.12201697  0.46395399  0.23740738  1
  Ti  Ti4  1  0.00761698  0.39499522  0.59691444  1
  Ti  Ti5  1  0.11350835  0.43138494  0.90716300  1
  Ti  Ti6  1  0.01949023  0.74349486  0.19671412  1
  Ti  Ti7  1  0.02815474  0.78131146  0.60083020  1
  Ti  Ti8  1  0.04178245  0.73658062  0.94708766  1
  Ti  Ti9  1  0.43994733  0.09005905  0.27850763  1
  Ti  Ti10  1  0.41588255  0.01606689  0.61680626  1
  Ti  Ti11  1  0.40734254  0.20010240  0.87961037  1
  Ti  Ti12  1  0.40062687  0.45105124  0.19880655  1
  Ti  Ti13  1  0.36478190  0.46085292  0.60816073  1
  Ti  Ti14  1  0.38788193  0.40952896  1.00493828  1
  Ti  Ti15  1  0.41290661  0.79667657  0.20604523  1
  Ti  Ti16  1  0.36220245  0.80701227  0.59723689  1
  Ti  Ti17  1  0.42726460  0.73344831  0.83821320  1
  Ti  Ti18  1  0.81019824  0.10000159  0.24225470  1
  Ti  Ti19  1  0.73754404  0.08694265  0.54993415  1
  Ti  Ti20  1  0.75797656  0.05761634  0.88682578  1
  Ti  Ti21  1  0.72505137  0.42293785  0.21288410  1
  Ti  Ti22  1  0.77778157  0.40318717  0.68340054  1
  Ti  Ti23  1  0.76308776  0.44704002  0.90336973  1
  Ti  Ti24  1  0.74213656  0.82381237  0.19511079  1
  Ti  Ti25  1  0.81004530  0.77750208  0.64847224  1
  Ti  Ti26  1  0.83496085  0.73164105  0.91686966  1
  Ti  Ti27  1  0.04221576  0.25778857  0.00874449  1
  Ti  Ti28  1  0.05416123  0.27583958  0.44736291  1
  Ti  Ti29  1  0.08133290  0.16122998  0.76576974  1
  Ti  Ti30  1  0.12144568  0.58459093  0.05196745  1
  Ti  Ti31  1  0.16072238  0.56790932  0.41080451  1
  Ti  Ti32  1  0.08019128  0.60420134  0.70119832  1
  Ti  Ti33  1  0.13812634  0.92244921  0.11089282  1
  Ti  Ti34  1  0.05583412  0.93501360  0.37148994  1
  Ti  Ti35  1  0.03663829  0.97141916  0.73196475  1
  Ti  Ti36  1  0.44348101  0.27863125  0.16519490  1
  Ti  Ti37  1  0.40942084  0.20437923  0.42518298  1
  Ti  Ti38  1  0.40611167  0.33755308  0.73275822  1
  Ti  Ti39  1  0.38958176  0.62141080  0.03039621  1
  Ti  Ti40  1  0.39090380  0.71696963  0.41720808  1
  Ti  Ti41  1  0.38857042  0.53885303  0.82547042  1
  Ti  Ti42  1  0.43533106  0.91490241  0.05057519  1
  Ti  Ti43  1  0.44311268  0.89457968  0.37498814  1
  Ti  Ti44  1  0.48284444  0.88605095  0.72568075  1
  Ti  Ti45  1  0.75500338  0.24198134  0.13367969  1
  Ti  Ti46  1  0.77780042  0.22439302  0.39656132  1
  Ti  Ti47  1  0.67077295  0.15930865  0.75610191  1
  Ti  Ti48  1  0.77529651  0.65278441  0.09341604  1
  Ti  Ti49  1  0.81870867  0.60748473  0.36359475  1
  Ti  Ti50  1  0.81198356  0.59873497  0.77206396  1
  Ti  Ti51  1  0.74122246  0.95373241  0.05783329  1
  Ti  Ti52  1  0.73529345  0.86253759  0.43969176  1
  Ti  Ti53  1  0.67404156  0.89431056  0.73199539  1
  Ti  Ti54  1  0.27378217  0.06295210  0.05233158  1
  Ti  Ti55  1  0.21329854  0.18372977  0.42046065  1
  Ti  Ti56  1  0.25756351  0.12088937  0.70557828  1
  Ti  Ti57  1  0.21940806  0.38224772  0.07708708  1
  Ti  Ti58  1  0.31298537  0.40914888  0.42097689  1
  Ti  Ti59  1  0.18907478  0.41287562  0.68707746  1
  Ti  Ti60  1  0.23285250  0.72229852  0.14574900  1
  Ti  Ti61  1  0.19264552  0.81006791  0.46329058  1
  Ti  Ti62  1  0.15832936  0.80480165  0.79411811  1
  Ti  Ti63  1  0.46301596  0.12228434  0.06973509  1
  Ti  Ti64  1  0.60533201  0.11638556  0.40594269  1
  Ti  Ti65  1  0.51669107  0.05899576  0.79341180  1
  Ti  Ti66  1  0.58598830  0.37849481  0.07456721  1
  Ti  Ti67  1  0.57570652  0.33406177  0.40820345  1
  Ti  Ti68  1  0.61209204  0.37430051  0.79621898  1
  Ti  Ti69  1  0.58127309  0.68874509  0.10509827  1
  Ti  Ti70  1  0.61371547  0.70124676  0.43636822  1
  Ti  Ti71  1  0.63226317  0.73059499  0.87152087  1
  Ti  Ti72  1  0.89686752  0.10583053  0.03048253  1
  Ti  Ti73  1  0.88241500  0.05234868  0.41883130  1
  Ti  Ti74  1  0.86087183  0.07233403  0.71147136  1
  Ti  Ti75  1  0.91751323  0.36925707  0.12852207  1
  Ti  Ti76  1  0.89557645  0.40262571  0.40912475  1
  Ti  Ti77  1  0.94582732  0.43359088  0.79912338  1
  Ti  Ti78  1  0.89385880  0.83364915  0.08598551  1
  Ti  Ti79  1  1.00126439  0.72537175  0.39368792  1
  Ti  Ti80  1  0.95992998  0.79285847  0.77815560  1
  Ti  Ti81  1  0.26965717  0.28192492  0.25103883  1
  Ti  Ti82  1  0.29791349  0.26653173  0.57720602  1
  Ti  Ti83  1  0.21220053  0.25861522  0.90829267  1
  Ti  Ti84  1  0.31098244  0.58085336  0.29620600  1
  Ti  Ti85  1  0.25525324  0.62034214  0.59132811  1
  Ti  Ti86  1  0.24283314  0.67591348  0.90272806  1
  Ti  Ti87  1  0.25817076  0.90019589  0.30403599  1
  Ti  Ti88  1  0.21975686  0.94374686  0.62633576  1
  Ti  Ti89  1  0.27007108  0.91910197  0.91873236  1
  Ti  Ti90  1  0.62821461  0.08832405  0.21170163  1
  Ti  Ti91  1  0.53299551  0.18141823  0.58523883  1
  Ti  Ti92  1  0.65988586  0.25064995  0.93838578  1
  Ti  Ti93  1  0.58631896  0.55901841  0.25154249  1
  Ti  Ti94  1  0.45261198  0.63700157  0.63185054  1
  Ti  Ti95  1  0.56463887  0.53543477  0.92321737  1
  Ti  Ti96  1  0.60627037  0.87919956  0.30216788  1
  Ti  Ti97  1  0.57969674  0.92976905  0.52823477  1
  Ti  Ti98  1  0.58513209  0.92069391  0.92568971  1
  Ti  Ti99  1  0.96499517  0.20261865  0.19188794  1
  Ti  Ti100  1  0.92408364  0.19911547  0.55330897  1
  Ti  Ti101  1  0.92543408  0.22050623  0.85081547  1
  Ti  Ti102  1  0.96809833  0.55724136  0.16901216  1
  Ti  Ti103  1  0.96559840  0.57661763  0.51580556  1
  Ti  Ti104  1  0.93875367  0.55006489  0.96059009  1
  Ti  Ti105  1  0.87606010  0.90841604  0.28961574  1
  Ti  Ti106  1  0.90734045  0.87452898  0.49021760  1
  Ti  Ti107  1  0.90275062  0.91525323  0.91546599  1
  Co  Co108  1  -0.06142815  0.04035438  0.57034265  1
  Co  Co109  1  0.07534360  0.09525749  0.11791710  1
  Co  Co110  1  0.54400211  0.75742131  0.68368770  1
  Co  Co111  1  0.50061499  0.47997791  0.72846721  1
  Co  Co112  1  0.42443713  0.34079966  0.33194584  1
  Co  Co113  1  0.74808050  0.37347662  0.04299575  1
  Co  Co114  1  0.51167933  0.77664732  -0.00968605  1
  Co  Co115  1  0.12393332  0.81183779  0.28967453  1
  Co  Co116  1  0.93543944  0.19988218  0.35816458  1
  Co  Co117  1  0.04883046  0.10049763  0.42811812  1
  Co  Co118  1  0.32526521  0.15406261  0.17751052  1
  Co  Co119  1  0.84289663  0.30276659  0.26852881  1
  Co  Co120  1  0.42783478  0.03700154  -0.06332439  1
  Co  Co121  1  0.50090808  0.26559403  -0.00299911  1
  Co  Co122  1  0.70223767  0.78729886  0.02318037  1
  Co  Co123  1  0.35810745  0.01950450  0.78173473  1
  Co  Co124  1  0.11514777  0.67348108  0.52541825  1
  Co  Co125  1  0.55821400  0.39076168  0.24928811  1
  Co  Co126  1  0.23998154  0.27023934  0.75037693  1
  Co  Co127  1  0.06314230  0.93326489  0.54383871  1
  Co  Co128  1  0.66291383  0.78687046  0.57774962  1
  Co  Co129  1  0.18160946  0.79908189  -0.00872537  1
  Co  Co130  1  0.01608186  0.91161948  0.20117986  1
  Co  Co131  1  0.05192744  0.43067039  0.06170575  1
  Co  Co132  1  0.10932914  0.58457716  0.87316398  1
  Co  Co133  1  0.92275734  0.90571331  0.64654464  1
  Co  Co134  1  0.88227731  -0.01002617  0.14498707  1
  Co  Co135  1  0.68397416  0.70034323  0.72313949  1
  Co  Co136  1  0.83652824  0.50136750  0.07246822  1
  Co  Co137  1  0.50497951  0.78798259  0.52503772  1
  Co  Co138  1  -0.07375528  0.66452268  0.65772969  1
  Co  Co139  1  0.83376628  0.76940501  0.35876064  1
  Co  Co140  1  0.86229879  0.70956991  0.50416419  1
  Co  Co141  1  0.18646398  0.37262083  0.51716237  1
  Co  Co142  1  -0.00907360  0.56976590  0.33236795  1
  Co  Co143  1  -0.05467563  0.67955594  0.06326089  1
  Co  Co144  1  0.12606077  0.51297367  0.56503015  1
  Co  Co145  1  0.58454012  0.11132720  0.92690874  1
  Co  Co146  1  0.27213124  0.10666716  0.89755165  1
  Co  Co147  1  0.53357537  0.62825004  0.77685007  1
  Co  Co148  1  0.30643954  -0.13188113  0.74530632  1
  Co  Co149  1  0.91133874  0.50708373  0.66146871  1
  Co  Co150  1  0.42540420  0.88731445  0.87990051  1
  Co  Co151  1  0.00195663  0.35392552  0.29356589  1
  Co  Co152  1  0.33807664  0.24722873  0.03012790  1
  Co  Co153  1  0.83400846  -0.07637089  0.77025913  1
  Co  Co154  1  0.35031376  0.76984320  -0.00203064  1
  Co  Co155  1  0.72973190  0.60793254  -0.06603272  1
  Co  Co156  1  0.76265247  -0.06108203  0.59814284  1
  Co  Co157  1  0.44001581  0.33058745  0.52492063  1
  Co  Co158  1  0.26341156  0.73579966  0.31433324  1
  Co  Co159  1  0.68213722  0.26191075  0.27317416  1
  Co  Co160  1  0.09796867  0.20232985  0.29663407  1
  Co  Co161  1  0.05358563  0.44707666  0.42750700  1
  Ni  Ni162  1  0.16576799  0.35246757  0.35146450  1
  Ni  Ni163  1  0.69352789  0.69779571  0.28344571  1
  Ni  Ni164  1  0.28603540  0.40101229  0.84410690  1
  Ni  Ni165  1  0.32889600  0.92882360  0.48546376  1
  Ni  Ni166  1  0.83187139  0.33594543  0.54471039  1
  Ni  Ni167  1  0.42965705  0.62611352  0.19489457  1
  Ni  Ni168  1  0.58848076  0.85604787  0.12280383  1
  Ni  Ni169  1  0.29902000  0.09232824  0.53231719  1
  Ni  Ni170  1  0.82131550  0.24139804  -0.02623351  1
  Ni  Ni171  1  0.71200913  0.11507464  0.04220896  1
  Ni  Ni172  1  0.66320331  0.53308056  0.78079298  1
  Ni  Ni173  1  0.60427367  0.03263216  0.65026824  1
  Ni  Ni174  1  0.26618902  0.54187857  0.13348331  1
  Ni  Ni175  1  0.18419966  -0.00120526  0.45103614  1
  Ni  Ni176  1  0.18700790  -0.00562857  0.79495135  1
  Ni  Ni177  1  0.58172860  0.01284271  0.06388972  1
  Ni  Ni178  1  0.67859622  0.24722055  0.51971723  1
  Ni  Ni179  1  0.87104000  0.47033426  0.26317317  1
  Ni  Ni180  1  0.00114854  -0.02717935  0.03459715  1
  Ni  Ni181  1  0.53040004  0.71876905  0.28967599  1
  Ni  Ni182  1  0.46019170  0.04226493  0.45593259  1
  Ni  Ni183  1  0.07638516  0.90946912  0.89872423  1
  Ni  Ni184  1  0.63413630  0.29331921  0.66299624  1
  Ni  Ni185  1  0.25826259  0.51991263  -0.04113060  1
  Ni  Ni186  1  0.72003408  0.00813705  0.34956769  1
  Ni  Ni187  1  0.96659677  0.62938701  0.81723431  1
  Ni  Ni188  1  0.13603550  0.63058346  0.24962525  1
  Ni  Ni189  1  0.67269302  0.52381581  0.06442026  1
  Ni  Ni190  1  0.86248679  0.69290446  0.22392441  1
  Ni  Ni191  1  0.09981078  0.30731553  0.16947677  1
  Ni  Ni192  1  0.73943377  0.87490153  0.89006884  1
  Ni  Ni193  1  0.19517089  0.77360344  0.63620619  1
  Ni  Ni194  1  0.30243094  0.69686455  0.73629936  1
  Ni  Ni195  1  0.51274571  0.52578558  0.09308513  1
  Ni  Ni196  1  0.23605762  0.54721228  0.76557026  1
  Ni  Ni197  1  0.78496109  0.22186521  0.65469484  1
  Ni  Ni198  1  0.46288201  0.50695861  0.34835260  1
  Ni  Ni199  1  0.47584123  0.38598595  0.87825273  1
  Ni  Ni200  1  -0.03858904  0.05796024  0.86518480  1
  Ni  Ni201  1  0.31108184  0.05189077  0.36423919  1
  Ni  Ni202  1  0.28749536  0.87057442  0.10416588  1
  Ni  Ni203  1  0.33581357  -0.00839663  0.19491849  1
  Ni  Ni204  1  0.18940515  0.20545418  0.07967366  1
  Ni  Ni205  1  0.11507108  0.25964192  0.62450519  1
  Ni  Ni206  1  -0.01097338  0.05968720  0.27283860  1
  Ni  Ni207  1  -0.07443128  0.28938465  0.69910767  1
  Ni  Ni208  1  0.36369183  0.56504945  0.47275332  1
  Ni  Ni209  1  0.53486421  0.22244604  0.28992694  1
  Ni  Ni210  1  0.78172018  0.29470553  0.81047140  1
  Ni  Ni211  1  0.41406680  0.17336196  0.70452424  1
  Ni  Ni212  1  0.49880023  -0.03921582  0.20404669  1
  Ni  Ni213  1  -0.07986581  0.37592302  -0.04293698  1
  Ni  Ni214  1  0.07143213  0.32417729  0.77800433  1
