# generated using pymatgen
data_Ti108Co54Ni53
_symmetry_space_group_name_H-M   'P 1'
_cell_length_a   14.52471245
_cell_length_b   14.61090061
_cell_length_c   14.60562134
_cell_angle_alpha   89.58393462
_cell_angle_beta   89.64106933
_cell_angle_gamma   90.19373709
_symmetry_Int_Tables_number   1
_chemical_formula_structural   Ti108Co54Ni53
_chemical_formula_sum   'Ti108 Co54 Ni53'
_cell_volume   3099.43151147
_cell_formula_units_Z   1
loop_
 _symmetry_equiv_pos_site_id
 _symmetry_equiv_pos_as_xyz
  1  'x, y, z'
loop_
 _atom_site_type_symbol
 _atom_site_label
 _atom_site_symmetry_multiplicity
 _atom_site_fract_x
 _atom_site_fract_y
 _atom_site_fract_z
 _atom_site_occupancy
  Ti  Ti0  1  0.04214494  0.08966933  0.21150316  1
  Ti  Ti1  1  0.15343102  0.13469856  0.55366152  1
  Ti  Ti2  1  0.13350086  0.06238226  0.94119541  1
  Ti  Ti3  1  0.12597261  0.37705742  0.27877135  1
  Ti  Ti4  1  0.06765816  0.32749597  0.50483341  1
  Ti  Ti5  1  0.10073844  0.36365660  0.90765456  1
  Ti  Ti6  1  0.04901265  0.82192281  0.27870179  1
  Ti  Ti7  1  0.12907948  0.86248330  0.57746300  1
  Ti  Ti8  1  0.00947767  0.77332785  0.94603564  1
  Ti  Ti9  1  0.38326847  0.09075616  0.22106010  1
  Ti  Ti10  1  0.51185446  0.15062900  0.60231938  1
  Ti  Ti11  1  0.36474699  0.07081894  0.88646498  1
  Ti  Ti12  1  0.36907147  0.39694155  0.21946375  1
  Ti  Ti13  1  0.47442110  0.42369246  0.57581867  1
  Ti  Ti14  1  0.37486046  0.43200290  0.86729306  1
  Ti  Ti15  1  0.44617686  0.71578253  0.22569242  1
  Ti  Ti16  1  0.47740066  0.77509177  0.51154861  1
  Ti  Ti17  1  0.40586404  0.70089375  0.98806955  1
  Ti  Ti18  1  0.71255641  0.09192720  0.24362757  1
  Ti  Ti19  1  0.74601209  0.03453228  0.58693170  1
  Ti  Ti20  1  0.75896778  0.14909414  1.04047782  1
  Ti  Ti21  1  0.81489839  0.48447622  0.19644495  1
  Ti  Ti22  1  0.72359546  0.36751586  0.55349129  1
  Ti  Ti23  1  0.78501900  0.43294482  0.89027230  1
  Ti  Ti24  1  0.76000551  0.80865859  0.25919995  1
  Ti  Ti25  1  0.72145424  0.70338765  0.64800900  1
  Ti  Ti26  1  0.79605359  0.81703781  0.91999233  1
  Ti  Ti27  1  0.00976478  0.22334746  0.03841404  1
  Ti  Ti28  1  0.01775128  0.20010555  0.37550864  1
  Ti  Ti29  1  0.08450091  0.24826160  0.70709829  1
  Ti  Ti30  1  0.09793566  0.57562629  0.14738822  1
  Ti  Ti31  1  0.05877224  0.57393301  0.47362217  1
  Ti  Ti32  1  0.08325431  0.45331346  0.73021311  1
  Ti  Ti33  1  0.08511669  0.91518757  0.10106221  1
  Ti  Ti34  1  0.16017228  0.94688629  0.35278173  1
  Ti  Ti35  1  0.10009078  0.86726444  0.78364408  1
  Ti  Ti36  1  0.45432942  0.23498806  0.11946427  1
  Ti  Ti37  1  0.42742680  0.26642280  0.45454306  1
  Ti  Ti38  1  0.35723873  0.23088457  0.78075488  1
  Ti  Ti39  1  0.44409232  0.54991219  0.14295547  1
  Ti  Ti40  1  0.39500741  0.63461109  0.42522952  1
  Ti  Ti41  1  0.40404383  0.63593701  0.79047647  1
  Ti  Ti42  1  0.41325233  0.92454405  0.16888951  1
  Ti  Ti43  1  0.46902315  0.97468330  0.40627685  1
  Ti  Ti44  1  0.45125148  0.94654201  0.76589564  1
  Ti  Ti45  1  0.68963920  0.34723340  0.09608009  1
  Ti  Ti46  1  0.73292257  0.26227182  0.38133354  1
  Ti  Ti47  1  0.77419275  0.20006258  0.70276473  1
  Ti  Ti48  1  0.74366889  0.56526097  0.03752690  1
  Ti  Ti49  1  0.72574762  0.50303682  0.40015770  1
  Ti  Ti50  1  0.73622405  0.50736238  0.68796146  1
  Ti  Ti51  1  0.75480509  0.94900818  0.08723636  1
  Ti  Ti52  1  0.76860513  0.88951551  0.44564930  1
  Ti  Ti53  1  0.78422336  0.92336650  0.75369589  1
  Ti  Ti54  1  0.28082931  -0.01281276  0.03728625  1
  Ti  Ti55  1  0.30077523  0.12593867  0.39937678  1
  Ti  Ti56  1  0.31882765  0.06017587  0.69004805  1
  Ti  Ti57  1  0.18065372  0.32793769  0.09424530  1
  Ti  Ti58  1  0.21814477  0.46518015  0.43253540  1
  Ti  Ti59  1  0.27339130  0.39339059  0.68467294  1
  Ti  Ti60  1  0.18543791  0.73367369  0.04814689  1
  Ti  Ti61  1  0.30453977  0.82099696  0.43390589  1
  Ti  Ti62  1  0.28444819  0.84557011  0.70144986  1
  Ti  Ti63  1  0.57370153  0.03348154  0.05429561  1
  Ti  Ti64  1  0.58099364  0.12780695  0.40928938  1
  Ti  Ti65  1  0.62941505  0.06254105  0.74704142  1
  Ti  Ti66  1  0.48182407  0.39238439  0.03836032  1
  Ti  Ti67  1  0.54619767  0.41053359  0.38074205  1
  Ti  Ti68  1  0.60017965  0.43317841  0.79895376  1
  Ti  Ti69  1  0.57825977  0.66997888  0.07798935  1
  Ti  Ti70  1  0.59904302  0.79496938  0.37446377  1
  Ti  Ti71  1  0.56259010  0.76354220  0.72160742  1
  Ti  Ti72  1  0.94104855  0.05110540  0.06161345  1
  Ti  Ti73  1  0.92082556  0.03833828  0.45971296  1
  Ti  Ti74  1  0.99593433  0.04895587  0.76727083  1
  Ti  Ti75  1  0.99429576  0.40750841  0.09870765  1
  Ti  Ti76  1  0.90283253  0.46608140  0.53493850  1
  Ti  Ti77  1  0.90796921  0.33921091  0.77186720  1
  Ti  Ti78  1  0.86301230  0.72088482  0.08945404  1
  Ti  Ti79  1  0.97601526  0.75755629  0.47815946  1
  Ti  Ti80  1  0.90268778  0.75496282  0.75683293  1
  Ti  Ti81  1  0.26262156  0.23867451  0.23158343  1
  Ti  Ti82  1  0.25310741  0.30338738  0.52328551  1
  Ti  Ti83  1  0.33199277  0.24982887  0.96525274  1
  Ti  Ti84  1  0.28947576  0.58133067  0.27666085  1
  Ti  Ti85  1  0.28726856  0.57085882  0.58484208  1
  Ti  Ti86  1  0.22895608  0.56955216  0.91380937  1
  Ti  Ti87  1  0.26930049  0.80029540  0.24547196  1
  Ti  Ti88  1  0.26555501  0.98531630  0.51863337  1
  Ti  Ti89  1  0.30230013  0.83984507  0.90439358  1
  Ti  Ti90  1  0.58829605  0.25000608  0.25687591  1
  Ti  Ti91  1  0.59839961  0.27863530  0.69243040  1
  Ti  Ti92  1  0.53370023  0.21513735  0.91911674  1
  Ti  Ti93  1  0.61263637  0.56315616  0.25966895  1
  Ti  Ti94  1  0.53520109  0.61145740  0.60005845  1
  Ti  Ti95  1  0.54654851  0.53856116  0.94111575  1
  Ti  Ti96  1  0.58946668  0.89967774  0.20091526  1
  Ti  Ti97  1  0.56511087  0.91438850  0.61479901  1
  Ti  Ti98  1  0.58163701  0.84906408  0.93020457  1
  Ti  Ti99  1  0.90908521  0.32599469  0.26175410  1
  Ti  Ti100  1  0.85000726  0.20410855  0.52692614  1
  Ti  Ti101  1  0.87871079  0.18424576  0.89575530  1
  Ti  Ti102  1  0.88249269  0.65133748  0.32222167  1
  Ti  Ti103  1  0.88921005  0.63720427  0.59788683  1
  Ti  Ti104  1  0.88101395  0.61564120  0.90795753  1
  Ti  Ti105  1  0.90907510  0.89427128  0.19257137  1
  Ti  Ti106  1  0.92417589  0.89601751  0.61535505  1
  Ti  Ti107  1  0.85408156  0.99364716  0.91871013  1
  Co  Co108  1  0.24900794  -0.02699290  0.83347421  1
  Co  Co109  1  -0.01401967  -0.01019446  0.32060491  1
  Co  Co110  1  0.02499239  0.42993326  0.39279542  1
  Co  Co111  1  -0.01718389  0.49836248  0.24160825  1
  Co  Co112  1  0.91187829  0.87191143  0.03409950  1
  Co  Co113  1  0.29467239  0.73157275  0.55928183  1
  Co  Co114  1  0.43050354  -0.07470455  -0.02530000  1
  Co  Co115  1  0.69707095  0.39221392  0.27455636  1
  Co  Co116  1  0.74441784  0.35789281  0.72308043  1
  Co  Co117  1  0.53451349  0.03043429  0.88899321  1
  Co  Co118  1  0.41199695  0.74562723  0.66411156  1
  Co  Co119  1  0.70778474  0.74145414  0.80695425  1
  Co  Co120  1  0.71138017  0.66949073  0.35317504  1
  Co  Co121  1  0.03924423  0.58304678  0.63493981  1
  Co  Co122  1  0.61654868  0.17792133  0.11301940  1
  Co  Co123  1  0.17555782  0.23569269  0.38545228  1
  Co  Co124  1  -0.05829129  0.89175784  0.80960079  1
  Co  Co125  1  0.87419323  0.47366235  0.02019327  1
  Co  Co126  1  0.10583282  0.07392445  0.42065990  1
  Co  Co127  1  0.89781399  0.84400777  0.36045159  1
  Co  Co128  1  0.22101069  0.64542652  0.42388085  1
  Co  Co129  1  0.59013618  0.60028616  0.75494466  1
  Co  Co130  1  0.02220155  0.75233053  0.64895248  1
  Co  Co131  1  -0.00417409  0.17443834  0.57487182  1
  Co  Co132  1  0.69748446  0.56910179  0.86819512  1
  Co  Co133  1  0.54282421  0.06759492  0.24086470  1
  Co  Co134  1  0.74447932  0.08079393  0.42478267  1
  Co  Co135  1  0.45746517  0.53504944  0.30892259  1
  Co  Co136  1  0.75872646  0.25042278  0.20687921  1
  Co  Co137  1  0.13869238  0.45301872  0.57683579  1
  Co  Co138  1  0.66836889  0.13520459  0.88991240  1
  Co  Co139  1  0.14125084  0.69068583  0.56411475  1
  Co  Co140  1  0.88821691  0.07136828  0.64879989  1
  Co  Co141  1  0.05787833  0.25558290  0.19715940  1
  Co  Co142  1  0.33634496  0.15092307  0.55144717  1
  Co  Co143  1  0.33402511  0.81503451  0.08143437  1
  Co  Co144  1  0.79647074  0.07818944  0.79454589  1
  Co  Co145  1  0.61312548  0.72904467  0.22438504  1
  Co  Co146  1  0.20811846  0.14012684  0.81531281  1
  Co  Co147  1  0.23914536  0.21931499  0.66834894  1
  Co  Co148  1  0.02656853  0.91434977  0.45665764  1
  Co  Co149  1  0.62836745  -0.09851189  0.78205166  1
  Co  Co150  1  0.62020680  -0.02933035  0.48784551  1
  Co  Co151  1  0.21396820  0.30839764  0.81570026  1
  Co  Co152  1  0.38231795  0.88389172  0.58169375  1
  Co  Co153  1  0.30301512  0.65709532  0.12993607  1
  Co  Co154  1  -0.10094787  0.19106808  0.15797716  1
  Co  Co155  1  0.86241463  0.16778269  0.33489568  1
  Co  Co156  1  0.83719384  0.30012197  0.05236444  1
  Co  Co157  1  0.63852265  0.77020972  0.52765603  1
  Co  Co158  1  0.15444633  0.70231297  0.21733199  1
  Co  Co159  1  0.80373481  0.72475218  0.47112523  1
  Co  Co160  1  0.48638966  0.13799009  0.76955574  1
  Co  Co161  1  0.02478463  0.75509016  0.12203478  1
  Ni  Ni162  1  0.74842846  0.85892321  0.60975841  1
  Ni  Ni163  1  0.69156335  -0.02114011  -0.07690187  1
  Ni  Ni164  1  0.46490652  0.34513581  0.75909256  1
  Ni  Ni165  1  0.01466881  -0.04531508  -0.06490594  1
  Ni  Ni166  1  0.27103069  0.15152790  0.08905685  1
  Ni  Ni167  1  0.13242823  0.54098933  0.31347930  1
  Ni  Ni168  1  0.39700671  0.28413307  0.62301835  1
  Ni  Ni169  1  0.81552819  0.61863364  0.76333324  1
  Ni  Ni170  1  0.69518813  0.70044972  -0.03738645  1
  Ni  Ni171  1  0.54977977  0.69094399  0.88478799  1
  Ni  Ni172  1  0.19432445  0.09662528  0.26910264  1
  Ni  Ni173  1  -0.06606940  0.34201517  -0.06682813  1
  Ni  Ni174  1  0.15654648  0.88365816  -0.04747763  1
  Ni  Ni175  1  0.16234593  1.00043692  0.69697726  1
  Ni  Ni176  1  0.67861879  0.18601010  0.55193980  1
  Ni  Ni177  1  0.32432541  -0.03577406  0.32122662  1
  Ni  Ni178  1  0.89094890  0.32789136  0.43228739  1
  Ni  Ni179  1  0.65152492  -0.03530977  0.33450032  1
  Ni  Ni180  1  0.42240228  0.09270854  0.03845528  1
  Ni  Ni181  1  0.61223188  0.49669093  0.10404327  1
  Ni  Ni182  1  0.17280816  0.21749742  -0.03537251  1
  Ni  Ni183  1  0.42972073  0.23131594  0.29652841  1
  Ni  Ni184  1  0.61995031  0.36871781  -0.05101548  1
  Ni  Ni185  1  0.57181177  0.60297542  0.43131621  1
  Ni  Ni186  1  0.87584199  0.47696347  0.36006605  1
  Ni  Ni187  1  0.36697572  0.54324602  0.00055456  1
  Ni  Ni188  1  0.31140155  0.39752837  0.02585141  1
  Ni  Ni189  1  0.69153711  0.79868171  0.09294146  1
  Ni  Ni190  1  0.43888774  0.02352431  0.55920766  1
  Ni  Ni191  1  0.27561617  0.53385116  0.75710915  1
  Ni  Ni192  1  0.38280423  0.46482727  0.44313016  1
  Ni  Ni193  1  0.13814920  0.47901671  0.01746207  1
  Ni  Ni194  1  0.14001075  0.78668072  0.42059766  1
  Ni  Ni195  1  0.69826645  0.56810060  0.54245316  1
  Ni  Ni196  1  0.86420853  0.04562109  0.21781376  1
  Ni  Ni197  1  0.53650443  0.39989081  0.21114236  1
  Ni  Ni198  1  0.45227288  0.50156115  0.71676216  1
  Ni  Ni199  1  0.43372729  0.79670936  0.82735711  1
  Ni  Ni200  1  0.75351685  0.64440406  0.19220864  1
  Ni  Ni201  1  0.43526270  0.83571174  0.32768422  1
  Ni  Ni202  1  0.03889091  0.01807018  0.59649369  1
  Ni  Ni203  1  -0.01225474  0.60548925  0.03344177  1
  Ni  Ni204  1  0.57844980  0.30026597  0.50809290  1
  Ni  Ni205  1  -0.05179173  0.33102369  0.61825922  1
  Ni  Ni206  1  0.30663398  0.33845371  0.36062302  1
  Ni  Ni207  1  0.50870447  0.82088308  0.07700888  1
  Ni  Ni208  1  0.04485846  0.20013296  0.86128032  1
  Ni  Ni209  1  0.73792780  0.27460366  0.86601482  1
  Ni  Ni210  1  0.25359932  0.49561995  0.13854390  1
  Ni  Ni211  1  0.04715312  0.67034170  0.33686492  1
  Ni  Ni212  1  0.91636907  0.49812960  0.71778547  1
  Ni  Ni213  1  0.22658695  -0.04406003  0.18744336  1
  Ni  Ni214  1  -0.01308213  0.48898868  0.87644339  1
