# generated using pymatgen
data_Ti108Co54Ni53
_symmetry_space_group_name_H-M   'P 1'
_cell_length_a   14.71600937
_cell_length_b   14.64811987
_cell_length_c   14.63986020
_cell_angle_alpha   89.80591727
_cell_angle_beta   90.39021900
_cell_angle_gamma   89.80585144
_symmetry_Int_Tables_number   1
_chemical_formula_structural   Ti108Co54Ni53
_chemical_formula_sum   'Ti108 Co54 Ni53'
_cell_volume   3155.68596906
_cell_formula_units_Z   1
loop_
 _symmetry_equiv_pos_site_id
 _symmetry_equiv_pos_as_xyz
  1  'x, y, z'
loop_
 _atom_site_type_symbol
 _atom_site_label
 _atom_site_symmetry_multiplicity
 _atom_site_fract_x
 _atom_site_fract_y
 _atom_site_fract_z
 _atom_site_occupancy
  Ti  Ti0  1  0.07916842  0.08218190  0.35081293  1
  Ti  Ti1  1  0.15129800  0.08967139  0.62071102  1
  Ti  Ti2  1  0.01633727  -0.01872180  0.91449131  1
  Ti  Ti3  1  0.11520542  0.39477406  0.27643250  1
  Ti  Ti4  1  0.13031046  0.37034732  0.57251848  1
  Ti  Ti5  1  0.10427530  0.44937190  0.89391724  1
  Ti  Ti6  1  0.08010244  0.73958103  0.23679978  1
  Ti  Ti7  1  0.11317692  0.69889836  0.66233819  1
  Ti  Ti8  1  0.09536820  0.68351090  0.92326378  1
  Ti  Ti9  1  0.44051549  0.11639848  0.22349767  1
  Ti  Ti10  1  0.34639300  0.10068535  0.55679566  1
  Ti  Ti11  1  0.46505636  0.13181333  0.89049066  1
  Ti  Ti12  1  0.41113885  0.37715093  0.17176244  1
  Ti  Ti13  1  0.37711339  0.47384803  0.54835631  1
  Ti  Ti14  1  0.40582447  0.40657172  0.86829588  1
  Ti  Ti15  1  0.50108156  0.73726434  0.14246362  1
  Ti  Ti16  1  0.36438455  0.77284356  0.55349642  1
  Ti  Ti17  1  0.40083722  0.81318674  0.88574596  1
  Ti  Ti18  1  0.74937401  0.05041716  0.25701564  1
  Ti  Ti19  1  0.69495283  0.01332629  0.60023810  1
  Ti  Ti20  1  0.72533846  0.16737690  0.94687523  1
  Ti  Ti21  1  0.78306363  0.37703010  0.21181849  1
  Ti  Ti22  1  0.78317919  0.37599758  0.62405018  1
  Ti  Ti23  1  0.78329720  0.38476215  1.01727313  1
  Ti  Ti24  1  0.78752971  0.75278483  0.20203308  1
  Ti  Ti25  1  0.73145848  0.82073104  0.53032907  1
  Ti  Ti26  1  0.75395255  0.71128053  0.92546416  1
  Ti  Ti27  1  0.06634595  0.27311458  0.05312106  1
  Ti  Ti28  1  0.00232998  0.27293302  0.42027319  1
  Ti  Ti29  1  0.01514413  0.21096034  0.70809476  1
  Ti  Ti30  1  0.17116384  0.58621764  0.15926303  1
  Ti  Ti31  1  0.08564204  0.65601670  0.43667707  1
  Ti  Ti32  1  -0.00716358  0.59547239  0.77889455  1
  Ti  Ti33  1  0.09308463  0.91256836  0.10411167  1
  Ti  Ti34  1  0.07841199  0.87818420  0.46054116  1
  Ti  Ti35  1  0.11016834  0.94609804  0.75723886  1
  Ti  Ti36  1  0.33531168  0.24947310  0.04694211  1
  Ti  Ti37  1  0.46241509  0.25889180  0.43448337  1
  Ti  Ti38  1  0.33693622  0.24414674  0.77605021  1
  Ti  Ti39  1  0.38114610  0.56338024  0.12475608  1
  Ti  Ti40  1  0.45255310  0.61514373  0.42167947  1
  Ti  Ti41  1  0.45614683  0.63353667  0.65399372  1
  Ti  Ti42  1  0.31622457  0.96409317  0.09526842  1
  Ti  Ti43  1  0.41961487  0.93733004  0.46666853  1
  Ti  Ti44  1  0.45449507  0.95597157  0.76981321  1
  Ti  Ti45  1  0.81807681  0.19909420  0.13950094  1
  Ti  Ti46  1  0.67665920  0.32253200  0.37992998  1
  Ti  Ti47  1  0.73782511  0.20338581  0.68877008  1
  Ti  Ti48  1  0.72167780  0.55511846  0.12475024  1
  Ti  Ti49  1  0.76163855  0.58418727  0.42165719  1
  Ti  Ti50  1  0.82132062  0.66849132  0.74830983  1
  Ti  Ti51  1  0.75581898  0.86365303  0.03496803  1
  Ti  Ti52  1  0.82235743  0.87634581  0.35941312  1
  Ti  Ti53  1  0.75994510  0.87464802  0.74205555  1
  Ti  Ti54  1  0.19048553  0.09633643  0.04433325  1
  Ti  Ti55  1  0.27114770  0.07528994  0.35308677  1
  Ti  Ti56  1  0.29011935  0.06426024  0.76018904  1
  Ti  Ti57  1  0.24646199  0.42121008  0.05714545  1
  Ti  Ti58  1  0.22700258  0.36958922  0.41818669  1
  Ti  Ti59  1  0.24357249  0.41203302  0.74821495  1
  Ti  Ti60  1  0.28613223  0.72899320  0.05458016  1
  Ti  Ti61  1  0.33844240  0.76214416  0.36550586  1
  Ti  Ti62  1  0.27837741  0.70873254  0.80495669  1
  Ti  Ti63  1  0.59030768  0.10494122  0.07501999  1
  Ti  Ti64  1  0.58566213  0.04578101  0.41637763  1
  Ti  Ti65  1  0.55551826  0.11836693  0.70869850  1
  Ti  Ti66  1  0.58860049  0.41877372  0.14439953  1
  Ti  Ti67  1  0.55855125  0.46213464  0.43240496  1
  Ti  Ti68  1  0.58393725  0.35039673  0.69291645  1
  Ti  Ti69  1  0.62742171  0.89126275  0.16287324  1
  Ti  Ti70  1  0.64229115  0.75823566  0.36422937  1
  Ti  Ti71  1  0.57282531  0.77296238  0.78668515  1
  Ti  Ti72  1  0.91069110  0.10701261  0.01828373  1
  Ti  Ti73  1  0.87973478  0.11073424  0.39718344  1
  Ti  Ti74  1  0.88903706  0.13208587  0.81583229  1
  Ti  Ti75  1  1.04349940  0.46086629  0.10472341  1
  Ti  Ti76  1  0.85297641  0.40837933  0.42557197  1
  Ti  Ti77  1  0.95975132  0.37364697  0.63585473  1
  Ti  Ti78  1  0.94803959  0.77988961  0.07981132  1
  Ti  Ti79  1  0.91077734  0.73851899  0.46727015  1
  Ti  Ti80  1  0.96134523  0.80900511  0.78012015  1
  Ti  Ti81  1  0.31295820  0.26132009  0.27359658  1
  Ti  Ti82  1  0.30683182  0.28962432  0.58582549  1
  Ti  Ti83  1  0.17185579  0.22409661  0.85856479  1
  Ti  Ti84  1  0.25893813  0.57801851  0.32707038  1
  Ti  Ti85  1  0.20951559  0.54619240  0.60465587  1
  Ti  Ti86  1  0.32180112  0.55898095  0.92435052  1
  Ti  Ti87  1  0.23443748  0.89601296  0.27176462  1
  Ti  Ti88  1  0.21669636  0.86877106  0.62766747  1
  Ti  Ti89  1  0.20838327  0.87232299  0.94429978  1
  Ti  Ti90  1  0.65179544  0.22637489  0.21429239  1
  Ti  Ti91  1  0.62348613  0.20093638  0.53581521  1
  Ti  Ti92  1  0.52633282  0.29322689  0.98890172  1
  Ti  Ti93  1  0.56023367  0.59337714  0.24840137  1
  Ti  Ti94  1  0.61799075  0.65062241  0.54363555  1
  Ti  Ti95  1  0.57356802  0.74545279  0.97406094  1
  Ti  Ti96  1  0.46816022  0.92942326  0.29374676  1
  Ti  Ti97  1  0.54382566  0.84185695  0.61651142  1
  Ti  Ti98  1  0.53008105  0.94269210  0.96913945  1
  Ti  Ti99  1  0.99480288  0.22697628  0.23169396  1
  Ti  Ti100  1  0.88530045  0.16619333  0.58137421  1
  Ti  Ti101  1  0.98871921  0.28364759  0.87445686  1
  Ti  Ti102  1  0.93074822  0.61651436  0.22213755  1
  Ti  Ti103  1  0.98454295  0.53854788  0.55186231  1
  Ti  Ti104  1  0.89669075  0.54017446  0.94332880  1
  Ti  Ti105  1  0.94807612  1.00365595  0.21293006  1
  Ti  Ti106  1  0.89702344  0.95262495  0.54971944  1
  Ti  Ti107  1  0.81665999  0.98440083  0.89494121  1
  Co  Co108  1  0.44104340  0.44199510  0.02312192  1
  Co  Co109  1  0.19238689  0.23168205  0.68575863  1
  Co  Co110  1  0.79036924  0.26141311  0.49704184  1
  Co  Co111  1  0.60267979  0.89691883  0.47416901  1
  Co  Co112  1  0.78378771  0.04040379  0.09502075  1
  Co  Co113  1  0.35549613  -0.01983949  -0.07482869  1
  Co  Co114  1  0.54793029  0.58167439  0.07782756  1
  Co  Co115  1  0.26046860  0.34925613  -0.08582912  1
  Co  Co116  1  0.15875005  0.51252586  0.45295894  1
  Co  Co117  1  0.66968486  0.28294541  0.06583101  1
  Co  Co118  1  0.92878493  0.69153812  0.90973958  1
  Co  Co119  1  0.19648185  0.74245671  0.52348368  1
  Co  Co120  1  0.15304659  0.23359882  0.31768573  1
  Co  Co121  1  0.86138502  0.83651469  -0.09550103  1
  Co  Co122  1  0.12669854  0.75068529  0.07187735  1
  Co  Co123  1  -0.04766265  0.43688613  0.79757985  1
  Co  Co124  1  0.66584644  0.46982804  0.29269007  1
  Co  Co125  1  0.64892239  0.36116577  0.53603454  1
  Co  Co126  1  0.61136834  -0.05441364  0.73021804  1
  Co  Co127  1  0.82063204  0.51386730  0.28102722  1
  Co  Co128  1  0.09383509  0.34904932  0.75646123  1
  Co  Co129  1  0.07697171  0.09964723  0.79560211  1
  Co  Co130  1  0.24374122  0.72318974  0.21717364  1
  Co  Co131  1  0.54325388  0.50222891  0.59524181  1
  Co  Co132  1  0.88294397  0.49580193  0.11209728  1
  Co  Co133  1  -0.08163427  -0.06520035  0.04398891  1
  Co  Co134  1  0.30692580  0.21966241  0.42917427  1
  Co  Co135  1  0.86926760  0.52735551  0.66735868  1
  Co  Co136  1  0.49774477  0.77081202  0.30436767  1
  Co  Co137  1  0.02461496  0.43097646  0.42861962  1
  Co  Co138  1  -0.04609645  -0.04094042  0.38617656  1
  Co  Co139  1  0.28649939  0.67707739  0.65075728  1
  Co  Co140  1  0.40731920  0.79173882  0.71734894  1
  Co  Co141  1  0.17263755  0.77229890  0.36512309  1
  Co  Co142  1  -0.04293253  0.39833114  -0.02017039  1
  Co  Co143  1  0.86634303  0.25655070  -0.02723336  1
  Co  Co144  1  0.16762658  0.17553759  0.47071386  1
  Co  Co145  1  0.41260258  0.38980969  0.69656746  1
  Co  Co146  1  0.03330929  0.83299421  0.94374781  1
  Co  Co147  1  0.05499022  0.22781284  0.56222036  1
  Co  Co148  1  0.00974955  0.61535973  0.06244752  1
  Co  Co149  1  0.58901534  0.04647736  0.86263151  1
  Co  Co150  1  0.06943551  0.90309831  0.28548487  1
  Co  Co151  1  0.43824143  0.50279165  0.28089908  1
  Co  Co152  1  0.68009684  0.00646274  -0.01452467  1
  Co  Co153  1  0.67032361  0.70915937  0.09820093  1
  Co  Co154  1  0.39435127  0.65776502  0.25448416  1
  Co  Co155  1  0.42438402  0.09662975  0.39442419  1
  Co  Co156  1  0.92424585  0.32972122  0.12225311  1
  Co  Co157  1  0.50318658  0.24574127  0.14732814  1
  Co  Co158  1  0.53393152  0.35421280  0.29049668  1
  Co  Co159  1  0.93624012  0.80925654  0.26348494  1
  Co  Co160  1  0.42844208  0.67033158  -0.00732410  1
  Co  Co161  1  0.58996185  0.04413851  0.23471978  1
  Ni  Ni162  1  0.18391443  0.57321556  0.80058404  1
  Ni  Ni163  1  0.36511727  -0.05787830  0.62931768  1
  Ni  Ni164  1  0.34719145  0.54434241  0.74502630  1
  Ni  Ni165  1  0.52091347  0.01219857  0.58444113  1
  Ni  Ni166  1  0.15446189  0.02795924  0.20842947  1
  Ni  Ni167  1  0.66974675  0.87519065  0.88312973  1
  Ni  Ni168  1  0.83954987  0.65676539  0.06007252  1
  Ni  Ni169  1  -0.00401101  0.02883229  0.66643981  1
  Ni  Ni170  1  0.48154712  -0.02962793  0.13115333  1
  Ni  Ni171  1  0.17406475  0.56643883  -0.00066311  1
  Ni  Ni172  1  0.19007934  0.02715104  0.89077624  1
  Ni  Ni173  1  0.86229489  0.80792510  0.62982497  1
  Ni  Ni174  1  -0.04988950  0.41626395  0.27022643  1
  Ni  Ni175  1  0.68494093  0.73244527  0.67331247  1
  Ni  Ni176  1  0.01510057  0.07462413  0.50414551  1
  Ni  Ni177  1  0.08116273  0.49443804  0.69275526  1
  Ni  Ni178  1  0.05904230  0.13820313  -0.04996038  1
  Ni  Ni179  1  0.66014578  -0.08167231  0.32251025  1
  Ni  Ni180  1  0.55558636  0.18529843  0.33020860  1
  Ni  Ni181  1  0.27207716  0.44070858  0.23521053  1
  Ni  Ni182  1  0.06919264  0.55344265  0.30036555  1
  Ni  Ni183  1  0.41461497  0.10076229  0.04794968  1
  Ni  Ni184  1  0.44746003  0.22007797  0.64670975  1
  Ni  Ni185  1  0.71443203  0.15629668  0.38908588  1
  Ni  Ni186  1  0.30404826  0.14124870  0.92306905  1
  Ni  Ni187  1  0.04087395  0.10654314  0.11752589  1
  Ni  Ni188  1  0.44745060  0.65722227  0.82715316  1
  Ni  Ni189  1  0.83786846  0.25845902  0.32421803  1
  Ni  Ni190  1  0.79869429  0.65709757  0.57302931  1
  Ni  Ni191  1  0.86218178  0.29243289  0.75881936  1
  Ni  Ni192  1  0.71461899  0.63367575  0.27473040  1
  Ni  Ni193  1  0.13653187  0.79456615  0.79960312  1
  Ni  Ni194  1  0.29745755  0.61916035  0.48343302  1
  Ni  Ni195  1  0.71977121  0.07052251  0.78519612  1
  Ni  Ni196  1  0.28037625  0.12514392  0.17894630  1
  Ni  Ni197  1  0.19374946  0.29400958  0.15896267  1
  Ni  Ni198  1  -0.06988109  0.57295244  0.39239125  1
  Ni  Ni199  1  0.81886682  0.91062539  0.18647430  1
  Ni  Ni200  1  0.41840865  0.84309722  0.04088768  1
  Ni  Ni201  1  0.75330225  -0.00010110  0.44619108  1
  Ni  Ni202  1  0.71415120  0.50971795  0.56082435  1
  Ni  Ni203  1  0.63428696  0.21446949  0.82385325  1
  Ni  Ni204  1  0.83711146  0.03234075  0.68832884  1
  Ni  Ni205  1  0.26239492  0.88302967  0.45631285  1
  Ni  Ni206  1  0.48849040  0.35054441  0.55852874  1
  Ni  Ni207  1  0.49295486  0.27876701  0.80708449  1
  Ni  Ni208  1  0.50775762  0.76341852  0.47062738  1
  Ni  Ni209  1  0.02796151  0.84370647  0.62086041  1
  Ni  Ni210  1  0.36995846  0.82555705  0.19685105  1
  Ni  Ni211  1  0.28183335  0.89695731  0.78867235  1
  Ni  Ni212  1  0.17815600  0.01274448  0.48100710  1
  Ni  Ni213  1  0.38544351  0.39385501  0.37872978  1
  Ni  Ni214  1  -0.04708038  0.68015841  0.63334183  1
