# generated using pymatgen
data_Ti108Co54Ni53
_symmetry_space_group_name_H-M   'P 1'
_cell_length_a   14.67122557
_cell_length_b   14.67380466
_cell_length_c   14.68580114
_cell_angle_alpha   89.68757540
_cell_angle_beta   89.90256414
_cell_angle_gamma   90.08924366
_symmetry_Int_Tables_number   1
_chemical_formula_structural   Ti108Co54Ni53
_chemical_formula_sum   'Ti108 Co54 Ni53'
_cell_volume   3161.54343735
_cell_formula_units_Z   1
loop_
 _symmetry_equiv_pos_site_id
 _symmetry_equiv_pos_as_xyz
  1  'x, y, z'
loop_
 _atom_site_type_symbol
 _atom_site_label
 _atom_site_symmetry_multiplicity
 _atom_site_fract_x
 _atom_site_fract_y
 _atom_site_fract_z
 _atom_site_occupancy
  Ti  Ti0  1  0.14508276  0.05724458  0.25639714  1
  Ti  Ti1  1  0.03044432  0.10528779  0.53126129  1
  Ti  Ti2  1  0.01212958  0.11533013  0.97962288  1
  Ti  Ti3  1  0.11291974  0.51932959  0.25901689  1
  Ti  Ti4  1  0.03361247  0.43944739  0.59765415  1
  Ti  Ti5  1  0.07245682  0.38917442  0.83257591  1
  Ti  Ti6  1  0.06984871  0.71342878  0.22206853  1
  Ti  Ti7  1  0.05792725  0.72689232  0.53126080  1
  Ti  Ti8  1  0.12493851  0.76305541  0.87862296  1
  Ti  Ti9  1  0.46525637  0.08011753  0.23400300  1
  Ti  Ti10  1  0.48355734  0.07604260  0.62791566  1
  Ti  Ti11  1  0.44155304  0.07033979  0.85404748  1
  Ti  Ti12  1  0.47262814  0.43989780  0.20541849  1
  Ti  Ti13  1  0.36856761  0.47859331  0.57593141  1
  Ti  Ti14  1  0.39829942  0.34077732  0.90155576  1
  Ti  Ti15  1  0.39287945  0.74746019  0.27185250  1
  Ti  Ti16  1  0.39779341  0.76461956  0.58486727  1
  Ti  Ti17  1  0.35596892  0.66304952  0.90861320  1
  Ti  Ti18  1  0.75555639  0.05654401  0.28286948  1
  Ti  Ti19  1  0.74056398  0.13366904  0.61056881  1
  Ti  Ti20  1  0.77992250  -0.03587432  0.92314239  1
  Ti  Ti21  1  0.72023920  0.45147917  0.30290102  1
  Ti  Ti22  1  0.70986278  0.39063571  0.50231276  1
  Ti  Ti23  1  0.80565012  0.41957293  0.86109101  1
  Ti  Ti24  1  0.70662084  0.77742959  0.32431732  1
  Ti  Ti25  1  0.69025571  0.76220194  0.60066334  1
  Ti  Ti26  1  0.80502267  0.74768983  0.93077850  1
  Ti  Ti27  1  0.12204984  0.23913493  0.10614999  1
  Ti  Ti28  1  0.09438419  0.29184164  0.48231168  1
  Ti  Ti29  1  0.04667811  0.26442314  0.70136687  1
  Ti  Ti30  1  0.13046718  0.60231323  0.08589849  1
  Ti  Ti31  1  0.10571267  0.53786144  0.45185130  1
  Ti  Ti32  1  0.11821782  0.56440931  0.90181090  1
  Ti  Ti33  1  0.10488975  0.89452758  0.15572058  1
  Ti  Ti34  1  0.14208127  0.94954227  0.43273405  1
  Ti  Ti35  1  0.04034483  0.94416967  0.84007749  1
  Ti  Ti36  1  0.42554859  0.19390136  0.04421013  1
  Ti  Ti37  1  0.43986403  0.31822995  0.38085088  1
  Ti  Ti38  1  0.37587537  0.21740231  0.73705161  1
  Ti  Ti39  1  0.49346888  0.57304107  0.02980876  1
  Ti  Ti40  1  0.39288485  0.55599186  0.36090316  1
  Ti  Ti41  1  0.50724066  0.53883500  0.71885738  1
  Ti  Ti42  1  0.39962084  0.88895460  -0.02146962  1
  Ti  Ti43  1  0.43167970  0.90956973  0.38846108  1
  Ti  Ti44  1  0.38642139  0.91213731  0.75596365  1
  Ti  Ti45  1  0.72564490  0.23055233  0.02805036  1
  Ti  Ti46  1  0.74177728  0.24719491  0.33184670  1
  Ti  Ti47  1  0.73916768  0.23270258  0.83301578  1
  Ti  Ti48  1  0.76037974  0.61212797  0.10614724  1
  Ti  Ti49  1  0.78290217  0.67721643  0.44813562  1
  Ti  Ti50  1  0.78228518  0.60727553  0.80502354  1
  Ti  Ti51  1  0.68022278  0.86789048  0.04215191  1
  Ti  Ti52  1  0.79773726  0.89330169  0.47332861  1
  Ti  Ti53  1  0.71879301  0.92873242  0.73269365  1
  Ti  Ti54  1  0.27549634  0.12702258  0.12877305  1
  Ti  Ti55  1  0.32058160  0.05354293  0.46575110  1
  Ti  Ti56  1  0.22766098  0.08055421  0.78476733  1
  Ti  Ti57  1  0.24679961  0.42057208  0.12304845  1
  Ti  Ti58  1  0.24008029  0.41907500  0.40613329  1
  Ti  Ti59  1  0.27230935  0.42473178  0.74026994  1
  Ti  Ti60  1  0.23305175  0.77138491  0.04331722  1
  Ti  Ti61  1  0.20168585  0.74046109  0.38033878  1
  Ti  Ti62  1  0.25566370  0.74545307  0.73168117  1
  Ti  Ti63  1  0.53560275  0.02345768  0.05490223  1
  Ti  Ti64  1  0.53361541  0.06712376  0.43373160  1
  Ti  Ti65  1  0.62056974  0.11384618  0.75538888  1
  Ti  Ti66  1  0.55104403  0.36927228  0.04815783  1
  Ti  Ti67  1  0.53129641  0.46611850  0.46128213  1
  Ti  Ti68  1  0.61823436  0.36655204  0.76551779  1
  Ti  Ti69  1  0.51722286  0.80407782  0.10794751  1
  Ti  Ti70  1  0.54451960  0.68613143  0.41340615  1
  Ti  Ti71  1  0.57081391  0.79299298  0.75088741  1
  Ti  Ti72  1  0.85559502  0.09972391  0.11050816  1
  Ti  Ti73  1  0.85748244  0.08483659  0.44801095  1
  Ti  Ti74  1  0.94325845  0.07193991  0.71369299  1
  Ti  Ti75  1  1.01476283  0.40944765  0.13552425  1
  Ti  Ti76  1  0.90024094  0.39235481  0.42735232  1
  Ti  Ti77  1  0.94177104  0.51080722  0.74209337  1
  Ti  Ti78  1  0.94638659  0.68998378  0.06326321  1
  Ti  Ti79  1  0.92592280  0.78707391  0.35617465  1
  Ti  Ti80  1  0.94406368  0.75192399  0.73151500  1
  Ti  Ti81  1  0.25367721  0.23162402  0.32145687  1
  Ti  Ti82  1  0.24008417  0.20090014  0.57201281  1
  Ti  Ti83  1  0.16281226  0.24629313  0.89869818  1
  Ti  Ti84  1  0.33708393  0.58215919  0.17636713  1
  Ti  Ti85  1  0.19964434  0.59540769  0.62506620  1
  Ti  Ti86  1  0.25885920  0.45829314  0.92703024  1
  Ti  Ti87  1  0.26563774  0.90191441  0.27493793  1
  Ti  Ti88  1  0.24028943  0.91028555  0.61760477  1
  Ti  Ti89  1  0.21821156  0.95143414  0.93891287  1
  Ti  Ti90  1  0.55334051  0.25948055  0.21480205  1
  Ti  Ti91  1  0.59391890  0.24304766  0.51566863  1
  Ti  Ti92  1  0.54599457  0.23049562  0.88627096  1
  Ti  Ti93  1  0.54798216  0.64251854  0.19703715  1
  Ti  Ti94  1  0.64542964  0.56648315  0.57513865  1
  Ti  Ti95  1  0.56976160  0.63867526  0.87459980  1
  Ti  Ti96  1  0.63279980  0.93948583  0.21234379  1
  Ti  Ti97  1  0.64224968  0.96989648  0.55954061  1
  Ti  Ti98  1  0.57835804  0.94250979  0.89024565  1
  Ti  Ti99  1  1.04455203  0.23035624  0.29286220  1
  Ti  Ti100  1  0.90721470  0.26637552  0.57700679  1
  Ti  Ti101  1  0.93078128  0.24079149  0.86398004  1
  Ti  Ti102  1  0.90535671  0.56973898  0.32837958  1
  Ti  Ti103  1  0.83954324  0.62142573  0.62037125  1
  Ti  Ti104  1  0.95794222  0.62782450  0.87844297  1
  Ti  Ti105  1  0.94684230  0.98748552  0.26004185  1
  Ti  Ti106  1  0.98350938  0.91106733  0.59653126  1
  Ti  Ti107  1  0.93423998  0.90627940  1.02826342  1
  Co  Co108  1  0.09058473  -0.01536651  0.68905034  1
  Co  Co109  1  0.04018220  0.66124307  0.37253199  1
  Co  Co110  1  0.32657574  0.06196298  0.65521843  1
  Co  Co111  1  0.11904961  0.13969403  0.66762170  1
  Co  Co112  1  -0.04653211  0.43250011  0.91587336  1
  Co  Co113  1  0.20149483  0.42995132  0.56271315  1
  Co  Co114  1  0.65766243  0.50834562  0.83471053  1
  Co  Co115  1  0.19177140  0.10933086  -0.01864374  1
  Co  Co116  1  0.75928141  0.76347635  0.76330517  1
  Co  Co117  1  0.17985567  0.04320612  0.56114548  1
  Co  Co118  1  0.32139576  0.32543245  0.62352225  1
  Co  Co119  1  0.81361419  0.78488410  0.08907530  1
  Co  Co120  1  0.35434639  0.04734512  -0.00643741  1
  Co  Co121  1  0.39159628  0.45936073  0.02379576  1
  Co  Co122  1  0.80491354  0.51859865  0.47491629  1
  Co  Co123  1  0.58421480  0.18001152  0.04939654  1
  Co  Co124  1  0.06896358  0.11479131  0.82498743  1
  Co  Co125  1  0.06863722  0.79093551  0.03499021  1
  Co  Co126  1  0.40007854  0.51887397  0.84592188  1
  Co  Co127  1  0.77835406  0.24582239  0.48607766  1
  Co  Co128  1  0.38565191  0.22337524  0.22806716  1
  Co  Co129  1  0.29746171  0.81447158  0.87713191  1
  Co  Co130  1  0.71460826  0.29005436  0.64503757  1
  Co  Co131  1  -0.03524009  0.57134109  0.17829045  1
  Co  Co132  1  0.24169023  0.72138494  0.19795209  1
  Co  Co133  1  0.28985569  0.86801231  0.45546508  1
  Co  Co134  1  0.60295237  0.34666836  0.34868459  1
  Co  Co135  1  0.82916891  -0.00140742  0.61463364  1
  Co  Co136  1  0.30495647  0.05864717  0.29980299  1
  Co  Co137  1  0.80700560  0.89276667  0.29278140  1
  Co  Co138  1  0.32957015  0.18214823  0.90053874  1
  Co  Co139  1  0.23729045  -0.02835497  0.10191158  1
  Co  Co140  1  0.50416775  0.77265992  -0.06016878  1
  Co  Co141  1  -0.06685807  0.23333221  0.41423675  1
  Co  Co142  1  0.39639237  0.70366552  0.07858846  1
  Co  Co143  1  0.27720917  0.58780230  0.02879895  1
  Co  Co144  1  0.23595887  0.60008175  0.31691444  1
  Co  Co145  1  0.52598391  0.44861090  -0.09682957  1
  Co  Co146  1  0.36629108  0.61291781  0.68527811  1
  Co  Co147  1  0.39329755  0.33041741  0.11676204  1
  Co  Co148  1  0.58504548  0.41101995  0.61505619  1
  Co  Co149  1  0.21054652  0.26949814  0.74133515  1
  Co  Co150  1  0.36781445  0.72156541  0.42910749  1
  Co  Co151  1  0.62857746  0.81888772  0.46642950  1
  Co  Co152  1  0.70149897  0.04299554  0.05795164  1
  Co  Co153  1  0.53898840  0.85436602  0.60313003  1
  Co  Co154  1  -0.00434996  0.53246866  0.02469321  1
  Co  Co155  1  0.08313432  -0.02063391  0.02265249  1
  Co  Co156  1  0.01377900  0.08984156  0.36982818  1
  Co  Co157  1  0.65261492  0.09689950  0.91320757  1
  Co  Co158  1  0.02752262  0.62048154  0.64912927  1
  Co  Co159  1  0.19915835  -0.09944106  0.78163259  1
  Co  Co160  1  0.90950971  0.35566537  0.74172446  1
  Co  Co161  1  0.66220162  0.80387971  0.88681339  1
  Ni  Ni162  1  0.54963638  0.82308373  0.30720780  1
  Ni  Ni163  1  0.73448497  0.47533562  0.68753122  1
  Ni  Ni164  1  0.63130830  0.49599140  0.15447122  1
  Ni  Ni165  1  -0.03392501  0.93806338  0.43192288  1
  Ni  Ni166  1  0.42054079  0.74481413  0.77788008  1
  Ni  Ni167  1  0.88014386  -0.09357065  0.78880004  1
  Ni  Ni168  1  0.09973877  0.80546214  0.68667934  1
  Ni  Ni169  1  0.70632647  0.61425986  0.26583590  1
  Ni  Ni170  1  0.11678631  0.50880552  0.73455582  1
  Ni  Ni171  1  0.53453674  0.24607064  0.67689565  1
  Ni  Ni172  1  0.66592689  0.35937878  -0.06912585  1
  Ni  Ni173  1  0.54823594  -0.03718086  0.72674155  1
  Ni  Ni174  1  0.84643392  0.69927272  0.23027779  1
  Ni  Ni175  1  0.63325663  0.11601195  0.19075188  1
  Ni  Ni176  1  0.45325114  0.61293880  0.53257078  1
  Ni  Ni177  1  0.00524589  0.29330446  -0.00069034  1
  Ni  Ni178  1  0.89149280  0.15712964  0.26977060  1
  Ni  Ni179  1  0.06825856  0.86257619  0.31551061  1
  Ni  Ni180  1  0.44624211  0.38255325  0.73316703  1
  Ni  Ni181  1  0.41558327  0.15963417  0.37401014  1
  Ni  Ni182  1  0.69071703  0.11342125  0.43778546  1
  Ni  Ni183  1  0.66828773  0.56547280  0.41546922  1
  Ni  Ni184  1  0.64957205  0.64124051  0.71805958  1
  Ni  Ni185  1  0.63689996  0.69677137  0.02176579  1
  Ni  Ni186  1  0.22275122  0.75178185  0.55199695  1
  Ni  Ni187  1  0.15463360  0.35067235  0.24361039  1
  Ni  Ni188  1  0.80703768  -0.05611022  0.13876359  1
  Ni  Ni189  1  0.05159353  0.39760756  0.36058923  1
  Ni  Ni190  1  0.90217681  0.75955431  0.52546863  1
  Ni  Ni191  1  -0.05983166  0.83345769  0.18666383  1
  Ni  Ni192  1  0.56214057  0.52462381  0.30770055  1
  Ni  Ni193  1  0.34201158  0.84895479  0.13625563  1
  Ni  Ni194  1  0.66119883  -0.04534855  0.38155413  1
  Ni  Ni195  1  0.83195118  0.83934453  0.64160524  1
  Ni  Ni196  1  0.41112528  0.18860315  0.53771229  1
  Ni  Ni197  1  0.45955899  0.34000830  0.54954942  1
  Ni  Ni198  1  0.45970788  -0.07810641  0.21324436  1
  Ni  Ni199  1  0.40742657  -0.06041509  0.56200355  1
  Ni  Ni200  1  0.85179138  0.20814795  0.71850368  1
  Ni  Ni201  1  -0.04868244  0.57853760  0.50109384  1
  Ni  Ni202  1  0.24884355  0.58729098  0.79671434  1
  Ni  Ni203  1  -0.03815231  0.80179757  0.90000571  1
  Ni  Ni204  1  0.82583491  0.12358149  -0.05357483  1
  Ni  Ni205  1  0.27385119  0.58845679  0.47717644  1
  Ni  Ni206  1  0.83527983  0.55874258  -0.03588313  1
  Ni  Ni207  1  0.02202723  0.10020396  0.15339726  1
  Ni  Ni208  1  0.79138406  0.06783926  0.78959500  1
  Ni  Ni209  1  0.67441414  0.75393424  0.17047991  1
  Ni  Ni210  1  0.16670949  0.12859861  0.41670320  1
  Ni  Ni211  1  0.11855940  0.40766393  0.00147852  1
  Ni  Ni212  1  0.26639034  0.29194670  0.01887147  1
  Ni  Ni213  1  0.32464242  0.38833589  0.26904811  1
  Ni  Ni214  1  -0.13593338  0.43020322  0.59748869  1
