# generated using pymatgen
data_Ti108Co54Ni53
_symmetry_space_group_name_H-M   'P 1'
_cell_length_a   14.70547605
_cell_length_b   14.74630690
_cell_length_c   14.67725866
_cell_angle_alpha   90.22318575
_cell_angle_beta   90.03614463
_cell_angle_gamma   90.05084139
_symmetry_Int_Tables_number   1
_chemical_formula_structural   Ti108Co54Ni53
_chemical_formula_sum   'Ti108 Co54 Ni53'
_cell_volume   3182.75897274
_cell_formula_units_Z   1
loop_
 _symmetry_equiv_pos_site_id
 _symmetry_equiv_pos_as_xyz
  1  'x, y, z'
loop_
 _atom_site_type_symbol
 _atom_site_label
 _atom_site_symmetry_multiplicity
 _atom_site_fract_x
 _atom_site_fract_y
 _atom_site_fract_z
 _atom_site_occupancy
  Ti  Ti0  1  0.11339415  0.07675692  0.28324863  1
  Ti  Ti1  1  0.05067249  0.06793024  0.57788700  1
  Ti  Ti2  1  0.07391403  0.03882040  0.93701731  1
  Ti  Ti3  1  0.11138014  0.39596347  0.21607453  1
  Ti  Ti4  1  0.11290540  0.40028753  0.60565548  1
  Ti  Ti5  1  0.16620485  0.36789530  0.81889322  1
  Ti  Ti6  1  0.07483381  0.74242232  0.18437886  1
  Ti  Ti7  1  0.11152502  0.74454616  0.54299671  1
  Ti  Ti8  1  0.08394596  0.75845840  0.98595304  1
  Ti  Ti9  1  0.44831511  0.05797947  0.21298767  1
  Ti  Ti10  1  0.38482161  0.14805091  0.58588121  1
  Ti  Ti11  1  0.41312628  0.11452696  0.95114812  1
  Ti  Ti12  1  0.40176292  0.36507129  0.22265490  1
  Ti  Ti13  1  0.30371695  0.42738774  0.51428121  1
  Ti  Ti14  1  0.36960524  0.45510337  0.89747090  1
  Ti  Ti15  1  0.36660819  0.68004837  0.22210178  1
  Ti  Ti16  1  0.44080456  0.71817825  0.57596612  1
  Ti  Ti17  1  0.41746458  0.72964928  0.89132869  1
  Ti  Ti18  1  0.74353053  0.07047188  0.30288278  1
  Ti  Ti19  1  0.69791157  0.05496757  0.55694296  1
  Ti  Ti20  1  0.63994475  0.05974796  0.94720798  1
  Ti  Ti21  1  0.72409866  0.40235187  0.30465267  1
  Ti  Ti22  1  0.82203347  0.36236433  0.62725646  1
  Ti  Ti23  1  0.67688922  0.40211141  0.92075427  1
  Ti  Ti24  1  0.74252329  0.78060163  0.29759472  1
  Ti  Ti25  1  0.78334850  0.74345241  0.64497702  1
  Ti  Ti26  1  0.73280585  0.77364708  0.98209570  1
  Ti  Ti27  1  0.13741594  0.21289837  0.11046860  1
  Ti  Ti28  1  0.05304493  0.28729118  0.38073850  1
  Ti  Ti29  1  0.07206694  0.19286401  0.72847360  1
  Ti  Ti30  1  0.09329505  0.55501408  0.04554311  1
  Ti  Ti31  1  0.02149819  0.58777391  0.47044856  1
  Ti  Ti32  1  0.02877063  0.61703602  0.71314643  1
  Ti  Ti33  1  0.13266118  0.93553237  0.13108428  1
  Ti  Ti34  1  0.15280736  0.93167732  0.43866828  1
  Ti  Ti35  1  0.05061781  0.97488040  0.74703335  1
  Ti  Ti36  1  0.36851250  0.20816857  0.10226294  1
  Ti  Ti37  1  0.44037187  0.30069662  0.40624715  1
  Ti  Ti38  1  0.37260596  0.28278628  0.81335204  1
  Ti  Ti39  1  0.44035043  0.55882995  0.04749216  1
  Ti  Ti40  1  0.48758288  0.57634902  0.37939169  1
  Ti  Ti41  1  0.40624877  0.59624013  0.74041848  1
  Ti  Ti42  1  0.43725035  0.86734874  0.16789990  1
  Ti  Ti43  1  0.37886946  0.89289867  0.47591828  1
  Ti  Ti44  1  0.38367810  0.88280203  0.77826860  1
  Ti  Ti45  1  0.67460385  0.25365043  0.04558932  1
  Ti  Ti46  1  0.74513590  0.27916042  0.46929789  1
  Ti  Ti47  1  0.66473094  0.31388564  0.73836294  1
  Ti  Ti48  1  0.64781875  0.58451437  0.02984045  1
  Ti  Ti49  1  0.80685830  0.57845406  0.38725742  1
  Ti  Ti50  1  0.78874254  0.58308310  0.78550535  1
  Ti  Ti51  1  0.82244146  0.96053469  0.03325036  1
  Ti  Ti52  1  0.80482596  0.92736020  0.42078166  1
  Ti  Ti53  1  0.69555150  1.04060974  0.77138523  1
  Ti  Ti54  1  0.31309948  -0.00429203  0.07476287  1
  Ti  Ti55  1  0.27131304  0.09225537  0.41589264  1
  Ti  Ti56  1  0.22375404  0.06188642  0.69593516  1
  Ti  Ti57  1  0.26759567  0.48953249  0.11808616  1
  Ti  Ti58  1  0.24194240  0.35938647  0.34652505  1
  Ti  Ti59  1  0.30715303  0.43347581  0.70551619  1
  Ti  Ti60  1  0.28804999  0.80368111  0.05000538  1
  Ti  Ti61  1  0.23986871  0.74703331  0.37012142  1
  Ti  Ti62  1  0.19461629  0.71207941  0.78390557  1
  Ti  Ti63  1  0.66677907  0.05722962  0.12807151  1
  Ti  Ti64  1  0.48865843  0.11287287  0.40580318  1
  Ti  Ti65  1  0.53469051  0.07170063  0.68453344  1
  Ti  Ti66  1  0.57703742  0.43245414  0.13314448  1
  Ti  Ti67  1  0.64859930  0.49636754  0.46726875  1
  Ti  Ti68  1  0.50454940  0.41759723  0.67591890  1
  Ti  Ti69  1  0.59837092  0.77153259  0.12451307  1
  Ti  Ti70  1  0.53599184  0.75980760  0.31962512  1
  Ti  Ti71  1  0.64549924  0.72620260  0.79912188  1
  Ti  Ti72  1  0.90140709  0.07569240  0.18111402  1
  Ti  Ti73  1  0.96254761  0.11584746  0.40445006  1
  Ti  Ti74  1  0.87023252  0.03616093  0.70304095  1
  Ti  Ti75  1  0.89242462  0.48490813  0.08504884  1
  Ti  Ti76  1  0.94718206  0.44199304  0.36708653  1
  Ti  Ti77  1  0.95656607  0.44190632  0.74653765  1
  Ti  Ti78  1  0.86123392  0.78196280  0.12983827  1
  Ti  Ti79  1  0.87663716  0.74118940  0.45799699  1
  Ti  Ti80  1  0.94706435  0.76628199  0.77519073  1
  Ti  Ti81  1  0.31992992  0.19302791  0.27995339  1
  Ti  Ti82  1  0.24806001  0.25886355  0.65825319  1
  Ti  Ti83  1  0.26508970  0.29823335  0.97536457  1
  Ti  Ti84  1  0.24598004  0.54758239  0.32146809  1
  Ti  Ti85  1  0.23988286  0.59342214  0.61830578  1
  Ti  Ti86  1  0.26380012  0.62994945  0.97719190  1
  Ti  Ti87  1  0.28113241  0.95679776  0.27845865  1
  Ti  Ti88  1  0.26053494  0.85725155  0.62974858  1
  Ti  Ti89  1  0.26655841  1.02375474  0.87425245  1
  Ti  Ti90  1  0.64037121  0.23853137  0.25454239  1
  Ti  Ti91  1  0.56765528  0.23694379  0.55707848  1
  Ti  Ti92  1  0.55950596  0.19790844  0.85350851  1
  Ti  Ti93  1  0.65420920  0.57252836  0.24724413  1
  Ti  Ti94  1  0.60174833  0.59981260  0.64952252  1
  Ti  Ti95  1  0.54539395  0.56130849  0.86101897  1
  Ti  Ti96  1  0.60962344  0.93081862  0.25707385  1
  Ti  Ti97  1  0.58218782  0.86007663  0.48804617  1
  Ti  Ti98  1  0.56265397  0.88358801  0.86030204  1
  Ti  Ti99  1  0.86280670  0.25322966  0.29709327  1
  Ti  Ti100  1  0.88625833  0.18279583  0.58732115  1
  Ti  Ti101  1  0.85507871  0.22637992  0.78432402  1
  Ti  Ti102  1  0.93504899  0.64688236  0.27740516  1
  Ti  Ti103  1  0.87263750  0.56415890  0.59156577  1
  Ti  Ti104  1  0.94195097  0.62119054  0.91495812  1
  Ti  Ti105  1  0.97976589  0.94255907  0.31505766  1
  Ti  Ti106  1  0.93952368  0.87466995  0.60284895  1
  Ti  Ti107  1  0.90280406  0.92260014  0.86702843  1
  Co  Co108  1  0.80606273  0.43779448  0.47915810  1
  Co  Co109  1  0.01085042  0.19920540  0.23341393  1
  Co  Co110  1  0.65107267  0.37699520  0.57506817  1
  Co  Co111  1  -0.04179923  0.71038393  0.60062327  1
  Co  Co112  1  0.73517162  0.50273938  0.63987875  1
  Co  Co113  1  0.22562695  0.11557178  0.00869302  1
  Co  Co114  1  0.39995310  0.31772499  0.59462270  1
  Co  Co115  1  0.72007317  0.20715405  0.87685215  1
  Co  Co116  1  0.86641459  0.02031743  0.54173283  1
  Co  Co117  1  -0.02067712  0.30656363  0.66295664  1
  Co  Co118  1  0.17294735  0.91231153  -0.02519266  1
  Co  Co119  1  -0.00848428  -0.04443493  0.47328242  1
  Co  Co120  1  0.52761658  0.29045803  0.13271799  1
  Co  Co121  1  0.04415611  0.22535569  0.53892612  1
  Co  Co122  1  -0.03272578  0.10171537  0.81962743  1
  Co  Co123  1  0.18291063  0.59845843  0.46379158  1
  Co  Co124  1  0.62177150  0.76206873  0.62151023  1
  Co  Co125  1  0.34118940  0.58262215  0.46196727  1
  Co  Co126  1  0.11649965  0.44537545  0.43024365  1
  Co  Co127  1  0.37712764  0.83176093  0.31207698  1
  Co  Co128  1  0.81650788  0.06218802  0.87456620  1
  Co  Co129  1  0.72115934  0.78230501  0.47667674  1
  Co  Co130  1  0.64190844  0.16091694  0.41853747  1
  Co  Co131  1  0.60351917  0.31743397  0.40693917  1
  Co  Co132  1  0.77242420  0.18258625  0.17010779  1
  Co  Co133  1  0.46965879  0.86886645  0.62706780  1
  Co  Co134  1  0.78185411  0.34247739  0.16629894  1
  Co  Co135  1  0.90791880  0.29286650  0.46379478  1
  Co  Co136  1  0.40849765  0.71968057  0.41281870  1
  Co  Co137  1  0.64762812  0.48345228  0.77206551  1
  Co  Co138  1  0.73293785  0.48397970  0.11542005  1
  Co  Co139  1  0.90970869  0.77505576  -0.03093054  1
  Co  Co140  1  0.38554060  -0.06876655  -0.05937286  1
  Co  Co141  1  0.00346328  -0.09016308  0.00848216  1
  Co  Co142  1  0.66723473  0.66113440  0.37836090  1
  Co  Co143  1  0.31861909  0.23449072  0.46939893  1
  Co  Co144  1  0.19103684  0.14989438  0.55696655  1
  Co  Co145  1  0.11685357  0.61906745  0.88811287  1
  Co  Co146  1  0.38472363  0.45228582  0.36917497  1
  Co  Co147  1  0.20242805  0.46281494  -0.04885453  1
  Co  Co148  1  0.52720642  0.36683912  0.82886770  1
  Co  Co149  1  0.52961280  0.44298959  -0.02416049  1
  Co  Co150  1  0.23986698  0.09092768  0.18237556  1
  Co  Co151  1  0.72679032  0.63406031  0.53509639  1
  Co  Co152  1  0.16703639  0.23384139  0.26974423  1
  Co  Co153  1  0.33355521  0.73515409  0.70424736  1
  Co  Co154  1  0.11620417  -0.07920965  0.59645035  1
  Co  Co155  1  0.48115522  0.20946918  0.25846178  1
  Co  Co156  1  0.82273181  -0.06164517  0.24937872  1
  Co  Co157  1  0.06353808  0.85717474  0.86232650  1
  Co  Co158  1  0.90664324  0.80179243  0.30042718  1
  Co  Co159  1  0.25415090  0.32912494  0.15861744  1
  Co  Co160  1  0.56580092  0.67078562  0.49185683  1
  Co  Co161  1  0.48983928  0.84162194  0.00407829  1
  Ni  Ni162  1  0.79660337  0.41319895  0.79217969  1
  Ni  Ni163  1  0.37563116  0.12799446  0.75877880  1
  Ni  Ni164  1  0.48039687  0.27937410  -0.02850099  1
  Ni  Ni165  1  -0.04899672  0.36505596  0.21090392  1
  Ni  Ni166  1  0.63633234  -0.08911981  0.01778179  1
  Ni  Ni167  1  0.08493287  0.80113146  0.69801646  1
  Ni  Ni168  1  -0.04204420  0.64656727  0.09466936  1
  Ni  Ni169  1  0.81062730  0.62951850  0.02057239  1
  Ni  Ni170  1  0.50314661  0.41931148  0.49742205  1
  Ni  Ni171  1  0.48647521  0.02446701  0.83524222  1
  Ni  Ni172  1  0.18018583  0.30311367  0.49400170  1
  Ni  Ni173  1  0.04633169  0.07117130  0.10745444  1
  Ni  Ni174  1  -0.03329182  0.43044099  0.54030549  1
  Ni  Ni175  1  0.78455811  0.12543277  0.01985923  1
  Ni  Ni176  1  0.62596682  -0.07222843  0.65559063  1
  Ni  Ni177  1  0.57188180  0.71092040  -0.04429657  1
  Ni  Ni178  1  0.01575385  0.53021956  0.19800612  1
  Ni  Ni179  1  0.19777283  -0.09485170  0.77656423  1
  Ni  Ni180  1  0.28181615  0.72761770  0.52649755  1
  Ni  Ni181  1  0.52787896  0.63590331  0.17325233  1
  Ni  Ni182  1  0.73051731  0.91199148  0.88118613  1
  Ni  Ni183  1  0.39125512  0.38475791  0.05876572  1
  Ni  Ni184  1  0.84725465  0.48765627  0.24199320  1
  Ni  Ni185  1  0.25925892  0.55457738  0.82190849  1
  Ni  Ni186  1  0.72285874  0.88085151  0.14521579  1
  Ni  Ni187  1  0.50583424  0.00531577  0.53402268  1
  Ni  Ni188  1  0.72684734  0.17506370  0.67539751  1
  Ni  Ni189  1  0.62649679  0.00102027  0.40988367  1
  Ni  Ni190  1  0.49603874  0.75046795  0.73880329  1
  Ni  Ni191  1  0.21051027  0.64713657  0.15497413  1
  Ni  Ni192  1  0.80618891  0.12982225  0.43775098  1
  Ni  Ni193  1  0.42571698  0.52315869  0.22184150  1
  Ni  Ni194  1  0.42836053  0.71535814  0.06717152  1
  Ni  Ni195  1  0.49308147  0.23895920  0.70635838  1
  Ni  Ni196  1  0.53609150  0.14888845  0.06763723  1
  Ni  Ni197  1  0.22925070  0.18826860  0.82904968  1
  Ni  Ni198  1  0.09509454  0.67152561  0.34011743  1
  Ni  Ni199  1  0.04518844  0.48113409  0.88154297  1
  Ni  Ni200  1  0.78892363  0.89023866  0.72474851  1
  Ni  Ni201  1  -0.03521120  0.90392282  0.15998313  1
  Ni  Ni202  1  0.26164952  0.00228684  0.54687849  1
  Ni  Ni203  1  0.54938383  0.43061952  0.30417604  1
  Ni  Ni204  1  0.49918624  -0.00680144  0.06375940  1
  Ni  Ni205  1  0.12481456  0.86210023  0.29145837  1
  Ni  Ni206  1  0.26663242  0.81078015  0.88906820  1
  Ni  Ni207  1  0.13788240  0.50562902  0.73186390  1
  Ni  Ni208  1  0.47528990  -0.04664221  0.35657513  1
  Ni  Ni209  1  0.38097665  -0.00463647  0.65986627  1
  Ni  Ni210  1  0.24918451  0.80830885  0.20398963  1
  Ni  Ni211  1  0.79354262  0.63070966  0.18513088  1
  Ni  Ni212  1  0.80143151  0.76064421  0.83465057  1
  Ni  Ni213  1  0.02717534  0.80312459  0.41666820  1
  Ni  Ni214  1  0.44832044  0.54681062  0.58150456  1
