# generated using pymatgen
data_Ti108Co54Ni53
_symmetry_space_group_name_H-M   'P 1'
_cell_length_a   14.64818627
_cell_length_b   14.69022342
_cell_length_c   14.63689538
_cell_angle_alpha   89.90495703
_cell_angle_beta   90.07341153
_cell_angle_gamma   90.24944323
_symmetry_Int_Tables_number   1
_chemical_formula_structural   Ti108Co54Ni53
_chemical_formula_sum   'Ti108 Co54 Ni53'
_cell_volume   3149.60548058
_cell_formula_units_Z   1
loop_
 _symmetry_equiv_pos_site_id
 _symmetry_equiv_pos_as_xyz
  1  'x, y, z'
loop_
 _atom_site_type_symbol
 _atom_site_label
 _atom_site_symmetry_multiplicity
 _atom_site_fract_x
 _atom_site_fract_y
 _atom_site_fract_z
 _atom_site_occupancy
  Ti  Ti0  1  0.11023688  0.03079830  0.21060470  1
  Ti  Ti1  1  0.06542443  0.07885687  0.58041066  1
  Ti  Ti2  1  0.06608409  0.08357738  1.01040410  1
  Ti  Ti3  1  0.10844636  0.44851882  0.19645799  1
  Ti  Ti4  1  0.05888375  0.39335658  0.54700803  1
  Ti  Ti5  1  0.11899886  0.38219563  0.86855418  1
  Ti  Ti6  1  0.04491948  0.72510167  0.25745248  1
  Ti  Ti7  1  0.11637856  0.78013768  0.55429635  1
  Ti  Ti8  1  0.11962430  0.73591654  0.88677546  1
  Ti  Ti9  1  0.44020395  0.08697975  0.33569074  1
  Ti  Ti10  1  0.47696336  0.03580444  0.63286374  1
  Ti  Ti11  1  0.41741001  0.08199801  0.83776869  1
  Ti  Ti12  1  0.45717237  0.38854248  0.21281048  1
  Ti  Ti13  1  0.40595163  0.46700174  0.63702910  1
  Ti  Ti14  1  0.47637646  0.48935280  0.94789553  1
  Ti  Ti15  1  0.49659793  0.72484375  0.18739871  1
  Ti  Ti16  1  0.37344970  0.74573260  0.59983601  1
  Ti  Ti17  1  0.39717342  0.74017462  0.81657035  1
  Ti  Ti18  1  0.79412149  0.09992383  0.27321651  1
  Ti  Ti19  1  0.76149150  0.12725588  0.54398627  1
  Ti  Ti20  1  0.75369907  0.10883811  1.03715664  1
  Ti  Ti21  1  0.70701809  0.46241819  0.31805518  1
  Ti  Ti22  1  0.74945039  0.37435305  0.62952792  1
  Ti  Ti23  1  0.80463465  0.42710982  0.96553062  1
  Ti  Ti24  1  0.84915765  0.80378496  0.26869681  1
  Ti  Ti25  1  0.73935415  0.77705197  0.49179703  1
  Ti  Ti26  1  0.76272151  0.75242450  0.82076807  1
  Ti  Ti27  1  0.03232853  0.23552178  0.15784813  1
  Ti  Ti28  1  0.06138104  0.28381197  0.35059422  1
  Ti  Ti29  1  -0.00636890  0.28695701  0.75917892  1
  Ti  Ti30  1  -0.02618040  0.54185751  0.00864756  1
  Ti  Ti31  1  0.10137220  0.62305396  0.43668740  1
  Ti  Ti32  1  0.15115522  0.56060792  0.75987261  1
  Ti  Ti33  1  0.11730420  0.88770458  0.04545094  1
  Ti  Ti34  1  0.13437999  0.94383950  0.44186992  1
  Ti  Ti35  1  0.06482693  0.86867612  0.76104437  1
  Ti  Ti36  1  0.39531619  0.24896373  0.06911129  1
  Ti  Ti37  1  0.37668799  0.29022137  0.48505346  1
  Ti  Ti38  1  0.44309764  0.30173497  0.75934179  1
  Ti  Ti39  1  0.33542579  0.57951153  0.11549458  1
  Ti  Ti40  1  0.40115925  0.59703920  0.47826559  1
  Ti  Ti41  1  0.50102901  0.62546408  0.68084054  1
  Ti  Ti42  1  0.38656315  0.93371926  0.15816704  1
  Ti  Ti43  1  0.31915803  0.93847558  0.37714029  1
  Ti  Ti44  1  0.32978861  0.92666074  0.76038590  1
  Ti  Ti45  1  0.71911186  0.30503994  0.08904787  1
  Ti  Ti46  1  0.67059716  0.21293538  0.37591258  1
  Ti  Ti47  1  0.78043342  0.19367264  0.73102493  1
  Ti  Ti48  1  0.75940490  0.58546072  0.07349186  1
  Ti  Ti49  1  0.80199186  0.51650740  0.49750179  1
  Ti  Ti50  1  0.71529313  0.57751009  0.70762632  1
  Ti  Ti51  1  0.80326421  0.90508313  0.07491363  1
  Ti  Ti52  1  0.72506478  0.94269894  0.36575751  1
  Ti  Ti53  1  0.82207926  0.99600788  0.70173679  1
  Ti  Ti54  1  0.21739143  0.16163690  0.08205750  1
  Ti  Ti55  1  0.23337862  0.13738970  0.40564616  1
  Ti  Ti56  1  0.16927738  0.06966810  0.75635166  1
  Ti  Ti57  1  0.25373612  0.37897304  0.03754789  1
  Ti  Ti58  1  0.24536443  0.37262801  0.33641730  1
  Ti  Ti59  1  0.29353090  0.40601970  0.80405230  1
  Ti  Ti60  1  0.17072027  0.70779305  0.08080875  1
  Ti  Ti61  1  0.29356076  0.73606521  0.39906277  1
  Ti  Ti62  1  0.22081635  0.77087689  0.70741303  1
  Ti  Ti63  1  0.55245727  0.12362266  0.04684595  1
  Ti  Ti64  1  0.60067347  0.04511996  0.46425966  1
  Ti  Ti65  1  0.57237436  0.16472824  0.75682203  1
  Ti  Ti66  1  0.60927495  0.47079038  0.11607464  1
  Ti  Ti67  1  0.54930549  0.35438214  0.38224154  1
  Ti  Ti68  1  0.55907725  0.46052536  0.77724483  1
  Ti  Ti69  1  0.66662952  0.77260136  0.27416905  1
  Ti  Ti70  1  0.52564861  0.72609853  0.39345756  1
  Ti  Ti71  1  0.58596617  0.76948881  0.77155132  1
  Ti  Ti72  1  0.93342319  0.04706068  0.13276436  1
  Ti  Ti73  1  0.91131266  0.05227216  0.43935935  1
  Ti  Ti74  1  0.95477677  0.10622247  0.81869608  1
  Ti  Ti75  1  0.92518109  0.37789110  0.10627788  1
  Ti  Ti76  1  0.90841068  0.37041558  0.42861436  1
  Ti  Ti77  1  0.88063368  0.46599434  0.78397149  1
  Ti  Ti78  1  0.91281695  0.71760367  0.11200434  1
  Ti  Ti79  1  0.89933548  0.66909020  0.41357906  1
  Ti  Ti80  1  0.88180969  0.78968458  0.67333094  1
  Ti  Ti81  1  0.31413011  0.21304220  0.23735823  1
  Ti  Ti82  1  0.23602572  0.20030970  0.60803457  1
  Ti  Ti83  1  0.27201372  0.21496533  0.90243705  1
  Ti  Ti84  1  0.21517681  0.59030572  0.27772809  1
  Ti  Ti85  1  0.21300019  0.50461246  0.58341074  1
  Ti  Ti86  1  0.22250586  0.55310347  0.95087312  1
  Ti  Ti87  1  0.21563436  0.85809790  0.22113928  1
  Ti  Ti88  1  0.30427633  0.91566117  0.56819437  1
  Ti  Ti89  1  0.24583011  0.99753815  0.93668644  1
  Ti  Ti90  1  0.53378260  0.20528820  0.22377649  1
  Ti  Ti91  1  0.55823960  0.31806213  0.57912722  1
  Ti  Ti92  1  0.68154954  0.24512432  0.90348961  1
  Ti  Ti93  1  0.54050672  0.55299213  0.32536151  1
  Ti  Ti94  1  0.62027690  0.61149791  0.52387002  1
  Ti  Ti95  1  0.66060433  0.58313196  0.89679524  1
  Ti  Ti96  1  0.52732233  0.91088415  0.31062291  1
  Ti  Ti97  1  0.61428749  0.90381096  0.61824900  1
  Ti  Ti98  1  0.67174163  0.93729753  0.85414217  1
  Ti  Ti99  1  0.82189598  0.30117127  0.26792540  1
  Ti  Ti100  1  0.91361950  0.25152742  0.57153708  1
  Ti  Ti101  1  0.92607225  0.23177315  0.97012027  1
  Ti  Ti102  1  0.80971033  0.62331642  0.24941664  1
  Ti  Ti103  1  0.98945643  0.57863301  0.62283744  1
  Ti  Ti104  1  0.85059693  0.62528160  0.90988287  1
  Ti  Ti105  1  0.99973341  0.92524253  0.31485821  1
  Ti  Ti106  1  0.96551745  0.90957190  0.55806996  1
  Ti  Ti107  1  0.88381433  0.91193162  0.85626681  1
  Co  Co108  1  0.66661618  0.04570967  0.70254127  1
  Co  Co109  1  0.52888260  -0.02806080  0.77750004  1
  Co  Co110  1  0.96401673  0.71984958  0.55383188  1
  Co  Co111  1  0.51057103  0.19397797  0.44673377  1
  Co  Co112  1  0.54160707  0.01980567  0.17339560  1
  Co  Co113  1  0.48372027  0.46128784  0.48628179  1
  Co  Co114  1  0.64624191  0.61544669  0.21241904  1
  Co  Co115  1  0.02065943  0.56765383  0.30119254  1
  Co  Co116  1  0.39399674  0.81454186  0.29000542  1
  Co  Co117  1  0.60926643  0.08510328  0.89420032  1
  Co  Co118  1  0.68270685  0.72300635  0.64774550  1
  Co  Co119  1  0.21854760  0.04626279  0.53764422  1
  Co  Co120  1  0.77734576  0.44709962  0.17241278  1
  Co  Co121  1  0.90377820  0.42249640  0.60284548  1
  Co  Co122  1  0.36536163  0.09722970  -0.00023221  1
  Co  Co123  1  0.64433943  0.43009310  -0.03728911  1
  Co  Co124  1  0.40713858  0.43360573  0.07375999  1
  Co  Co125  1  0.32522732  0.19413406  0.75067322  1
  Co  Co126  1  -0.02554600  0.39323008  0.26521506  1
  Co  Co127  1  0.39959919  0.09935654  0.15473333  1
  Co  Co128  1  0.06647911  0.07752521  0.38568307  1
  Co  Co129  1  0.08020982  0.25631766  0.63249325  1
  Co  Co130  1  0.27638518  0.85066605  0.04833174  1
  Co  Co131  1  0.41508292  0.27694719  0.33172352  1
  Co  Co132  1  0.10904927  0.45494958  0.38457491  1
  Co  Co133  1  0.23848723  0.00210172  0.10005060  1
  Co  Co134  1  0.16788443  0.38932763  0.69136369  1
  Co  Co135  1  0.55554049  0.33230830  0.87474609  1
  Co  Co136  1  0.48079267  0.19971347  -0.07800159  1
  Co  Co137  1  0.68776487  0.17694101  0.18213189  1
  Co  Co138  1  -0.05673870  0.75983399  0.83594236  1
  Co  Co139  1  0.14089120  0.92842116  0.62754849  1
  Co  Co140  1  0.28511895  0.44454501  0.19287890  1
  Co  Co141  1  0.70312306  0.71921749  -0.02789276  1
  Co  Co142  1  0.48741385  0.56460369  0.16471831  1
  Co  Co143  1  0.00808149  0.58049728  0.83858851  1
  Co  Co144  1  0.96889150  0.38798902  -0.07413806  1
  Co  Co145  1  -0.02787554  0.52381454  0.46782875  1
  Co  Co146  1  0.31297875  0.33927923  0.64330589  1
  Co  Co147  1  0.63958906  0.30805747  0.72784042  1
  Co  Co148  1  0.32056380  0.06102234  0.66691436  1
  Co  Co149  1  0.74646039  0.74675831  0.12935552  1
  Co  Co150  1  0.62560720  0.06674338  0.30059578  1
  Co  Co151  1  0.51697955  0.62361503  0.84231430  1
  Co  Co152  1  0.19063596  0.30542685  0.17173820  1
  Co  Co153  1  0.64372730  0.33681133  0.23201439  1
  Co  Co154  1  0.17837224  0.24851908  0.76319862  1
  Co  Co155  1  0.73903637  0.86648401  0.70859856  1
  Co  Co156  1  0.42135444  0.81804823  0.45852065  1
  Co  Co157  1  0.60392212  0.86507763  0.45076087  1
  Co  Co158  1  0.84744427  0.78509930  -0.02867336  1
  Co  Co159  1  -0.07940685  0.53211626  0.16723490  1
  Co  Co160  1  -0.00002904  -0.00406875  0.71476796  1
  Co  Co161  1  0.85315229  -0.04317744  0.24407518  1
  Ni  Ni162  1  0.38399555  0.48019167  0.33263628  1
  Ni  Ni163  1  0.68751457  0.93228959  0.19553689  1
  Ni  Ni164  1  0.84096499  0.30381625  0.84182742  1
  Ni  Ni165  1  0.05313871  0.70253530  0.72205469  1
  Ni  Ni166  1  -0.10793172  0.04786459  0.96673000  1
  Ni  Ni167  1  0.86046980  0.20429527  0.13824872  1
  Ni  Ni168  1  0.00057356  0.70518151  -0.01758061  1
  Ni  Ni169  1  -0.03631323  -0.09519270  -0.00206570  1
  Ni  Ni170  1  0.07821990  -0.01837062  0.88399224  1
  Ni  Ni171  1  0.09493482  0.20690440  0.48512184  1
  Ni  Ni172  1  0.64716259  0.44986766  0.47749281  1
  Ni  Ni173  1  0.39453579  0.34147342  -0.07104711  1
  Ni  Ni174  1  0.37155040  0.55092306  0.82522409  1
  Ni  Ni175  1  0.77149679  0.07519258  0.85212281  1
  Ni  Ni176  1  0.31985181  0.73956723  0.16699221  1
  Ni  Ni177  1  -0.01786542  0.86873980  0.15911155  1
  Ni  Ni178  1  0.06794445  0.59949812  0.14174018  1
  Ni  Ni179  1  0.43448499  0.20082933  0.61953527  1
  Ni  Ni180  1  -0.04166408  0.14840386  0.28257301  1
  Ni  Ni181  1  0.20329223  0.33000520  0.49781698  1
  Ni  Ni182  1  0.77525586  -0.05311880  0.54339745  1
  Ni  Ni183  1  0.58510252  0.48150532  0.62133918  1
  Ni  Ni184  1  0.36881352  0.10033273  0.50106406  1
  Ni  Ni185  1  0.15090384  0.17579487  0.26434524  1
  Ni  Ni186  1  0.72087302  0.42299619  0.81526709  1
  Ni  Ni187  1  0.87107058  0.49747043  0.33098419  1
  Ni  Ni188  1  0.10270711  0.45406125  0.02402937  1
  Ni  Ni189  1  0.15382075  0.79805944  0.36036395  1
  Ni  Ni190  1  0.31928478  0.44526600  0.47893262  1
  Ni  Ni191  1  0.75095627  0.32650382  0.46878755  1
  Ni  Ni192  1  0.31954702  0.60569984  0.67996874  1
  Ni  Ni193  1  0.00821466  0.79357402  0.41764272  1
  Ni  Ni194  1  0.30890393  0.70156292  -0.01667337  1
  Ni  Ni195  1  0.23537258  0.66429824  0.54957407  1
  Ni  Ni196  1  0.25737726  0.66542519  0.83141922  1
  Ni  Ni197  1  0.91240896  0.10352285  0.62915091  1
  Ni  Ni198  1  0.54537907  0.31918458  0.04683788  1
  Ni  Ni199  1  0.38838401  0.64088048  0.29160351  1
  Ni  Ni200  1  0.25695005  0.83207299  0.88201109  1
  Ni  Ni201  1  0.70258884  0.64269273  0.38083637  1
  Ni  Ni202  1  0.02791876  0.45001684  0.72357374  1
  Ni  Ni203  1  0.65332772  -0.01617057  0.02449742  1
  Ni  Ni204  1  0.87959609  0.63454571  0.74364839  1
  Ni  Ni205  1  0.09932853  0.28751315  0.01595256  1
  Ni  Ni206  1  0.54119053  0.75579721  0.56933156  1
  Ni  Ni207  1  0.60625742  0.15910119  0.58945609  1
  Ni  Ni208  1  0.84891372  0.20619200  0.40868690  1
  Ni  Ni209  1  0.81493453  0.64991262  0.58753247  1
  Ni  Ni210  1  0.46021918  -0.03248933  0.47378043  1
  Ni  Ni211  1  0.09316622  0.18782853  -0.11531191  1
  Ni  Ni212  1  0.46056898  0.85142439  0.69134456  1
  Ni  Ni213  1  0.27465868  0.04247114  0.25571371  1
  Ni  Ni214  1  0.86678833  0.87575708  0.42270217  1
