# generated using pymatgen
data_Ti108Co54Ni53
_symmetry_space_group_name_H-M   'P 1'
_cell_length_a   14.63753782
_cell_length_b   14.58437805
_cell_length_c   14.60040098
_cell_angle_alpha   90.27875025
_cell_angle_beta   90.07014367
_cell_angle_gamma   90.08870979
_symmetry_Int_Tables_number   1
_chemical_formula_structural   Ti108Co54Ni53
_chemical_formula_sum   'Ti108 Co54 Ni53'
_cell_volume   3116.84163879
_cell_formula_units_Z   1
loop_
 _symmetry_equiv_pos_site_id
 _symmetry_equiv_pos_as_xyz
  1  'x, y, z'
loop_
 _atom_site_type_symbol
 _atom_site_label
 _atom_site_symmetry_multiplicity
 _atom_site_fract_x
 _atom_site_fract_y
 _atom_site_fract_z
 _atom_site_occupancy
  Ti  Ti0  1  0.08025131  0.14498460  0.23805813  1
  Ti  Ti1  1  0.12652946  0.11590343  0.63379569  1
  Ti  Ti2  1  0.09890212  -0.00541760  0.98207856  1
  Ti  Ti3  1  0.09241779  0.43435178  0.31129443  1
  Ti  Ti4  1  0.10144838  0.41549853  0.63061557  1
  Ti  Ti5  1  0.10519468  0.43923525  0.96988988  1
  Ti  Ti6  1  0.03271761  0.62507229  0.26115948  1
  Ti  Ti7  1  0.06618506  0.80335267  0.65088735  1
  Ti  Ti8  1  0.07670625  0.76116333  0.98335531  1
  Ti  Ti9  1  0.50073671  0.03780422  0.21660329  1
  Ti  Ti10  1  0.37895170  0.05403677  0.56407989  1
  Ti  Ti11  1  0.37730169  0.12724654  0.89032807  1
  Ti  Ti12  1  0.45534182  0.41779003  0.25486900  1
  Ti  Ti13  1  0.39951603  0.37345041  0.55095394  1
  Ti  Ti14  1  0.43018658  0.46520142  0.90516544  1
  Ti  Ti15  1  0.43310697  0.72379604  0.19912493  1
  Ti  Ti16  1  0.47325051  0.74761900  0.57646583  1
  Ti  Ti17  1  0.37574067  0.78180722  0.87471775  1
  Ti  Ti18  1  0.71499788  0.01333993  0.27347916  1
  Ti  Ti19  1  0.81177857  0.13998845  0.56106489  1
  Ti  Ti20  1  0.73633967  0.13642986  0.98095973  1
  Ti  Ti21  1  0.72326744  0.38752547  0.24998617  1
  Ti  Ti22  1  0.80928265  0.47046679  0.53560111  1
  Ti  Ti23  1  0.75633416  0.44471592  0.90170436  1
  Ti  Ti24  1  0.71655691  0.71317019  0.27528179  1
  Ti  Ti25  1  0.69671876  0.73653020  0.57830559  1
  Ti  Ti26  1  0.73565562  0.67508043  0.90895537  1
  Ti  Ti27  1  0.03819458  0.25511895  0.05301665  1
  Ti  Ti28  1  0.09328402  0.15400000  0.43913467  1
  Ti  Ti29  1  0.02745324  0.24107858  0.76208609  1
  Ti  Ti30  1  0.02734445  0.58834445  0.07020900  1
  Ti  Ti31  1  0.16668599  0.60728266  0.39264389  1
  Ti  Ti32  1  0.13439711  0.52143077  0.78364768  1
  Ti  Ti33  1  0.11427482  0.85632269  0.13913501  1
  Ti  Ti34  1  0.08814561  0.93413339  0.30195974  1
  Ti  Ti35  1  0.07920033  1.00699696  0.78002893  1
  Ti  Ti36  1  0.40123748  0.22627075  0.10476291  1
  Ti  Ti37  1  0.39947747  0.19613180  0.41695002  1
  Ti  Ti38  1  0.45196583  0.28992761  0.80440161  1
  Ti  Ti39  1  0.41374800  0.57671136  0.06666290  1
  Ti  Ti40  1  0.36619370  0.62681264  0.41509399  1
  Ti  Ti41  1  0.40432545  0.61116874  0.72571774  1
  Ti  Ti42  1  0.39886054  0.89068441  0.10122089  1
  Ti  Ti43  1  0.42239384  0.90273741  0.44358639  1
  Ti  Ti44  1  0.50017933  0.91947444  0.69278736  1
  Ti  Ti45  1  0.68267677  0.30874421  0.02940117  1
  Ti  Ti46  1  0.72709726  0.28891859  0.43971211  1
  Ti  Ti47  1  0.70927732  0.24832211  0.70399565  1
  Ti  Ti48  1  0.74989824  0.64568313  0.10305191  1
  Ti  Ti49  1  0.77135269  0.55973666  0.37438862  1
  Ti  Ti50  1  0.70917370  0.57269269  0.72603947  1
  Ti  Ti51  1  0.72089217  0.96050748  0.06917719  1
  Ti  Ti52  1  0.73210803  0.86582356  0.40965765  1
  Ti  Ti53  1  0.67730245  0.97767939  0.79208890  1
  Ti  Ti54  1  0.28846580  0.06876659  0.05398390  1
  Ti  Ti55  1  0.24658394  0.11951767  0.34240098  1
  Ti  Ti56  1  0.27364057  0.03303815  0.72060214  1
  Ti  Ti57  1  0.24009501  0.34822127  0.05149241  1
  Ti  Ti58  1  0.24234160  0.44205584  0.47417704  1
  Ti  Ti59  1  0.25235408  0.36673116  0.82196413  1
  Ti  Ti60  1  0.28778128  0.74160402  0.03962691  1
  Ti  Ti61  1  0.20522803  0.79598382  0.40269968  1
  Ti  Ti62  1  0.23377654  0.69059221  0.78334286  1
  Ti  Ti63  1  0.50535849  0.07794916  0.01849624  1
  Ti  Ti64  1  0.59439487  0.13892388  0.36667508  1
  Ti  Ti65  1  0.56268689  0.09985561  0.67201069  1
  Ti  Ti66  1  0.57753676  0.46117472  0.06948104  1
  Ti  Ti67  1  0.60082067  0.42780931  0.44120064  1
  Ti  Ti68  1  0.59646226  0.42780828  0.77613335  1
  Ti  Ti69  1  0.62446085  0.78404641  0.04265059  1
  Ti  Ti70  1  0.53548255  0.76376575  0.36790807  1
  Ti  Ti71  1  0.65753170  0.77698777  0.76253959  1
  Ti  Ti72  1  0.92476459  0.07536810  0.00494145  1
  Ti  Ti73  1  0.89705260  0.18469708  0.37242806  1
  Ti  Ti74  1  0.89019360  0.06688356  0.79955534  1
  Ti  Ti75  1  0.86788037  0.38074435  0.07136800  1
  Ti  Ti76  1  0.95974485  0.39082536  0.46894531  1
  Ti  Ti77  1  0.94978897  0.44271628  0.79473864  1
  Ti  Ti78  1  0.92912760  0.76935548  0.12575533  1
  Ti  Ti79  1  0.90253111  0.73278191  0.41288618  1
  Ti  Ti80  1  0.94117364  0.68842793  0.77571378  1
  Ti  Ti81  1  0.29172513  0.30455659  0.23503193  1
  Ti  Ti82  1  0.25152528  0.24690641  0.53742385  1
  Ti  Ti83  1  0.20208907  0.18103203  0.84343927  1
  Ti  Ti84  1  0.26390241  0.61915812  0.22590186  1
  Ti  Ti85  1  0.22245568  0.61158184  0.59146175  1
  Ti  Ti86  1  0.21121254  0.59097738  0.96103805  1
  Ti  Ti87  1  0.29293747  0.94128837  0.27561304  1
  Ti  Ti88  1  0.21626427  0.90037066  0.56622082  1
  Ti  Ti89  1  0.20901151  0.86230824  0.89063523  1
  Ti  Ti90  1  0.62643238  0.17204103  0.16373161  1
  Ti  Ti91  1  0.55610833  0.31082594  0.62421115  1
  Ti  Ti92  1  0.58734868  0.17701101  0.85746593  1
  Ti  Ti93  1  0.56049637  0.58257069  0.32819909  1
  Ti  Ti94  1  0.53144705  0.51244934  0.60509819  1
  Ti  Ti95  1  0.53527377  0.65666523  0.87561471  1
  Ti  Ti96  1  0.60804575  0.86194979  0.22428243  1
  Ti  Ti97  1  0.66691023  1.01006970  0.50918636  1
  Ti  Ti98  1  0.52836052  0.88012897  0.90362095  1
  Ti  Ti99  1  0.93557609  0.30523178  0.22326978  1
  Ti  Ti100  1  0.98197276  0.23580881  0.57252321  1
  Ti  Ti101  1  0.87617514  0.26112009  0.88362116  1
  Ti  Ti102  1  0.87536910  0.52032086  0.20694199  1
  Ti  Ti103  1  0.97574977  0.58260336  0.58050904  1
  Ti  Ti104  1  0.86952378  0.55593468  0.99738187  1
  Ti  Ti105  1  0.90015931  0.98072715  0.23612217  1
  Ti  Ti106  1  1.04290496  0.96758659  0.52993272  1
  Ti  Ti107  1  0.93285303  0.88243349  0.91571949  1
  Co  Co108  1  0.61591295  0.52481682  0.91028801  1
  Co  Co109  1  0.69165326  0.85064381  0.90267176  1
  Co  Co110  1  0.08844068  0.50623991  0.48721675  1
  Co  Co111  1  0.23314400  0.08357467  0.52000021  1
  Co  Co112  1  0.58156831  0.68466799  0.18554208  1
  Co  Co113  1  0.09245465  0.69023366  0.84839883  1
  Co  Co114  1  -0.01489435  0.80608036  0.27851061  1
  Co  Co115  1  0.86890441  0.22323896  0.04368906  1
  Co  Co116  1  0.36304334  0.92269998  0.78980690  1
  Co  Co117  1  0.09434557  0.29324400  0.90461566  1
  Co  Co118  1  0.72454652  0.06692035  0.66832310  1
  Co  Co119  1  0.88478557  -0.06525502  0.07506993  1
  Co  Co120  1  -0.04512375  0.39865579  -0.05188878  1
  Co  Co121  1  0.23474872  0.02383041  0.89354202  1
  Co  Co122  1  -0.00703788  0.04277894  0.36175889  1
  Co  Co123  1  0.71383452  0.29242453  -0.13903078  1
  Co  Co124  1  0.20021283  0.28103588  0.35947878  1
  Co  Co125  1  0.42319726  0.38725380  0.06014909  1
  Co  Co126  1  0.44841703  0.88877212  0.26918348  1
  Co  Co127  1  0.74697785  0.13291730  0.81774299  1
  Co  Co128  1  0.46232740  0.74096291  0.02184944  1
  Co  Co129  1  0.73967403  0.47270839  0.08870627  1
  Co  Co130  1  0.63001347  0.01282446  -0.05792065  1
  Co  Co131  1  -0.07272568  0.70157046  -0.05619862  1
  Co  Co132  1  0.87143174  0.22511858  0.71447031  1
  Co  Co133  1  0.36477912  0.62591251  -0.08456032  1
  Co  Co134  1  0.03383620  0.13368324  0.89488495  1
  Co  Co135  1  0.13103956  0.74867326  0.27600724  1
  Co  Co136  1  0.42253298  0.04442320  0.35823111  1
  Co  Co137  1  0.52937190  0.62404808  0.48686058  1
  Co  Co138  1  0.57259524  0.36923091  0.91883210  1
  Co  Co139  1  0.36442009  -0.09999266  0.61127262  1
  Co  Co140  1  0.02996485  0.28510652  0.35191214  1
  Co  Co141  1  0.33683190  0.76829446  0.68997242  1
  Co  Co142  1  0.25962739  0.43529337  0.65541874  1
  Co  Co143  1  0.85957985  0.54038844  0.68003154  1
  Co  Co144  1  0.29395881  0.52351638  0.80913540  1
  Co  Co145  1  0.87355001  0.67843486  0.25191560  1
  Co  Co146  1  0.79857384  -0.02416928  0.91980915  1
  Co  Co147  1  0.52016329  0.07409887  0.49386025  1
  Co  Co148  1  0.16270338  0.16168794  0.00370420  1
  Co  Co149  1  0.79213759  0.39673108  0.74416459  1
  Co  Co150  1  -0.03160036  0.08821739  0.66240392  1
  Co  Co151  1  0.57544952  -0.04333974  0.36382834  1
  Co  Co152  1  0.78194781  0.09132538  0.14177441  1
  Co  Co153  1  0.24018952  0.90577485  0.04867145  1
  Co  Co154  1  0.84473018  0.57702238  0.83426231  1
  Co  Co155  1  0.82467895  0.63751828  0.52635682  1
  Co  Co156  1  0.80848827  0.04405642  0.40032057  1
  Co  Co157  1  0.53916602  0.27522340  0.46100560  1
  Co  Co158  1  -0.05503954  0.08415135  0.50377775  1
  Co  Co159  1  0.68056376  0.69724745  0.42808293  1
  Co  Co160  1  0.57757343  0.65266732  0.67052360  1
  Co  Co161  1  0.83077434  0.84594377  0.29315753  1
  Ni  Ni162  1  0.26844719  0.79570713  0.19861968  1
  Ni  Ni163  1  0.49013036  0.76674286  0.75450408  1
  Ni  Ni164  1  0.04552749  0.82348465  0.44269487  1
  Ni  Ni165  1  0.18395548  -0.02655878  0.41923075  1
  Ni  Ni166  1  0.51525245  0.24694481  -0.00455603  1
  Ni  Ni167  1  0.15198954  0.68334158  0.12200632  1
  Ni  Ni168  1  0.81168286  0.30819767  0.58104103  1
  Ni  Ni169  1  0.20180014  0.87370378  0.72781764  1
  Ni  Ni170  1  0.37014493  0.54160319  0.56662262  1
  Ni  Ni171  1  -0.06999156  0.14397541  0.17168276  1
  Ni  Ni172  1  0.16763186  0.50758676  0.12614620  1
  Ni  Ni173  1  0.26645168  0.47483649  0.31316813  1
  Ni  Ni174  1  0.02093702  0.43682700  0.15190574  1
  Ni  Ni175  1  0.17405840  0.27411415  0.68818003  1
  Ni  Ni176  1  0.64273502  0.17887856  0.54680242  1
  Ni  Ni177  1  0.80988305  0.80233372  -0.00183323  1
  Ni  Ni178  1  0.40967628  0.13426121  0.72753581  1
  Ni  Ni179  1  0.34486386  0.10134295  0.21032384  1
  Ni  Ni180  1  0.66401814  0.90103586  0.63854559  1
  Ni  Ni181  1  0.67469049  0.56712506  0.53207579  1
  Ni  Ni182  1  0.58604456  0.85497709  0.50028565  1
  Ni  Ni183  1  0.46336397  0.21320966  0.26355097  1
  Ni  Ni184  1  0.87168933  0.41062261  0.33867391  1
  Ni  Ni185  1  0.18775317  0.02610405  0.17584352  1
  Ni  Ni186  1  0.12169140  0.30703356  0.19860746  1
  Ni  Ni187  1  0.11214878  0.33022620  0.48584085  1
  Ni  Ni188  1  0.44407927  0.48422404  0.42233988  1
  Ni  Ni189  1  0.59859987  0.30304319  0.31165351  1
  Ni  Ni190  1  0.35838162  0.35055532  0.38356640  1
  Ni  Ni191  1  -0.05690331  0.55899916  0.40193091  1
  Ni  Ni192  1  0.76653222  0.82073444  0.15127126  1
  Ni  Ni193  1  0.44332800  0.20558911  0.58180068  1
  Ni  Ni194  1  0.54616984  0.31630267  0.15373005  1
  Ni  Ni195  1  0.35009013  0.28696260  -0.05811900  1
  Ni  Ni196  1  0.55119889  -0.06704269  0.07791559  1
  Ni  Ni197  1  0.58412622  0.62314768  0.03507060  1
  Ni  Ni198  1  0.05663346  0.84452245  0.81433300  1
  Ni  Ni199  1  0.31376733  0.75633666  0.52326590  1
  Ni  Ni200  1  0.74455560  0.18620475  0.30175069  1
  Ni  Ni201  1  0.37981616  -0.04064030  -0.05027874  1
  Ni  Ni202  1  0.42021754  0.43476488  0.71819727  1
  Ni  Ni203  1  0.08873262  0.64569875  0.68415187  1
  Ni  Ni204  1  0.77470803  0.25611023  0.16211147  1
  Ni  Ni205  1  0.35816131  0.77438972  0.34480862  1
  Ni  Ni206  1  0.67714422  0.54505550  0.21925066  1
  Ni  Ni207  1  0.08758815  0.68733321  0.51879540  1
  Ni  Ni208  1  0.67953347  0.42150222  0.61987319  1
  Ni  Ni209  1  0.49964670  0.02857627  0.82954843  1
  Ni  Ni210  1  0.02909267  0.01017677  0.13290514  1
  Ni  Ni211  1  0.32059758  0.46523009  0.15811780  1
  Ni  Ni212  1  -0.06666385  0.38968625  0.64334347  1
  Ni  Ni213  1  0.33593769  0.28547601  0.68754674  1
  Ni  Ni214  1  0.01093189  0.56377361  0.90028941  1
