# generated using pymatgen
data_Ti108Co54Ni53
_symmetry_space_group_name_H-M   'P 1'
_cell_length_a   14.59132231
_cell_length_b   14.57205220
_cell_length_c   14.64922359
_cell_angle_alpha   90.02641592
_cell_angle_beta   89.74169748
_cell_angle_gamma   89.85401009
_symmetry_Int_Tables_number   1
_chemical_formula_structural   Ti108Co54Ni53
_chemical_formula_sum   'Ti108 Co54 Ni53'
_cell_volume   3114.75653032
_cell_formula_units_Z   1
loop_
 _symmetry_equiv_pos_site_id
 _symmetry_equiv_pos_as_xyz
  1  'x, y, z'
loop_
 _atom_site_type_symbol
 _atom_site_label
 _atom_site_symmetry_multiplicity
 _atom_site_fract_x
 _atom_site_fract_y
 _atom_site_fract_z
 _atom_site_occupancy
  Ti  Ti0  1  0.07169848  0.04878901  0.26171419  1
  Ti  Ti1  1  0.07811432  0.08993527  0.47621148  1
  Ti  Ti2  1  0.08766839  0.03741965  0.89138945  1
  Ti  Ti3  1  0.22263616  0.36028113  0.23942595  1
  Ti  Ti4  1  0.09207673  0.41408917  0.65474729  1
  Ti  Ti5  1  0.01871262  0.33558274  0.92970706  1
  Ti  Ti6  1  0.10631620  0.72069191  0.23399800  1
  Ti  Ti7  1  0.10862915  0.67634880  0.63024619  1
  Ti  Ti8  1  0.03432907  0.74281803  0.94914245  1
  Ti  Ti9  1  0.49463926  0.12957137  0.22752619  1
  Ti  Ti10  1  0.39014820  0.11006663  0.63960996  1
  Ti  Ti11  1  0.42267032  0.08919474  0.84047661  1
  Ti  Ti12  1  0.37793367  0.45863338  0.31371439  1
  Ti  Ti13  1  0.42631920  0.45626720  0.61419885  1
  Ti  Ti14  1  0.41882245  0.44931325  0.89380806  1
  Ti  Ti15  1  0.41823898  0.68683278  0.28560372  1
  Ti  Ti16  1  0.40163249  0.80790825  0.60806236  1
  Ti  Ti17  1  0.39608567  0.77184094  0.90957942  1
  Ti  Ti18  1  0.73740239  0.06254240  0.21534933  1
  Ti  Ti19  1  0.75964872  0.04700805  0.61413622  1
  Ti  Ti20  1  0.77669838  0.06813589  0.89940812  1
  Ti  Ti21  1  0.72783831  0.42707927  0.19152034  1
  Ti  Ti22  1  0.73269106  0.45628412  0.64017092  1
  Ti  Ti23  1  0.73246856  0.40443756  0.92805256  1
  Ti  Ti24  1  0.74400104  0.76567007  0.29323269  1
  Ti  Ti25  1  0.74466660  0.75307046  0.61908029  1
  Ti  Ti26  1  0.72272594  0.74446014  0.96282873  1
  Ti  Ti27  1  0.11163834  0.30324086  0.09822482  1
  Ti  Ti28  1  0.09920020  0.27240501  0.38028552  1
  Ti  Ti29  1  0.12876900  0.20082602  0.80405979  1
  Ti  Ti30  1  0.12803540  0.61676057  0.06710732  1
  Ti  Ti31  1  0.13010029  0.67064500  0.43755935  1
  Ti  Ti32  1  0.04309268  0.60987022  0.80360605  1
  Ti  Ti33  1  0.06871609  0.94185135  0.07477322  1
  Ti  Ti34  1  0.12104323  0.89643189  0.50213625  1
  Ti  Ti35  1  0.02886072  0.86715125  0.68287054  1
  Ti  Ti36  1  0.44440092  0.21146299  0.06303466  1
  Ti  Ti37  1  0.39435122  0.21275315  0.43537109  1
  Ti  Ti38  1  0.41726736  0.32307815  0.73703921  1
  Ti  Ti39  1  0.47590007  0.59137825  0.04063283  1
  Ti  Ti40  1  0.44354646  0.56204212  0.45664897  1
  Ti  Ti41  1  0.45994983  0.58945064  0.75791175  1
  Ti  Ti42  1  0.41795224  0.89749309  0.06763340  1
  Ti  Ti43  1  0.40754523  0.89876126  0.37721881  1
  Ti  Ti44  1  0.45305600  0.93397955  0.73648305  1
  Ti  Ti45  1  0.78933743  0.25522770  0.15284741  1
  Ti  Ti46  1  0.73371852  0.20350103  0.37176640  1
  Ti  Ti47  1  0.67954267  0.24151145  0.71022853  1
  Ti  Ti48  1  0.78848950  0.56832579  0.04393485  1
  Ti  Ti49  1  0.78744196  0.63530840  0.42286540  1
  Ti  Ti50  1  0.83504327  0.60292370  0.76221060  1
  Ti  Ti51  1  0.74165715  0.92804466  0.06440990  1
  Ti  Ti52  1  0.68193278  0.94392707  0.37771347  1
  Ti  Ti53  1  0.72239656  0.91926223  0.74145845  1
  Ti  Ti54  1  0.21486356  0.10114977  0.11309908  1
  Ti  Ti55  1  0.28742137  0.04199279  0.49298445  1
  Ti  Ti56  1  0.13982228  0.05226979  0.66352770  1
  Ti  Ti57  1  0.27280875  0.46197897  0.06324623  1
  Ti  Ti58  1  0.21075936  0.44980297  0.42507576  1
  Ti  Ti59  1  0.24074094  0.36167550  0.80180990  1
  Ti  Ti60  1  0.24411744  0.77906729  0.06212431  1
  Ti  Ti61  1  0.26369874  0.77768168  0.36278620  1
  Ti  Ti62  1  0.27899041  0.68066421  0.74934164  1
  Ti  Ti63  1  0.65673357  0.12388975  0.05958114  1
  Ti  Ti64  1  0.49636969  0.05093067  0.43069241  1
  Ti  Ti65  1  0.61637599  0.07795152  0.80640699  1
  Ti  Ti66  1  0.53019641  0.39106056  0.06407375  1
  Ti  Ti67  1  0.54213853  0.36729068  0.47534574  1
  Ti  Ti68  1  0.59767083  0.44695666  0.77512309  1
  Ti  Ti69  1  0.56624509  0.76395280  0.17850281  1
  Ti  Ti70  1  0.59310459  0.65745099  0.36832232  1
  Ti  Ti71  1  0.64528781  0.62706084  0.71584292  1
  Ti  Ti72  1  0.89771363  0.08370878  0.11302064  1
  Ti  Ti73  1  0.90899689  0.09572498  0.39148544  1
  Ti  Ti74  1  0.91260946  0.00372503  0.75598457  1
  Ti  Ti75  1  0.97327170  0.45402901  0.11157377  1
  Ti  Ti76  1  0.93495400  0.44429590  0.34785139  1
  Ti  Ti77  1  0.91795022  0.42561215  0.76162725  1
  Ti  Ti78  1  0.93463164  0.76073603  0.16218004  1
  Ti  Ti79  1  0.95197304  0.78029106  0.36974318  1
  Ti  Ti80  1  0.88380747  0.79310669  0.80961377  1
  Ti  Ti81  1  0.32761746  0.19954961  0.24474466  1
  Ti  Ti82  1  0.23823189  0.24666423  0.63340158  1
  Ti  Ti83  1  0.27087334  0.19020255  0.94588105  1
  Ti  Ti84  1  0.19871911  0.54464470  0.24022065  1
  Ti  Ti85  1  0.25646588  0.55891625  0.56910895  1
  Ti  Ti86  1  0.21611220  0.53781120  0.89050088  1
  Ti  Ti87  1  0.21432711  0.90864717  0.21722642  1
  Ti  Ti88  1  0.22341303  0.85555693  0.65326224  1
  Ti  Ti89  1  0.28422442  0.96419730  0.89540722  1
  Ti  Ti90  1  0.50948548  0.32978514  0.26980721  1
  Ti  Ti91  1  0.56581671  0.17040533  0.56641399  1
  Ti  Ti92  1  0.56225631  0.29557468  0.88837748  1
  Ti  Ti93  1  0.53854760  0.53741656  0.21174745  1
  Ti  Ti94  1  0.55053117  0.69969909  0.56274437  1
  Ti  Ti95  1  0.56668099  0.65596052  0.89206805  1
  Ti  Ti96  1  0.52213958  0.95180642  0.23340149  1
  Ti  Ti97  1  0.58675005  0.90223000  0.53568622  1
  Ti  Ti98  1  0.57973255  0.84846608  0.85584062  1
  Ti  Ti99  1  1.00512553  0.23202462  0.22841139  1
  Ti  Ti100  1  0.90375624  0.24950022  0.64048218  1
  Ti  Ti101  1  0.89921634  0.22090957  0.85149643  1
  Ti  Ti102  1  0.84396498  0.59478083  0.21633093  1
  Ti  Ti103  1  0.95484978  0.60710109  0.50505850  1
  Ti  Ti104  1  0.93302699  0.50630498  0.92885677  1
  Ti  Ti105  1  0.86742005  0.93664282  0.27112878  1
  Ti  Ti106  1  0.91554472  0.94637366  0.52700972  1
  Ti  Ti107  1  0.91463480  0.95043825  0.95096462  1
  Co  Co108  1  0.11065781  0.82720623  0.35252685  1
  Co  Co109  1  0.43146881  -0.03001685  0.56102830  1
  Co  Co110  1  0.71459427  0.75181931  0.80007392  1
  Co  Co111  1  0.54078599  0.13883664  -0.05327937  1
  Co  Co112  1  0.09056298  0.51697988  0.52892283  1
  Co  Co113  1  0.80330476  0.14139775  0.74418838  1
  Co  Co114  1  0.84152968  0.38435168  0.04274736  1
  Co  Co115  1  0.06628633  0.39973271  0.25356065  1
  Co  Co116  1  0.51058219  0.03982314  0.08338884  1
  Co  Co117  1  0.51278372  0.18972539  0.72706216  1
  Co  Co118  1  0.02562624  0.30226725  0.75057052  1
  Co  Co119  1  0.81323189  0.59622416  0.60046332  1
  Co  Co120  1  0.36946175  0.34313049  -0.00697796  1
  Co  Co121  1  -0.04637740  0.25761026  0.06181139  1
  Co  Co122  1  0.02730603  0.88392979  0.22368535  1
  Co  Co123  1  0.85703418  0.87059220  0.65390807  1
  Co  Co124  1  0.28777813  0.01940822  0.73362891  1
  Co  Co125  1  0.42529780  0.27678015  0.58277280  1
  Co  Co126  1  0.27017130  0.40275231  0.62526927  1
  Co  Co127  1  0.36058237  0.01672688  0.17399499  1
  Co  Co128  1  0.46232412  0.74902324  0.75491916  1
  Co  Co129  1  0.05513790  0.12162291  0.10064303  1
  Co  Co130  1  0.41345975  0.72498425  0.45417117  1
  Co  Co131  1  0.57568185  0.49022251  -0.07205991  1
  Co  Co132  1  0.64287036  0.50302942  0.07892666  1
  Co  Co133  1  0.02189212  0.77835674  0.53197355  1
  Co  Co134  1  0.07602456  0.21264069  0.60822224  1
  Co  Co135  1  0.53831555  0.77556051  0.00860058  1
  Co  Co136  1  -0.04654545  0.09242398  0.58577693  1
  Co  Co137  1  0.41107029  0.24831098  0.87582559  1
  Co  Co138  1  0.86283125  0.16771829  0.26469292  1
  Co  Co139  1  0.68457735  0.61359289  0.23043750  1
  Co  Co140  1  0.46535247  -0.04910204  0.92078395  1
  Co  Co141  1  0.66916147  0.59873987  0.52593672  1
  Co  Co142  1  0.11367903  0.76043756  0.78429602  1
  Co  Co143  1  0.89797787  -0.08267386  0.11660719  1
  Co  Co144  1  0.25837024  0.72115584  0.54529254  1
  Co  Co145  1  0.31991323  0.84795705  0.78197176  1
  Co  Co146  1  -0.04386370  0.11311554  -0.03947720  1
  Co  Co147  1  0.24238151  -0.05228795  0.05740687  1
  Co  Co148  1  0.16019512  -0.07081295  0.78272933  1
  Co  Co149  1  0.35942053  0.05578794  0.33170844  1
  Co  Co150  1  0.57119990  0.51512530  0.61500966  1
  Co  Co151  1  0.01861394  0.88344377  0.84991688  1
  Co  Co152  1  0.66787958  0.07560140  0.48009579  1
  Co  Co153  1  0.27086127  0.29701457  0.37793358  1
  Co  Co154  1  0.86768402  0.75439302  0.52131481  1
  Co  Co155  1  0.33315237  0.49404700  0.75332124  1
  Co  Co156  1  0.10144259  0.19538712  -0.03154751  1
  Co  Co157  1  0.70582673  0.22025150  0.87947906  1
  Co  Co158  1  0.08760185  0.44538935  0.83100137  1
  Co  Co159  1  0.14226593  0.34134512  0.52110011  1
  Co  Co160  1  0.90060351  0.35806510  0.21149390  1
  Co  Co161  1  -0.00381707  0.13575623  0.73472999  1
  Ni  Ni162  1  0.81715028  0.86667638  0.41979334  1
  Ni  Ni163  1  0.01060149  -0.04848650  0.38271262  1
  Ni  Ni164  1  0.35698472  0.61452943  -0.07887313  1
  Ni  Ni165  1  0.68236964  0.77389980  0.45899508  1
  Ni  Ni166  1  0.36630293  0.06021122  0.01125704  1
  Ni  Ni167  1  0.87412467  0.66026260  0.91663911  1
  Ni  Ni168  1  0.20804061  0.70574519  0.91274439  1
  Ni  Ni169  1  0.66179646  0.29024539  0.04068341  1
  Ni  Ni170  1  0.15396451  0.86578038  -0.05948462  1
  Ni  Ni171  1  0.76518570  0.76432399  0.13213792  1
  Ni  Ni172  1  0.57426079  0.02138711  0.64879395  1
  Ni  Ni173  1  0.57207768  0.48604947  0.36113591  1
  Ni  Ni174  1  0.20220082  0.13414390  0.33558486  1
  Ni  Ni175  1  0.67889386  0.89453722  0.21185420  1
  Ni  Ni176  1  0.36529918  0.83870525  0.22020315  1
  Ni  Ni177  1  0.27575134  0.27085770  0.10211666  1
  Ni  Ni178  1  0.76171318  0.49602188  0.33870083  1
  Ni  Ni179  1  -0.03259015  0.22994621  0.47981217  1
  Ni  Ni180  1  0.39056070  0.38492374  0.15901835  1
  Ni  Ni181  1  0.36924703  0.38912518  0.47207555  1
  Ni  Ni182  1  0.56347854  0.22042649  0.38793777  1
  Ni  Ni183  1  0.18109533  0.53502226  0.72205592  1
  Ni  Ni184  1  0.40466191  0.72412700  0.10432533  1
  Ni  Ni185  1  0.02792916  0.57119290  0.20974762  1
  Ni  Ni186  1  0.87599087  0.79714819  0.00659780  1
  Ni  Ni187  1  0.81587158  0.16056672  0.51556951  1
  Ni  Ni188  1  0.36570743  0.55732813  0.17055107  1
  Ni  Ni189  1  0.75876175  -0.10657216  0.89748470  1
  Ni  Ni190  1  0.20767459  0.18862754  0.49078033  1
  Ni  Ni191  1  0.62281932  -0.01403897  -0.04567251  1
  Ni  Ni192  1  0.59482545  0.81727341  0.68453378  1
  Ni  Ni193  1  0.63337556  0.23111261  0.21390113  1
  Ni  Ni194  1  0.10077404  0.47088904  -0.00118054  1
  Ni  Ni195  1  0.97123181  0.54580154  0.65731861  1
  Ni  Ni196  1  0.71829129  0.57637873  0.88017703  1
  Ni  Ni197  1  0.81109958  0.20203124  -0.00110004  1
  Ni  Ni198  1  -0.06245291  0.71145737  0.66704575  1
  Ni  Ni199  1  0.20174770  -0.03053709  0.37094672  1
  Ni  Ni200  1  0.07894460  0.53240245  0.36153588  1
  Ni  Ni201  1  0.66523839  0.35174138  0.33585809  1
  Ni  Ni202  1  0.19850946  0.34648079  0.95779351  1
  Ni  Ni203  1  0.39884236  0.63896956  0.60992259  1
  Ni  Ni204  1  0.57113653  0.34458760  0.63978352  1
  Ni  Ni205  1  0.63903634  0.66002526  0.07790312  1
  Ni  Ni206  1  0.29090513  0.61196585  0.38316993  1
  Ni  Ni207  1  -0.04412890  0.62817506  0.06272920  1
  Ni  Ni208  1  0.55677420  0.82272679  0.35852127  1
  Ni  Ni209  1  0.62004058  0.08623644  0.31979320  1
  Ni  Ni210  1  0.26865520  0.69394802  0.20318603  1
  Ni  Ni211  1  -0.05492200  0.62295237  0.33806440  1
  Ni  Ni212  1  0.29549264  0.18334087  0.77537162  1
  Ni  Ni213  1  0.29564204  0.87437109  0.49561642  1
  Ni  Ni214  1  0.78295557  0.33916960  0.78173107  1
