# generated using pymatgen
data_Ti108Co54Ni53
_symmetry_space_group_name_H-M   'P 1'
_cell_length_a   14.67182235
_cell_length_b   14.63077102
_cell_length_c   14.69361940
_cell_angle_alpha   90.22426109
_cell_angle_beta   89.90485549
_cell_angle_gamma   90.00474931
_symmetry_Int_Tables_number   1
_chemical_formula_structural   Ti108Co54Ni53
_chemical_formula_sum   'Ti108 Co54 Ni53'
_cell_volume   3154.10489743
_cell_formula_units_Z   1
loop_
 _symmetry_equiv_pos_site_id
 _symmetry_equiv_pos_as_xyz
  1  'x, y, z'
loop_
 _atom_site_type_symbol
 _atom_site_label
 _atom_site_symmetry_multiplicity
 _atom_site_fract_x
 _atom_site_fract_y
 _atom_site_fract_z
 _atom_site_occupancy
  Ti  Ti0  1  0.08463844  0.10846610  0.26302490  1
  Ti  Ti1  1  0.08945795  0.13839935  0.58147965  1
  Ti  Ti2  1  0.06395017  0.11140727  0.95358920  1
  Ti  Ti3  1  0.03100786  0.43462982  0.19292725  1
  Ti  Ti4  1  0.02570131  0.39684813  0.53821329  1
  Ti  Ti5  1  0.10055147  0.44397199  0.82333286  1
  Ti  Ti6  1  0.07901580  0.74015840  0.22966942  1
  Ti  Ti7  1  0.07873340  0.73284914  0.59460546  1
  Ti  Ti8  1  0.09494706  0.83273852  0.87749937  1
  Ti  Ti9  1  0.37713377  -0.03284034  0.21928723  1
  Ti  Ti10  1  0.39965699  0.10049419  0.64499932  1
  Ti  Ti11  1  0.52662681  0.06635475  0.93841144  1
  Ti  Ti12  1  0.39357100  0.40908889  0.20759611  1
  Ti  Ti13  1  0.36242825  0.36159935  0.55567768  1
  Ti  Ti14  1  0.37166279  0.42098671  0.92825933  1
  Ti  Ti15  1  0.33871576  0.77992994  0.30985165  1
  Ti  Ti16  1  0.37815343  0.66630626  0.59631661  1
  Ti  Ti17  1  0.45790239  0.75371824  0.87764119  1
  Ti  Ti18  1  0.76602976  0.10310917  0.22420277  1
  Ti  Ti19  1  0.72880280  0.06307172  0.67143519  1
  Ti  Ti20  1  0.74331868  0.04744490  0.85833816  1
  Ti  Ti21  1  0.78828593  0.49569659  0.24149612  1
  Ti  Ti22  1  0.81914795  0.46684545  0.56580185  1
  Ti  Ti23  1  0.75925555  0.48396518  0.91763544  1
  Ti  Ti24  1  0.81068137  0.76003951  0.22410916  1
  Ti  Ti25  1  0.74836027  0.65303741  0.59622904  1
  Ti  Ti26  1  0.73299624  0.75770547  0.89098100  1
  Ti  Ti27  1  0.01996093  0.28052828  0.06971608  1
  Ti  Ti28  1  0.06835912  0.23090440  0.41766637  1
  Ti  Ti29  1  0.09161816  0.16091477  0.77063697  1
  Ti  Ti30  1  0.04215903  0.62695973  0.07847948  1
  Ti  Ti31  1  0.09300377  0.55264620  0.34568358  1
  Ti  Ti32  1  0.01771694  0.54085808  0.68493911  1
  Ti  Ti33  1  0.05608344  0.98597096  0.11473472  1
  Ti  Ti34  1  0.11502486  0.89592602  0.46984409  1
  Ti  Ti35  1  0.15808894  0.90981951  0.70954389  1
  Ti  Ti36  1  0.36530466  0.27470155  0.07433259  1
  Ti  Ti37  1  0.41385172  0.24954495  0.34001104  1
  Ti  Ti38  1  0.38827345  0.26503348  0.79776715  1
  Ti  Ti39  1  0.44558438  0.60698155  0.01359693  1
  Ti  Ti40  1  0.38383402  0.61991774  0.41945634  1
  Ti  Ti41  1  0.44665930  0.58834659  0.78548351  1
  Ti  Ti42  1  0.44237702  0.88795119  0.01602010  1
  Ti  Ti43  1  0.46141689  0.93341297  0.39260438  1
  Ti  Ti44  1  0.45079043  0.91760107  0.74288833  1
  Ti  Ti45  1  0.78668807  0.27846847  0.06078356  1
  Ti  Ti46  1  0.79482065  0.15035313  0.42145699  1
  Ti  Ti47  1  0.76093186  0.23563948  0.76767077  1
  Ti  Ti48  1  0.65973658  0.60852595  0.02301301  1
  Ti  Ti49  1  0.69904978  0.65016154  0.38136957  1
  Ti  Ti50  1  0.68729812  0.53921129  0.73667958  1
  Ti  Ti51  1  0.76515476  0.91301073  0.12840975  1
  Ti  Ti52  1  0.71012622  0.93572128  0.44574886  1
  Ti  Ti53  1  0.81639629  0.85708482  0.61800233  1
  Ti  Ti54  1  0.31218406  0.07808257  0.05701317  1
  Ti  Ti55  1  0.27568546  0.08363702  0.34031596  1
  Ti  Ti56  1  0.26111874  0.12168089  0.82699985  1
  Ti  Ti57  1  0.21294602  0.40263242  0.10345619  1
  Ti  Ti58  1  0.19629617  0.41961113  0.45425835  1
  Ti  Ti59  1  0.30754937  0.43291857  0.73608434  1
  Ti  Ti60  1  0.23716456  0.69990040  0.12857604  1
  Ti  Ti61  1  0.23677049  0.74694378  0.47938250  1
  Ti  Ti62  1  0.26000904  0.71107557  0.82304648  1
  Ti  Ti63  1  0.67321975  0.07200660  0.05429883  1
  Ti  Ti64  1  0.51535266  0.11807771  0.48372744  1
  Ti  Ti65  1  0.57606883  0.17988762  0.76504226  1
  Ti  Ti66  1  0.60392931  0.41532477  0.11763825  1
  Ti  Ti67  1  0.49692653  0.46646502  0.49102697  1
  Ti  Ti68  1  0.56514762  0.41039981  0.66464305  1
  Ti  Ti69  1  0.60977315  0.75330647  0.14436677  1
  Ti  Ti70  1  0.54070695  0.76873418  0.42989044  1
  Ti  Ti71  1  0.61089472  0.75807627  0.73426795  1
  Ti  Ti72  1  0.88160471  0.03265711  0.01335467  1
  Ti  Ti73  1  0.99477736  0.03495991  0.43451947  1
  Ti  Ti74  1  0.91729475  0.12255468  0.68991088  1
  Ti  Ti75  1  0.92704676  0.41905367  -0.02682434  1
  Ti  Ti76  1  0.91239123  0.45330310  0.38279299  1
  Ti  Ti77  1  0.87542209  0.42737964  0.77021870  1
  Ti  Ti78  1  0.92963730  0.81805699  0.02910215  1
  Ti  Ti79  1  0.95950267  0.77573786  0.36942121  1
  Ti  Ti80  1  0.94987373  0.69843230  0.80365966  1
  Ti  Ti81  1  0.24823825  0.24279086  0.22155205  1
  Ti  Ti82  1  0.29597495  0.19511161  0.50237307  1
  Ti  Ti83  1  0.21558389  0.24677255  0.96122492  1
  Ti  Ti84  1  0.29567362  0.54761687  0.26784137  1
  Ti  Ti85  1  0.21209347  0.59402230  0.66628639  1
  Ti  Ti86  1  0.20270864  0.57897671  0.98235762  1
  Ti  Ti87  1  0.19927739  0.89460377  0.20586929  1
  Ti  Ti88  1  0.30215572  0.92755880  0.56683906  1
  Ti  Ti89  1  0.22878053  0.89578171  1.00801446  1
  Ti  Ti90  1  0.56119903  0.14687837  0.21910753  1
  Ti  Ti91  1  0.63500117  0.24626953  0.57281832  1
  Ti  Ti92  1  0.51953856  0.28319357  0.96857655  1
  Ti  Ti93  1  0.52260522  0.63626104  0.27139642  1
  Ti  Ti94  1  0.55613998  0.62673244  0.60856600  1
  Ti  Ti95  1  0.56108950  0.47665746  0.90174365  1
  Ti  Ti96  1  0.57723293  0.94635149  0.22545163  1
  Ti  Ti97  1  0.61684348  0.92460892  0.62092274  1
  Ti  Ti98  1  0.60000239  0.90162905  0.88202686  1
  Ti  Ti99  1  0.92508180  0.27181808  0.28182082  1
  Ti  Ti100  1  0.91287323  0.29469199  0.63482118  1
  Ti  Ti101  1  0.94340880  0.25121206  0.84874819  1
  Ti  Ti102  1  0.94363185  0.61080614  0.23751728  1
  Ti  Ti103  1  0.94666135  0.60514434  0.50696075  1
  Ti  Ti104  1  0.87358937  0.63317078  0.98909653  1
  Ti  Ti105  1  0.87732862  0.94139118  0.32341533  1
  Ti  Ti106  1  0.99781448  0.96876672  0.61717080  1
  Ti  Ti107  1  0.88977899  0.89077182  0.84777103  1
  Co  Co108  1  0.16246649  0.82054455  0.34315475  1
  Co  Co109  1  0.75690773  0.46506621  0.07687004  1
  Co  Co110  1  0.02513682  -0.04799620  -0.04189374  1
  Co  Co111  1  0.86176612  0.57442336  0.69158467  1
  Co  Co112  1  0.22466143  0.59101851  0.44080708  1
  Co  Co113  1  0.61042156  0.91706357  0.04785513  1
  Co  Co114  1  0.75530807  0.76310403  0.04948815  1
  Co  Co115  1  0.49526512  0.28966332  0.17301934  1
  Co  Co116  1  0.15470844  0.55390333  0.17404483  1
  Co  Co117  1  0.04521836  0.69232044  -0.06148840  1
  Co  Co118  1  0.09259285  0.81378291  0.07029523  1
  Co  Co119  1  0.28565341  -0.07992304  0.39210576  1
  Co  Co120  1  0.63708402  0.79478609  0.29805988  1
  Co  Co121  1  0.58673397  0.01524375  0.76302056  1
  Co  Co122  1  0.36555636  0.05017193  0.47251120  1
  Co  Co123  1  0.66137838  0.51481263  0.54861717  1
  Co  Co124  1  0.42908034  0.50551720  0.64865789  1
  Co  Co125  1  0.17837149  -0.01262458  0.87114541  1
  Co  Co126  1  0.46355727  0.08104857  0.33067626  1
  Co  Co127  1  0.04482823  0.33149227  0.71598388  1
  Co  Co128  1  0.45766161  0.43757487  0.05719598  1
  Co  Co129  1  0.08451475  0.69538609  0.42780736  1
  Co  Co130  1  -0.02501390  0.14970205  0.14318584  1
  Co  Co131  1  0.78944186  0.19317196  0.58724472  1
  Co  Co132  1  0.71578155  0.89734829  0.76505456  1
  Co  Co133  1  0.07528152  0.30655509  -0.08814916  1
  Co  Co134  1  0.21128413  0.67488247  0.30404720  1
  Co  Co135  1  0.12126873  0.60415859  0.82823686  1
  Co  Co136  1  0.08913435  0.27446514  0.22467422  1
  Co  Co137  1  0.32022217  0.53531421  0.09615300  1
  Co  Co138  1  0.66463461  0.35988625  -0.02899956  1
  Co  Co139  1  0.48690640  0.15909459  0.07027009  1
  Co  Co140  1  0.22238819  0.05232852  0.18647835  1
  Co  Co141  1  0.55712761  0.60598682  0.44096835  1
  Co  Co142  1  0.21552614  0.40795259  -0.07136451  1
  Co  Co143  1  0.79202105  0.74745303  0.73785701  1
  Co  Co144  1  -0.08645091  0.51535140  0.10322547  1
  Co  Co145  1  0.03138165  -0.00874285  0.78882440  1
  Co  Co146  1  -0.01324804  0.84334911  0.71951676  1
  Co  Co147  1  0.38735298  0.80605275  0.48200353  1
  Co  Co148  1  0.20128923  0.40683162  0.26899897  1
  Co  Co149  1  -0.07875940  0.08260732  0.84945228  1
  Co  Co150  1  0.68685263  0.38538132  0.79949191  1
  Co  Co151  1  0.80360859  0.32310602  0.89796924  1
  Co  Co152  1  0.72383143  0.93775168  0.28376382  1
  Co  Co153  1  0.38470828  0.14477893  0.20117024  1
  Co  Co154  1  0.48267921  0.80904127  0.24769002  1
  Co  Co155  1  0.77607078  0.80774443  0.37103929  1
  Co  Co156  1  0.48937964  0.01229447  0.10829883  1
  Co  Co157  1  0.86492622  -0.02457710  0.72075237  1
  Co  Co158  1  -0.04392902  0.54412222  0.86233317  1
  Co  Co159  1  0.30659157  0.51340369  0.54961195  1
  Co  Co160  1  0.22458518  0.26719479  0.37853874  1
  Co  Co161  1  0.11473170  0.73534825  0.74666581  1
  Ni  Ni162  1  0.19482821  0.04271821  0.48964162  1
  Ni  Ni163  1  0.84241989  0.02753679  0.53833590  1
  Ni  Ni164  1  0.63929537  0.06728466  0.35365098  1
  Ni  Ni165  1  0.23317526  0.10512901  0.65411615  1
  Ni  Ni166  1  0.80050230  0.61655826  0.83588674  1
  Ni  Ni167  1  0.63246857  0.23640680  0.08958673  1
  Ni  Ni168  1  0.24713354  0.77199185  0.65009897  1
  Ni  Ni169  1  0.16325452  0.28438394  0.56706424  1
  Ni  Ni170  1  0.07919309  0.46089167  0.02117047  1
  Ni  Ni171  1  0.46944151  0.49666106  0.32982905  1
  Ni  Ni172  1  0.91963034  0.11012577  0.30484020  1
  Ni  Ni173  1  0.91742414  0.71576300  0.63304208  1
  Ni  Ni174  1  0.83557196  0.73703245  0.49003016  1
  Ni  Ni175  1  0.34201292  0.40073980  0.37728999  1
  Ni  Ni176  1  -0.03554695  0.83386428  0.52445743  1
  Ni  Ni177  1  0.73934478  0.35356031  0.64652953  1
  Ni  Ni178  1  0.16746762  0.42766872  0.64194832  1
  Ni  Ni179  1  0.10447022  0.55190003  0.53923394  1
  Ni  Ni180  1  0.05664682  0.37896962  0.35322622  1
  Ni  Ni181  1  0.87208907  0.31441162  0.46492949  1
  Ni  Ni182  1  0.85617316  0.62247297  0.36954372  1
  Ni  Ni183  1  0.90293928  0.00811381  0.17552463  1
  Ni  Ni184  1  -0.04628196  0.84530226  0.19176458  1
  Ni  Ni185  1  0.29455173  0.26171680  0.66471236  1
  Ni  Ni186  1  0.30830319  0.86040113  0.85649903  1
  Ni  Ni187  1  0.38640548  0.17116052  0.93597152  1
  Ni  Ni188  1  0.28474919  0.54942337  0.84501874  1
  Ni  Ni189  1  0.32558662  0.74100889  -0.01486207  1
  Ni  Ni190  1  0.64814496  0.57223016  0.18556875  1
  Ni  Ni191  1  0.35290826  0.00160947  -0.08602543  1
  Ni  Ni192  1  0.87379663  0.37161268  0.16310670  1
  Ni  Ni193  1  0.47223833  0.24956271  0.63549276  1
  Ni  Ni194  1  0.04837181  -0.06592991  0.29783137  1
  Ni  Ni195  1  -0.06376590  0.17099057  0.51426136  1
  Ni  Ni196  1  0.79326842  0.62466239  0.13317403  1
  Ni  Ni197  1  0.43447687  0.08720210  0.80104830  1
  Ni  Ni198  1  0.67058929  0.78326937  0.52945517  1
  Ni  Ni199  1  0.52974291  0.34331580  0.80949338  1
  Ni  Ni200  1  0.46685256  -0.04522897  0.56112080  1
  Ni  Ni201  1  0.58073363  0.75822753  -0.01658552  1
  Ni  Ni202  1  0.76050799  -0.08693643  -0.03778498  1
  Ni  Ni203  1  0.67571223  0.08289969  0.51943554  1
  Ni  Ni204  1  0.40111262  0.75901755  0.72743062  1
  Ni  Ni205  1  0.59849714  0.63842293  0.86353949  1
  Ni  Ni206  1  0.34821796  0.82401294  0.13468394  1
  Ni  Ni207  1  0.82673878  0.16895418  -0.05395780  1
  Ni  Ni208  1  0.50800535  0.79522582  0.60213246  1
  Ni  Ni209  1  0.30015367  -0.01384784  0.74383435  1
  Ni  Ni210  1  0.20100602  0.29950376  0.79443360  1
  Ni  Ni211  1  0.14247684  0.16359416  0.09830024  1
  Ni  Ni212  1  0.40483707  0.67086652  0.16333138  1
  Ni  Ni213  1  0.49974742  0.29577216  0.47900326  1
  Ni  Ni214  1  0.66458987  0.19603700  0.92111016  1
