# generated using pymatgen
data_Ti108Co54Ni53
_symmetry_space_group_name_H-M   'P 1'
_cell_length_a   14.61074538
_cell_length_b   14.58410099
_cell_length_c   14.63721415
_cell_angle_alpha   89.86963172
_cell_angle_beta   90.10693517
_cell_angle_gamma   90.10225023
_symmetry_Int_Tables_number   1
_chemical_formula_structural   Ti108Co54Ni53
_chemical_formula_sum   'Ti108 Co54 Ni53'
_cell_volume   3118.94626925
_cell_formula_units_Z   1
loop_
 _symmetry_equiv_pos_site_id
 _symmetry_equiv_pos_as_xyz
  1  'x, y, z'
loop_
 _atom_site_type_symbol
 _atom_site_label
 _atom_site_symmetry_multiplicity
 _atom_site_fract_x
 _atom_site_fract_y
 _atom_site_fract_z
 _atom_site_occupancy
  Ti  Ti0  1  0.10798634  0.05373702  0.27646771  1
  Ti  Ti1  1  0.08004099  0.16660249  0.55868592  1
  Ti  Ti2  1  0.11691624  0.09299524  0.93760524  1
  Ti  Ti3  1  0.07527866  0.37027864  0.23096715  1
  Ti  Ti4  1  0.01030877  0.45418190  0.57285606  1
  Ti  Ti5  1  0.08052313  0.31194434  0.96243834  1
  Ti  Ti6  1  0.10368389  0.75810559  0.17593979  1
  Ti  Ti7  1  0.00414653  0.76703066  0.56015075  1
  Ti  Ti8  1  0.06833929  0.75782931  0.87351475  1
  Ti  Ti9  1  0.42983857  0.00172819  0.25687062  1
  Ti  Ti10  1  0.30976568  0.04198197  0.58121791  1
  Ti  Ti11  1  0.45039865  0.06399173  1.01729274  1
  Ti  Ti12  1  0.41968067  0.37717761  0.27724215  1
  Ti  Ti13  1  0.45728955  0.43883144  0.64594283  1
  Ti  Ti14  1  0.39203578  0.40014111  0.93435404  1
  Ti  Ti15  1  0.43410820  0.69447127  0.22768457  1
  Ti  Ti16  1  0.44046705  0.76028411  0.56320461  1
  Ti  Ti17  1  0.36417194  0.73813639  0.90546632  1
  Ti  Ti18  1  0.74258780  0.10272900  0.21597836  1
  Ti  Ti19  1  0.68545916  0.13610915  0.58330561  1
  Ti  Ti20  1  0.78015449  0.06894612  0.88688617  1
  Ti  Ti21  1  0.73649400  0.47492869  0.25608920  1
  Ti  Ti22  1  0.69370346  0.32239013  0.53114104  1
  Ti  Ti23  1  0.73148675  0.43218048  0.94489767  1
  Ti  Ti24  1  0.73912868  0.79412664  0.29217258  1
  Ti  Ti25  1  0.75802497  0.78289867  0.60881198  1
  Ti  Ti26  1  0.75774694  0.74424880  0.87305186  1
  Ti  Ti27  1  0.06273429  0.17702034  0.10624054  1
  Ti  Ti28  1  0.00121311  0.29655223  0.44440115  1
  Ti  Ti29  1  0.05370291  0.21404412  0.77136758  1
  Ti  Ti30  1  0.11765567  0.57459025  0.13511126  1
  Ti  Ti31  1  0.11400112  0.59283170  0.41532531  1
  Ti  Ti32  1  0.18767946  0.58890520  0.71562608  1
  Ti  Ti33  1  0.07127189  0.88165380  0.03269376  1
  Ti  Ti34  1  0.13446607  0.93725370  0.42040701  1
  Ti  Ti35  1  0.07011543  0.90773954  0.71440347  1
  Ti  Ti36  1  0.33679911  0.28556558  0.11061984  1
  Ti  Ti37  1  0.36010110  0.25990466  0.42190806  1
  Ti  Ti38  1  0.35937950  0.28375665  0.75901022  1
  Ti  Ti39  1  0.43534762  0.56482926  0.02637702  1
  Ti  Ti40  1  0.45959913  0.62734471  0.42209373  1
  Ti  Ti41  1  0.38615762  0.61251954  0.74132025  1
  Ti  Ti42  1  0.35131358  0.88325323  0.03973245  1
  Ti  Ti43  1  0.33916630  0.91791713  0.42013894  1
  Ti  Ti44  1  0.43219665  0.96565048  0.72697027  1
  Ti  Ti45  1  0.77454959  0.32173767  0.11321878  1
  Ti  Ti46  1  0.67906389  0.18113890  0.38742682  1
  Ti  Ti47  1  0.70972418  0.21058717  0.79126511  1
  Ti  Ti48  1  0.73524210  0.66322450  0.13678042  1
  Ti  Ti49  1  0.78761640  0.50613618  0.46687458  1
  Ti  Ti50  1  0.72752593  0.59458484  0.73075999  1
  Ti  Ti51  1  0.75141406  0.83467007  0.05330923  1
  Ti  Ti52  1  0.83848887  0.87458795  0.44599071  1
  Ti  Ti53  1  0.74405420  0.90114321  0.76780008  1
  Ti  Ti54  1  0.26351292  0.07072879  0.11901520  1
  Ti  Ti55  1  0.21835161  0.11051855  0.42914366  1
  Ti  Ti56  1  0.30576925  0.08635401  0.80388977  1
  Ti  Ti57  1  0.28556406  0.46844743  0.11943857  1
  Ti  Ti58  1  0.22721479  0.40953338  0.42634366  1
  Ti  Ti59  1  0.27039767  0.41044678  0.63268146  1
  Ti  Ti60  1  0.28684386  0.69145422  0.11072293  1
  Ti  Ti61  1  0.27358063  0.72848654  0.42882997  1
  Ti  Ti62  1  0.27103163  0.81044838  0.74952547  1
  Ti  Ti63  1  0.62769857  0.14029836  0.07322507  1
  Ti  Ti64  1  0.56776283  0.02931414  0.42932205  1
  Ti  Ti65  1  0.60154233  0.05980122  0.74621579  1
  Ti  Ti66  1  0.61928971  0.49097584  0.09896329  1
  Ti  Ti67  1  0.60579914  0.37931847  0.37441530  1
  Ti  Ti68  1  0.64711027  0.41236920  0.75294909  1
  Ti  Ti69  1  0.57879134  0.81118370  0.11864724  1
  Ti  Ti70  1  0.60929557  0.74799344  0.45394661  1
  Ti  Ti71  1  0.58131338  0.72771301  0.76889419  1
  Ti  Ti72  1  0.85593890  0.13741806  0.07276726  1
  Ti  Ti73  1  0.86852079  0.10958266  0.37600880  1
  Ti  Ti74  1  0.83120744  0.06918017  0.69633209  1
  Ti  Ti75  1  0.95585819  0.46283521  0.07835450  1
  Ti  Ti76  1  0.82366337  0.32795171  0.36491492  1
  Ti  Ti77  1  0.88251861  0.41232432  0.71887464  1
  Ti  Ti78  1  0.91960529  0.79710176  0.10685485  1
  Ti  Ti79  1  0.89460920  0.68788668  0.40969285  1
  Ti  Ti80  1  0.92301005  0.78198317  0.74043929  1
  Ti  Ti81  1  0.21900457  0.20826896  0.24842969  1
  Ti  Ti82  1  0.25141522  0.23191075  0.57800026  1
  Ti  Ti83  1  0.35183570  0.21105893  0.93385256  1
  Ti  Ti84  1  0.32302678  0.55174047  0.31180464  1
  Ti  Ti85  1  0.31007845  0.56590254  0.53062366  1
  Ti  Ti86  1  0.24978971  0.54595145  0.93253562  1
  Ti  Ti87  1  0.23576132  0.89935169  0.21414157  1
  Ti  Ti88  1  0.19628845  0.84560607  0.57168617  1
  Ti  Ti89  1  0.20520852  0.90795046  0.89454093  1
  Ti  Ti90  1  0.54382140  0.23229889  0.21388824  1
  Ti  Ti91  1  0.55288690  0.25673867  0.67811872  1
  Ti  Ti92  1  0.55536888  0.28522917  0.89889752  1
  Ti  Ti93  1  0.60459273  0.65455930  0.28304190  1
  Ti  Ti94  1  0.60435269  0.51940213  0.55107709  1
  Ti  Ti95  1  0.62196213  0.65955060  0.97531714  1
  Ti  Ti96  1  0.57190999  0.87969309  0.29780229  1
  Ti  Ti97  1  0.57196648  0.88247243  0.61849529  1
  Ti  Ti98  1  0.61946591  0.94092281  0.95287934  1
  Ti  Ti99  1  0.99926301  0.21676851  0.27662991  1
  Ti  Ti100  1  0.87529622  0.19197084  0.55986100  1
  Ti  Ti101  1  0.90580482  0.23006450  0.91948775  1
  Ti  Ti102  1  0.90593091  0.62225660  0.20830269  1
  Ti  Ti103  1  0.86494106  0.61560254  0.61122086  1
  Ti  Ti104  1  0.96803513  0.57549901  0.91657704  1
  Ti  Ti105  1  0.85704516  0.93573599  0.25091401  1
  Ti  Ti106  1  0.97047410  0.99249616  0.53188059  1
  Ti  Ti107  1  0.87805462  0.91317952  0.93181471  1
  Co  Co108  1  0.39841004  0.44712096  0.45893872  1
  Co  Co109  1  0.27857209  0.04421499  0.29639153  1
  Co  Co110  1  0.78548957  0.58845522  -0.07803165  1
  Co  Co111  1  0.11195918  0.74576987  0.70639669  1
  Co  Co112  1  0.46395480  0.59988349  0.58509969  1
  Co  Co113  1  0.75576912  0.29959551  0.67067413  1
  Co  Co114  1  0.19808180  0.77171960  0.00512916  1
  Co  Co115  1  0.91050988  0.75231745  -0.07216205  1
  Co  Co116  1  0.79310598  0.03712296  0.49530361  1
  Co  Co117  1  0.58335482  0.89320172  0.79326704  1
  Co  Co118  1  0.43829509  0.80067354  0.74685651  1
  Co  Co119  1  0.03428927  0.12188291  0.41299480  1
  Co  Co120  1  0.36702892  0.91079077  0.87002378  1
  Co  Co121  1  0.57297388  0.39566169  0.21417537  1
  Co  Co122  1  0.04154775  0.67945319  0.30152415  1
  Co  Co123  1  0.35738064  0.88353435  0.60234565  1
  Co  Co124  1  0.55885754  0.45125760  -0.04673919  1
  Co  Co125  1  0.49363312  0.01127128  0.87515176  1
  Co  Co126  1  0.15875356  0.50901761  0.57145474  1
  Co  Co127  1  0.11786019  0.04267759  0.79485657  1
  Co  Co128  1  0.88503600  0.50161950  0.34375804  1
  Co  Co129  1  0.13338017  0.34065089  0.53877044  1
  Co  Co130  1  -0.03604962  0.57201060  0.48131796  1
  Co  Co131  1  0.88839066  0.21732050  0.73833839  1
  Co  Co132  1  0.42060088  0.85357610  0.18172292  1
  Co  Co133  1  0.47558943  0.16169420  0.81610337  1
  Co  Co134  1  0.90717902  0.78120476  0.26976699  1
  Co  Co135  1  0.90924948  -0.04725293  0.77382274  1
  Co  Co136  1  0.63949196  0.55268143  0.85715548  1
  Co  Co137  1  0.64468403  0.55725191  0.40249019  1
  Co  Co138  1  0.58601513  0.06780551  0.26420233  1
  Co  Co139  1  0.16062506  0.25778936  0.39249436  1
  Co  Co140  1  0.31124958  0.77822355  0.28161875  1
  Co  Co141  1  0.20236134  0.22458522  0.84798375  1
  Co  Co142  1  0.24196682  0.36199622  -0.03947217  1
  Co  Co143  1  0.87797886  0.89714020  0.62239221  1
  Co  Co144  1  0.85856686  -0.03450314  0.09738713  1
  Co  Co145  1  0.73025033  0.02720773  0.03482462  1
  Co  Co146  1  0.16065580  0.80451554  0.33426278  1
  Co  Co147  1  0.55742969  0.56614945  0.71448828  1
  Co  Co148  1  0.03408770  0.44032634  0.39098402  1
  Co  Co149  1  0.54156285  0.17849612  0.52747352  1
  Co  Co150  1  0.44066816  0.52432802  0.18271314  1
  Co  Co151  1  0.84908497  0.22408291  0.23135888  1
  Co  Co152  1  0.75786177  0.46314235  0.62626727  1
  Co  Co153  1  0.46011911  0.39382636  0.08654813  1
  Co  Co154  1  0.01367802  0.51949915  0.24885870  1
  Co  Co155  1  0.24116080  -0.03679524  0.71321287  1
  Co  Co156  1  0.69561228  0.28814950  0.25202912  1
  Co  Co157  1  0.20523012  0.65635819  0.26709954  1
  Co  Co158  1  0.60844724  0.12566887  0.91216149  1
  Co  Co159  1  0.74694589  0.67761248  0.48086503  1
  Co  Co160  1  0.03153586  0.93439510  0.88139464  1
  Co  Co161  1  -0.04779909  0.09304541  0.84393445  1
  Ni  Ni162  1  0.18925780  0.13540243  0.69356737  1
  Ni  Ni163  1  0.52836876  0.34604117  0.51285409  1
  Ni  Ni164  1  0.79483118  0.50614727  0.09408220  1
  Ni  Ni165  1  0.80558522  0.33591562  0.83711099  1
  Ni  Ni166  1  0.69249939  0.93810192  0.17885428  1
  Ni  Ni167  1  0.61528185  0.32315798  0.05788021  1
  Ni  Ni168  1  0.44867788  0.73414903  0.04954852  1
  Ni  Ni169  1  0.55911591  0.63933168  0.12769327  1
  Ni  Ni170  1  0.48046477  0.22872219  0.04648137  1
  Ni  Ni171  1  0.21377690  0.68654356  0.85122589  1
  Ni  Ni172  1  0.40215372  0.29059632  0.58876525  1
  Ni  Ni173  1  0.20923919  0.20506027  0.01987646  1
  Ni  Ni174  1  0.71938342  -0.01091571  0.34216680  1
  Ni  Ni175  1  0.71239909  -0.03247758  0.61715048  1
  Ni  Ni176  1  0.50854372  0.50867430  0.32789545  1
  Ni  Ni177  1  0.61547461  0.68639679  0.60969783  1
  Ni  Ni178  1  0.15123376  0.67557429  0.55892350  1
  Ni  Ni179  1  -0.02464955  0.04289361  0.00904533  1
  Ni  Ni180  1  0.86291683  0.36101323  0.54762872  1
  Ni  Ni181  1  -0.02519047  -0.02174170  0.36143894  1
  Ni  Ni182  1  0.48489014  0.45323771  0.80777260  1
  Ni  Ni183  1  0.03586155  0.90022255  0.22779892  1
  Ni  Ni184  1  0.11708859  0.47059897  0.00426667  1
  Ni  Ni185  1  0.00139948  0.07322009  0.68004415  1
  Ni  Ni186  1  0.13665804  0.00877496  0.58627081  1
  Ni  Ni187  1  0.16814670  0.49556069  0.28750047  1
  Ni  Ni188  1  -0.04604691  0.06449493  0.19757004  1
  Ni  Ni189  1  0.17154353  0.33639332  0.10868402  1
  Ni  Ni190  1  0.48772953  0.61397775  0.87363797  1
  Ni  Ni191  1  0.73230651  0.23407184  -0.03440916  1
  Ni  Ni192  1  0.50472636  0.19780716  0.36762874  1
  Ni  Ni193  1  0.47832276  0.01521286  0.56498949  1
  Ni  Ni194  1  0.03725655  0.69143124  0.02955086  1
  Ni  Ni195  1  0.29061056  0.03786550  -0.03647516  1
  Ni  Ni196  1  0.53827299  -0.02630469  0.12771768  1
  Ni  Ni197  1  0.31518496  0.46360851  0.78718341  1
  Ni  Ni198  1  -0.00576839  0.29627305  0.63124066  1
  Ni  Ni199  1  0.77054718  0.62935017  0.31588628  1
  Ni  Ni200  1  0.88196456  0.63226217  0.78764007  1
  Ni  Ni201  1  0.00858537  0.82007466  0.39610297  1
  Ni  Ni202  1  0.25746453  0.36352788  0.26163486  1
  Ni  Ni203  1  0.45001837  0.79391490  0.37837996  1
  Ni  Ni204  1  0.39226343  0.08558357  0.42797698  1
  Ni  Ni205  1  0.67360193  0.89661659  0.46865016  1
  Ni  Ni206  1  0.87704234  0.64195614  0.04308295  1
  Ni  Ni207  1  0.29651879  0.71136024  0.62272443  1
  Ni  Ni208  1  -0.05232417  0.29485237  0.09396387  1
  Ni  Ni209  1  0.89482354  0.39332706  0.22039485  1
  Ni  Ni210  1  0.53836739  0.79758746  -0.07783975  1
  Ni  Ni211  1  0.39530568  0.14822592  0.18860916  1
  Ni  Ni212  1  0.42322456  0.14107675  0.66295765  1
  Ni  Ni213  1  0.02546634  0.61216345  0.65470793  1
  Ni  Ni214  1  0.10718063  0.01268245  0.11731646  1
