# generated using pymatgen
data_Ti108Co54Ni53
_symmetry_space_group_name_H-M   'P 1'
_cell_length_a   14.60271267
_cell_length_b   14.64301545
_cell_length_c   14.57458633
_cell_angle_alpha   90.01007365
_cell_angle_beta   89.79748729
_cell_angle_gamma   89.72512253
_symmetry_Int_Tables_number   1
_chemical_formula_structural   Ti108Co54Ni53
_chemical_formula_sum   'Ti108 Co54 Ni53'
_cell_volume   3116.39557276
_cell_formula_units_Z   1
loop_
 _symmetry_equiv_pos_site_id
 _symmetry_equiv_pos_as_xyz
  1  'x, y, z'
loop_
 _atom_site_type_symbol
 _atom_site_label
 _atom_site_symmetry_multiplicity
 _atom_site_fract_x
 _atom_site_fract_y
 _atom_site_fract_z
 _atom_site_occupancy
  Ti  Ti0  1  0.09421919  0.00783492  0.27011969  1
  Ti  Ti1  1  0.11071855  0.11391204  0.65620445  1
  Ti  Ti2  1  0.08186075  0.11287828  0.94232685  1
  Ti  Ti3  1  0.09707642  0.41095504  0.20547307  1
  Ti  Ti4  1  0.11895878  0.46982113  0.56890252  1
  Ti  Ti5  1  0.15906626  0.45155779  0.87319699  1
  Ti  Ti6  1  0.07047998  0.81589983  0.28702434  1
  Ti  Ti7  1  0.08082381  0.76826852  0.62554868  1
  Ti  Ti8  1  0.00710089  0.77504138  0.85788376  1
  Ti  Ti9  1  0.40212728  0.11741228  0.26732798  1
  Ti  Ti10  1  0.45535390  0.08286532  0.59842963  1
  Ti  Ti11  1  0.42505653  0.13765263  0.90309150  1
  Ti  Ti12  1  0.41671123  0.37411227  0.24457846  1
  Ti  Ti13  1  0.33216711  0.40671408  0.59015223  1
  Ti  Ti14  1  0.41876742  0.49414829  0.91570234  1
  Ti  Ti15  1  0.35693662  0.71215701  0.31005104  1
  Ti  Ti16  1  0.39703117  0.77361397  0.59940344  1
  Ti  Ti17  1  0.40270222  0.70940683  0.82462843  1
  Ti  Ti18  1  0.70768696  0.15581762  0.27675507  1
  Ti  Ti19  1  0.72614502  0.08774992  0.60013874  1
  Ti  Ti20  1  0.71362385  0.07934525  0.92180416  1
  Ti  Ti21  1  0.83149678  0.34054451  0.29396486  1
  Ti  Ti22  1  0.79324912  0.36929355  0.54178346  1
  Ti  Ti23  1  0.74846235  0.38668059  0.97648952  1
  Ti  Ti24  1  0.75125843  0.74167326  0.16963556  1
  Ti  Ti25  1  0.76262834  0.82974203  0.60409765  1
  Ti  Ti26  1  0.68915094  0.72556227  0.95693091  1
  Ti  Ti27  1  0.03596829  0.27310694  0.08135105  1
  Ti  Ti28  1  0.08961309  0.18218139  0.36858866  1
  Ti  Ti29  1  0.10471548  0.31783493  0.73242282  1
  Ti  Ti30  1  0.10933923  0.55728350  0.04662989  1
  Ti  Ti31  1  0.09831564  0.53953921  0.37521517  1
  Ti  Ti32  1  0.13620044  0.60512407  0.72097749  1
  Ti  Ti33  1  0.04902854  0.90333757  0.09768737  1
  Ti  Ti34  1  0.13256472  0.90387425  0.45893448  1
  Ti  Ti35  1  0.07389565  0.94854351  0.78251353  1
  Ti  Ti36  1  0.41053950  0.26437196  0.06962123  1
  Ti  Ti37  1  0.50961599  0.35503836  0.49330290  1
  Ti  Ti38  1  0.42631133  0.25284533  0.73107455  1
  Ti  Ti39  1  0.43108255  0.57352775  0.07254161  1
  Ti  Ti40  1  0.40448485  0.49830638  0.39399620  1
  Ti  Ti41  1  0.41373137  0.54816465  0.69673716  1
  Ti  Ti42  1  0.38169385  0.81766777  0.03456429  1
  Ti  Ti43  1  0.38236308  0.92172995  0.33757694  1
  Ti  Ti44  1  0.43456648  0.98515569  0.79157027  1
  Ti  Ti45  1  0.71348287  0.24299628  0.07943590  1
  Ti  Ti46  1  0.68543176  0.31037972  0.41915858  1
  Ti  Ti47  1  0.75322154  0.28944099  0.71602060  1
  Ti  Ti48  1  0.76003385  0.57326079  0.05682679  1
  Ti  Ti49  1  0.78168797  0.53027646  0.38025820  1
  Ti  Ti50  1  0.75120930  0.57298893  0.83136210  1
  Ti  Ti51  1  0.71939679  0.94612737  0.17513215  1
  Ti  Ti52  1  0.79936411  0.99338683  0.42229489  1
  Ti  Ti53  1  0.81109895  0.81001396  0.81183906  1
  Ti  Ti54  1  0.27356676  0.08699279  -0.00216099  1
  Ti  Ti55  1  0.28666949  0.16142145  0.42062215  1
  Ti  Ti56  1  0.24328009  -0.01942663  0.70355212  1
  Ti  Ti57  1  0.28174964  0.45743065  0.12560438  1
  Ti  Ti58  1  0.13301798  0.35101066  0.38561610  1
  Ti  Ti59  1  0.32810542  0.39711234  0.79346250  1
  Ti  Ti60  1  0.20071781  0.79657628  0.13309701  1
  Ti  Ti61  1  0.18358613  0.72077709  0.41374007  1
  Ti  Ti62  1  0.18879887  0.77661406  0.79815784  1
  Ti  Ti63  1  0.61191966  0.08694728  0.09565622  1
  Ti  Ti64  1  0.53177986  0.03549926  0.41394842  1
  Ti  Ti65  1  0.63512778  -0.03563168  0.75461970  1
  Ti  Ti66  1  0.60451352  0.43552290  0.13407066  1
  Ti  Ti67  1  0.59944544  0.45741820  0.34030595  1
  Ti  Ti68  1  0.54705211  0.42056337  0.79497377  1
  Ti  Ti69  1  0.57129398  0.78793818  0.10665521  1
  Ti  Ti70  1  0.63546251  0.82065293  0.42088214  1
  Ti  Ti71  1  0.63992851  0.76012737  0.75834981  1
  Ti  Ti72  1  0.97222137  0.08589194  0.10035906  1
  Ti  Ti73  1  0.98577129  0.04087282  0.44723421  1
  Ti  Ti74  1  0.92169601  0.01545061  0.68364786  1
  Ti  Ti75  1  0.90388469  0.42953940  0.11637892  1
  Ti  Ti76  1  0.94902581  0.42361740  0.44854260  1
  Ti  Ti77  1  0.89100917  0.41088596  0.79510190  1
  Ti  Ti78  1  0.90293969  0.76984718  0.05192515  1
  Ti  Ti79  1  0.87146976  0.73662662  0.41268324  1
  Ti  Ti80  1  0.90716007  0.65722113  0.72624456  1
  Ti  Ti81  1  0.23191811  0.27457314  0.21044489  1
  Ti  Ti82  1  0.19472225  0.26653235  0.55006877  1
  Ti  Ti83  1  0.24936498  0.24354154  0.87964736  1
  Ti  Ti84  1  0.18244515  0.62257562  0.23004245  1
  Ti  Ti85  1  0.28075334  0.59584334  0.55166748  1
  Ti  Ti86  1  0.26726055  0.68126466  0.96992920  1
  Ti  Ti87  1  0.27792626  0.97890837  0.17186871  1
  Ti  Ti88  1  0.30140001  0.98061522  0.51627153  1
  Ti  Ti89  1  0.23087130  0.93917014  0.90474330  1
  Ti  Ti90  1  0.53938997  0.25130418  0.32037037  1
  Ti  Ti91  1  0.59095033  0.23404008  0.62481764  1
  Ti  Ti92  1  0.59733336  0.24497238  0.85381031  1
  Ti  Ti93  1  0.59457561  0.64673975  0.26751226  1
  Ti  Ti94  1  0.62385098  0.55153837  0.64845286  1
  Ti  Ti95  1  0.56102614  0.61461965  0.85597005  1
  Ti  Ti96  1  0.50810349  0.93899381  0.19511521  1
  Ti  Ti97  1  0.56686526  0.88212164  0.60406554  1
  Ti  Ti98  1  0.53272427  0.85289028  0.90623558  1
  Ti  Ti99  1  0.90852669  0.15289616  0.29150340  1
  Ti  Ti100  1  0.92910382  0.24482773  0.64132913  1
  Ti  Ti101  1  0.92573304  0.26142598  0.91713910  1
  Ti  Ti102  1  0.87923897  0.61736449  0.22712714  1
  Ti  Ti103  1  0.82710042  0.56944920  0.56139289  1
  Ti  Ti104  1  0.99216128  0.56636719  0.88160987  1
  Ti  Ti105  1  0.89932236  0.95945285  0.23493471  1
  Ti  Ti106  1  0.93822240  0.88158613  0.53846360  1
  Ti  Ti107  1  0.86002757  0.96214118  0.99108546  1
  Co  Co108  1  0.09421159  0.28466665  0.90902665  1
  Co  Co109  1  0.15510511  0.07142445  0.49473367  1
  Co  Co110  1  0.26423859  0.52280222  -0.02411789  1
  Co  Co111  1  0.49407423  0.69878927  -0.02054734  1
  Co  Co112  1  0.26133525  0.58355069  0.37905333  1
  Co  Co113  1  -0.00717964  0.30836573  0.27558111  1
  Co  Co114  1  0.39352972  -0.06895855  0.64268361  1
  Co  Co115  1  0.27546301  0.12507008  0.60144422  1
  Co  Co116  1  0.69725258  0.89619003  0.89181628  1
  Co  Co117  1  0.56192565  0.08408112  0.24889011  1
  Co  Co118  1  0.37222974  0.82863109  0.19171614  1
  Co  Co119  1  0.03420496  -0.04568934  -0.04832222  1
  Co  Co120  1  0.75146763  0.84803300  0.04147400  1
  Co  Co121  1  0.34611295  0.55463249  0.24121059  1
  Co  Co122  1  0.30148599  0.66858937  0.12946918  1
  Co  Co123  1  0.14743795  0.07086943  0.11046083  1
  Co  Co124  1  0.02825568  0.75208226  0.46165035  1
  Co  Co125  1  0.01468984  0.66808275  0.31364898  1
  Co  Co126  1  0.85754789  0.49457981  -0.05322841  1
  Co  Co127  1  0.79028057  0.86126800  0.32094733  1
  Co  Co128  1  0.31263044  0.15192103  0.13747625  1
  Co  Co129  1  0.11894932  0.63141266  0.53204249  1
  Co  Co130  1  0.87997815  0.10943087  0.55513321  1
  Co  Co131  1  0.19524173  0.23018474  0.04968784  1
  Co  Co132  1  0.49293871  0.83371939  0.74230711  1
  Co  Co133  1  -0.07547704  0.91773797  0.83748429  1
  Co  Co134  1  0.04549763  0.69795164  -0.00674823  1
  Co  Co135  1  0.94129727  0.83291555  0.69264964  1
  Co  Co136  1  0.64453143  0.38696069  0.62084132  1
  Co  Co137  1  0.24004323  0.00416401  0.35950848  1
  Co  Co138  1  0.77288491  0.48178470  0.68858615  1
  Co  Co139  1  0.21691507  0.12392087  0.26225742  1
  Co  Co140  1  0.64564954  0.82372386  0.25881557  1
  Co  Co141  1  0.34115927  0.11856856  0.75369577  1
  Co  Co142  1  0.06634767  0.17687837  0.20668064  1
  Co  Co143  1  0.54841592  0.19032778  -0.00368501  1
  Co  Co144  1  0.56180042  0.03947338  0.90539062  1
  Co  Co145  1  -0.04314287  -0.10812695  0.37210601  1
  Co  Co146  1  0.48210611  0.39136289  0.65333398  1
  Co  Co147  1  0.66326588  0.96973046  0.51219604  1
  Co  Co148  1  0.67733484  0.33152000  0.24115422  1
  Co  Co149  1  0.25019414  0.43061098  0.29227864  1
  Co  Co150  1  0.49011781  0.51088464  0.53893385  1
  Co  Co151  1  0.08287577  -0.04760763  0.60995682  1
  Co  Co152  1  0.49917305  0.79583820  0.30024616  1
  Co  Co153  1  0.66778171  0.48704747  0.49373917  1
  Co  Co154  1  0.75342963  0.67319716  0.67725804  1
  Co  Co155  1  0.25608233  0.26045794  0.70118826  1
  Co  Co156  1  0.23371949  0.84879979  0.29714196  1
  Co  Co157  1  -0.04438243  0.59156581  0.44270614  1
  Co  Co158  1  0.49693751  0.52477998  0.22300862  1
  Co  Co159  1  0.45965006  0.69108612  0.17415474  1
  Co  Co160  1  0.14167196  0.63447825  0.88322736  1
  Co  Co161  1  0.21770665  0.46298529  0.69921227  1
  Ni  Ni162  1  0.03837247  0.47372125  0.73827451  1
  Ni  Ni163  1  0.02980948  0.55608419  0.19090978  1
  Ni  Ni164  1  0.71787036  0.68437711  0.50950285  1
  Ni  Ni165  1  0.44015198  0.31137491  0.89766909  1
  Ni  Ni166  1  0.35531891  0.32409308  0.40239965  1
  Ni  Ni167  1  0.56703663  0.35153571  -0.00409164  1
  Ni  Ni168  1  0.30753492  0.36515191  -0.02244010  1
  Ni  Ni169  1  0.79169384  0.00166261  0.79130854  1
  Ni  Ni170  1  -0.00898993  0.57705688  0.60877951  1
  Ni  Ni171  1  0.93774246  0.47428112  0.29426828  1
  Ni  Ni172  1  0.51089248  0.67971397  0.68760767  1
  Ni  Ni173  1  0.30488983  0.82009126  0.45582554  1
  Ni  Ni174  1  0.76242132  0.23778970  0.88331068  1
  Ni  Ni175  1  0.86516692  0.67114098  0.91669238  1
  Ni  Ni176  1  -0.08928706  0.78818320  0.22842849  1
  Ni  Ni177  1  0.45205423  0.18435048  0.44544446  1
  Ni  Ni178  1  0.03887283  0.33081241  0.54863076  1
  Ni  Ni179  1  0.61961642  0.16278349  0.47308393  1
  Ni  Ni180  1  0.24858714  0.44345014  0.45809842  1
  Ni  Ni181  1  0.14518423  0.81652443  -0.03411616  1
  Ni  Ni182  1  0.28554182  0.69503939  0.69025870  1
  Ni  Ni183  1  0.37932014  0.25062419  0.57156043  1
  Ni  Ni184  1  0.61316363  -0.06282798  0.03091553  1
  Ni  Ni185  1  0.92883885  0.07440217  0.87925946  1
  Ni  Ni186  1  0.92072816  0.25493647  0.43579589  1
  Ni  Ni187  1  0.39727622  -0.03608255  -0.04411417  1
  Ni  Ni188  1  0.62114361  0.50376737  -0.03967485  1
  Ni  Ni189  1  0.78410571  0.16802898  0.43263801  1
  Ni  Ni190  1  0.28823560  0.57715948  0.81410903  1
  Ni  Ni191  1  0.60014963  0.61887530  0.09169043  1
  Ni  Ni192  1  -0.07551915  0.42346804  0.62962902  1
  Ni  Ni193  1  0.52574562  0.11665209  0.75050627  1
  Ni  Ni194  1  0.33293714  0.85359708  0.78429094  1
  Ni  Ni195  1  0.73563438  0.69458987  0.33874012  1
  Ni  Ni196  1  0.68592607  0.13559550  0.75934367  1
  Ni  Ni197  1  0.23381419  0.83991298  0.61329295  1
  Ni  Ni198  1  0.55772985  0.25266421  0.15390678  1
  Ni  Ni199  1  0.15341244  0.38960314  0.03468985  1
  Ni  Ni200  1  0.44015812  0.06367385  0.08273994  1
  Ni  Ni201  1  0.03277112  0.17542800  0.52973886  1
  Ni  Ni202  1  0.70496526  0.40464896  0.82371521  1
  Ni  Ni203  1  0.18335440  0.10502562  0.81230857  1
  Ni  Ni204  1  0.87559234  0.25224418  0.14596635  1
  Ni  Ni205  1  0.80428333  0.09257485  0.15510996  1
  Ni  Ni206  1  0.66038724  -0.02774040  0.33215109  1
  Ni  Ni207  1  0.00062348  0.41570194  -0.03513762  1
  Ni  Ni208  1  0.01631256  0.18617141  0.78882412  1
  Ni  Ni209  1  0.03978683  0.71539404  0.15110551  1
  Ni  Ni210  1  0.84918782  0.15651366  0.75941154  1
  Ni  Ni211  1  0.84331474  0.14916695  0.00754436  1
  Ni  Ni212  1  0.74784298  0.49050008  0.21655145  1
  Ni  Ni213  1  0.45593948  -0.10253032  0.48608648  1
  Ni  Ni214  1  0.93343401  0.59520881  0.05773451  1
