# generated using pymatgen
data_Ti108Co54Ni53
_symmetry_space_group_name_H-M   'P 1'
_cell_length_a   14.62457832
_cell_length_b   14.61749370
_cell_length_c   14.64598723
_cell_angle_alpha   90.40121936
_cell_angle_beta   89.77853510
_cell_angle_gamma   89.87047296
_symmetry_Int_Tables_number   1
_chemical_formula_structural   Ti108Co54Ni53
_chemical_formula_sum   'Ti108 Co54 Ni53'
_cell_volume   3130.83291004
_cell_formula_units_Z   1
loop_
 _symmetry_equiv_pos_site_id
 _symmetry_equiv_pos_as_xyz
  1  'x, y, z'
loop_
 _atom_site_type_symbol
 _atom_site_label
 _atom_site_symmetry_multiplicity
 _atom_site_fract_x
 _atom_site_fract_y
 _atom_site_fract_z
 _atom_site_occupancy
  Ti  Ti0  1  0.08781048  0.12430100  0.21959269  1
  Ti  Ti1  1  0.13863169  0.04414848  0.58108831  1
  Ti  Ti2  1  0.09189484  0.07686551  0.92999037  1
  Ti  Ti3  1  0.11397715  0.33011871  0.24527615  1
  Ti  Ti4  1  0.06144006  0.43941387  0.53954374  1
  Ti  Ti5  1  0.12080147  0.47956693  0.95977096  1
  Ti  Ti6  1  0.11638378  0.77993879  0.30248400  1
  Ti  Ti7  1  0.00342670  0.81359188  0.61410061  1
  Ti  Ti8  1  0.10478278  0.78850169  0.85725139  1
  Ti  Ti9  1  0.45658409  0.05622787  0.24644036  1
  Ti  Ti10  1  0.40143651  0.16409557  0.67687442  1
  Ti  Ti11  1  0.34773038  0.03221715  0.94408388  1
  Ti  Ti12  1  0.48769798  0.39859546  0.21130294  1
  Ti  Ti13  1  0.33878276  0.42418118  0.63249429  1
  Ti  Ti14  1  0.31353118  0.43901297  0.95337088  1
  Ti  Ti15  1  0.39134505  0.76775852  0.26713052  1
  Ti  Ti16  1  0.38997276  0.71910896  0.60125106  1
  Ti  Ti17  1  0.46297952  0.76073708  0.96305419  1
  Ti  Ti18  1  0.74925950  0.11736990  0.24887613  1
  Ti  Ti19  1  0.69171677  0.11566238  0.54783305  1
  Ti  Ti20  1  0.78483427  0.11323254  0.89840292  1
  Ti  Ti21  1  0.69398290  0.48604510  0.28028579  1
  Ti  Ti22  1  0.76211905  0.46541387  0.54069738  1
  Ti  Ti23  1  0.72072200  0.47708502  0.90234702  1
  Ti  Ti24  1  0.76655671  0.79982347  0.20137968  1
  Ti  Ti25  1  0.72051352  0.82511818  0.56285409  1
  Ti  Ti26  1  0.68838470  0.66366625  0.83360914  1
  Ti  Ti27  1  0.13499588  0.29836062  0.02801199  1
  Ti  Ti28  1  0.10665306  0.23963648  0.49193086  1
  Ti  Ti29  1  0.11522356  0.31797133  0.69607728  1
  Ti  Ti30  1  0.06442370  0.59946462  0.11710440  1
  Ti  Ti31  1  0.06668203  0.59066398  0.41220727  1
  Ti  Ti32  1  0.04428109  0.58165924  0.80620191  1
  Ti  Ti33  1  -0.05052757  0.88603055  0.07804261  1
  Ti  Ti34  1  0.10192270  0.89893124  0.46165326  1
  Ti  Ti35  1  0.06359132  0.94712642  0.74883734  1
  Ti  Ti36  1  0.42827810  0.16554808  0.09061880  1
  Ti  Ti37  1  0.46324289  0.30402996  0.38187202  1
  Ti  Ti38  1  0.39469009  0.32346947  0.80862668  1
  Ti  Ti39  1  0.37611576  0.60399436  0.13733143  1
  Ti  Ti40  1  0.38481170  0.64116647  0.40675977  1
  Ti  Ti41  1  0.43123961  0.52264379  0.81583451  1
  Ti  Ti42  1  0.35629180  0.87813562  0.08565622  1
  Ti  Ti43  1  0.39652072  0.97306670  0.42230373  1
  Ti  Ti44  1  0.43030256  0.88278830  0.77596829  1
  Ti  Ti45  1  0.72807668  0.28031348  0.13188767  1
  Ti  Ti46  1  0.80438610  0.21758707  0.40493032  1
  Ti  Ti47  1  0.71043899  0.19913572  0.73476408  1
  Ti  Ti48  1  0.75321244  0.50433929  0.09988227  1
  Ti  Ti49  1  0.78215598  0.62901524  0.46302477  1
  Ti  Ti50  1  0.77289572  0.49959571  0.72979211  1
  Ti  Ti51  1  0.77739973  0.95191018  0.02004373  1
  Ti  Ti52  1  0.76448394  0.98597241  0.40246212  1
  Ti  Ti53  1  0.72842537  0.82760499  0.75096542  1
  Ti  Ti54  1  0.28621410  0.03925703  0.14606475  1
  Ti  Ti55  1  0.30705527  0.13627435  0.34945375  1
  Ti  Ti56  1  0.27867457  0.02616491  0.73003235  1
  Ti  Ti57  1  0.29099455  0.40923616  0.13474604  1
  Ti  Ti58  1  0.33456964  0.43395368  0.42815044  1
  Ti  Ti59  1  0.22051359  0.46395886  0.78845593  1
  Ti  Ti60  1  0.14521041  0.79685034  0.06965857  1
  Ti  Ti61  1  0.21461412  0.74873915  0.48993416  1
  Ti  Ti62  1  0.22039731  0.70738010  0.71105934  1
  Ti  Ti63  1  0.63034573  0.10441933  0.05800294  1
  Ti  Ti64  1  0.59194102  0.04894065  0.37894726  1
  Ti  Ti65  1  0.57238662  0.06081109  0.69993805  1
  Ti  Ti66  1  0.59575638  0.40219304  0.03790093  1
  Ti  Ti67  1  0.62746273  0.37604563  0.43475794  1
  Ti  Ti68  1  0.60557421  0.36712393  0.78543284  1
  Ti  Ti69  1  0.65690954  0.78213204  0.01095472  1
  Ti  Ti70  1  0.61017478  0.76783066  0.40328918  1
  Ti  Ti71  1  0.56757415  0.71070738  0.68361064  1
  Ti  Ti72  1  0.91605938  0.05563498  0.14833906  1
  Ti  Ti73  1  0.95324331  0.10901146  0.48988403  1
  Ti  Ti74  1  0.89604152  0.06741410  0.70985926  1
  Ti  Ti75  1  0.94386709  0.43089087  0.14799679  1
  Ti  Ti76  1  0.96556302  0.37079730  0.36053310  1
  Ti  Ti77  1  0.90783720  0.32202533  0.74331394  1
  Ti  Ti78  1  0.85116474  0.71837231  0.04322967  1
  Ti  Ti79  1  0.90996252  0.72945421  0.35216414  1
  Ti  Ti80  1  0.86024173  0.68877124  0.71466229  1
  Ti  Ti81  1  0.25767338  0.22629340  0.17579071  1
  Ti  Ti82  1  0.33608135  0.24883669  0.52143682  1
  Ti  Ti83  1  0.29671227  0.23259319  0.96293859  1
  Ti  Ti84  1  0.20722763  0.52977436  0.26867178  1
  Ti  Ti85  1  0.23756872  0.56303014  0.50855256  1
  Ti  Ti86  1  0.24100570  0.63755195  0.90269907  1
  Ti  Ti87  1  0.19894491  0.96711006  0.28577568  1
  Ti  Ti88  1  0.30671491  0.90048339  0.56896696  1
  Ti  Ti89  1  0.29043125  0.82893889  0.90790989  1
  Ti  Ti90  1  0.57671018  0.20651058  0.25414332  1
  Ti  Ti91  1  0.54739679  0.25420248  0.58910351  1
  Ti  Ti92  1  0.64775400  0.25504378  0.93505752  1
  Ti  Ti93  1  0.54087132  0.61109854  0.28534448  1
  Ti  Ti94  1  0.57670594  0.53432967  0.57233846  1
  Ti  Ti95  1  0.57430466  0.59865658  1.00713128  1
  Ti  Ti96  1  0.53315985  0.87960702  0.16702497  1
  Ti  Ti97  1  0.54932438  0.92555522  0.53176492  1
  Ti  Ti98  1  0.62021818  0.95364925  0.87429776  1
  Ti  Ti99  1  0.91348722  0.23814453  0.20141015  1
  Ti  Ti100  1  0.91970569  0.31016994  0.54226359  1
  Ti  Ti101  1  0.89163195  0.25043329  0.97542148  1
  Ti  Ti102  1  0.86992644  0.61684904  0.19454429  1
  Ti  Ti103  1  0.96314986  0.60157236  0.59216312  1
  Ti  Ti104  1  0.92005206  0.53678862  0.98093181  1
  Ti  Ti105  1  1.00729388  0.93611631  0.27343286  1
  Ti  Ti106  1  0.91122683  0.89512748  0.46646159  1
  Ti  Ti107  1  0.91689513  0.94057566  0.88076057  1
  Co  Co108  1  0.71665699  0.65181067  0.64313119  1
  Co  Co109  1  -0.07328554  0.06620002  -0.01527491  1
  Co  Co110  1  0.43069025  -0.01568068  0.64520182  1
  Co  Co111  1  0.89389899  0.45020477  0.63059145  1
  Co  Co112  1  0.68832835  0.65181273  0.13923786  1
  Co  Co113  1  0.79790451  0.13514042  0.07408829  1
  Co  Co114  1  0.12347358  0.44107825  0.12237955  1
  Co  Co115  1  0.24843556  0.82528212  0.20955877  1
  Co  Co116  1  -0.00736909  0.37255453  0.01245611  1
  Co  Co117  1  -0.07078156  0.81931407  0.77940578  1
  Co  Co118  1  0.76844169  0.31225998  0.84046622  1
  Co  Co119  1  0.67685754  -0.09600153  0.29659625  1
  Co  Co120  1  0.47034609  0.01198517  0.08249919  1
  Co  Co121  1  0.78043147  0.36861890  0.00735853  1
  Co  Co122  1  0.40757407  0.22869084  0.24387302  1
  Co  Co123  1  0.85889140  0.89755907  0.29377051  1
  Co  Co124  1  0.42216595  0.80652123  0.45883524  1
  Co  Co125  1  0.57634891  0.80190431  0.83816519  1
  Co  Co126  1  0.50089072  0.38133378  0.91293138  1
  Co  Co127  1  0.04992730  0.71917606  0.72572221  1
  Co  Co128  1  0.70170839  0.29346765  0.30418014  1
  Co  Co129  1  0.27631648  0.84953706  0.38297317  1
  Co  Co130  1  0.04252508  0.64719036  0.26587622  1
  Co  Co131  1  0.33418926  0.15859684  0.82366700  1
  Co  Co132  1  0.36539883  -0.07069493  0.25524256  1
  Co  Co133  1  0.38850235  0.61520140  0.95209857  1
  Co  Co134  1  0.23190350  0.56540567  0.05959411  1
  Co  Co135  1  0.61609903  -0.05918345  0.04280357  1
  Co  Co136  1  0.53085423  0.21716010  0.77436390  1
  Co  Co137  1  0.73702981  0.65523298  0.30431343  1
  Co  Co138  1  0.20458099  0.32714579  0.86657137  1
  Co  Co139  1  0.77368145  -0.02852002  0.17689472  1
  Co  Co140  1  0.02786065  0.45915207  0.70580200  1
  Co  Co141  1  0.47178978  0.91944015  -0.05759472  1
  Co  Co142  1  0.20547666  0.67449805  0.18108418  1
  Co  Co143  1  0.62368172  0.20533498  0.42734928  1
  Co  Co144  1  0.61303583  0.11340120  0.86388016  1
  Co  Co145  1  0.77145756  0.80285760  0.40371475  1
  Co  Co146  1  0.47322692  0.38895944  0.52737255  1
  Co  Co147  1  0.02485396  0.74184731  0.46551068  1
  Co  Co148  1  0.27791774  0.29129127  0.70967912  1
  Co  Co149  1  -0.00830205  -0.01505684  0.59527930  1
  Co  Co150  1  0.56956912  0.52469648  0.15385454  1
  Co  Co151  1  0.74288607  0.62287383  -0.01506876  1
  Co  Co152  1  0.41251464  0.55054714  0.54184680  1
  Co  Co153  1  0.45576618  0.04886748  0.81666627  1
  Co  Co154  1  0.23747578  0.67339191  0.33993874  1
  Co  Co155  1  0.30245785  0.72754657  0.05575839  1
  Co  Co156  1  0.55982742  0.26021931  0.09951580  1
  Co  Co157  1  0.50424865  0.09234624  0.54240969  1
  Co  Co158  1  0.88724213  0.40810130  -0.11155382  1
  Co  Co159  1  0.49787242  0.48431521  0.39312999  1
  Co  Co160  1  0.61306151  0.02536470  0.20052932  1
  Co  Co161  1  0.45992527  0.14841032  0.40363612  1
  Ni  Ni162  1  0.16446822  0.20677569  0.34339317  1
  Ni  Ni163  1  0.79609318  0.80896527  -0.09390941  1
  Ni  Ni164  1  0.21095666  0.18041204  0.62295928  1
  Ni  Ni165  1  0.80144892  0.39040331  0.39807365  1
  Ni  Ni166  1  0.50931658  0.71031966  0.12170526  1
  Ni  Ni167  1  0.52119986  0.65079051  0.84686268  1
  Ni  Ni168  1  0.02739826  0.17455956  0.06730349  1
  Ni  Ni169  1  0.63794084  0.56896192  0.41780159  1
  Ni  Ni170  1  0.85465468  0.62931822  0.86554186  1
  Ni  Ni171  1  0.83560939  0.19035753  0.61452937  1
  Ni  Ni172  1  0.16478179  0.85921169  0.64750109  1
  Ni  Ni173  1  0.85712074  0.89772666  0.65922957  1
  Ni  Ni174  1  0.60655669  0.54111010  0.74518806  1
  Ni  Ni175  1  0.11547566  0.65785800  0.58634794  1
  Ni  Ni176  1  -0.08473404  0.49386930  0.47036443  1
  Ni  Ni177  1  0.07815324  0.65299633  0.96272466  1
  Ni  Ni178  1  0.49444025  0.43164906  0.68189045  1
  Ni  Ni179  1  0.41503304  0.32684347  0.04782005  1
  Ni  Ni180  1  0.70679131  -0.02411304  0.64862726  1
  Ni  Ni181  1  0.52234991  0.67549704  0.50398841  1
  Ni  Ni182  1  -0.00761471  0.20469365  0.35080753  1
  Ni  Ni183  1  0.33059779  0.58373497  0.68927898  1
  Ni  Ni184  1  0.21143005  -0.04387781  0.01521846  1
  Ni  Ni185  1  0.90102787  0.06595229  0.32688461  1
  Ni  Ni186  1  0.37807007  0.50433484  0.27814120  1
  Ni  Ni187  1  0.19584318  -0.04622670  0.85135409  1
  Ni  Ni188  1  0.82004505  0.38073760  0.23530578  1
  Ni  Ni189  1  0.77733247  -0.02149881  0.80056026  1
  Ni  Ni190  1  0.44647884  0.48729494  0.04087694  1
  Ni  Ni191  1  0.86440918  0.74585024  0.54475393  1
  Ni  Ni192  1  0.37550577  0.71616748  0.79153421  1
  Ni  Ni193  1  -0.04305819  0.76937746  0.19333911  1
  Ni  Ni194  1  0.07919243  -0.00200592  0.10640597  1
  Ni  Ni195  1  0.16980201  0.51598276  0.64827237  1
  Ni  Ni196  1  0.04515872  0.38230968  0.84631640  1
  Ni  Ni197  1  0.33013604  0.07965185  0.54663513  1
  Ni  Ni198  1  0.22857470  0.00673993  0.44408269  1
  Ni  Ni199  1  0.83129751  0.02191458  0.55657907  1
  Ni  Ni200  1  0.04284283  0.48637455  0.27085412  1
  Ni  Ni201  1  0.29265249  0.34802278  0.29390454  1
  Ni  Ni202  1  0.07621624  0.05989031  0.38423751  1
  Ni  Ni203  1  -0.04106505  0.76415186  -0.06994224  1
  Ni  Ni204  1  0.06329532  0.91372220  -0.04249424  1
  Ni  Ni205  1  0.64540738  0.38371233  0.62427363  1
  Ni  Ni206  1  0.51692142  0.89096671  0.33897485  1
  Ni  Ni207  1  0.60828666  0.75670026  0.24082943  1
  Ni  Ni208  1  0.15272764  0.41771038  0.39439682  1
  Ni  Ni209  1  0.57491877  0.88061273  0.68811495  1
  Ni  Ni210  1  0.01563705  0.18367558  0.63479518  1
  Ni  Ni211  1  0.47247385  0.20177233  -0.07004701  1
  Ni  Ni212  1  0.87485756  0.52381591  0.31889856  1
  Ni  Ni213  1  0.20968833  0.36437811  0.55051806  1
  Ni  Ni214  1  0.18935674  0.12907982  0.05186348  1
