# generated using pymatgen
data_Ti108Co54Ni53
_symmetry_space_group_name_H-M   'P 1'
_cell_length_a   14.53542553
_cell_length_b   14.54258801
_cell_length_c   14.57025041
_cell_angle_alpha   89.81971017
_cell_angle_beta   89.24098614
_cell_angle_gamma   89.65797835
_symmetry_Int_Tables_number   1
_chemical_formula_structural   Ti108Co54Ni53
_chemical_formula_sum   'Ti108 Co54 Ni53'
_cell_volume   3079.55934194
_cell_formula_units_Z   1
loop_
 _symmetry_equiv_pos_site_id
 _symmetry_equiv_pos_as_xyz
  1  'x, y, z'
loop_
 _atom_site_type_symbol
 _atom_site_label
 _atom_site_symmetry_multiplicity
 _atom_site_fract_x
 _atom_site_fract_y
 _atom_site_fract_z
 _atom_site_occupancy
  Ti  Ti0  1  0.08749233  0.14850662  0.27296269  1
  Ti  Ti1  1  0.12821970  0.13995420  0.60275535  1
  Ti  Ti2  1  0.19905470  0.05341614  1.00499089  1
  Ti  Ti3  1  0.04594008  0.45234928  0.19904245  1
  Ti  Ti4  1  0.06650995  0.36164619  0.65654860  1
  Ti  Ti5  1  0.14009560  0.37743650  0.95799086  1
  Ti  Ti6  1  0.10939430  0.71258343  0.29598195  1
  Ti  Ti7  1  -0.00970315  0.81887879  0.56887232  1
  Ti  Ti8  1  0.11490819  0.74113984  0.78988791  1
  Ti  Ti9  1  0.36543630  0.12157612  0.35248901  1
  Ti  Ti10  1  0.43651590  0.07100017  0.55600252  1
  Ti  Ti11  1  0.40660698  0.08564945  1.02187325  1
  Ti  Ti12  1  0.46791613  0.40819260  0.21939289  1
  Ti  Ti13  1  0.43637127  0.42018129  0.54077889  1
  Ti  Ti14  1  0.39270886  0.40732866  0.86202945  1
  Ti  Ti15  1  0.40666855  0.86881715  0.22347000  1
  Ti  Ti16  1  0.43057397  0.72180313  0.51835954  1
  Ti  Ti17  1  0.49270841  0.73626687  0.92754698  1
  Ti  Ti18  1  0.77469098  0.10640200  0.29584723  1
  Ti  Ti19  1  0.79272133  0.11414139  0.58268203  1
  Ti  Ti20  1  0.77522087  0.06138281  0.92173686  1
  Ti  Ti21  1  0.69216986  0.40414822  0.19385657  1
  Ti  Ti22  1  0.74088786  0.44165685  0.56999626  1
  Ti  Ti23  1  0.77839335  0.39576111  0.86899184  1
  Ti  Ti24  1  0.71966757  0.78242280  0.21131885  1
  Ti  Ti25  1  0.74423769  0.72353578  0.68108540  1
  Ti  Ti26  1  0.67709569  0.72337061  0.87711804  1
  Ti  Ti27  1  0.08632830  0.22651767  0.07618526  1
  Ti  Ti28  1  0.05231568  0.28258852  0.40679798  1
  Ti  Ti29  1  0.10643025  0.16445623  0.87496466  1
  Ti  Ti30  1  0.09779581  0.54973367  0.02136333  1
  Ti  Ti31  1  0.04104779  0.62873374  0.46837358  1
  Ti  Ti32  1  0.04996348  0.54702896  0.71576589  1
  Ti  Ti33  1  0.07138962  0.95373287  0.11467864  1
  Ti  Ti34  1  0.04723573  0.90478837  0.38026318  1
  Ti  Ti35  1  0.17172385  0.93449842  0.71968650  1
  Ti  Ti36  1  0.39607258  0.28675642  0.08733408  1
  Ti  Ti37  1  0.42059975  0.28478574  0.40442416  1
  Ti  Ti38  1  0.47615202  0.18332191  0.74415200  1
  Ti  Ti39  1  0.41331449  0.62536932  0.07413250  1
  Ti  Ti40  1  0.35214479  0.60324055  0.36249699  1
  Ti  Ti41  1  0.44520667  0.51069626  0.70444829  1
  Ti  Ti42  1  0.47182053  0.89701655  0.03474262  1
  Ti  Ti43  1  0.41219232  0.91140458  0.43397341  1
  Ti  Ti44  1  0.40830053  0.89029127  0.82117215  1
  Ti  Ti45  1  0.74679573  0.19454520  0.08663815  1
  Ti  Ti46  1  0.72184183  0.27387388  0.46066511  1
  Ti  Ti47  1  0.70433741  0.21615917  0.75027740  1
  Ti  Ti48  1  0.74615220  0.61587369  0.11057412  1
  Ti  Ti49  1  0.82163965  0.58906275  0.40676849  1
  Ti  Ti50  1  0.82513188  0.53752320  0.76150887  1
  Ti  Ti51  1  0.67023311  0.96844622  0.08566913  1
  Ti  Ti52  1  0.72242057  0.93020875  0.43639715  1
  Ti  Ti53  1  0.74556058  0.95977169  0.72904733  1
  Ti  Ti54  1  0.27558603  0.04490096  0.17697178  1
  Ti  Ti55  1  0.18400601  0.07968675  0.41312549  1
  Ti  Ti56  1  0.29528751  0.13914137  0.69187259  1
  Ti  Ti57  1  0.27132442  0.49719641  0.08202152  1
  Ti  Ti58  1  0.26172133  0.43437167  0.43350160  1
  Ti  Ti59  1  0.21977868  0.44169766  0.76121920  1
  Ti  Ti60  1  0.16005965  0.75282110  0.08726772  1
  Ti  Ti61  1  0.28269467  0.76994551  0.37962084  1
  Ti  Ti62  1  0.29478595  0.76680832  0.72987811  1
  Ti  Ti63  1  0.55739342  0.17918110  0.07009648  1
  Ti  Ti64  1  0.55083678  0.05961144  0.33291353  1
  Ti  Ti65  1  0.54235120  -0.01143612  0.69951435  1
  Ti  Ti66  1  0.65118507  0.46400661  0.00051623  1
  Ti  Ti67  1  0.60271466  0.40877613  0.37552013  1
  Ti  Ti68  1  0.60671997  0.41202808  0.77894995  1
  Ti  Ti69  1  0.56182439  0.70510087  0.15134167  1
  Ti  Ti70  1  0.63035353  0.69096325  0.40651937  1
  Ti  Ti71  1  0.49361453  0.75825728  0.72049548  1
  Ti  Ti72  1  0.93319228  0.13676218  0.17125058  1
  Ti  Ti73  1  0.90049641  0.02890851  0.42417893  1
  Ti  Ti74  1  0.87049637  0.11803455  0.75256591  1
  Ti  Ti75  1  0.83796372  0.41453105  0.04516568  1
  Ti  Ti76  1  0.99050320  0.45648232  0.50988861  1
  Ti  Ti77  1  0.89266347  0.29805004  0.75306080  1
  Ti  Ti78  1  0.96441197  0.70683717  0.12542757  1
  Ti  Ti79  1  0.93426210  0.74046478  0.35502267  1
  Ti  Ti80  1  0.93960969  0.70869392  0.74188200  1
  Ti  Ti81  1  0.25299757  0.23114485  0.21665990  1
  Ti  Ti82  1  0.27449684  0.29378818  0.56762652  1
  Ti  Ti83  1  0.27440412  0.26252111  0.85302661  1
  Ti  Ti84  1  0.21196064  0.51448378  0.26454054  1
  Ti  Ti85  1  0.22627666  0.66150154  0.57618481  1
  Ti  Ti86  1  0.24796438  0.66007713  0.93255374  1
  Ti  Ti87  1  0.20933114  0.85830161  0.23050047  1
  Ti  Ti88  1  0.26963102  0.98070272  0.56446877  1
  Ti  Ti89  1  0.19312535  0.86045415  0.92181140  1
  Ti  Ti90  1  0.55294246  0.24510359  0.24325713  1
  Ti  Ti91  1  0.59944519  0.16312052  0.57212803  1
  Ti  Ti92  1  0.58332618  0.20373880  0.89168732  1
  Ti  Ti93  1  0.53339073  0.57657211  0.29399556  1
  Ti  Ti94  1  0.58430260  0.63523571  0.59138555  1
  Ti  Ti95  1  0.50118392  0.54236480  0.91828443  1
  Ti  Ti96  1  0.58115807  0.86293333  0.34052211  1
  Ti  Ti97  1  0.57927697  0.84865499  0.55869265  1
  Ti  Ti98  1  0.60778346  0.91061470  0.88116898  1
  Ti  Ti99  1  0.87017859  0.28957401  0.31480670  1
  Ti  Ti100  1  0.95234184  0.22951017  0.58007623  1
  Ti  Ti101  1  0.95638439  0.29643404  0.92981505  1
  Ti  Ti102  1  0.85053967  0.49184816  0.23602009  1
  Ti  Ti103  1  0.89166580  0.59279260  0.59955684  1
  Ti  Ti104  1  0.94869131  0.55501512  0.91870573  1
  Ti  Ti105  1  0.85352094  0.89630663  0.26525759  1
  Ti  Ti106  1  0.96658082  1.00760374  0.63199936  1
  Ti  Ti107  1  1.03286510  0.95732090  0.90290200  1
  Co  Co108  1  0.28266110  0.45447818  0.61580083  1
  Co  Co109  1  0.06875589  0.67884265  0.62196090  1
  Co  Co110  1  0.70757728  0.09664681  0.44563329  1
  Co  Co111  1  0.56424008  0.32273692  0.50600857  1
  Co  Co112  1  0.13934380  0.51828137  0.57301612  1
  Co  Co113  1  -0.04960555  0.11194989  0.88721595  1
  Co  Co114  1  0.78636728  0.28200227  0.62287507  1
  Co  Co115  1  0.25238058  0.67345009  0.22585398  1
  Co  Co116  1  0.50419309  0.56632992  0.46139252  1
  Co  Co117  1  0.47317663  0.74935666  0.36462460  1
  Co  Co118  1  0.05219122  0.04441108  0.76396734  1
  Co  Co119  1  0.30070633  0.36326430  -0.01426211  1
  Co  Co120  1  0.13818490  0.35973320  0.51104853  1
  Co  Co121  1  0.63318613  0.82971480  0.73951971  1
  Co  Co122  1  0.89445934  0.17847989  0.02159034  1
  Co  Co123  1  0.37121667  0.53383691  0.20919774  1
  Co  Co124  1  0.89277487  -0.03048554  0.81381275  1
  Co  Co125  1  0.69093521  -0.04150460  0.25449260  1
  Co  Co126  1  0.02829049  0.08496699  0.02647127  1
  Co  Co127  1  0.76930242  0.76945942  0.36580230  1
  Co  Co128  1  -0.03793730  0.01153466  0.26297454  1
  Co  Co129  1  0.03375084  0.83079163  0.01456979  1
  Co  Co130  1  0.71086961  0.76805444  0.52284519  1
  Co  Co131  1  0.00201361  0.39130600  0.06039221  1
  Co  Co132  1  0.20558139  0.90272454  0.42966194  1
  Co  Co133  1  0.82320472  -0.04947276  0.57244033  1
  Co  Co134  1  0.37965581  0.64456717  0.66047956  1
  Co  Co135  1  0.30042067  0.14822354  0.50685562  1
  Co  Co136  1  0.41973971  0.23199529  -0.06753246  1
  Co  Co137  1  0.02736531  0.19913795  0.73091355  1
  Co  Co138  1  0.58023944  0.46720188  0.59160056  1
  Co  Co139  1  0.60911544  0.63462175  0.00338292  1
  Co  Co140  1  0.42339039  0.45421133  0.37018755  1
  Co  Co141  1  0.80491787  0.22104945  0.89142434  1
  Co  Co142  1  0.71190792  0.26823073  0.27847141  1
  Co  Co143  1  0.58391749  0.20884019  0.39328942  1
  Co  Co144  1  0.01869567  0.83881738  0.21324308  1
  Co  Co145  1  0.66872810  0.00392562  0.58782511  1
  Co  Co146  1  0.30237707  0.81979816  0.53999532  1
  Co  Co147  1  0.08694045  0.32755905  0.81887941  1
  Co  Co148  1  0.21869227  0.61244077  0.75773401  1
  Co  Co149  1  0.84317103  0.66506629  0.23752767  1
  Co  Co150  1  0.48300514  0.03224394  0.85691058  1
  Co  Co151  1  0.55638876  -0.00698445  0.47871918  1
  Co  Co152  1  0.36897472  0.00921208  0.72306444  1
  Co  Co153  1  0.69388329  0.59189916  0.26771288  1
  Co  Co154  1  0.61820362  0.31311216  0.65084384  1
  Co  Co155  1  0.66622312  0.53687123  0.44834828  1
  Co  Co156  1  0.11848589  0.76641065  0.45414383  1
  Co  Co157  1  0.77301212  0.42598461  0.37605530  1
  Co  Co158  1  -0.07103540  0.54845961  0.10033389  1
  Co  Co159  1  0.25108280  0.50385222  -0.09236634  1
  Co  Co160  1  0.64024850  0.07393498  0.79936018  1
  Co  Co161  1  0.13324193  -0.00605211  0.27093962  1
  Ni  Ni162  1  0.67549850  0.55189393  0.69630594  1
  Ni  Ni163  1  0.34301755  0.79766215  0.95485747  1
  Ni  Ni164  1  0.10673533  0.48622527  0.39116830  1
  Ni  Ni165  1  0.83200169  0.67657487  0.85737736  1
  Ni  Ni166  1  0.85923078  0.29905765  0.15322415  1
  Ni  Ni167  1  0.25528883  0.20772608  0.02198177  1
  Ni  Ni168  1  0.59453233  0.05276058  -0.03154084  1
  Ni  Ni169  1  0.34926627  0.56417872  0.52000163  1
  Ni  Ni170  1  0.64765665  0.10571287  0.19451698  1
  Ni  Ni171  1  0.18365774  0.36144323  0.13402253  1
  Ni  Ni172  1  -0.03835759  0.43399605  0.80702747  1
  Ni  Ni173  1  0.86539483  0.84714669  0.68968365  1
  Ni  Ni174  1  0.09644527  -0.02176956  0.53416471  1
  Ni  Ni175  1  0.56739155  0.34805554  0.09444891  1
  Ni  Ni176  1  0.33221740  0.76038597  0.10988497  1
  Ni  Ni177  1  0.41203322  0.69616127  0.23400793  1
  Ni  Ni178  1  0.30182109  -0.03078052  0.32298542  1
  Ni  Ni179  1  0.57199010  0.86914178  0.17372858  1
  Ni  Ni180  1  0.34201022  0.11048318  0.85897108  1
  Ni  Ni181  1  0.15579274  0.82282389  0.60329501  1
  Ni  Ni182  1  -0.01143801  0.58564990  0.29648379  1
  Ni  Ni183  1  0.05955659  0.69143589  -0.05954617  1
  Ni  Ni184  1  0.22969183  0.25638098  0.38765654  1
  Ni  Ni185  1  0.41918228  0.88670532  0.62833421  1
  Ni  Ni186  1  0.87640137  0.34688157  0.48558706  1
  Ni  Ni187  1  0.87087010  0.18563620  0.44069385  1
  Ni  Ni188  1  0.54987592  0.62221949  0.78153463  1
  Ni  Ni189  1  0.43827462  0.45171239  0.05007022  1
  Ni  Ni190  1  0.11195114  0.60826168  0.16818556  1
  Ni  Ni191  1  0.30973720  0.37430752  0.27299022  1
  Ni  Ni192  1  0.01590916  0.29374146  0.22027497  1
  Ni  Ni193  1  0.01381438  0.87288546  0.74810135  1
  Ni  Ni194  1  0.43861869  0.23902959  0.58382351  1
  Ni  Ni195  1  0.36110789  0.32958156  0.71154878  1
  Ni  Ni196  1  0.79311956  0.56343466  -0.03405669  1
  Ni  Ni197  1  0.02673389  0.12094266  0.46714265  1
  Ni  Ni198  1  0.86140412  0.72446996  0.52009934  1
  Ni  Ni199  1  0.41705006  0.15304920  0.19208985  1
  Ni  Ni200  1  0.38089517  0.62404578  0.82991189  1
  Ni  Ni201  1  0.50064035  0.01593923  0.16007283  1
  Ni  Ni202  1  0.57008782  0.52887719  0.13343869  1
  Ni  Ni203  1  0.20857124  0.02748245  0.83887267  1
  Ni  Ni204  1  0.18713176  0.26318067  0.71115009  1
  Ni  Ni205  1  -0.04290687  0.42675029  0.34869478  1
  Ni  Ni206  1  0.63936251  0.80231665  0.02949502  1
  Ni  Ni207  1  -0.12036242  0.86771899  0.44633389  1
  Ni  Ni208  1  0.68651400  0.30185344  -0.02199221  1
  Ni  Ni209  1  0.27468868  0.90675907  0.07848270  1
  Ni  Ni210  1  0.33263511  -0.03444298  -0.06074033  1
  Ni  Ni211  1  0.67550024  0.55220218  0.85957059  1
  Ni  Ni212  1  0.53169211  0.35916050  0.93345888  1
  Ni  Ni213  1  0.89576286  0.42401319  0.64470157  1
  Ni  Ni214  1  0.81390579  0.02056913  0.14664064  1
