# generated using pymatgen
data_Ti108Co54Ni53
_symmetry_space_group_name_H-M   'P 1'
_cell_length_a   14.61804279
_cell_length_b   14.62235386
_cell_length_c   14.60596163
_cell_angle_alpha   90.11157136
_cell_angle_beta   90.20736743
_cell_angle_gamma   90.29936017
_symmetry_Int_Tables_number   1
_chemical_formula_structural   Ti108Co54Ni53
_chemical_formula_sum   'Ti108 Co54 Ni53'
_cell_volume   3121.95804312
_cell_formula_units_Z   1
loop_
 _symmetry_equiv_pos_site_id
 _symmetry_equiv_pos_as_xyz
  1  'x, y, z'
loop_
 _atom_site_type_symbol
 _atom_site_label
 _atom_site_symmetry_multiplicity
 _atom_site_fract_x
 _atom_site_fract_y
 _atom_site_fract_z
 _atom_site_occupancy
  Ti  Ti0  1  0.10283455  0.07190784  0.24082313  1
  Ti  Ti1  1  0.12931475  0.09440221  0.53418493  1
  Ti  Ti2  1  0.08004697  0.06285731  0.93304782  1
  Ti  Ti3  1  0.07885348  0.41780816  0.31179274  1
  Ti  Ti4  1  0.07491683  0.42349568  0.62235707  1
  Ti  Ti5  1  0.11277736  0.41266042  0.97567093  1
  Ti  Ti6  1  0.03842148  0.75714545  0.22512261  1
  Ti  Ti7  1  0.01897181  0.66103365  0.62498141  1
  Ti  Ti8  1  0.07078348  0.74290956  0.89573691  1
  Ti  Ti9  1  0.44340504  0.11391226  0.28321436  1
  Ti  Ti10  1  0.46442758  0.03993982  0.62783035  1
  Ti  Ti11  1  0.43367442  -0.00973464  0.82043229  1
  Ti  Ti12  1  0.43828394  0.32081448  0.25933552  1
  Ti  Ti13  1  0.39125740  0.35375584  0.62990107  1
  Ti  Ti14  1  0.48823177  0.46311172  0.95631054  1
  Ti  Ti15  1  0.48301539  0.78342167  0.27958548  1
  Ti  Ti16  1  0.40468286  0.78735337  0.50515730  1
  Ti  Ti17  1  0.43687353  0.70914854  0.98913365  1
  Ti  Ti18  1  0.73659982  0.10542496  0.26365768  1
  Ti  Ti19  1  0.78674277  0.05335528  0.58956095  1
  Ti  Ti20  1  0.76847026  0.10948461  0.95522237  1
  Ti  Ti21  1  0.74412595  0.49246138  0.26686711  1
  Ti  Ti22  1  0.70971191  0.47986346  0.66250105  1
  Ti  Ti23  1  0.70183995  0.33494693  0.95994347  1
  Ti  Ti24  1  0.77664637  0.78283855  0.28001627  1
  Ti  Ti25  1  0.79148366  0.83860820  0.57419509  1
  Ti  Ti26  1  0.76562656  0.74849870  0.91081964  1
  Ti  Ti27  1  0.08766339  0.23623912  0.08113445  1
  Ti  Ti28  1  0.05544142  0.25669792  0.42982420  1
  Ti  Ti29  1  0.14854285  0.20866168  0.79299493  1
  Ti  Ti30  1  0.07441035  0.55817256  0.14147645  1
  Ti  Ti31  1  0.07929213  0.55250258  0.47364684  1
  Ti  Ti32  1  0.04603895  0.54280026  0.79873358  1
  Ti  Ti33  1  0.03634810  0.87989055  0.03845787  1
  Ti  Ti34  1  0.05439195  0.87770117  0.42040074  1
  Ti  Ti35  1  0.07444813  0.83908238  0.71185522  1
  Ti  Ti36  1  0.41106200  0.26319134  0.02829288  1
  Ti  Ti37  1  0.46823497  0.22016154  0.46047192  1
  Ti  Ti38  1  0.46235339  0.20647618  0.74887037  1
  Ti  Ti39  1  0.35243611  0.64851355  0.17114327  1
  Ti  Ti40  1  0.37752709  0.62580651  0.37719339  1
  Ti  Ti41  1  0.40539899  0.55088391  0.69523470  1
  Ti  Ti42  1  0.37152791  0.94107788  0.02967545  1
  Ti  Ti43  1  0.35502278  0.92587338  0.35150689  1
  Ti  Ti44  1  0.28359635  0.89014116  0.72840590  1
  Ti  Ti45  1  0.81481215  0.21780522  0.10676504  1
  Ti  Ti46  1  0.74471329  0.25112095  0.42301465  1
  Ti  Ti47  1  0.76603220  0.26945836  0.68560750  1
  Ti  Ti48  1  0.77455030  0.59065459  0.02473520  1
  Ti  Ti49  1  0.76609430  0.63827031  0.41446665  1
  Ti  Ti50  1  0.77860708  0.56925935  0.81883769  1
  Ti  Ti51  1  0.75833626  0.88729438  0.04819622  1
  Ti  Ti52  1  0.72206872  0.95865284  0.42114324  1
  Ti  Ti53  1  0.72227510  0.89599758  0.75824738  1
  Ti  Ti54  1  0.22840938  0.09717975  0.10602304  1
  Ti  Ti55  1  0.31850692  0.08302192  0.45366755  1
  Ti  Ti56  1  0.29786529  0.10277438  0.73920664  1
  Ti  Ti57  1  0.32232900  0.44648820  0.08684703  1
  Ti  Ti58  1  0.33086058  0.40192761  0.38528822  1
  Ti  Ti59  1  0.23238085  0.46295689  0.74022597  1
  Ti  Ti60  1  0.24698612  0.77352080  0.02667391  1
  Ti  Ti61  1  0.17901336  0.68768929  0.36973561  1
  Ti  Ti62  1  0.28107323  0.69884050  0.78128323  1
  Ti  Ti63  1  0.50554614  0.08434633  0.08280503  1
  Ti  Ti64  1  0.53800406  0.03232466  0.43307934  1
  Ti  Ti65  1  0.64459785  0.09366591  0.75048486  1
  Ti  Ti66  1  0.63116363  0.47989751  0.08912219  1
  Ti  Ti67  1  0.60465481  0.37287798  0.35693162  1
  Ti  Ti68  1  0.56045464  0.42561225  0.78033149  1
  Ti  Ti69  1  0.55318080  0.86008265  0.07047142  1
  Ti  Ti70  1  0.56828897  0.69983271  0.45074259  1
  Ti  Ti71  1  0.48518166  0.79061063  0.78851030  1
  Ti  Ti72  1  0.88778336  0.02344129  0.12810115  1
  Ti  Ti73  1  1.00898644  0.06036846  0.39458607  1
  Ti  Ti74  1  0.93931349  0.13235945  0.82685718  1
  Ti  Ti75  1  0.81715977  0.40353170  0.12206080  1
  Ti  Ti76  1  0.88381191  0.38127496  0.35418110  1
  Ti  Ti77  1  0.97980449  0.30385962  0.73878055  1
  Ti  Ti78  1  0.93920075  0.69840311  0.03931090  1
  Ti  Ti79  1  0.96605064  0.69725997  0.41091667  1
  Ti  Ti80  1  0.90665723  0.73791257  0.76234503  1
  Ti  Ti81  1  0.22056275  0.28128769  0.24405812  1
  Ti  Ti82  1  0.25222213  0.26539635  0.49136227  1
  Ti  Ti83  1  0.26893170  0.33752676  0.90066086  1
  Ti  Ti84  1  0.23195111  0.52164010  0.25552300  1
  Ti  Ti85  1  0.28019944  0.63907767  0.55101779  1
  Ti  Ti86  1  0.24893065  0.57074112  0.91076445  1
  Ti  Ti87  1  0.25299585  0.90411890  0.19127143  1
  Ti  Ti88  1  0.17567614  0.91578592  0.56342863  1
  Ti  Ti89  1  0.25583622  1.02127165  0.90184414  1
  Ti  Ti90  1  0.60844125  0.26299786  0.18044360  1
  Ti  Ti91  1  0.60469496  0.32349821  0.57734563  1
  Ti  Ti92  1  0.58655371  0.20479214  0.90328751  1
  Ti  Ti93  1  0.54427093  0.55797382  0.24910822  1
  Ti  Ti94  1  0.60799735  0.51534837  0.49325795  1
  Ti  Ti95  1  0.59299013  0.64596231  0.86913737  1
  Ti  Ti96  1  0.61158210  0.92271302  0.25947310  1
  Ti  Ti97  1  0.58167702  0.86759327  0.57456759  1
  Ti  Ti98  1  0.61376310  0.99331215  0.92892537  1
  Ti  Ti99  1  0.90096530  0.19109235  0.30291642  1
  Ti  Ti100  1  0.90880752  0.29206331  0.55310451  1
  Ti  Ti101  1  0.88277199  0.30647525  0.90767092  1
  Ti  Ti102  1  0.87606472  0.63256403  0.21850316  1
  Ti  Ti103  1  0.87766094  0.51166705  0.54157091  1
  Ti  Ti104  1  0.94808178  0.49379332  1.01320534  1
  Ti  Ti105  1  0.90276152  0.92344636  0.30831542  1
  Ti  Ti106  1  0.97546981  0.98651764  0.62560922  1
  Ti  Ti107  1  0.88743988  0.97075497  0.91957826  1
  Co  Co108  1  0.79300494  0.73561829  0.09330587  1
  Co  Co109  1  0.30553635  0.28639362  0.74742527  1
  Co  Co110  1  0.75749408  0.21568991  0.83697030  1
  Co  Co111  1  0.15986251  0.39233763  0.46755802  1
  Co  Co112  1  0.76701576  -0.05812421  0.21975197  1
  Co  Co113  1  0.11941473  0.68481512  0.76137113  1
  Co  Co114  1  -0.03898046  0.32750323  0.04380068  1
  Co  Co115  1  0.86802600  0.41237147  0.67752219  1
  Co  Co116  1  0.91832391  0.62191981  0.89230575  1
  Co  Co117  1  0.48880842  0.40769642  0.13510085  1
  Co  Co118  1  0.43088410  0.88193590  0.65969795  1
  Co  Co119  1  0.52499960  0.69356651  0.15265232  1
  Co  Co120  1  0.52484138  0.46944269  0.62341003  1
  Co  Co121  1  0.47014338  0.10485685  -0.08770993  1
  Co  Co122  1  0.32950857  0.22027217  0.34457444  1
  Co  Co123  1  0.35196801  0.11099037  0.01643317  1
  Co  Co124  1  0.64905999  0.17137987  0.05324816  1
  Co  Co125  1  0.18396580  -0.01684065  0.38781069  1
  Co  Co126  1  0.18306014  -0.05154651  0.05275479  1
  Co  Co127  1  0.04517509  0.04379065  0.08462439  1
  Co  Co128  1  0.63099923  0.83340003  0.88836476  1
  Co  Co129  1  0.33768951  0.18587322  0.87176742  1
  Co  Co130  1  0.56776074  -0.05890049  0.74632837  1
  Co  Co131  1  -0.03626450  0.16599093  0.15590581  1
  Co  Co132  1  0.48370099  0.87897872  -0.07268526  1
  Co  Co133  1  0.39267708  0.48907300  0.24076554  1
  Co  Co134  1  0.68833683  0.80302780  0.42471322  1
  Co  Co135  1  0.74594723  0.39477852  0.80496387  1
  Co  Co136  1  0.17217088  0.15040379  0.37794670  1
  Co  Co137  1  0.07711461  0.26244413  0.59099603  1
  Co  Co138  1  0.35895638  0.19127103  0.17054454  1
  Co  Co139  1  0.91120019  0.81272654  -0.07856596  1
  Co  Co140  1  -0.00036677  0.41253212  0.46822683  1
  Co  Co141  1  0.80393983  0.45661387  -0.04900971  1
  Co  Co142  1  0.20093497  0.18345635  -0.04534661  1
  Co  Co143  1  0.28432220  0.02802056  0.60176094  1
  Co  Co144  1  0.37994771  0.18813010  0.59971033  1
  Co  Co145  1  0.53304547  0.87230907  0.41241638  1
  Co  Co146  1  0.16290262  0.41252079  0.14356566  1
  Co  Co147  1  0.56133229  0.31346608  0.03203332  1
  Co  Co148  1  0.63383909  0.01222265  0.59991055  1
  Co  Co149  1  0.93231268  0.14357236  -0.00432310  1
  Co  Co150  1  0.16592051  0.84068181  0.30441000  1
  Co  Co151  1  0.64818054  0.50085244  0.91238077  1
  Co  Co152  1  0.40637607  -0.05469397  0.50860374  1
  Co  Co153  1  0.04833369  0.25361342  0.91413046  1
  Co  Co154  1  0.85497826  0.80139096  0.42706747  1
  Co  Co155  1  0.62042727  0.28088286  0.75474470  1
  Co  Co156  1  0.58521560  0.07773120  0.22560482  1
  Co  Co157  1  0.06678062  0.22925236  0.27130763  1
  Co  Co158  1  0.90529071  0.54174461  0.37578300  1
  Co  Co159  1  0.11291291  0.37705387  0.80960324  1
  Co  Co160  1  0.19533228  0.69078296  0.20713956  1
  Co  Co161  1  -0.10627267  0.57236005  0.70099235  1
  Ni  Ni162  1  -0.08931840  0.45721169  0.82824749  1
  Ni  Ni163  1  0.66142298  0.13025904  0.48954287  1
  Ni  Ni164  1  0.31693287  0.76689578  0.30084377  1
  Ni  Ni165  1  0.10858974  0.74466324  0.51199465  1
  Ni  Ni166  1  -0.06298322  0.48433177  0.21685809  1
  Ni  Ni167  1  0.05109372  0.59275143  0.30053478  1
  Ni  Ni168  1  0.56737425  0.17241470  0.61847678  1
  Ni  Ni169  1  0.82805175  0.09583160  0.42316285  1
  Ni  Ni170  1  0.21150165  0.76092969  0.63874760  1
  Ni  Ni171  1  0.17782075  0.87298673  -0.09833756  1
  Ni  Ni172  1  0.94983003  0.32328515  0.20559771  1
  Ni  Ni173  1  0.44794452  -0.04743703  0.19391935  1
  Ni  Ni174  1  0.68227020  0.02482413  0.10149490  1
  Ni  Ni175  1  0.22226454  0.58575472  0.07292473  1
  Ni  Ni176  1  0.24983746  0.82023659  0.45270071  1
  Ni  Ni177  1  -0.03617196  0.82158405  0.56828312  1
  Ni  Ni178  1  0.75794811  0.29940006  0.25458899  1
  Ni  Ni179  1  -0.09834653  0.84593199  0.15290012  1
  Ni  Ni180  1  0.88983764  -0.04638609  0.48097023  1
  Ni  Ni181  1  0.76386575  0.37052687  0.54554565  1
  Ni  Ni182  1  0.08213295  0.58797550  -0.03357626  1
  Ni  Ni183  1  0.23604122  0.53212442  0.42516575  1
  Ni  Ni184  1  0.88321666  0.15704801  0.67488909  1
  Ni  Ni185  1  0.47924431  0.50434543  0.38958110  1
  Ni  Ni186  1  -0.04230937  0.13391170  0.53159450  1
  Ni  Ni187  1  0.86069992  0.68248669  0.56525830  1
  Ni  Ni188  1  0.14259002  -0.00159573  0.74439926  1
  Ni  Ni189  1  0.39319158  0.80534224  0.13183201  1
  Ni  Ni190  1  0.65857684  0.78533920  0.16360759  1
  Ni  Ni191  1  0.36128439  0.48826359  0.52996520  1
  Ni  Ni192  1  0.80207712  0.04749914  0.77905522  1
  Ni  Ni193  1  0.46594570  0.56156338  0.08457775  1
  Ni  Ni194  1  0.62650260  0.67438444  0.02834507  1
  Ni  Ni195  1  0.16366892  0.58029742  0.64649639  1
  Ni  Ni196  1  0.74968044  0.46546639  0.42431091  1
  Ni  Ni197  1  0.36933829  0.46654753  0.83835425  1
  Ni  Ni198  1  0.33388926  0.83220780  0.88281997  1
  Ni  Ni199  1  0.27752699  0.06763815  0.27037247  1
  Ni  Ni200  1  0.46047522  0.61567887  0.54062150  1
  Ni  Ni201  1  0.10414147  0.71510191  0.07287196  1
  Ni  Ni202  1  0.88927689  0.90210728  0.73899151  1
  Ni  Ni203  1  0.04608809  0.13047071  0.68579189  1
  Ni  Ni204  1  0.25064850  0.29036852  0.07384655  1
  Ni  Ni205  1  0.04834537  -0.07891729  0.20718677  1
  Ni  Ni206  1  0.42439808  0.62326642  0.84747457  1
  Ni  Ni207  1  0.47921350  0.37948172  0.48362077  1
  Ni  Ni208  1  0.44196071  0.32332277  0.86405390  1
  Ni  Ni209  1  0.21627026  0.19412513  0.63358227  1
  Ni  Ni210  1  0.70031836  0.62180555  0.17576616  1
  Ni  Ni211  1  0.02661123  0.91390386  0.85146841  1
  Ni  Ni212  1  0.40029631  0.71842051  0.65935398  1
  Ni  Ni213  1  0.59355145  0.19848418  0.34478384  1
  Ni  Ni214  1  0.63077531  0.69595355  0.30125346  1
