# generated using pymatgen
data_Ti108Co54Ni53
_symmetry_space_group_name_H-M   'P 1'
_cell_length_a   14.53488581
_cell_length_b   14.61141057
_cell_length_c   14.64666607
_cell_angle_alpha   89.85907527
_cell_angle_beta   90.46670663
_cell_angle_gamma   89.91477087
_symmetry_Int_Tables_number   1
_chemical_formula_structural   Ti108Co54Ni53
_chemical_formula_sum   'Ti108 Co54 Ni53'
_cell_volume   3110.47226419
_cell_formula_units_Z   1
loop_
 _symmetry_equiv_pos_site_id
 _symmetry_equiv_pos_as_xyz
  1  'x, y, z'
loop_
 _atom_site_type_symbol
 _atom_site_label
 _atom_site_symmetry_multiplicity
 _atom_site_fract_x
 _atom_site_fract_y
 _atom_site_fract_z
 _atom_site_occupancy
  Ti  Ti0  1  0.14183935  0.07575573  0.25014118  1
  Ti  Ti1  1  0.07560784  0.07630269  0.64111855  1
  Ti  Ti2  1  0.09798567  0.15908949  0.92619310  1
  Ti  Ti3  1  0.13744128  0.43339526  0.26925663  1
  Ti  Ti4  1  0.13381207  0.40683070  0.59306384  1
  Ti  Ti5  1  0.01551966  0.34049459  1.00601167  1
  Ti  Ti6  1  0.09096196  0.70804566  0.31167383  1
  Ti  Ti7  1  0.07540782  0.78633969  0.60537588  1
  Ti  Ti8  1  0.08437698  0.77089239  0.88617010  1
  Ti  Ti9  1  0.38109025  0.01895453  0.20678220  1
  Ti  Ti10  1  0.45906546  0.12831810  0.54779201  1
  Ti  Ti11  1  0.39733113  0.04981513  0.88311547  1
  Ti  Ti12  1  0.45924830  0.39430653  0.22576398  1
  Ti  Ti13  1  0.36366625  0.44362292  0.63910277  1
  Ti  Ti14  1  0.49531023  0.39138262  0.94690712  1
  Ti  Ti15  1  0.37789030  0.74882549  0.14157597  1
  Ti  Ti16  1  0.40596234  0.79047859  0.57006641  1
  Ti  Ti17  1  0.41871574  0.76893725  0.84123531  1
  Ti  Ti18  1  0.70977104  0.04450994  0.22437444  1
  Ti  Ti19  1  0.63678675  0.06978533  0.64889728  1
  Ti  Ti20  1  0.75500763  0.11312234  0.95811470  1
  Ti  Ti21  1  0.73377467  0.53615233  0.26774671  1
  Ti  Ti22  1  0.78468306  0.45209088  0.65665767  1
  Ti  Ti23  1  0.81947160  0.37373883  0.99644970  1
  Ti  Ti24  1  0.76468685  0.77779152  0.22680045  1
  Ti  Ti25  1  0.82057380  0.77343543  0.59299911  1
  Ti  Ti26  1  0.65728333  0.73296644  0.91293337  1
  Ti  Ti27  1  0.18798491  0.22706328  0.06649497  1
  Ti  Ti28  1  0.13892583  0.29272665  0.41677514  1
  Ti  Ti29  1  0.09964371  0.29656078  0.74779430  1
  Ti  Ti30  1  0.11943687  0.52697018  0.09883475  1
  Ti  Ti31  1  0.04815461  0.52558977  0.40899127  1
  Ti  Ti32  1  0.01753565  0.53481196  0.71626209  1
  Ti  Ti33  1  0.00658727  0.92936628  0.07155100  1
  Ti  Ti34  1  0.13825391  0.84827012  0.43906322  1
  Ti  Ti35  1  0.12934957  0.89502334  0.75733654  1
  Ti  Ti36  1  0.40996719  0.19996839  0.05546972  1
  Ti  Ti37  1  0.45544756  0.30101669  0.45273636  1
  Ti  Ti38  1  0.43310376  0.33164049  0.77130085  1
  Ti  Ti39  1  0.43475191  0.55756838  0.08967155  1
  Ti  Ti40  1  0.44575296  0.62852621  0.45065620  1
  Ti  Ti41  1  0.36217642  0.60163601  0.76798448  1
  Ti  Ti42  1  0.45300698  0.88512608  0.01910821  1
  Ti  Ti43  1  0.43086342  0.97601091  0.40405271  1
  Ti  Ti44  1  0.41079170  0.98952714  0.68797305  1
  Ti  Ti45  1  0.75575170  0.25389056  0.13030994  1
  Ti  Ti46  1  0.70202975  0.33285036  0.42077861  1
  Ti  Ti47  1  0.74820911  0.23167119  0.71341499  1
  Ti  Ti48  1  0.74941002  0.55535040  0.04845070  1
  Ti  Ti49  1  0.65094450  0.60126121  0.45250982  1
  Ti  Ti50  1  0.69346258  0.58299667  0.78535106  1
  Ti  Ti51  1  0.79644461  0.80282812  0.03638477  1
  Ti  Ti52  1  0.75804009  0.92832449  0.38642577  1
  Ti  Ti53  1  0.77143458  0.89737320  0.74897035  1
  Ti  Ti54  1  0.20714264  0.04640067  0.07565178  1
  Ti  Ti55  1  0.18034238  0.06228917  0.44024634  1
  Ti  Ti56  1  0.21717084  0.07745114  0.78215935  1
  Ti  Ti57  1  0.27146598  0.45197437  0.00857048  1
  Ti  Ti58  1  0.30698356  0.39480021  0.36098862  1
  Ti  Ti59  1  0.19537778  0.46131668  0.81118011  1
  Ti  Ti60  1  0.17745893  0.78390337  0.06093440  1
  Ti  Ti61  1  0.29142714  0.72893220  0.38477927  1
  Ti  Ti62  1  0.18909089  0.69126684  0.71219359  1
  Ti  Ti63  1  0.55011500  0.06387984  -0.01082893  1
  Ti  Ti64  1  0.61854923  0.03373065  0.46036862  1
  Ti  Ti65  1  0.49165972  0.14765206  0.75319029  1
  Ti  Ti66  1  0.65018026  0.38939999  0.21914884  1
  Ti  Ti67  1  0.54630377  0.45332053  0.38295516  1
  Ti  Ti68  1  0.62168393  0.41381117  0.73184123  1
  Ti  Ti69  1  0.62367616  0.85386508  0.09622161  1
  Ti  Ti70  1  0.59508746  0.76268540  0.34869061  1
  Ti  Ti71  1  0.56664743  0.70613283  0.69160492  1
  Ti  Ti72  1  0.87968674  0.08188714  0.11849393  1
  Ti  Ti73  1  0.99546126  0.04311192  0.40627754  1
  Ti  Ti74  1  0.90591090  0.06207135  0.78318227  1
  Ti  Ti75  1  0.93492848  0.52368933  0.05100523  1
  Ti  Ti76  1  0.97856373  0.35069527  0.49097338  1
  Ti  Ti77  1  0.84909795  0.41967785  0.81745631  1
  Ti  Ti78  1  0.95604333  0.71985351  0.10357309  1
  Ti  Ti79  1  0.97004899  0.71083864  0.45320604  1
  Ti  Ti80  1  0.93465278  0.74773614  0.76102972  1
  Ti  Ti81  1  0.28683798  0.30905646  0.19073354  1
  Ti  Ti82  1  0.20705873  0.21043247  0.58677890  1
  Ti  Ti83  1  0.30049013  0.29475234  0.92229856  1
  Ti  Ti84  1  0.26802928  0.62298452  0.21010950  1
  Ti  Ti85  1  0.25054262  0.54480078  0.49969731  1
  Ti  Ti86  1  0.24299543  0.62930072  0.94479509  1
  Ti  Ti87  1  0.26820031  0.90913707  0.30173600  1
  Ti  Ti88  1  0.23281390  0.94564439  0.61460635  1
  Ti  Ti89  1  0.24529646  0.92447533  0.94854217  1
  Ti  Ti90  1  0.50517863  0.15836203  0.22104610  1
  Ti  Ti91  1  0.54652585  0.26927949  0.63167107  1
  Ti  Ti92  1  0.62334280  0.25537258  0.97503093  1
  Ti  Ti93  1  0.53624244  0.58769977  0.26402383  1
  Ti  Ti94  1  0.53151066  0.54826416  0.61285513  1
  Ti  Ti95  1  0.59215975  0.54488997  0.95150110  1
  Ti  Ti96  1  0.47884104  0.86837651  0.24715224  1
  Ti  Ti97  1  0.62723853  0.87097219  0.61005603  1
  Ti  Ti98  1  0.65292912  0.93374423  0.90994665  1
  Ti  Ti99  1  1.06706458  0.25920239  0.21945949  1
  Ti  Ti100  1  0.92949439  0.21014065  0.63108766  1
  Ti  Ti101  1  0.92965972  0.25203322  0.84085048  1
  Ti  Ti102  1  0.95192381  0.54321255  0.24288332  1
  Ti  Ti103  1  0.90514147  0.52602357  0.54635372  1
  Ti  Ti104  1  0.95494143  0.59521052  0.88667260  1
  Ti  Ti105  1  0.93075890  0.88279490  0.28459256  1
  Ti  Ti106  1  0.93615715  0.92179561  0.64299263  1
  Ti  Ti107  1  0.85343338  0.94866498  0.93878286  1
  Co  Co108  1  0.61336701  0.83014218  0.78851812  1
  Co  Co109  1  0.21201066  0.78479138  0.22661611  1
  Co  Co110  1  0.55914161  0.01875647  0.30981348  1
  Co  Co111  1  0.15119573  0.37596444  0.10850278  1
  Co  Co112  1  0.68238717  0.41502456  0.88756130  1
  Co  Co113  1  0.29335991  0.14621686  0.18530299  1
  Co  Co114  1  0.01348806  0.41292419  0.83370072  1
  Co  Co115  1  0.49590762  -0.04607208  0.55480648  1
  Co  Co116  1  0.40776927  0.46980549  0.48515655  1
  Co  Co117  1  0.47816079  0.85196828  0.70507372  1
  Co  Co118  1  0.33897301  0.75831424  -0.01100217  1
  Co  Co119  1  -0.07101493  0.05350808  0.54887379  1
  Co  Co120  1  0.59762340  0.54501256  0.12482893  1
  Co  Co121  1  0.83313412  -0.07921396  0.15956252  1
  Co  Co122  1  0.85374172  0.60085587  0.73085888  1
  Co  Co123  1  0.14330690  0.33221351  0.91181464  1
  Co  Co124  1  0.74080452  0.73866449  0.73259723  1
  Co  Co125  1  0.57883188  -0.01127787  0.76653312  1
  Co  Co126  1  0.55918166  0.71863449  0.52765887  1
  Co  Co127  1  0.47166867  0.21787659  -0.09560793  1
  Co  Co128  1  0.26757456  0.12629564  -0.05538510  1
  Co  Co129  1  -0.00525730  0.40823883  0.16039583  1
  Co  Co130  1  0.21576242  0.21489399  0.31268272  1
  Co  Co131  1  0.04453297  0.81693487  0.19323352  1
  Co  Co132  1  0.04046547  0.15166656  0.77324061  1
  Co  Co133  1  0.80807207  0.64719587  0.49196915  1
  Co  Co134  1  0.48172408  0.14127118  0.38540865  1
  Co  Co135  1  0.31325158  0.08804941  0.34625916  1
  Co  Co136  1  0.61600942  0.12442193  0.85492083  1
  Co  Co137  1  0.67320650  0.69408099  0.08065080  1
  Co  Co138  1  0.38397251  0.24316087  0.30717215  1
  Co  Co139  1  0.64813402  0.89761817  0.25418796  1
  Co  Co140  1  0.31329654  0.20888520  0.45750529  1
  Co  Co141  1  0.75219906  0.66859014  0.34268842  1
  Co  Co142  1  0.47946045  -0.08532227  0.86302806  1
  Co  Co143  1  0.40801111  0.59166801  -0.06353093  1
  Co  Co144  1  0.30880203  0.89218021  0.11550710  1
  Co  Co145  1  0.27273046  0.36224706  0.51514708  1
  Co  Co146  1  0.42560419  0.70634978  0.29253956  1
  Co  Co147  1  0.11397081  0.61316440  0.83050006  1
  Co  Co148  1  -0.07753015  0.70077669  0.28586317  1
  Co  Co149  1  0.04583293  0.18111576  0.51057140  1
  Co  Co150  1  0.37734738  0.27474753  0.60780702  1
  Co  Co151  1  0.84132183  0.33699929  0.55549402  1
  Co  Co152  1  0.81909658  0.43346868  0.15101730  1
  Co  Co153  1  0.44451801  0.81153573  0.41411579  1
  Co  Co154  1  0.15349603  -0.07534623  0.15399539  1
  Co  Co155  1  0.79773763  0.54418974  -0.09912194  1
  Co  Co156  1  0.40061631  0.37250318  0.07190818  1
  Co  Co157  1  0.52863590  0.64749494  0.83868737  1
  Co  Co158  1  0.06699936  0.65079574  -0.00447867  1
  Co  Co159  1  0.37861399  0.03221893  0.04607147  1
  Co  Co160  1  0.09826592  0.49320195  -0.05415704  1
  Co  Co161  1  0.32375980  0.12862972  0.66088932  1
  Ni  Ni162  1  -0.07933595  0.26296760  0.13758842  1
  Ni  Ni163  1  0.83849147  0.78970268  0.39716793  1
  Ni  Ni164  1  0.26608495  0.32637649  0.72086251  1
  Ni  Ni165  1  0.30488288  0.92815488  0.79738165  1
  Ni  Ni166  1  0.07951926  0.56719832  0.56724930  1
  Ni  Ni167  1  0.70753347  0.61569557  0.61774092  1
  Ni  Ni168  1  0.74047996  0.04957260  0.79909284  1
  Ni  Ni169  1  0.54476086  0.72538843  0.17201002  1
  Ni  Ni170  1  0.72004778  -0.01168435  0.06245228  1
  Ni  Ni171  1  0.29976969  0.88804133  0.47362872  1
  Ni  Ni172  1  0.56067692  0.28392509  0.32065072  1
  Ni  Ni173  1  0.04580940  0.12263523  0.10185104  1
  Ni  Ni174  1  0.77133958  -0.05341283  0.55382752  1
  Ni  Ni175  1  0.33327523  0.19314471  0.80397297  1
  Ni  Ni176  1  -0.04004741  0.38010587  0.66914217  1
  Ni  Ni177  1  -0.04221992  0.67053019  0.61629324  1
  Ni  Ni178  1  -0.04525310  0.07491770  -0.03423935  1
  Ni  Ni179  1  0.34928855  0.63158164  0.60476625  1
  Ni  Ni180  1  0.94241763  0.80178581  -0.04820047  1
  Ni  Ni181  1  0.82738592  0.63338406  0.16459727  1
  Ni  Ni182  1  0.54780947  -0.00049119  0.14600185  1
  Ni  Ni183  1  0.51130287  0.70837738  0.00541354  1
  Ni  Ni184  1  0.82037518  0.70829939  0.87920209  1
  Ni  Ni185  1  -0.04219353  0.89922466  0.81368969  1
  Ni  Ni186  1  0.87703909  0.21504265  -0.00658615  1
  Ni  Ni187  1  0.06822828  0.01112707  0.85324911  1
  Ni  Ni188  1  0.35317945  0.45392598  0.85824495  1
  Ni  Ni189  1  0.73756637  0.47432289  0.49889203  1
  Ni  Ni190  1  0.86320395  0.53345175  0.38425807  1
  Ni  Ni191  1  0.37342830  0.54282283  0.32540102  1
  Ni  Ni192  1  0.56853535  0.41251244  0.53781403  1
  Ni  Ni193  1  0.63828724  0.13773278  0.10598535  1
  Ni  Ni194  1  0.61111050  0.20158260  0.49014344  1
  Ni  Ni195  1  0.14417986  0.67910853  0.47351582  1
  Ni  Ni196  1  0.07369813  -0.04793584  0.54474851  1
  Ni  Ni197  1  0.10774615  0.66951029  0.15802549  1
  Ni  Ni198  1  0.20102238  0.57052162  0.34849636  1
  Ni  Ni199  1  0.75984402  0.26248798  0.87208003  1
  Ni  Ni200  1  0.30207978  0.80839563  0.69513416  1
  Ni  Ni201  1  0.09223197  -0.07458257  0.30802290  1
  Ni  Ni202  1  0.55453530  0.28854753  0.12332184  1
  Ni  Ni203  1  0.24559338  0.77973542  -0.14791614  1
  Ni  Ni204  1  -0.06216260  0.89220161  0.47442672  1
  Ni  Ni205  1  0.32174054  0.04719136  0.51869335  1
  Ni  Ni206  1  0.30826142  0.47146309  0.17757988  1
  Ni  Ni207  1  0.59766568  0.27862559  0.81219120  1
  Ni  Ni208  1  0.69823298  0.78731261  0.47827680  1
  Ni  Ni209  1  -0.00902653  0.37641330  0.32826527  1
  Ni  Ni210  1  0.49437349  0.49789111  0.78551208  1
  Ni  Ni211  1  0.80521231  0.07856536  0.64780315  1
  Ni  Ni212  1  0.69079780  0.32278618  0.58612261  1
  Ni  Ni213  1  0.65885308  0.40331319  0.05530744  1
  Ni  Ni214  1  0.21543628  0.53748086  0.66723890  1
