# generated using pymatgen
data_Ti108Co54Ni53
_symmetry_space_group_name_H-M   'P 1'
_cell_length_a   14.65647032
_cell_length_b   14.67593935
_cell_length_c   14.68402935
_cell_angle_alpha   90.13420958
_cell_angle_beta   89.49413208
_cell_angle_gamma   90.13266262
_symmetry_Int_Tables_number   1
_chemical_formula_structural   Ti108Co54Ni53
_chemical_formula_sum   'Ti108 Co54 Ni53'
_cell_volume   3158.35746705
_cell_formula_units_Z   1
loop_
 _symmetry_equiv_pos_site_id
 _symmetry_equiv_pos_as_xyz
  1  'x, y, z'
loop_
 _atom_site_type_symbol
 _atom_site_label
 _atom_site_symmetry_multiplicity
 _atom_site_fract_x
 _atom_site_fract_y
 _atom_site_fract_z
 _atom_site_occupancy
  Ti  Ti0  1  0.07518655  0.03868034  0.22107942  1
  Ti  Ti1  1  0.18427106  0.08799748  0.51846222  1
  Ti  Ti2  1  0.10122020  0.14806388  0.96087324  1
  Ti  Ti3  1  0.11264182  0.36244435  0.29528066  1
  Ti  Ti4  1  0.07628802  0.46695177  0.59099815  1
  Ti  Ti5  1  0.06182271  0.30249194  0.86183041  1
  Ti  Ti6  1  0.04440251  0.78160526  0.24788257  1
  Ti  Ti7  1  0.07497717  0.83841548  0.55781807  1
  Ti  Ti8  1  0.12774037  0.70060427  0.97685384  1
  Ti  Ti9  1  0.39183607  0.04391165  0.24093280  1
  Ti  Ti10  1  0.41105530  0.05952517  0.55710170  1
  Ti  Ti11  1  0.45420360  0.05917065  0.88873904  1
  Ti  Ti12  1  0.46302577  0.42220504  0.24361828  1
  Ti  Ti13  1  0.41536650  0.46051001  0.52665058  1
  Ti  Ti14  1  0.48141968  0.45024097  0.93111591  1
  Ti  Ti15  1  0.38324645  0.73199163  0.23347459  1
  Ti  Ti16  1  0.36728301  0.69155629  0.54303838  1
  Ti  Ti17  1  0.44736451  0.79559250  0.89974958  1
  Ti  Ti18  1  0.68416436  0.11017360  0.22661072  1
  Ti  Ti19  1  0.72824291  0.01201214  0.55218344  1
  Ti  Ti20  1  0.77338438  0.06937910  0.91554362  1
  Ti  Ti21  1  0.73394139  0.40118231  0.30807345  1
  Ti  Ti22  1  0.74838932  0.39019480  0.56523346  1
  Ti  Ti23  1  0.71692952  0.47619719  0.97898116  1
  Ti  Ti24  1  0.73754820  0.72473896  0.34586356  1
  Ti  Ti25  1  0.69606799  0.71888462  0.56816325  1
  Ti  Ti26  1  0.75454097  0.81603046  0.95825305  1
  Ti  Ti27  1  0.05292595  0.23286025  0.14912322  1
  Ti  Ti28  1  0.08900341  0.17951104  0.36870097  1
  Ti  Ti29  1  0.14076766  0.16715126  0.74569386  1
  Ti  Ti30  1  0.04515855  0.50986839  0.04128591  1
  Ti  Ti31  1  0.11274054  0.53977951  0.40375316  1
  Ti  Ti32  1  -0.01473452  0.60366271  0.73631960  1
  Ti  Ti33  1  0.09341049  0.97573108  0.02118104  1
  Ti  Ti34  1  0.08131586  0.92095085  0.38932897  1
  Ti  Ti35  1  0.10898236  0.81438379  0.73959857  1
  Ti  Ti36  1  0.43313919  0.31317977  0.08201700  1
  Ti  Ti37  1  0.47564337  0.26323976  0.49437866  1
  Ti  Ti38  1  0.40342075  0.30772787  0.74806735  1
  Ti  Ti39  1  0.36906473  0.60165874  0.04194872  1
  Ti  Ti40  1  0.41565604  0.58966025  0.37072661  1
  Ti  Ti41  1  0.36257883  0.60950904  0.82685556  1
  Ti  Ti42  1  0.43535264  0.91807196  0.08027461  1
  Ti  Ti43  1  0.48329939  0.92941555  0.40044441  1
  Ti  Ti44  1  0.41380390  0.89201679  0.67817463  1
  Ti  Ti45  1  0.73043115  0.25412575  -0.00314240  1
  Ti  Ti46  1  0.71789868  0.17959417  0.44333014  1
  Ti  Ti47  1  0.73863773  0.35251788  0.81861924  1
  Ti  Ti48  1  0.73372588  0.65308038  0.02936437  1
  Ti  Ti49  1  0.80596270  0.55957358  0.47648393  1
  Ti  Ti50  1  0.77331964  0.54247563  0.71693196  1
  Ti  Ti51  1  0.75816083  0.96234735  0.09276723  1
  Ti  Ti52  1  0.81129650  0.89301567  0.41044645  1
  Ti  Ti53  1  0.75783284  0.81804357  0.75136505  1
  Ti  Ti54  1  0.24578580  0.04073345  0.11685424  1
  Ti  Ti55  1  0.31193709  0.18511240  0.35064220  1
  Ti  Ti56  1  0.24797293  0.05579206  0.84929184  1
  Ti  Ti57  1  0.23710554  0.38300684  -0.00969087  1
  Ti  Ti58  1  0.28398217  0.44388061  0.38175324  1
  Ti  Ti59  1  0.26705206  0.44839237  0.70128981  1
  Ti  Ti60  1  0.22531742  0.73030577  0.13884332  1
  Ti  Ti61  1  0.31236394  0.81648904  0.40089225  1
  Ti  Ti62  1  0.29798698  0.78512502  0.77550636  1
  Ti  Ti63  1  0.60688108  0.09074638  0.02712875  1
  Ti  Ti64  1  0.52585324  0.10660393  0.37628644  1
  Ti  Ti65  1  0.56924269  0.05688147  0.68336317  1
  Ti  Ti66  1  0.62109253  0.39487993  0.12518991  1
  Ti  Ti67  1  0.56975795  0.45106818  0.41140421  1
  Ti  Ti68  1  0.49024470  0.46661160  0.73770557  1
  Ti  Ti69  1  0.64981355  0.77808802  0.15954812  1
  Ti  Ti70  1  0.54477816  0.74342503  0.34055331  1
  Ti  Ti71  1  0.56727865  0.79134020  0.73722824  1
  Ti  Ti72  1  0.93136047  0.08019138  0.08619287  1
  Ti  Ti73  1  0.87635112  0.08351926  0.39504182  1
  Ti  Ti74  1  0.97179046  -0.03854476  0.75780705  1
  Ti  Ti75  1  0.85534842  0.38747146  0.08996855  1
  Ti  Ti76  1  0.92099635  0.46216446  0.32501924  1
  Ti  Ti77  1  0.92588354  0.39425045  0.74536125  1
  Ti  Ti78  1  0.93532015  0.71246377  0.03823110  1
  Ti  Ti79  1  0.95540452  0.65230024  0.37143252  1
  Ti  Ti80  1  0.91713461  0.75579200  0.84254024  1
  Ti  Ti81  1  0.28174163  0.32330281  0.21726802  1
  Ti  Ti82  1  0.18891372  0.29224742  0.59872468  1
  Ti  Ti83  1  0.31266122  0.17965595  0.98322787  1
  Ti  Ti84  1  0.24007554  0.54588590  0.22476304  1
  Ti  Ti85  1  0.17018044  0.65660846  0.55018618  1
  Ti  Ti86  1  0.18039472  0.52508538  0.87777368  1
  Ti  Ti87  1  0.23070686  0.99338663  0.31836098  1
  Ti  Ti88  1  0.22602294  0.96772342  0.68318353  1
  Ti  Ti89  1  0.21331146  0.87653143  0.90889387  1
  Ti  Ti90  1  0.59576203  0.27469711  0.29432104  1
  Ti  Ti91  1  0.60276565  0.26615483  0.65619700  1
  Ti  Ti92  1  0.51123991  0.22878192  0.92276126  1
  Ti  Ti93  1  0.60744136  0.57780432  0.22418488  1
  Ti  Ti94  1  0.54557363  0.60552703  0.63851553  1
  Ti  Ti95  1  0.55409686  0.62716812  0.97679408  1
  Ti  Ti96  1  0.63190369  0.92667377  0.28278761  1
  Ti  Ti97  1  0.52776676  0.80221060  0.54858859  1
  Ti  Ti98  1  0.61957478  0.92137451  0.91631997  1
  Ti  Ti99  1  0.91518844  0.28990070  0.28341145  1
  Ti  Ti100  1  0.93825007  0.33284887  0.55884171  1
  Ti  Ti101  1  0.91591798  0.21613132  0.96007350  1
  Ti  Ti102  1  0.92822717  0.59324996  0.19414156  1
  Ti  Ti103  1  0.97403897  0.66411172  0.55823976  1
  Ti  Ti104  1  0.87474048  0.53929351  0.89312109  1
  Ti  Ti105  1  0.94073991  0.90634705  0.16109152  1
  Ti  Ti106  1  0.86898993  0.86186613  0.58999490  1
  Ti  Ti107  1  0.91537125  0.90602646  0.97495680  1
  Co  Co108  1  0.82129278  0.80229772  0.10757316  1
  Co  Co109  1  0.55405074  0.40293626  0.57554924  1
  Co  Co110  1  0.37154056  0.31331087  -0.08506500  1
  Co  Co111  1  0.50072285  0.49980713  0.09003559  1
  Co  Co112  1  0.26190106  0.64301793  0.39870732  1
  Co  Co113  1  0.13056830  0.65095187  0.28681728  1
  Co  Co114  1  0.38787240  0.76556584  0.06156824  1
  Co  Co115  1  0.06667446  0.51651611  0.24234510  1
  Co  Co116  1  0.34528840  0.02877782  0.41813444  1
  Co  Co117  1  0.39930725  0.05020147  0.72959796  1
  Co  Co118  1  -0.06492331  -0.05658185  0.31728863  1
  Co  Co119  1  0.32908432  0.18148570  0.15389129  1
  Co  Co120  1  0.44028013  0.10937990  0.06062763  1
  Co  Co121  1  0.01473603  0.62603001  -0.10609679  1
  Co  Co122  1  0.86540208  0.55601393  0.05075954  1
  Co  Co123  1  0.78989446  0.56084868  0.31009295  1
  Co  Co124  1  0.14605255  -0.09698032  0.18700923  1
  Co  Co125  1  0.67444170  -0.12031382  0.61969060  1
  Co  Co126  1  -0.03926406  0.78089422  0.68924835  1
  Co  Co127  1  0.07979170  0.64749355  0.13147444  1
  Co  Co128  1  0.57956574  0.13634921  0.53658738  1
  Co  Co129  1  0.10394527  0.73105046  0.42273503  1
  Co  Co130  1  0.35521867  0.93121695  0.83051972  1
  Co  Co131  1  0.63131309  0.49644481  0.84582712  1
  Co  Co132  1  0.20921511  0.55983950  0.05152055  1
  Co  Co133  1  0.00083174  0.14690558  0.81616874  1
  Co  Co134  1  0.24919219  0.86446178  0.05881020  1
  Co  Co135  1  0.56012018  -0.02759585  0.53711138  1
  Co  Co136  1  0.19413582  0.15806996  0.23851248  1
  Co  Co137  1  0.66522487  0.02386943  0.40595425  1
  Co  Co138  1  -0.05432822  0.04833322  -0.07907786  1
  Co  Co139  1  0.09546719  0.00330497  0.84534926  1
  Co  Co140  1  0.41500415  0.57297247  0.21040224  1
  Co  Co141  1  0.63063426  0.74652609  0.88072489  1
  Co  Co142  1  0.42612912  0.71319800  0.70043063  1
  Co  Co143  1  0.87915695  0.23052967  0.13264218  1
  Co  Co144  1  0.44862412  0.18886406  0.64824462  1
  Co  Co145  1  0.67243836  0.66382140  0.73286326  1
  Co  Co146  1  -0.00055413  0.32707202  0.41675177  1
  Co  Co147  1  0.33209889  0.45287653  0.85051335  1
  Co  Co148  1  0.35230700  0.33039950  0.59531212  1
  Co  Co149  1  0.56788876  0.22680887  0.10900422  1
  Co  Co150  1  0.83247787  0.68553961  0.66280268  1
  Co  Co151  1  0.83354645  0.04406259  0.22688283  1
  Co  Co152  1  0.78463188  0.20942952  0.30105760  1
  Co  Co153  1  0.82324742  -0.06632558  0.84568370  1
  Co  Co154  1  0.77198954  0.12483433  0.08139506  1
  Co  Co155  1  0.56122179  0.78521408  0.02110684  1
  Co  Co156  1  0.57184159  0.33643336  0.80210194  1
  Co  Co157  1  0.34382725  0.18013873  0.81705629  1
  Co  Co158  1  -0.03785068  0.80961407  0.42572935  1
  Co  Co159  1  0.16113332  0.41222991  0.13652860  1
  Co  Co160  1  0.51539456  0.67885350  0.13745517  1
  Co  Co161  1  0.31203594  0.89100161  0.20903807  1
  Ni  Ni162  1  0.77328101  0.66483961  0.85794199  1
  Ni  Ni163  1  0.13591724  0.55608937  0.71671292  1
  Ni  Ni164  1  0.22975111  0.31286808  0.82070880  1
  Ni  Ni165  1  0.37578529  0.56124884  0.64467008  1
  Ni  Ni166  1  0.88249828  0.77130633  0.27248601  1
  Ni  Ni167  1  0.64765034  0.59326782  0.38643384  1
  Ni  Ni168  1  0.83560544  0.72826363  0.48730065  1
  Ni  Ni169  1  0.06837880  0.81873028  0.07352020  1
  Ni  Ni170  1  0.63724902  0.30958699  0.46571825  1
  Ni  Ni171  1  0.10857658  0.38706433  0.73080145  1
  Ni  Ni172  1  0.07629846  -0.00556220  0.60853410  1
  Ni  Ni173  1  0.04931835  0.84332003  0.90370936  1
  Ni  Ni174  1  0.28145246  0.13833006  0.65950047  1
  Ni  Ni175  1  0.19642421  0.24863577  0.08270292  1
  Ni  Ni176  1  0.52946564  0.64263552  0.48062437  1
  Ni  Ni177  1  -0.03702957  0.49252842  0.47435586  1
  Ni  Ni178  1  0.24762433  0.80701191  0.60788966  1
  Ni  Ni179  1  0.95469141  -0.03465186  0.48891732  1
  Ni  Ni180  1  0.32922360  -0.00374700  -0.01669492  1
  Ni  Ni181  1  0.72131171  0.27106402  0.16709301  1
  Ni  Ni182  1  0.20297160  0.79489602  0.29593664  1
  Ni  Ni183  1  -0.04577379  0.13657049  0.25875837  1
  Ni  Ni184  1  0.65382313  0.43630314  0.69421399  1
  Ni  Ni185  1  0.14625223  0.37186598  0.46148488  1
  Ni  Ni186  1  0.90478197  0.50690530  0.62157672  1
  Ni  Ni187  1  0.45239595  0.22068451  0.24371342  1
  Ni  Ni188  1  0.33408592  0.45266247  0.11622755  1
  Ni  Ni189  1  0.66149079  0.19595673  0.84975833  1
  Ni  Ni190  1  0.82476203  0.32294442  0.42803350  1
  Ni  Ni191  1  0.28736431  0.71206179  -0.05934586  1
  Ni  Ni192  1  0.74899884  0.50542942  0.15683954  1
  Ni  Ni193  1  0.61226814  0.35297190  -0.04471980  1
  Ni  Ni194  1  0.25857409  0.65667152  0.68603891  1
  Ni  Ni195  1  0.05067895  0.34074095  0.01915327  1
  Ni  Ni196  1  0.52700436  0.62664828  0.81222019  1
  Ni  Ni197  1  0.53959859  0.04847287  0.18173091  1
  Ni  Ni198  1  0.31320463  0.19809172  0.51172680  1
  Ni  Ni199  1  0.78360184  0.89039978  0.24439918  1
  Ni  Ni200  1  0.64813277  0.85577494  0.44462331  1
  Ni  Ni201  1  0.02497721  0.46445473  0.86376449  1
  Ni  Ni202  1  0.40768420  0.33361998  0.36640030  1
  Ni  Ni203  1  0.88595097  0.36980943  0.91330385  1
  Ni  Ni204  1  0.21740137  -0.07121202  0.49936989  1
  Ni  Ni205  1  0.05819920  0.21285271  0.52907356  1
  Ni  Ni206  1  0.65682597  0.53306429  0.54512852  1
  Ni  Ni207  1  -0.00448455  0.39446927  0.16854344  1
  Ni  Ni208  1  0.16357250  0.68312457  0.81923934  1
  Ni  Ni209  1  0.47653737  0.87798040  0.23981233  1
  Ni  Ni210  1  0.37604727  0.89301712  0.52620923  1
  Ni  Ni211  1  0.77861787  0.66716919  0.18913505  1
  Ni  Ni212  1  0.24279981  0.49824420  0.53714622  1
  Ni  Ni213  1  0.60237962  -0.07660038  0.09367939  1
  Ni  Ni214  1  0.51963840  -0.05612999  0.79368397  1
