# generated using pymatgen
data_Ti108Co54Ni53
_symmetry_space_group_name_H-M   'P 1'
_cell_length_a   14.65827045
_cell_length_b   14.67443678
_cell_length_c   14.64772750
_cell_angle_alpha   89.91941900
_cell_angle_beta   90.12908309
_cell_angle_gamma   89.79616097
_symmetry_Int_Tables_number   1
_chemical_formula_structural   Ti108Co54Ni53
_chemical_formula_sum   'Ti108 Co54 Ni53'
_cell_volume   3150.72238808
_cell_formula_units_Z   1
loop_
 _symmetry_equiv_pos_site_id
 _symmetry_equiv_pos_as_xyz
  1  'x, y, z'
loop_
 _atom_site_type_symbol
 _atom_site_label
 _atom_site_symmetry_multiplicity
 _atom_site_fract_x
 _atom_site_fract_y
 _atom_site_fract_z
 _atom_site_occupancy
  Ti  Ti0  1  0.05001396  0.12043405  0.21917057  1
  Ti  Ti1  1  0.04074901  0.03492469  0.54201535  1
  Ti  Ti2  1  0.07373625  0.07171499  0.89876744  1
  Ti  Ti3  1  0.06843804  0.43738004  0.27857977  1
  Ti  Ti4  1  0.08556952  0.37993297  0.60251236  1
  Ti  Ti5  1  0.07909227  0.45088132  0.94078259  1
  Ti  Ti6  1  0.07625141  0.72220021  0.30938182  1
  Ti  Ti7  1  0.07804155  0.68933571  0.62017878  1
  Ti  Ti8  1  0.05958218  0.81825134  0.89836074  1
  Ti  Ti9  1  0.45398340  0.10857022  0.18944828  1
  Ti  Ti10  1  0.38602359  0.08695471  0.70785584  1
  Ti  Ti11  1  0.42384159  0.08387367  0.99685247  1
  Ti  Ti12  1  0.35546991  0.40428554  0.19891143  1
  Ti  Ti13  1  0.40674573  0.41933400  0.53822272  1
  Ti  Ti14  1  0.45823068  0.41959964  0.98138438  1
  Ti  Ti15  1  0.37617198  0.71272183  0.27316807  1
  Ti  Ti16  1  0.39653157  0.70210257  0.63473905  1
  Ti  Ti17  1  0.43247534  0.69689061  0.94183630  1
  Ti  Ti18  1  0.78925425  0.08254948  0.24157564  1
  Ti  Ti19  1  0.70280444  0.06753583  0.57522974  1
  Ti  Ti20  1  0.74474189  0.09423298  0.91325453  1
  Ti  Ti21  1  0.74906347  0.39521372  0.25871470  1
  Ti  Ti22  1  0.69807565  0.43151206  0.60775651  1
  Ti  Ti23  1  0.78919012  0.45050628  0.92394424  1
  Ti  Ti24  1  0.77536353  0.76181113  0.18467744  1
  Ti  Ti25  1  0.79157340  0.74726775  0.65181123  1
  Ti  Ti26  1  0.72158161  0.78827212  0.97033797  1
  Ti  Ti27  1  0.01268304  0.32551301  0.09013397  1
  Ti  Ti28  1  0.12321402  0.20624069  0.46058139  1
  Ti  Ti29  1  0.12934349  0.25042108  0.73800087  1
  Ti  Ti30  1  0.05310702  0.61372146  0.13722820  1
  Ti  Ti31  1  0.10315765  0.54671375  0.45001964  1
  Ti  Ti32  1  0.11335157  0.51513446  0.77185318  1
  Ti  Ti33  1  0.05592968  0.82420600  0.09245154  1
  Ti  Ti34  1  0.14329443  0.89749722  0.43520751  1
  Ti  Ti35  1  0.10806664  0.95398846  0.71480040  1
  Ti  Ti36  1  0.37450017  0.25846948  0.07501575  1
  Ti  Ti37  1  0.47036244  0.25059381  0.35398397  1
  Ti  Ti38  1  0.45486153  0.27603083  0.70055344  1
  Ti  Ti39  1  0.36899901  0.56133048  0.05677132  1
  Ti  Ti40  1  0.39783133  0.53536705  0.36884235  1
  Ti  Ti41  1  0.42756917  0.53624337  0.74389726  1
  Ti  Ti42  1  0.35890481  0.91227025  0.10862135  1
  Ti  Ti43  1  0.38029177  0.92160879  0.30582283  1
  Ti  Ti44  1  0.46548131  0.85900453  0.77043669  1
  Ti  Ti45  1  0.76739768  0.25045204  0.10864832  1
  Ti  Ti46  1  0.78398958  0.27540003  0.44313841  1
  Ti  Ti47  1  0.79963254  0.22820291  0.76716180  1
  Ti  Ti48  1  0.72683952  0.58427348  0.06195306  1
  Ti  Ti49  1  0.78410163  0.47318135  0.43898167  1
  Ti  Ti50  1  0.77506365  0.55934089  0.75415956  1
  Ti  Ti51  1  0.72632014  0.95954909  0.06042788  1
  Ti  Ti52  1  0.79553965  0.90329410  0.48478491  1
  Ti  Ti53  1  0.67011934  0.90213657  0.75858217  1
  Ti  Ti54  1  0.24390688  0.08945465  0.09834058  1
  Ti  Ti55  1  0.25053521  0.04780139  0.44694605  1
  Ti  Ti56  1  0.22388953  0.08842461  0.78094374  1
  Ti  Ti57  1  0.24670208  0.40361725  0.01751493  1
  Ti  Ti58  1  0.30137311  0.34324370  0.38604703  1
  Ti  Ti59  1  0.27406155  0.42542153  0.70319649  1
  Ti  Ti60  1  0.24708323  0.73504305  0.05617418  1
  Ti  Ti61  1  0.32405250  0.79345810  0.45019015  1
  Ti  Ti62  1  0.21458875  0.79354883  0.73641632  1
  Ti  Ti63  1  0.63374963  0.11323025  0.12148550  1
  Ti  Ti64  1  0.47388429  0.08335981  0.42527944  1
  Ti  Ti65  1  0.56875117  0.09869291  0.77042785  1
  Ti  Ti66  1  0.63447524  0.34737779  -0.00685514  1
  Ti  Ti67  1  0.58419438  0.42974833  0.43633713  1
  Ti  Ti68  1  0.65429273  0.36997371  0.78706676  1
  Ti  Ti69  1  0.55797559  0.68815711  0.13169456  1
  Ti  Ti70  1  0.59191983  0.92703446  0.44416997  1
  Ti  Ti71  1  0.58488342  0.73953794  0.67142210  1
  Ti  Ti72  1  0.91586814  -0.03075161  0.16146907  1
  Ti  Ti73  1  0.92408627  0.00899944  0.37351153  1
  Ti  Ti74  1  0.89344945  0.06635138  0.70992385  1
  Ti  Ti75  1  0.93345501  0.52179795  0.01790368  1
  Ti  Ti76  1  0.97462706  0.34906287  0.44816205  1
  Ti  Ti77  1  0.87668755  0.38768782  0.73521202  1
  Ti  Ti78  1  0.90875683  0.71218412  0.00763589  1
  Ti  Ti79  1  0.96954869  0.81981784  0.45683210  1
  Ti  Ti80  1  0.85331837  0.80954924  0.82529067  1
  Ti  Ti81  1  0.18366602  0.28324531  0.18118373  1
  Ti  Ti82  1  0.27387820  0.25431841  0.58886658  1
  Ti  Ti83  1  0.22442479  0.20868665  0.94041431  1
  Ti  Ti84  1  0.24605157  0.55078319  0.20180134  1
  Ti  Ti85  1  0.28369701  0.59858657  0.52036637  1
  Ti  Ti86  1  0.25130484  0.60317549  0.88395478  1
  Ti  Ti87  1  0.20613353  0.99891779  0.26395596  1
  Ti  Ti88  1  0.35262586  0.88885717  0.62126885  1
  Ti  Ti89  1  0.35007283  0.88487734  0.91978707  1
  Ti  Ti90  1  0.58905648  0.29470992  0.20355526  1
  Ti  Ti91  1  0.60450291  0.25832811  0.53790391  1
  Ti  Ti92  1  0.49960307  0.24645725  0.89105949  1
  Ti  Ti93  1  0.59526759  0.51623770  0.23369811  1
  Ti  Ti94  1  0.52533423  0.57286745  0.56204119  1
  Ti  Ti95  1  0.60708181  0.53480919  0.89163161  1
  Ti  Ti96  1  0.58621303  0.95602749  0.25546531  1
  Ti  Ti97  1  0.52661409  0.97104509  0.61578539  1
  Ti  Ti98  1  0.57140522  0.94834387  0.93215901  1
  Ti  Ti99  1  0.90652183  0.26978824  0.26963319  1
  Ti  Ti100  1  0.95598181  0.21946606  0.60561123  1
  Ti  Ti101  1  0.92492096  0.19422775  0.96541725  1
  Ti  Ti102  1  0.91738512  0.58946939  0.30003117  1
  Ti  Ti103  1  0.96648656  0.52996357  0.64392516  1
  Ti  Ti104  1  0.96017341  0.64893766  0.82016367  1
  Ti  Ti105  1  1.04639822  0.90165580  0.27099321  1
  Ti  Ti106  1  0.93446032  0.88387269  0.63307674  1
  Ti  Ti107  1  0.90944608  0.95520328  0.95902927  1
  Co  Co108  1  0.29633833  0.25888061  0.75564479  1
  Co  Co109  1  0.81792706  0.09237932  0.05986025  1
  Co  Co110  1  0.10824999  0.45365077  0.12071271  1
  Co  Co111  1  0.30324210  -0.05673872  0.76635651  1
  Co  Co112  1  0.43936485  0.01149298  0.84445843  1
  Co  Co113  1  0.91980330  0.69097735  0.58595648  1
  Co  Co114  1  0.81997275  0.54768831  0.58740501  1
  Co  Co115  1  0.64505486  0.23405740  0.68895428  1
  Co  Co116  1  0.73834692  0.22685403  0.27825609  1
  Co  Co117  1  0.63281525  0.29069683  0.37440303  1
  Co  Co118  1  0.31954225  0.19420550  0.42470287  1
  Co  Co119  1  0.23844033  0.75354539  0.58369803  1
  Co  Co120  1  0.10450279  -0.00861216  0.12425372  1
  Co  Co121  1  -0.05998450  0.46397783  0.17356823  1
  Co  Co122  1  0.39720895  0.72403658  0.11056128  1
  Co  Co123  1  0.63014180  0.11738879  0.44201254  1
  Co  Co124  1  0.85387776  0.36956305  0.06222447  1
  Co  Co125  1  0.53036907  0.23635777  0.06203341  1
  Co  Co126  1  0.75067530  -0.08208534  0.21685364  1
  Co  Co127  1  0.87668607  0.86598591  0.31266728  1
  Co  Co128  1  0.68673653  0.43313252  0.11121002  1
  Co  Co129  1  0.03542156  0.37659825  0.77518137  1
  Co  Co130  1  0.72580888  -0.01820484  0.36254931  1
  Co  Co131  1  0.55838884  0.54069000  0.05763479  1
  Co  Co132  1  0.44160373  0.56703593  0.20163316  1
  Co  Co133  1  0.85975375  0.84653951  0.07086551  1
  Co  Co134  1  -0.02132043  0.95100424  0.81062881  1
  Co  Co135  1  0.65258076  0.21600986  0.85054472  1
  Co  Co136  1  0.11933962  0.67605515  0.80069360  1
  Co  Co137  1  -0.06286806  0.50067985  0.83664889  1
  Co  Co138  1  0.10492028  0.17650991  0.05569209  1
  Co  Co139  1  0.05017728  0.10274465  0.72195615  1
  Co  Co140  1  0.87937083  0.04603282  0.54341928  1
  Co  Co141  1  0.78712977  0.93874936  0.65396748  1
  Co  Co142  1  -0.07458850  0.18309158  0.13647638  1
  Co  Co143  1  0.59805473  0.53401985  0.72854066  1
  Co  Co144  1  0.72420014  0.08454839  0.73833345  1
  Co  Co145  1  0.08336095  0.05959094  0.37562390  1
  Co  Co146  1  0.28128820  0.03679612  -0.06471715  1
  Co  Co147  1  0.19103143  0.56836999  0.04173460  1
  Co  Co148  1  0.49974474  0.41165135  0.81781002  1
  Co  Co149  1  0.34214395  0.47537697  0.87601720  1
  Co  Co150  1  0.79245539  0.20291234  0.60060884  1
  Co  Co151  1  0.52594886  0.13217782  0.60440786  1
  Co  Co152  1  0.36993848  0.15810391  0.85412541  1
  Co  Co153  1  -0.01188679  0.06419111  0.04548879  1
  Co  Co154  1  0.24772541  0.65240195  0.36390345  1
  Co  Co155  1  0.49000362  0.82278848  0.36787458  1
  Co  Co156  1  0.22662279  0.81939162  0.32362214  1
  Co  Co157  1  -0.05834839  0.50931418  0.47914933  1
  Co  Co158  1  0.06470901  0.26757019  0.30875312  1
  Co  Co159  1  0.50234663  0.40907142  0.13269816  1
  Co  Co160  1  0.13560851  0.73013255  0.46049054  1
  Co  Co161  1  0.43142158  0.67133648  0.45094314  1
  Ni  Ni162  1  0.79695426  0.11656762  0.41697762  1
  Ni  Ni163  1  0.36350691  0.09416377  0.55326868  1
  Ni  Ni164  1  0.78148774  0.28249257  -0.07243748  1
  Ni  Ni165  1  0.79604504  0.63107127  -0.08945095  1
  Ni  Ni166  1  0.58456678  0.11184363  -0.03696390  1
  Ni  Ni167  1  0.33406092  0.23559706  0.24103952  1
  Ni  Ni168  1  0.13753769  0.36833310  0.42232225  1
  Ni  Ni169  1  0.68317575  0.62082678  0.62249128  1
  Ni  Ni170  1  0.23031104  0.48889627  0.35491308  1
  Ni  Ni171  1  0.53595489  0.40804990  0.64050277  1
  Ni  Ni172  1  0.34542288  0.08642127  0.30357264  1
  Ni  Ni173  1  0.41321846  -0.05987308  0.47507721  1
  Ni  Ni174  1  -0.03406065  0.22410155  0.79342407  1
  Ni  Ni175  1  -0.01884548  0.65933952  0.43828278  1
  Ni  Ni176  1  0.86520781  0.37976316  0.57100767  1
  Ni  Ni177  1  0.20602328  0.90727606  0.01875633  1
  Ni  Ni178  1  0.19552015  0.70166644  0.20611684  1
  Ni  Ni179  1  0.59322615  0.13463126  0.28768553  1
  Ni  Ni180  1  0.52761218  -0.02459041  0.09486464  1
  Ni  Ni181  1  0.49525288  0.80920856  0.54056785  1
  Ni  Ni182  1  0.69371158  0.69869762  0.79899982  1
  Ni  Ni183  1  0.24149036  0.42906554  0.52844615  1
  Ni  Ni184  1  0.07516795  0.66359778  -0.03068898  1
  Ni  Ni185  1  0.35102065  0.31174071  -0.10205995  1
  Ni  Ni186  1  0.07537168  0.27466896  -0.08514741  1
  Ni  Ni187  1  0.01038610  0.79329517  0.74162712  1
  Ni  Ni188  1  0.86743824  0.61499463  0.14583590  1
  Ni  Ni189  1  0.25910476  0.62110209  0.70431520  1
  Ni  Ni190  1  0.93121581  0.35550701  0.91243252  1
  Ni  Ni191  1  0.43296427  0.25220802  0.52473990  1
  Ni  Ni192  1  0.17484375  0.12492172  0.61107066  1
  Ni  Ni193  1  0.15033508  0.53350284  0.61467659  1
  Ni  Ni194  1  0.62961498  0.84174500  0.12530115  1
  Ni  Ni195  1  0.65879014  0.86272258  0.58511990  1
  Ni  Ni196  1  0.20283469  0.37516917  0.85068401  1
  Ni  Ni197  1  0.22139034  -0.03076148  0.59462532  1
  Ni  Ni198  1  0.35725483  0.72667967  0.79738718  1
  Ni  Ni199  1  0.48249427  0.83466292  0.19742480  1
  Ni  Ni200  1  0.51884337  0.66337538  0.80137778  1
  Ni  Ni201  1  0.48461513  0.40971195  0.30340058  1
  Ni  Ni202  1  -0.05488746  0.75546590  0.19708049  1
  Ni  Ni203  1  -0.04402917  0.17359987  0.43124279  1
  Ni  Ni204  1  0.09736917  0.85027869  0.58441981  1
  Ni  Ni205  1  0.49810117  0.82521530  0.02458054  1
  Ni  Ni206  1  0.20252703  0.86146462  0.17258106  1
  Ni  Ni207  1  0.58191740  0.79962436  0.86702836  1
  Ni  Ni208  1  0.22269272  0.77447782  -0.09741535  1
  Ni  Ni209  1  0.66249722  0.57225140  0.47077219  1
  Ni  Ni210  1  0.17399509  -0.06610459  0.86386189  1
  Ni  Ni211  1  0.19859023  0.16777112  0.31070524  1
  Ni  Ni212  1  0.89809503  0.42827827  0.32752364  1
  Ni  Ni213  1  0.81052226  -0.03192769  0.81928887  1
  Ni  Ni214  1  0.60210355  0.67667042  -0.03272921  1
