# generated using pymatgen
data_Ti108Co54Ni53
_symmetry_space_group_name_H-M   'P 1'
_cell_length_a   14.60024424
_cell_length_b   14.58684859
_cell_length_c   14.63688231
_cell_angle_alpha   90.20438701
_cell_angle_beta   89.89567665
_cell_angle_gamma   90.13781505
_symmetry_Int_Tables_number   1
_chemical_formula_structural   Ti108Co54Ni53
_chemical_formula_sum   'Ti108 Co54 Ni53'
_cell_volume   3117.20557340
_cell_formula_units_Z   1
loop_
 _symmetry_equiv_pos_site_id
 _symmetry_equiv_pos_as_xyz
  1  'x, y, z'
loop_
 _atom_site_type_symbol
 _atom_site_label
 _atom_site_symmetry_multiplicity
 _atom_site_fract_x
 _atom_site_fract_y
 _atom_site_fract_z
 _atom_site_occupancy
  Ti  Ti0  1  -0.01036229  0.05503558  0.21294877  1
  Ti  Ti1  1  0.15894184  0.08308769  0.62444827  1
  Ti  Ti2  1  0.04132323  0.03550966  0.87509897  1
  Ti  Ti3  1  0.03858805  0.38581294  0.29609592  1
  Ti  Ti4  1  0.06158648  0.39203832  0.64426931  1
  Ti  Ti5  1  0.06110853  0.41462877  0.93777739  1
  Ti  Ti6  1  0.00911113  0.75089405  0.31655438  1
  Ti  Ti7  1  0.08816282  0.76310804  0.61687380  1
  Ti  Ti8  1  0.05270662  0.68718764  0.90448876  1
  Ti  Ti9  1  0.45322171  0.10875383  0.21490712  1
  Ti  Ti10  1  0.41639672  0.08972003  0.52385703  1
  Ti  Ti11  1  0.47071200  0.07185922  0.89211212  1
  Ti  Ti12  1  0.36219930  0.50396510  0.32454109  1
  Ti  Ti13  1  0.40744998  0.41151232  0.52626508  1
  Ti  Ti14  1  0.43124554  0.49338437  0.89366188  1
  Ti  Ti15  1  0.36583228  0.68598883  0.26002243  1
  Ti  Ti16  1  0.42619898  0.78063420  0.59906516  1
  Ti  Ti17  1  0.44683054  0.74686045  0.94765097  1
  Ti  Ti18  1  0.77942763  0.06404849  0.23059291  1
  Ti  Ti19  1  0.78165448  0.13356774  0.53174530  1
  Ti  Ti20  1  0.70902350  0.06676329  0.86842833  1
  Ti  Ti21  1  0.75546210  0.42360582  0.18948799  1
  Ti  Ti22  1  0.77504602  0.49300803  0.59398716  1
  Ti  Ti23  1  0.81108793  0.40067787  0.91170889  1
  Ti  Ti24  1  0.69223528  0.71091827  0.24905172  1
  Ti  Ti25  1  0.74501328  0.70436043  0.54690793  1
  Ti  Ti26  1  0.75729849  0.74237512  0.84887486  1
  Ti  Ti27  1  0.12915478  0.15337040  0.13829803  1
  Ti  Ti28  1  0.10935786  0.23441828  0.44113713  1
  Ti  Ti29  1  0.08362827  0.23585287  0.78297748  1
  Ti  Ti30  1  0.15651081  0.64531020  0.07313359  1
  Ti  Ti31  1  0.16810398  0.50996443  0.37132495  1
  Ti  Ti32  1  0.11782366  0.54350327  0.78074106  1
  Ti  Ti33  1  0.01783136  0.93812834  0.06041555  1
  Ti  Ti34  1  0.05211122  0.93867224  0.38218943  1
  Ti  Ti35  1  0.06107103  0.92539499  0.71741886  1
  Ti  Ti36  1  0.29729552  0.22168240  0.06413816  1
  Ti  Ti37  1  0.38701385  0.23704488  0.38802883  1
  Ti  Ti38  1  0.42397418  0.17692494  0.75106192  1
  Ti  Ti39  1  0.37574485  0.60499007  0.07453419  1
  Ti  Ti40  1  0.40142342  0.64084834  0.47451532  1
  Ti  Ti41  1  0.43861630  0.63453472  0.75291116  1
  Ti  Ti42  1  0.40942812  0.95805422  0.05568011  1
  Ti  Ti43  1  0.45171901  0.96024009  0.38270287  1
  Ti  Ti44  1  0.40260672  0.96193013  0.70222248  1
  Ti  Ti45  1  0.71155145  0.21892557  -0.02361636  1
  Ti  Ti46  1  0.78301336  0.32020028  0.50106322  1
  Ti  Ti47  1  0.79933460  0.22714714  0.79816125  1
  Ti  Ti48  1  0.79716951  0.61026930  0.13740128  1
  Ti  Ti49  1  0.70035806  0.52609025  0.34240275  1
  Ti  Ti50  1  0.75020058  0.54488721  0.80579008  1
  Ti  Ti51  1  0.67930073  0.89919516  0.14288617  1
  Ti  Ti52  1  0.77070519  0.95137666  0.43740832  1
  Ti  Ti53  1  0.71502680  0.91021604  0.76096463  1
  Ti  Ti54  1  0.19010541  -0.00019184  0.05160985  1
  Ti  Ti55  1  0.17288214  0.07294743  0.33086481  1
  Ti  Ti56  1  0.25675678  0.03287267  0.82289999  1
  Ti  Ti57  1  0.24904584  0.42233760  0.07089610  1
  Ti  Ti58  1  0.20113338  0.37259855  0.51485925  1
  Ti  Ti59  1  0.33584138  0.34174408  0.76548543  1
  Ti  Ti60  1  0.24625533  0.81828059  0.14112403  1
  Ti  Ti61  1  0.17843153  0.79496948  0.46085681  1
  Ti  Ti62  1  0.28627665  0.80578719  0.74532270  1
  Ti  Ti63  1  0.59058541  0.06143798  0.07191451  1
  Ti  Ti64  1  0.60442715  0.06124786  0.50878364  1
  Ti  Ti65  1  0.59269527  0.04211041  0.69893030  1
  Ti  Ti66  1  0.64935019  0.41891230  0.03000034  1
  Ti  Ti67  1  0.59683506  0.39253895  0.47364594  1
  Ti  Ti68  1  0.59786951  0.44342211  0.72159018  1
  Ti  Ti69  1  0.65150581  0.70750164  0.03468542  1
  Ti  Ti70  1  0.52223860  0.76625544  0.38833724  1
  Ti  Ti71  1  0.61943618  0.74341628  0.70268489  1
  Ti  Ti72  1  0.86785003  0.12197742  0.07407698  1
  Ti  Ti73  1  0.93559707  0.12933883  0.38390747  1
  Ti  Ti74  1  0.85429887  0.04377237  0.70179402  1
  Ti  Ti75  1  0.96691004  0.40017612  0.11579005  1
  Ti  Ti76  1  0.87379609  0.44443902  0.39967035  1
  Ti  Ti77  1  0.91748641  0.48351674  0.73072051  1
  Ti  Ti78  1  0.96053736  0.75726267  0.09343097  1
  Ti  Ti79  1  0.86413518  0.63789166  0.40781319  1
  Ti  Ti80  1  0.94128793  0.77499254  0.75138453  1
  Ti  Ti81  1  0.23054527  0.25556466  0.27814029  1
  Ti  Ti82  1  0.33072792  0.24557478  0.58888271  1
  Ti  Ti83  1  0.22060180  0.30677555  0.90987433  1
  Ti  Ti84  1  0.17368789  0.66667046  0.27128041  1
  Ti  Ti85  1  0.16982752  0.58713793  0.58437485  1
  Ti  Ti86  1  0.27170631  0.65610215  0.87124064  1
  Ti  Ti87  1  0.31289791  0.96016548  0.23993093  1
  Ti  Ti88  1  0.27252271  0.96332126  0.49307425  1
  Ti  Ti89  1  0.28294115  0.87239009  0.94178927  1
  Ti  Ti90  1  0.63511701  0.21498715  0.27995447  1
  Ti  Ti91  1  0.65029143  0.27491626  0.63566444  1
  Ti  Ti92  1  0.51807719  0.26694434  0.93769553  1
  Ti  Ti93  1  0.53471773  0.59603507  0.25529812  1
  Ti  Ti94  1  0.51968703  0.54932487  0.59213861  1
  Ti  Ti95  1  0.58985813  0.62719763  0.85993726  1
  Ti  Ti96  1  0.61328316  0.97891280  0.29755540  1
  Ti  Ti97  1  0.62222221  0.86593990  0.54021007  1
  Ti  Ti98  1  0.67372242  0.90006741  0.95953591  1
  Ti  Ti99  1  0.85578864  0.26719921  0.23581692  1
  Ti  Ti100  1  0.97509147  0.20354091  0.57564924  1
  Ti  Ti101  1  0.94899410  0.24090278  0.95390369  1
  Ti  Ti102  1  1.00758207  0.58967698  0.19691504  1
  Ti  Ti103  1  0.97166623  0.56745167  0.55295816  1
  Ti  Ti104  1  0.86202449  0.64152363  0.96903458  1
  Ti  Ti105  1  0.81992693  0.85430317  0.25376158  1
  Ti  Ti106  1  0.91391857  0.89190994  0.57936682  1
  Ti  Ti107  1  0.86075123  0.89782261  0.96056081  1
  Co  Co108  1  0.40092673  0.79411216  0.11153900  1
  Co  Co109  1  0.82005207  0.78846378  0.40820934  1
  Co  Co110  1  0.49623105  0.34911615  0.80677417  1
  Co  Co111  1  0.01479291  0.63345206  0.69534497  1
  Co  Co112  1  0.22556327  0.91885383  0.65111132  1
  Co  Co113  1  0.10473915  0.27566189  0.01933502  1
  Co  Co114  1  0.44893960  0.78897601  0.77542955  1
  Co  Co115  1  0.40816528  0.91876452  0.86459072  1
  Co  Co116  1  0.00116762  0.05678919  0.64056885  1
  Co  Co117  1  0.00738117  0.55652845  0.35653400  1
  Co  Co118  1  0.21867675  0.41728309  0.24586440  1
  Co  Co119  1  0.74080731  -0.02164811  0.59966166  1
  Co  Co120  1  0.91332489  0.03306140  0.50906060  1
  Co  Co121  1  0.54439104  0.88522980  0.68627784  1
  Co  Co122  1  0.59613768  0.46503128  0.88776753  1
  Co  Co123  1  -0.02036759  0.88816581  0.21999319  1
  Co  Co124  1  0.66813403  0.55112543  0.50423880  1
  Co  Co125  1  0.13445602  -0.03898797  0.20326342  1
  Co  Co126  1  0.46638629  -0.07326320  0.53884563  1
  Co  Co127  1  0.24297389  0.14270922  0.48341988  1
  Co  Co128  1  0.66703587  0.83823767  0.35626171  1
  Co  Co129  1  0.11107246  0.47837600  0.12490961  1
  Co  Co130  1  0.74444366  0.03540209  0.03050738  1
  Co  Co131  1  0.29371880  0.36934652  0.38523970  1
  Co  Co132  1  0.69788985  0.09082004  0.37449827  1
  Co  Co133  1  0.55796560  0.79949412  0.22247411  1
  Co  Co134  1  0.91542384  0.72236089  0.57922206  1
  Co  Co135  1  0.12209465  0.31862985  0.16902583  1
  Co  Co136  1  0.64709481  0.22506743  0.45595952  1
  Co  Co137  1  0.31496457  0.06461388  -0.01850750  1
  Co  Co138  1  0.09349392  0.78400781  0.17614611  1
  Co  Co139  1  0.71014283  0.56539470  -0.02913265  1
  Co  Co140  1  0.49742527  -0.05029691  0.18853485  1
  Co  Co141  1  0.71897098  0.13438720  0.68687573  1
  Co  Co142  1  0.65583972  0.59648224  0.67526565  1
  Co  Co143  1  0.85841541  -0.05187035  0.12230786  1
  Co  Co144  1  0.82436611  0.63309578  0.67395089  1
  Co  Co145  1  0.02746600  0.10480879  0.02169036  1
  Co  Co146  1  0.48586907  0.32950335  0.64266339  1
  Co  Co147  1  0.87225190  0.69856072  0.25132583  1
  Co  Co148  1  0.49866121  0.25666592  0.49753798  1
  Co  Co149  1  0.66490823  0.67658170  0.40282991  1
  Co  Co150  1  0.28519510  0.72597096  0.01132983  1
  Co  Co151  1  0.35011143  0.19935978  0.89708620  1
  Co  Co152  1  0.08136866  0.07379931  0.47803573  1
  Co  Co153  1  0.00914763  0.85836040  0.89880479  1
  Co  Co154  1  0.33913379  0.08488127  0.35516514  1
  Co  Co155  1  0.08368119  0.65322961  0.45836716  1
  Co  Co156  1  0.26679505  0.55809533  0.18892291  1
  Co  Co157  1  0.31142638  0.08221923  0.64873653  1
  Co  Co158  1  0.51656522  0.68395628  0.12279135  1
  Co  Co159  1  0.64574397  0.55742031  0.14250969  1
  Co  Co160  1  0.09425260  -0.07650587  0.54776542  1
  Co  Co161  1  -0.05205572  0.50906673  0.88900196  1
  Ni  Ni162  1  0.52561215  0.16914480  0.62650560  1
  Ni  Ni163  1  0.87695711  0.08010281  -0.09053234  1
  Ni  Ni164  1  0.66756644  0.32822213  -0.14636754  1
  Ni  Ni165  1  0.15810562  -0.11789113  0.83895532  1
  Ni  Ni166  1  0.84953333  0.48504313  0.04146516  1
  Ni  Ni167  1  -0.05364412  0.29476253  0.41611293  1
  Ni  Ni168  1  0.16070149  0.25160853  0.62712073  1
  Ni  Ni169  1  -0.05042694  0.15609781  0.77642350  1
  Ni  Ni170  1  -0.10142107  -0.02639604  0.33815226  1
  Ni  Ni171  1  0.81139861  0.31398166  0.06963164  1
  Ni  Ni172  1  0.54447297  0.84795596  0.05440095  1
  Ni  Ni173  1  0.04736654  0.21110120  0.28407236  1
  Ni  Ni174  1  0.76785874  0.38313259  0.72722859  1
  Ni  Ni175  1  0.25381591  0.65627084  0.41379653  1
  Ni  Ni176  1  0.37374255  0.35427774  -0.04302879  1
  Ni  Ni177  1  0.53969241  0.56405382  0.01211858  1
  Ni  Ni178  1  0.16836264  0.38415403  0.77215811  1
  Ni  Ni179  1  0.79472840  0.78520656  0.07847159  1
  Ni  Ni180  1  0.52940174  0.54693743  0.41493554  1
  Ni  Ni181  1  0.40748356  0.83661033  0.27507172  1
  Ni  Ni182  1  0.89751412  0.63622493  0.81331935  1
  Ni  Ni183  1  0.24429544  0.19116605  0.76135045  1
  Ni  Ni184  1  0.17403299  0.53140952  -0.04872101  1
  Ni  Ni185  1  0.25765976  0.45113641  0.64748065  1
  Ni  Ni186  1  0.12749773  0.81005618  0.00375850  1
  Ni  Ni187  1  0.79608863  0.80914774  0.67076508  1
  Ni  Ni188  1  0.59589101  0.19194677  0.79508708  1
  Ni  Ni189  1  0.35008183  0.80766006  0.42987287  1
  Ni  Ni190  1  0.04882003  0.43203616  0.46774142  1
  Ni  Ni191  1  0.70344409  0.35576378  0.34238632  1
  Ni  Ni192  1  0.17056630  0.14359477  -0.06727267  1
  Ni  Ni193  1  0.79258997  0.21874281  0.37165958  1
  Ni  Ni194  1  -0.02134813  0.23497444  0.12972163  1
  Ni  Ni195  1  0.29009537  0.51495093  0.48984357  1
  Ni  Ni196  1  0.41967808  0.46897529  0.70348413  1
  Ni  Ni197  1  0.94697590  0.34610799  0.82585645  1
  Ni  Ni198  1  0.52162815  0.12625165  0.37457611  1
  Ni  Ni199  1  0.00937201  0.56749430  0.02793024  1
  Ni  Ni200  1  0.44828153  0.14918166  0.04212362  1
  Ni  Ni201  1  0.20540466  0.84617944  0.30874322  1
  Ni  Ni202  1  0.28423470  0.10841831  0.18642079  1
  Ni  Ni203  1  0.58789596  0.79630775  0.86415401  1
  Ni  Ni204  1  0.28709721  0.50830383  0.79996116  1
  Ni  Ni205  1  0.87268903  0.52494205  0.26034084  1
  Ni  Ni206  1  0.14259668  0.72117538  0.76774259  1
  Ni  Ni207  1  -0.00302487  0.80008338  0.46863882  1
  Ni  Ni208  1  -0.09818983  0.29451389  0.68319375  1
  Ni  Ni209  1  0.88891234  -0.07555317  0.80313769  1
  Ni  Ni210  1  0.71108021  0.18300386  0.13588524  1
  Ni  Ni211  1  0.56757467  -0.04510996  0.83908311  1
  Ni  Ni212  1  0.56881028  0.69434499  0.53761016  1
  Ni  Ni213  1  0.91846077  0.39730026  0.56052596  1
  Ni  Ni214  1  0.33889964  0.60021751  0.62936716  1
