# generated using pymatgen
data_Ti108Co54Ni53
_symmetry_space_group_name_H-M   'P 1'
_cell_length_a   14.52409329
_cell_length_b   14.55394644
_cell_length_c   14.47938983
_cell_angle_alpha   89.77831680
_cell_angle_beta   90.12593977
_cell_angle_gamma   89.90274433
_symmetry_Int_Tables_number   1
_chemical_formula_structural   Ti108Co54Ni53
_chemical_formula_sum   'Ti108 Co54 Ni53'
_cell_volume   3060.66030428
_cell_formula_units_Z   1
loop_
 _symmetry_equiv_pos_site_id
 _symmetry_equiv_pos_as_xyz
  1  'x, y, z'
loop_
 _atom_site_type_symbol
 _atom_site_label
 _atom_site_symmetry_multiplicity
 _atom_site_fract_x
 _atom_site_fract_y
 _atom_site_fract_z
 _atom_site_occupancy
  Ti  Ti0  1  0.08537717  0.06328400  0.25853084  1
  Ti  Ti1  1  0.08940532  0.01025627  0.62948370  1
  Ti  Ti2  1  0.09783889  -0.00973846  0.93216041  1
  Ti  Ti3  1  0.15675450  0.36974475  0.21420674  1
  Ti  Ti4  1  0.06645407  0.45503544  0.55101373  1
  Ti  Ti5  1  0.06124763  0.43322145  0.83071241  1
  Ti  Ti6  1  0.10262806  0.75979360  0.15909301  1
  Ti  Ti7  1  0.06562544  0.64271808  0.58840301  1
  Ti  Ti8  1  0.03617351  0.76317005  0.89772018  1
  Ti  Ti9  1  0.42380971  0.09622703  0.34415207  1
  Ti  Ti10  1  0.46332941  0.11961317  0.52614200  1
  Ti  Ti11  1  0.33901525  0.07350152  0.91976740  1
  Ti  Ti12  1  0.47058821  0.50752307  0.22821648  1
  Ti  Ti13  1  0.38663865  0.43569334  0.57680667  1
  Ti  Ti14  1  0.43402822  0.52250420  0.89662611  1
  Ti  Ti15  1  0.30627428  0.74619766  0.22886626  1
  Ti  Ti16  1  0.34575978  0.61400983  0.54277523  1
  Ti  Ti17  1  0.40279475  0.74674912  0.82511742  1
  Ti  Ti18  1  0.84119803  0.11220777  0.17586655  1
  Ti  Ti19  1  0.80849706  0.18843302  0.56925058  1
  Ti  Ti20  1  0.86398043  0.10153858  0.93305420  1
  Ti  Ti21  1  0.72995310  0.46606014  0.29695411  1
  Ti  Ti22  1  0.76461056  0.38869279  0.64935932  1
  Ti  Ti23  1  0.78647694  0.42517168  0.98954591  1
  Ti  Ti24  1  0.78411913  0.81129026  0.29767698  1
  Ti  Ti25  1  0.75016082  0.75643934  0.58811743  1
  Ti  Ti26  1  0.67386469  0.73268692  0.87276012  1
  Ti  Ti27  1  0.02499457  0.23707617  0.13498567  1
  Ti  Ti28  1  0.12763716  0.28082829  0.47011647  1
  Ti  Ti29  1  0.10277784  0.22730595  0.75621141  1
  Ti  Ti30  1  0.09275752  0.52140390  0.05357627  1
  Ti  Ti31  1  0.06937740  0.56681805  0.39480806  1
  Ti  Ti32  1  0.14549436  0.60407968  0.79259340  1
  Ti  Ti33  1  0.15564539  0.95027813  0.11363252  1
  Ti  Ti34  1  0.05323859  0.94412368  0.44130911  1
  Ti  Ti35  1  0.12685873  0.87150028  0.76438069  1
  Ti  Ti36  1  0.51120467  0.23966505  0.03927947  1
  Ti  Ti37  1  0.39843560  0.29594835  0.43675908  1
  Ti  Ti38  1  0.43989886  0.25189183  0.80128268  1
  Ti  Ti39  1  0.35847217  0.60627158  0.08950368  1
  Ti  Ti40  1  0.38592827  0.63733424  0.35482007  1
  Ti  Ti41  1  0.47160992  0.59200995  0.69484464  1
  Ti  Ti42  1  0.37569786  0.92836050  0.17572613  1
  Ti  Ti43  1  0.40855121  0.88134386  0.36737308  1
  Ti  Ti44  1  0.44812785  0.94064177  0.69676746  1
  Ti  Ti45  1  0.70866853  0.23716222  0.05995110  1
  Ti  Ti46  1  0.72286194  0.23217585  0.38453097  1
  Ti  Ti47  1  0.77099538  0.21350803  0.76855628  1
  Ti  Ti48  1  0.80839373  0.55179413  0.12368102  1
  Ti  Ti49  1  0.76540181  0.55142898  0.46155696  1
  Ti  Ti50  1  0.66217165  0.57251134  0.70705708  1
  Ti  Ti51  1  0.77583956  0.96791675  0.06410654  1
  Ti  Ti52  1  0.76006491  1.04967972  0.34211687  1
  Ti  Ti53  1  0.80652336  0.94629778  0.68315812  1
  Ti  Ti54  1  0.22271010  0.11605959  0.06081029  1
  Ti  Ti55  1  0.17058510  0.08438858  0.46150659  1
  Ti  Ti56  1  0.30429624  0.08099637  0.72569932  1
  Ti  Ti57  1  0.33530218  0.26338442  0.14659424  1
  Ti  Ti58  1  0.28944272  0.47221063  0.33034558  1
  Ti  Ti59  1  0.26336668  0.37456085  0.76518067  1
  Ti  Ti60  1  0.18901467  0.68057549  0.00471425  1
  Ti  Ti61  1  0.30242516  0.77744476  0.46172624  1
  Ti  Ti62  1  0.20845175  0.74421919  0.64537066  1
  Ti  Ti63  1  0.60740683  0.07129210  0.10898375  1
  Ti  Ti64  1  0.56897137  -0.02551665  0.41813243  1
  Ti  Ti65  1  0.54372377  0.12827310  0.67875376  1
  Ti  Ti66  1  0.62147444  0.40807101  0.11873583  1
  Ti  Ti67  1  0.56642451  0.38640895  0.34977731  1
  Ti  Ti68  1  0.57379564  0.41752239  0.80338441  1
  Ti  Ti69  1  0.62850799  0.71087317  0.20349060  1
  Ti  Ti70  1  0.61909872  0.77134400  0.40704002  1
  Ti  Ti71  1  0.54675355  0.77012740  0.68065406  1
  Ti  Ti72  1  0.99649200  0.06825193  0.06370412  1
  Ti  Ti73  1  0.91692066  0.07890992  0.45627151  1
  Ti  Ti74  1  0.93362702  0.09955114  0.69900209  1
  Ti  Ti75  1  0.95070505  0.40808528  0.12690749  1
  Ti  Ti76  1  0.95316400  0.41092042  0.41675258  1
  Ti  Ti77  1  0.86420186  0.44694071  0.82325073  1
  Ti  Ti78  1  0.90870905  0.79206322  0.10970379  1
  Ti  Ti79  1  0.86459913  0.72128849  0.44113532  1
  Ti  Ti80  1  0.87872730  0.77275668  0.77727432  1
  Ti  Ti81  1  0.26665181  0.20974464  0.31536640  1
  Ti  Ti82  1  0.31445608  0.25608221  0.62270863  1
  Ti  Ti83  1  0.31701497  0.26512047  0.95505436  1
  Ti  Ti84  1  0.18494512  0.58676312  0.18833654  1
  Ti  Ti85  1  0.21865853  0.52439754  0.63639889  1
  Ti  Ti86  1  0.22988538  0.47808702  0.93251031  1
  Ti  Ti87  1  0.21013904  0.90523265  0.28294413  1
  Ti  Ti88  1  0.27316779  0.91602281  0.62061717  1
  Ti  Ti89  1  0.23741964  0.85922209  0.93913834  1
  Ti  Ti90  1  0.51801137  0.22593964  0.23899022  1
  Ti  Ti91  1  0.64265043  0.26870780  0.55389819  1
  Ti  Ti92  1  0.61821088  0.22306420  0.88673162  1
  Ti  Ti93  1  0.57617774  0.59227663  0.36114583  1
  Ti  Ti94  1  0.54139881  0.53768356  0.53058118  1
  Ti  Ti95  1  0.62438464  0.55521040  0.97147092  1
  Ti  Ti96  1  0.64540444  0.92358872  0.24566029  1
  Ti  Ti97  1  0.62183248  0.94030723  0.59700278  1
  Ti  Ti98  1  0.61819550  0.93635877  0.79426927  1
  Ti  Ti99  1  0.85354184  0.29362726  0.27081856  1
  Ti  Ti100  1  0.97393039  0.27308646  0.60828006  1
  Ti  Ti101  1  0.96483070  0.26823159  0.93037842  1
  Ti  Ti102  1  0.89739606  0.61341744  0.29739611  1
  Ti  Ti103  1  0.93356496  0.56002036  0.68919275  1
  Ti  Ti104  1  0.83976758  0.63717211  0.92993531  1
  Ti  Ti105  1  0.98927678  0.84464422  0.30203964  1
  Ti  Ti106  1  0.91475555  0.87115170  0.54580131  1
  Ti  Ti107  1  0.78269454  0.91186046  0.88023444  1
  Co  Co108  1  0.82666344  -0.05982378  0.21569987  1
  Co  Co109  1  0.25144547  0.81051630  0.10028334  1
  Co  Co110  1  0.79912654  0.28169131  0.91775881  1
  Co  Co111  1  0.63957637  0.37194657  -0.04251390  1
  Co  Co112  1  0.30268745  -0.02967212  0.04191648  1
  Co  Co113  1  0.79096877  0.37836119  0.15045221  1
  Co  Co114  1  0.89483194  0.45852601  0.27324817  1
  Co  Co115  1  -0.06284253  0.57980502  0.49847256  1
  Co  Co116  1  0.17840637  0.67829700  0.48934034  1
  Co  Co117  1  0.58390389  0.42729971  0.64688054  1
  Co  Co118  1  0.63681855  0.55804495  0.16846609  1
  Co  Co119  1  0.69047023  0.06936996  -0.04245170  1
  Co  Co120  1  0.02080833  0.32807076  0.29660681  1
  Co  Co121  1  0.07068229  0.83704862  0.02632973  1
  Co  Co122  1  0.79202661  0.58461198  0.60541327  1
  Co  Co123  1  -0.01603410  0.40010472  0.70334474  1
  Co  Co124  1  0.22755558  0.53390353  0.46286581  1
  Co  Co125  1  0.35337173  0.42043935  0.01426824  1
  Co  Co126  1  0.69401280  0.16737635  0.21243817  1
  Co  Co127  1  0.13938206  0.41740778  0.37534773  1
  Co  Co128  1  0.17228406  0.20471275  0.17589635  1
  Co  Co129  1  0.66724731  0.31540346  0.24104242  1
  Co  Co130  1  0.79043929  0.37381575  0.43698627  1
  Co  Co131  1  0.02826249  0.14337977  0.53074403  1
  Co  Co132  1  0.90204871  0.25540270  0.44871583  1
  Co  Co133  1  0.43734404  0.48378393  0.40691333  1
  Co  Co134  1  0.04883986  0.49774240  0.23542465  1
  Co  Co135  1  0.38725579  0.78352969  0.63057546  1
  Co  Co136  1  0.49591413  0.52397402  0.06432047  1
  Co  Co137  1  0.10623555  0.20305034  0.33100625  1
  Co  Co138  1  -0.06079465  0.01870511  0.29440596  1
  Co  Co139  1  0.54543039  0.21549784  0.41817791  1
  Co  Co140  1  0.62547287  0.08635135  0.81091441  1
  Co  Co141  1  0.72228240  0.37228865  0.81037253  1
  Co  Co142  1  0.90800322  0.70790506  0.61175899  1
  Co  Co143  1  0.66775596  0.43787480  0.49985924  1
  Co  Co144  1  0.21806904  0.73671050  0.83147974  1
  Co  Co145  1  0.78675787  0.05242534  0.80148491  1
  Co  Co146  1  0.80319598  0.69731298  0.17902889  1
  Co  Co147  1  -0.03217525  0.61805883  0.15169407  1
  Co  Co148  1  0.29628467  0.18424427  0.47410582  1
  Co  Co149  1  0.40734845  -0.04161735  0.51174882  1
  Co  Co150  1  0.01793105  0.74893971  0.46464173  1
  Co  Co151  1  0.16563002  0.31875467  0.88480702  1
  Co  Co152  1  0.71478666  0.83176942  0.12955466  1
  Co  Co153  1  -0.00387493  0.92909247  0.15708626  1
  Co  Co154  1  0.31505403  0.06956874  0.57484995  1
  Co  Co155  1  0.60206218  0.10018123  0.32085171  1
  Co  Co156  1  0.01033511  0.65847878  0.00888838  1
  Co  Co157  1  0.62231620  0.26526996  0.71672834  1
  Co  Co158  1  0.79735997  0.64285541  0.75914861  1
  Co  Co159  1  0.09456785  0.84489477  0.58279211  1
  Co  Co160  1  0.47738691  0.28129595  0.63137394  1
  Co  Co161  1  0.04069406  0.72609942  0.73526399  1
  Ni  Ni162  1  0.30584794  0.87693952  0.78013728  1
  Ni  Ni163  1  0.14352165  0.35862236  0.65313652  1
  Ni  Ni164  1  0.51152047  0.09019545  -0.04259843  1
  Ni  Ni165  1  0.71047315  0.81022999  0.73390680  1
  Ni  Ni166  1  0.89145196  0.43494889  0.56908166  1
  Ni  Ni167  1  0.39315090  0.35248270  0.28310964  1
  Ni  Ni168  1  0.45838060  0.07242182  0.80610196  1
  Ni  Ni169  1  0.86990330  0.92080547  0.39708925  1
  Ni  Ni170  1  0.24010830  0.38605960  0.51745363  1
  Ni  Ni171  1  0.50778967  0.84070673  0.52055757  1
  Ni  Ni172  1  0.52409158  0.36937678  0.50568504  1
  Ni  Ni173  1  0.21470187  0.64525745  0.33352300  1
  Ni  Ni174  1  0.05057590  0.68140742  0.28796813  1
  Ni  Ni175  1  0.50399841  0.00922343  0.22793731  1
  Ni  Ni176  1  0.16893806  0.17584242  0.61033071  1
  Ni  Ni177  1  0.11526191  0.20616956  -0.01494015  1
  Ni  Ni178  1  -0.07805595  -0.08198598  -0.00977612  1
  Ni  Ni179  1  0.15610014  0.03938057  0.78346873  1
  Ni  Ni180  1  -0.05346518  0.97897448  0.83339653  1
  Ni  Ni181  1  0.47313998  0.36079460  0.92967968  1
  Ni  Ni182  1  0.45844515  0.37208714  0.13242246  1
  Ni  Ni183  1  0.61572375  0.67625105  0.55457489  1
  Ni  Ni184  1  0.70346664  0.08642567  0.66116776  1
  Ni  Ni185  1  -0.02850511  -0.11454226  0.69870942  1
  Ni  Ni186  1  0.79488373  0.79242434  -0.01194791  1
  Ni  Ni187  1  0.31055867  0.52689032  0.78644333  1
  Ni  Ni188  1  0.92196342  0.26807538  0.77589014  1
  Ni  Ni189  1  0.27259314  0.06214722  0.21227699  1
  Ni  Ni190  1  0.41348796  0.10840531  0.10478384  1
  Ni  Ni191  1  0.14573024  0.79167320  0.37319269  1
  Ni  Ni192  1  0.02662680  0.12366751  0.85905137  1
  Ni  Ni193  1  0.72232496  0.88548719  0.45538627  1
  Ni  Ni194  1  0.42396464  0.41618928  0.73248114  1
  Ni  Ni195  1  0.31925267  0.63570091  -0.08074177  1
  Ni  Ni196  1  0.78302631  0.01762536  0.53204530  1
  Ni  Ni197  1  0.64874795  0.10433556  0.49747647  1
  Ni  Ni198  1  0.73104730  0.64591273  0.32255620  1
  Ni  Ni199  1  0.29262339  0.45597904  0.15228264  1
  Ni  Ni200  1  0.05531293  0.37628625  -0.00552180  1
  Ni  Ni201  1  0.46817388  0.67410094  0.21252111  1
  Ni  Ni202  1  0.20370231  0.34229363  0.05158159  1
  Ni  Ni203  1  0.93855692  0.50663780  -0.01995770  1
  Ni  Ni204  1  0.21422399  -0.08471858  0.47110397  1
  Ni  Ni205  1  0.50895538  0.82582246  0.25806598  1
  Ni  Ni206  1  0.29014646  0.01985895  0.37596331  1
  Ni  Ni207  1  0.32236672  0.65996866  0.71242141  1
  Ni  Ni208  1  0.47104580  0.69747901  0.48374864  1
  Ni  Ni209  1  -0.04919853  0.17345426  0.31680334  1
  Ni  Ni210  1  -0.01611255  0.59191022  0.84596581  1
  Ni  Ni211  1  0.69958431  0.67578189  0.04971981  1
  Ni  Ni212  1  0.87190233  0.23434579  0.06445294  1
  Ni  Ni213  1  0.26516197  0.21323316  0.80265624  1
  Ni  Ni214  1  0.54967583  0.63714129  0.83349762  1
