# generated using pymatgen
data_Ti108Co54Ni53
_symmetry_space_group_name_H-M   'P 1'
_cell_length_a   14.55955907
_cell_length_b   14.60655246
_cell_length_c   14.63884308
_cell_angle_alpha   90.01678404
_cell_angle_beta   90.30338063
_cell_angle_gamma   89.97133398
_symmetry_Int_Tables_number   1
_chemical_formula_structural   Ti108Co54Ni53
_chemical_formula_sum   'Ti108 Co54 Ni53'
_cell_volume   3113.12486565
_cell_formula_units_Z   1
loop_
 _symmetry_equiv_pos_site_id
 _symmetry_equiv_pos_as_xyz
  1  'x, y, z'
loop_
 _atom_site_type_symbol
 _atom_site_label
 _atom_site_symmetry_multiplicity
 _atom_site_fract_x
 _atom_site_fract_y
 _atom_site_fract_z
 _atom_site_occupancy
  Ti  Ti0  1  0.07991104  0.13909654  0.24245760  1
  Ti  Ti1  1  0.12587218  0.03808105  0.59590706  1
  Ti  Ti2  1  0.10523914  0.01840356  0.91191903  1
  Ti  Ti3  1  -0.00472003  0.37636211  0.31532413  1
  Ti  Ti4  1  0.04491353  0.41119839  0.57013835  1
  Ti  Ti5  1  0.04680344  0.36152659  0.89651554  1
  Ti  Ti6  1  0.10648437  0.70950353  0.27018475  1
  Ti  Ti7  1  0.08821922  0.77234239  0.54257880  1
  Ti  Ti8  1  0.12903772  0.73153015  0.92300366  1
  Ti  Ti9  1  0.36555254  0.10669443  0.18650139  1
  Ti  Ti10  1  0.45908455  0.07179548  0.62075433  1
  Ti  Ti11  1  0.38254597  0.14270868  0.89910637  1
  Ti  Ti12  1  0.45922134  0.44436218  0.16470592  1
  Ti  Ti13  1  0.36601861  0.42171222  0.52927026  1
  Ti  Ti14  1  0.36296065  0.46457171  0.90042736  1
  Ti  Ti15  1  0.42644462  0.80497646  0.24739465  1
  Ti  Ti16  1  0.46643865  0.73666382  0.64842323  1
  Ti  Ti17  1  0.45963693  0.76766918  0.97724943  1
  Ti  Ti18  1  0.80917192  -0.02530374  0.29046341  1
  Ti  Ti19  1  0.78216614  0.05273888  0.60035240  1
  Ti  Ti20  1  0.77599274  0.06237379  0.94132516  1
  Ti  Ti21  1  0.73047640  0.52717775  0.22286018  1
  Ti  Ti22  1  0.82440200  0.39308904  0.57923413  1
  Ti  Ti23  1  0.71635419  0.44548468  0.89474962  1
  Ti  Ti24  1  0.72402756  0.69645609  0.29334316  1
  Ti  Ti25  1  0.76862800  0.81446980  0.63655221  1
  Ti  Ti26  1  0.78584128  0.75167992  0.94483246  1
  Ti  Ti27  1  0.06389877  0.23350200  0.05579360  1
  Ti  Ti28  1  0.11714896  0.26729470  0.40771859  1
  Ti  Ti29  1  0.14121384  0.20954660  0.74504708  1
  Ti  Ti30  1  0.10003981  0.61917935  0.07573660  1
  Ti  Ti31  1  0.12068918  0.51242677  0.38826968  1
  Ti  Ti32  1  0.10079576  0.68527376  0.71885297  1
  Ti  Ti33  1  0.02210094  0.91805667  0.05149660  1
  Ti  Ti34  1  0.09434242  1.00422920  0.40016126  1
  Ti  Ti35  1  0.02548673  0.91148364  0.72442207  1
  Ti  Ti36  1  0.50333698  0.22167325  0.03797176  1
  Ti  Ti37  1  0.44028957  0.29097106  0.31789362  1
  Ti  Ti38  1  0.32079906  0.27788376  0.78735953  1
  Ti  Ti39  1  0.40441155  0.60725787  0.05525003  1
  Ti  Ti40  1  0.46717139  0.57825729  0.49438926  1
  Ti  Ti41  1  0.40539528  0.52913647  0.71736078  1
  Ti  Ti42  1  0.41802575  0.91796925  0.11004042  1
  Ti  Ti43  1  0.40888173  0.77882741  0.47350055  1
  Ti  Ti44  1  0.43860766  0.85768245  0.80829015  1
  Ti  Ti45  1  0.69156032  0.24245711  0.17442651  1
  Ti  Ti46  1  0.81239138  0.28869097  0.36849754  1
  Ti  Ti47  1  0.78236689  0.30714564  0.77332642  1
  Ti  Ti48  1  0.72871318  0.59693539  0.04121519  1
  Ti  Ti49  1  0.72798100  0.45568154  0.40859165  1
  Ti  Ti50  1  0.76497685  0.56179474  0.72993579  1
  Ti  Ti51  1  0.72682698  0.95440737  0.07471134  1
  Ti  Ti52  1  0.69764284  0.85890802  0.39234610  1
  Ti  Ti53  1  0.72497734  0.89115350  0.81550535  1
  Ti  Ti54  1  0.22206575  -0.02266928  0.09536852  1
  Ti  Ti55  1  0.31847651  0.05091573  0.45996882  1
  Ti  Ti56  1  0.28576305  0.02744324  0.72799248  1
  Ti  Ti57  1  0.17041502  0.41067303  0.08482094  1
  Ti  Ti58  1  0.28044283  0.37545648  0.36289920  1
  Ti  Ti59  1  0.22531738  0.38120474  0.66291075  1
  Ti  Ti60  1  0.28163941  0.78815047  0.06725833  1
  Ti  Ti61  1  0.28278502  0.71917411  0.33967216  1
  Ti  Ti62  1  0.28895341  0.75702512  0.71505344  1
  Ti  Ti63  1  0.55346438  0.04530546  0.11634912  1
  Ti  Ti64  1  0.51970192  0.05873842  0.43179397  1
  Ti  Ti65  1  0.62402190  0.11086219  0.73837610  1
  Ti  Ti66  1  0.65981805  0.40395826  0.08631079  1
  Ti  Ti67  1  0.54123846  0.39194005  0.44474975  1
  Ti  Ti68  1  0.57695492  0.49034082  0.78065743  1
  Ti  Ti69  1  0.58965401  0.71290505  0.14324503  1
  Ti  Ti70  1  0.55436225  0.72570751  0.36097047  1
  Ti  Ti71  1  0.57215957  0.68976402  0.80941191  1
  Ti  Ti72  1  0.92034222  0.06296040  0.13635703  1
  Ti  Ti73  1  0.87954965  0.10013092  0.43799800  1
  Ti  Ti74  1  0.93781233  0.12022740  0.77830087  1
  Ti  Ti75  1  0.93252311  0.49231568  0.14777693  1
  Ti  Ti76  1  0.93207650  0.50146305  0.46171853  1
  Ti  Ti77  1  0.92448718  0.44217838  0.73375556  1
  Ti  Ti78  1  0.93426022  0.75450180  0.09967170  1
  Ti  Ti79  1  0.88136559  0.79019899  0.42075874  1
  Ti  Ti80  1  0.92014918  0.75693185  0.79292889  1
  Ti  Ti81  1  0.22123414  0.25187332  0.19058739  1
  Ti  Ti82  1  0.29839651  0.20055944  0.59976191  1
  Ti  Ti83  1  0.22741824  0.28012284  0.95173257  1
  Ti  Ti84  1  0.28370279  0.54062504  0.25364770  1
  Ti  Ti85  1  0.19496463  0.56461192  0.58045106  1
  Ti  Ti86  1  0.18085854  0.51461725  0.91897072  1
  Ti  Ti87  1  0.25753649  0.98140818  0.28747618  1
  Ti  Ti88  1  0.27805712  0.90251277  0.56184283  1
  Ti  Ti89  1  0.31746915  0.95767210  0.92189431  1
  Ti  Ti90  1  0.55646501  0.14991596  0.26701567  1
  Ti  Ti91  1  0.56999626  0.28911503  0.66039568  1
  Ti  Ti92  1  0.58972781  0.30277569  0.87403191  1
  Ti  Ti93  1  0.55913650  0.53581232  0.30303427  1
  Ti  Ti94  1  0.64033501  0.54832710  0.58527503  1
  Ti  Ti95  1  0.54996368  0.56278123  0.95454048  1
  Ti  Ti96  1  0.61721477  0.88648651  0.22404702  1
  Ti  Ti97  1  0.58550059  0.87345193  0.55382194  1
  Ti  Ti98  1  0.54520991  0.99900624  0.93555018  1
  Ti  Ti99  1  0.90396985  0.26264522  0.17806241  1
  Ti  Ti100  1  0.94824521  0.24238458  0.62128643  1
  Ti  Ti101  1  0.89006825  0.22826461  0.94296135  1
  Ti  Ti102  1  0.92759418  0.64054078  0.28189450  1
  Ti  Ti103  1  0.85882475  0.64507195  0.57918060  1
  Ti  Ti104  1  0.88474756  0.57171097  0.89444706  1
  Ti  Ti105  1  0.98475249  0.86390710  0.26022740  1
  Ti  Ti106  1  0.95930214  0.93127344  0.53092778  1
  Ti  Ti107  1  0.90460306  0.95810848  0.85776429  1
  Co  Co108  1  -0.05760678  0.35330262  0.03813714  1
  Co  Co109  1  0.36683789  -0.09614418  0.37487078  1
  Co  Co110  1  0.04236640  0.36035552  0.16190773  1
  Co  Co111  1  0.73661330  0.79055676  0.10380980  1
  Co  Co112  1  0.26339416  0.64170782  -0.01100427  1
  Co  Co113  1  0.25328971  0.52209499  0.74133998  1
  Co  Co114  1  0.85510775  0.88958182  -0.01311220  1
  Co  Co115  1  0.64907612  0.13858389  0.01930951  1
  Co  Co116  1  0.69721438  0.60641380  0.87726224  1
  Co  Co117  1  0.56691875  0.70622106  0.52512930  1
  Co  Co118  1  0.23562601  0.66600717  0.16276681  1
  Co  Co119  1  0.69288483  0.41366848  0.70045679  1
  Co  Co120  1  0.15967609  0.39480025  0.26290223  1
  Co  Co121  1  0.54878780  0.14711843  -0.12169550  1
  Co  Co122  1  0.39970658  0.31978915  0.64612185  1
  Co  Co123  1  0.76644105  0.71789496  0.77615089  1
  Co  Co124  1  0.82835393  0.14724505  0.27229366  1
  Co  Co125  1  -0.04125620  0.06739247  0.62573826  1
  Co  Co126  1  -0.04919438  0.07995965  -0.02727915  1
  Co  Co127  1  0.47430489  -0.00827367  0.26493486  1
  Co  Co128  1  -0.04853819  0.77789626  0.63128604  1
  Co  Co129  1  -0.03423988  0.20296031  0.34068685  1
  Co  Co130  1  0.41501259  0.63496584  0.35447882  1
  Co  Co131  1  0.19658001  0.38529480  0.82358410  1
  Co  Co132  1  0.58535338  0.83220955  0.72185072  1
  Co  Co133  1  0.10768623  0.05050176  0.75369914  1
  Co  Co134  1  0.62492468  0.38569599  0.27838796  1
  Co  Co135  1  0.82462616  0.80765800  0.25723164  1
  Co  Co136  1  0.80404537  0.18220360  0.68846372  1
  Co  Co137  1  0.86577057  0.93286746  0.68827136  1
  Co  Co138  1  0.53388471  0.88871554  0.38004630  1
  Co  Co139  1  0.31992918  0.38003774  0.20118058  1
  Co  Co140  1  0.02114655  0.49160168  0.00048689  1
  Co  Co141  1  0.44028582  -0.06021215  0.51263844  1
  Co  Co142  1  0.39236470  0.06027973  0.03459097  1
  Co  Co143  1  0.87070358  -0.09368448  0.14303117  1
  Co  Co144  1  0.41588261  0.46575699  0.34995337  1
  Co  Co145  1  0.39939066  0.12595885  0.34100371  1
  Co  Co146  1  -0.03425741  0.70116053  -0.04542788  1
  Co  Co147  1  0.77326228  0.04522583  0.77368614  1
  Co  Co148  1  0.62541718  0.71984823  -0.01564810  1
  Co  Co149  1  0.51817251  0.44086907  0.62218972  1
  Co  Co150  1  0.94568153  0.30628541  0.46951037  1
  Co  Co151  1  -0.03864035  0.03897690  0.30497337  1
  Co  Co152  1  0.22827902  0.12091199  0.85034612  1
  Co  Co153  1  0.65221732  0.69582921  0.66010097  1
  Co  Co154  1  0.28420963  0.51352568  0.08848884  1
  Co  Co155  1  0.12503630  0.25755489  0.58382535  1
  Co  Co156  1  0.28799143  0.55183192  0.43984462  1
  Co  Co157  1  0.25047832  0.83374628  0.22476095  1
  Co  Co158  1  0.08177677  0.07702671  0.08221702  1
  Co  Co159  1  0.17777877  0.87870622  -0.03340940  1
  Co  Co160  1  0.04892906  0.83314386  0.40230536  1
  Co  Co161  1  0.41070065  -0.08887102  0.66401826  1
  Ni  Ni162  1  0.45350216  0.02849916  0.78772457  1
  Ni  Ni163  1  0.72590171  0.72936662  0.49730015  1
  Ni  Ni164  1  0.02325370  0.14954069  0.49636277  1
  Ni  Ni165  1  0.45613873  0.19045380  0.74126783  1
  Ni  Ni166  1  0.09077510  0.50580289  0.71602505  1
  Ni  Ni167  1  0.22308937  0.11940697  0.01269338  1
  Ni  Ni168  1  0.81978090  0.65912979  0.15781087  1
  Ni  Ni169  1  0.81816367  0.61614322  0.41382527  1
  Ni  Ni170  1  0.04642934  0.59121536  0.85556877  1
  Ni  Ni171  1  0.71519095  0.18291979  0.85745180  1
  Ni  Ni172  1  0.09883671  -0.03146705  0.21193680  1
  Ni  Ni173  1  0.51786342  0.40515484  -0.00734678  1
  Ni  Ni174  1  0.79490336  -0.07802479  0.50290922  1
  Ni  Ni175  1  0.70388153  0.07487511  0.19015695  1
  Ni  Ni176  1  0.33819336  0.21937603  0.06727142  1
  Ni  Ni177  1  0.21208849  0.85474573  0.40938057  1
  Ni  Ni178  1  0.66709034  0.36895119  0.54542026  1
  Ni  Ni179  1  0.66513183  -0.03779042  0.67162441  1
  Ni  Ni180  1  0.06715689  0.18146218  0.89813037  1
  Ni  Ni181  1  0.57894696  0.55018959  0.12416612  1
  Ni  Ni182  1  0.02194641  0.85231282  0.89511975  1
  Ni  Ni183  1  0.23690246  0.64850839  0.82758096  1
  Ni  Ni184  1  0.16496409  0.85907464  0.67150400  1
  Ni  Ni185  1  0.80087792  0.15886314  0.08148440  1
  Ni  Ni186  1  0.57771711  0.86907196  0.05681031  1
  Ni  Ni187  1  0.52913167  0.29851499  0.17470995  1
  Ni  Ni188  1  0.08782315  0.53598126  0.22080768  1
  Ni  Ni189  1  0.94870789  0.60627814  0.72266162  1
  Ni  Ni190  1  0.18392838  0.13810881  0.48130264  1
  Ni  Ni191  1  0.25638000  0.73660093  0.53657742  1
  Ni  Ni192  1  0.78820582  0.37533441  0.22022456  1
  Ni  Ni193  1  0.19602502  0.39729829  0.49994238  1
  Ni  Ni194  1  -0.01130030  0.66438483  0.43315823  1
  Ni  Ni195  1  0.73919487  0.29133897  -0.01430165  1
  Ni  Ni196  1  0.64040773  0.01309109  0.32890833  1
  Ni  Ni197  1  0.87793053  0.39277414  0.88943311  1
  Ni  Ni198  1  0.30653506  0.78301662  0.89215101  1
  Ni  Ni199  1  0.31621639  0.23497445  0.43958645  1
  Ni  Ni200  1  0.46229118  0.36886975  0.78646111  1
  Ni  Ni201  1  0.03017853  0.59127274  0.57534133  1
  Ni  Ni202  1  0.34744021  0.62038562  0.59756596  1
  Ni  Ni203  1  0.35960704  0.37303196  0.03760242  1
  Ni  Ni204  1  0.58968642  0.84642927  0.89142664  1
  Ni  Ni205  1  0.11653352  0.80216076  0.12577845  1
  Ni  Ni206  1  0.86547659  0.48212049  0.31383085  1
  Ni  Ni207  1  0.82335530  0.46258174  0.02768354  1
  Ni  Ni208  1  0.05655898  0.34197699  0.72078314  1
  Ni  Ni209  1  0.46756511  0.24908020  0.50712190  1
  Ni  Ni210  1  0.15312300  0.66544975  0.43088616  1
  Ni  Ni211  1  0.65083917  0.59879641  0.42804485  1
  Ni  Ni212  1  0.23339752  0.14693147  0.32285322  1
  Ni  Ni213  1  0.40583494  0.63841918  0.86799764  1
  Ni  Ni214  1  0.45125773  0.63701685  0.20499847  1
