# generated using pymatgen
data_Ti108Co54Ni53
_symmetry_space_group_name_H-M   'P 1'
_cell_length_a   14.66213378
_cell_length_b   14.64430073
_cell_length_c   14.63003293
_cell_angle_alpha   90.10724886
_cell_angle_beta   90.12095967
_cell_angle_gamma   89.93398330
_symmetry_Int_Tables_number   1
_chemical_formula_structural   Ti108Co54Ni53
_chemical_formula_sum   'Ti108 Co54 Ni53'
_cell_volume   3141.29776504
_cell_formula_units_Z   1
loop_
 _symmetry_equiv_pos_site_id
 _symmetry_equiv_pos_as_xyz
  1  'x, y, z'
loop_
 _atom_site_type_symbol
 _atom_site_label
 _atom_site_symmetry_multiplicity
 _atom_site_fract_x
 _atom_site_fract_y
 _atom_site_fract_z
 _atom_site_occupancy
  Ti  Ti0  1  0.12156396  0.09003681  0.24384239  1
  Ti  Ti1  1  0.07388331  0.04979349  0.62761856  1
  Ti  Ti2  1  0.04527508  0.03395687  0.92925444  1
  Ti  Ti3  1  0.12567836  0.32374061  0.27520678  1
  Ti  Ti4  1  0.08833032  0.36462649  0.57724044  1
  Ti  Ti5  1  0.16528367  0.45471599  0.85734443  1
  Ti  Ti6  1  0.11914432  0.69745895  0.24570396  1
  Ti  Ti7  1  0.00393583  0.74377309  0.56548499  1
  Ti  Ti8  1  0.13048357  0.69270884  0.90465254  1
  Ti  Ti9  1  0.41792903  0.10183730  0.22063905  1
  Ti  Ti10  1  0.45680464  0.14486866  0.60035547  1
  Ti  Ti11  1  0.36021253  0.03588023  0.86697226  1
  Ti  Ti12  1  0.43863628  0.46429920  0.25469886  1
  Ti  Ti13  1  0.48017410  0.46573496  0.55272818  1
  Ti  Ti14  1  0.45206085  0.36996774  0.91520662  1
  Ti  Ti15  1  0.50255824  0.79488829  0.26057699  1
  Ti  Ti16  1  0.37946230  0.79953941  0.59917130  1
  Ti  Ti17  1  0.43120992  0.68362253  0.90037611  1
  Ti  Ti18  1  0.73087354  0.06410820  0.25858687  1
  Ti  Ti19  1  0.68985908  0.11393007  0.58041464  1
  Ti  Ti20  1  0.79722697  0.16290627  0.91695002  1
  Ti  Ti21  1  0.75728061  0.45890222  0.25316057  1
  Ti  Ti22  1  0.74456405  0.45786003  0.60374269  1
  Ti  Ti23  1  0.80494518  0.36048307  0.90164309  1
  Ti  Ti24  1  0.73839383  0.79227375  0.35598364  1
  Ti  Ti25  1  0.75489627  0.72729401  0.54155463  1
  Ti  Ti26  1  0.68123111  0.76701890  0.90410814  1
  Ti  Ti27  1  0.03749589  0.30918422  0.10013525  1
  Ti  Ti28  1  0.03204665  0.22182748  0.42620552  1
  Ti  Ti29  1  0.06544639  0.29541590  0.76457884  1
  Ti  Ti30  1  0.14449323  0.50332332  0.16630609  1
  Ti  Ti31  1  0.15175620  0.65181854  0.45700353  1
  Ti  Ti32  1  0.11460814  0.61412997  0.69487462  1
  Ti  Ti33  1  0.10696810  0.95632035  0.08775055  1
  Ti  Ti34  1  0.12357282  0.93382247  0.48675721  1
  Ti  Ti35  1  0.08329183  0.92789732  0.78971881  1
  Ti  Ti36  1  0.39253982  0.20684469  -0.03711229  1
  Ti  Ti37  1  0.41398106  0.31449490  0.41362692  1
  Ti  Ti38  1  0.39879923  0.26748589  0.75522629  1
  Ti  Ti39  1  0.43863894  0.53936300  0.04871212  1
  Ti  Ti40  1  0.43832876  0.65025958  0.37373486  1
  Ti  Ti41  1  0.42166546  0.57891933  0.71228384  1
  Ti  Ti42  1  0.42557979  0.92182014  0.11836818  1
  Ti  Ti43  1  0.43663837  0.88808551  0.42604398  1
  Ti  Ti44  1  0.43543439  0.87657607  0.78920581  1
  Ti  Ti45  1  0.73638128  0.28231902  0.13069279  1
  Ti  Ti46  1  0.83198439  0.16857143  0.43685406  1
  Ti  Ti47  1  0.76293907  0.28204869  0.66409656  1
  Ti  Ti48  1  0.75205532  0.47400807  0.06495233  1
  Ti  Ti49  1  0.71022057  0.57444480  0.41738499  1
  Ti  Ti50  1  0.70942699  0.59690862  0.80033245  1
  Ti  Ti51  1  0.72510385  0.91943324  0.07953634  1
  Ti  Ti52  1  0.75600265  0.98067225  0.43141618  1
  Ti  Ti53  1  0.80737795  0.84457977  0.78814082  1
  Ti  Ti54  1  0.23424555  0.09943292  0.00932737  1
  Ti  Ti55  1  0.27704544  0.02067960  0.37324004  1
  Ti  Ti56  1  0.26396132  0.14502066  0.68950767  1
  Ti  Ti57  1  0.27258467  0.34290735  0.14125045  1
  Ti  Ti58  1  0.19727513  0.44425146  0.42662756  1
  Ti  Ti59  1  0.27828595  0.45995432  0.70770817  1
  Ti  Ti60  1  0.21614677  0.77863401  0.05906260  1
  Ti  Ti61  1  0.25831157  0.81003056  0.40600425  1
  Ti  Ti62  1  0.21179110  0.77469674  0.73992037  1
  Ti  Ti63  1  0.57877297  0.06011097  0.10300807  1
  Ti  Ti64  1  0.56748190  0.03474556  0.45989110  1
  Ti  Ti65  1  0.62074108  0.08366686  0.79537629  1
  Ti  Ti66  1  0.46997988  0.34319912  0.10098364  1
  Ti  Ti67  1  0.59918480  0.38597992  0.33510251  1
  Ti  Ti68  1  0.61887565  0.36932178  0.79463920  1
  Ti  Ti69  1  0.51988236  0.72916725  0.07464883  1
  Ti  Ti70  1  0.56530207  0.74926522  0.48118904  1
  Ti  Ti71  1  0.55515940  0.70618588  0.76521146  1
  Ti  Ti72  1  0.93173388  0.12208498  0.10524328  1
  Ti  Ti73  1  0.93768842  0.05262334  0.32203848  1
  Ti  Ti74  1  0.90831315  0.03832289  0.76754679  1
  Ti  Ti75  1  0.96221375  0.47938099  0.03990249  1
  Ti  Ti76  1  0.89931407  0.36553326  0.49945517  1
  Ti  Ti77  1  0.87117094  0.48049544  0.75924993  1
  Ti  Ti78  1  0.94990462  0.73187090  -0.02140980  1
  Ti  Ti79  1  0.93293862  0.83908198  0.41403968  1
  Ti  Ti80  1  0.99690865  0.75355140  0.78072196  1
  Ti  Ti81  1  0.27777769  0.20595724  0.30856037  1
  Ti  Ti82  1  0.28863797  0.32870968  0.56726373  1
  Ti  Ti83  1  0.18149627  0.28754856  0.96893743  1
  Ti  Ti84  1  0.27048314  0.56012059  0.30126882  1
  Ti  Ti85  1  0.32198547  0.58467795  0.50877256  1
  Ti  Ti86  1  0.25519651  0.56976098  0.98979858  1
  Ti  Ti87  1  0.20880239  0.88190205  0.23031939  1
  Ti  Ti88  1  0.24100136  0.94762914  0.68830952  1
  Ti  Ti89  1  0.23090630  0.90701850  0.90480559  1
  Ti  Ti90  1  0.58871773  0.20806408  0.25515202  1
  Ti  Ti91  1  0.58103032  0.25526677  0.49544743  1
  Ti  Ti92  1  0.61407314  0.21582804  0.98091328  1
  Ti  Ti93  1  0.58541024  0.57783842  0.21830343  1
  Ti  Ti94  1  0.61482547  0.61188135  0.59717451  1
  Ti  Ti95  1  0.53017544  0.52462814  0.87026926  1
  Ti  Ti96  1  0.54884511  0.99139430  0.28061977  1
  Ti  Ti97  1  0.54628729  0.96037672  0.64348793  1
  Ti  Ti98  1  0.55116084  0.91339038  0.95165893  1
  Ti  Ti99  1  0.89878120  0.32238997  0.29926357  1
  Ti  Ti100  1  0.94838313  0.19630204  0.62291045  1
  Ti  Ti101  1  0.98399793  0.21610714  0.92533251  1
  Ti  Ti102  1  0.92404019  0.52304701  0.35100055  1
  Ti  Ti103  1  0.89444613  0.57281622  0.54171272  1
  Ti  Ti104  1  1.00002347  0.56193655  0.86753176  1
  Ti  Ti105  1  0.99080290  0.88081403  0.22483701  1
  Ti  Ti106  1  0.82127660  0.89152172  0.59171042  1
  Ti  Ti107  1  0.85449058  1.00410152  0.97634622  1
  Co  Co108  1  0.60026818  0.37140042  0.63261929  1
  Co  Co109  1  0.70389395  0.23885467  0.81488441  1
  Co  Co110  1  0.09427633  0.80571419  0.36585267  1
  Co  Co111  1  0.06155736  0.78040493  0.10933263  1
  Co  Co112  1  0.58990887  0.64770654  -0.05136972  1
  Co  Co113  1  0.38272961  0.47378516  0.41073175  1
  Co  Co114  1  0.61091749  0.68849803  0.33470029  1
  Co  Co115  1  0.39600663  0.85770042  -0.03853341  1
  Co  Co116  1  0.36102374  0.69919490  0.04161034  1
  Co  Co117  1  0.01631539  0.37873403  -0.08078700  1
  Co  Co118  1  0.78502475  0.60525571  0.65976180  1
  Co  Co119  1  0.87265949  0.39407899  0.15475729  1
  Co  Co120  1  0.13599700  0.44008821  0.01773938  1
  Co  Co121  1  0.70303153  0.75042678  0.70489194  1
  Co  Co122  1  0.78279743  0.42743442  0.41014038  1
  Co  Co123  1  -0.05335599  -0.10801849  0.70041948  1
  Co  Co124  1  0.58023341  0.87804625  0.12790213  1
  Co  Co125  1  0.39702078  0.06171694  0.04513158  1
  Co  Co126  1  0.29318352  0.37698545  0.30558183  1
  Co  Co127  1  0.34056131  0.19946688  0.11798831  1
  Co  Co128  1  0.31810882  0.49533195  0.14732863  1
  Co  Co129  1  0.53101209  0.22280299  0.84181768  1
  Co  Co130  1  0.54518494  0.79702270  0.63916344  1
  Co  Co131  1  0.45355250  0.65903544  0.57443526  1
  Co  Co132  1  0.36717862  -0.08081277  0.27891406  1
  Co  Co133  1  -0.04664618  0.60733582  0.70051655  1
  Co  Co134  1  0.83848629  0.91964216  0.30285272  1
  Co  Co135  1  0.37662472  0.73331653  0.74585602  1
  Co  Co136  1  0.30921272  0.40558448  -0.00518228  1
  Co  Co137  1  -0.01158759  0.07488881  0.47690557  1
  Co  Co138  1  0.58530501  0.21536033  0.68072162  1
  Co  Co139  1  0.13508767  0.20879703  0.59430354  1
  Co  Co140  1  0.14841709  0.11140393  0.42086288  1
  Co  Co141  1  0.23252036  0.06616528  0.55362847  1
  Co  Co142  1  0.24925422  0.64406189  0.14878213  1
  Co  Co143  1  0.21648900  0.30881968  0.71976836  1
  Co  Co144  1  0.54755207  0.53776463  0.39337367  1
  Co  Co145  1  0.85051958  0.67521325  0.82516753  1
  Co  Co146  1  0.60026284  0.87605729  0.38446571  1
  Co  Co147  1  0.58687615  0.51606418  0.71198491  1
  Co  Co148  1  0.09819606  0.53861797  0.32667210  1
  Co  Co149  1  0.08445792  -0.03506399  0.33675647  1
  Co  Co150  1  0.41702838  0.63493221  0.19544118  1
  Co  Co151  1  0.34838393  0.79324741  0.16511375  1
  Co  Co152  1  0.27608151  -0.05883775  0.05411012  1
  Co  Co153  1  -0.03122716  0.93317199  0.54530395  1
  Co  Co154  1  0.44919958  0.30770854  0.59670488  1
  Co  Co155  1  0.66998890  0.14368120  0.39892956  1
  Co  Co156  1  0.18140231  0.20987737  0.14976305  1
  Co  Co157  1  0.59324528  0.53313120  0.05783856  1
  Co  Co158  1  0.19031890  0.28128692  0.43439379  1
  Co  Co159  1  0.68648870  -0.09265941  0.24716492  1
  Co  Co160  1  0.45977550  0.09629164  0.75923375  1
  Co  Co161  1  0.45447326  0.41648790  0.73480553  1
  Ni  Ni162  1  0.26851755  0.04929868  0.17787416  1
  Ni  Ni163  1  0.68569652  0.48621248  0.91490171  1
  Ni  Ni164  1  0.27403935  0.64657215  0.64564177  1
  Ni  Ni165  1  -0.07048009  0.36109672  0.66118078  1
  Ni  Ni166  1  0.26194905  0.20289383  0.85154210  1
  Ni  Ni167  1  0.67415268  0.04701342  -0.03297618  1
  Ni  Ni168  1  0.43028276  0.27664246  0.25024648  1
  Ni  Ni169  1  0.65666687  0.88595635  0.54126129  1
  Ni  Ni170  1  0.73733263  0.29296044  0.49374384  1
  Ni  Ni171  1  0.18213791  0.51131606  0.58269176  1
  Ni  Ni172  1  -0.04932924  -0.10643868  0.05349898  1
  Ni  Ni173  1  0.87810648  0.29360648  0.03025266  1
  Ni  Ni174  1  0.07720506  0.84865740  -0.04774743  1
  Ni  Ni175  1  0.31875100  0.18465044  0.47941409  1
  Ni  Ni176  1  0.73381328  0.28031007  0.32068251  1
  Ni  Ni177  1  0.84937997  0.67553491  0.41106262  1
  Ni  Ni178  1  0.81822485  0.83151424  -0.03607521  1
  Ni  Ni179  1  -0.05783717  0.89859985  0.87731313  1
  Ni  Ni180  1  0.75619999  -0.00991462  0.84096769  1
  Ni  Ni181  1  0.77941677  0.12501101  0.72576904  1
  Ni  Ni182  1  0.08809707  0.61649399  0.05115249  1
  Ni  Ni183  1  0.84110500  0.18006977  0.23367207  1
  Ni  Ni184  1  0.00502108  0.20260199  0.23709057  1
  Ni  Ni185  1  0.87016137  0.74197813  0.66594299  1
  Ni  Ni186  1  0.39867166  0.03988379  0.48902744  1
  Ni  Ni187  1  0.61518165  0.87917464  0.78792049  1
  Ni  Ni188  1  0.09310553  0.86133066  0.64039116  1
  Ni  Ni189  1  0.04170787  0.52890804  0.49020623  1
  Ni  Ni190  1  0.35709852  0.49988731  0.86280320  1
  Ni  Ni191  1  0.30433031  0.71793474  0.29210758  1
  Ni  Ni192  1  0.84372301  0.53691407  -0.07397268  1
  Ni  Ni193  1  0.00594104  0.43999213  0.22897471  1
  Ni  Ni194  1  0.04526970  0.13060581  0.77569348  1
  Ni  Ni195  1  0.19208204  0.05586626  0.82265816  1
  Ni  Ni196  1  0.28598884  0.75340307  0.89294935  1
  Ni  Ni197  1  0.38618491  -0.00620313  0.65135832  1
  Ni  Ni198  1  0.03397312  0.39330032  0.39746224  1
  Ni  Ni199  1  0.61558921  0.37428311  0.00604688  1
  Ni  Ni200  1  0.71448380  -0.02098058  0.68094878  1
  Ni  Ni201  1  0.25329391  0.61391969  0.80800169  1
  Ni  Ni202  1  0.08117462  0.14181682  0.05166176  1
  Ni  Ni203  1  0.63249567  0.43531932  0.48762134  1
  Ni  Ni204  1  0.29350344  0.92138082  0.52542569  1
  Ni  Ni205  1  0.20461749  0.77512408  0.56324823  1
  Ni  Ni206  1  0.88485084  0.24498706  0.78311548  1
  Ni  Ni207  1  0.46590970  0.15292915  0.37900749  1
  Ni  Ni208  1  0.00455542  0.66925759  0.39127914  1
  Ni  Ni209  1  0.85811431  -0.01233282  0.15938094  1
  Ni  Ni210  1  0.51404159  0.08074622  -0.06754627  1
  Ni  Ni211  1  0.61056139  0.40680203  0.16886863  1
  Ni  Ni212  1  0.85627835  0.05995383  0.58243758  1
  Ni  Ni213  1  0.75575538  0.11278986  0.09327387  1
  Ni  Ni214  1  0.05135526  0.46247360  0.72138639  1
