# generated using pymatgen
data_Ti108Co54Ni53
_symmetry_space_group_name_H-M   'P 1'
_cell_length_a   14.63961709
_cell_length_b   14.58930246
_cell_length_c   14.57498702
_cell_angle_alpha   89.69484789
_cell_angle_beta   90.09276273
_cell_angle_gamma   89.39596133
_symmetry_Int_Tables_number   1
_chemical_formula_structural   Ti108Co54Ni53
_chemical_formula_sum   'Ti108 Co54 Ni53'
_cell_volume   3112.73048114
_cell_formula_units_Z   1
loop_
 _symmetry_equiv_pos_site_id
 _symmetry_equiv_pos_as_xyz
  1  'x, y, z'
loop_
 _atom_site_type_symbol
 _atom_site_label
 _atom_site_symmetry_multiplicity
 _atom_site_fract_x
 _atom_site_fract_y
 _atom_site_fract_z
 _atom_site_occupancy
  Ti  Ti0  1  0.04470579  0.03798504  0.22421368  1
  Ti  Ti1  1  0.18413404  0.10315607  0.55362034  1
  Ti  Ti2  1  0.09847666  0.10071599  0.87749333  1
  Ti  Ti3  1  0.06944461  0.36536592  0.25390325  1
  Ti  Ti4  1  0.09127627  0.45515290  0.63312686  1
  Ti  Ti5  1  0.06735640  0.44055520  0.89989281  1
  Ti  Ti6  1  0.11541379  0.69602880  0.24626541  1
  Ti  Ti7  1  0.08985837  0.81143437  0.58445097  1
  Ti  Ti8  1  0.05452825  0.80567920  0.80775363  1
  Ti  Ti9  1  0.41120680  0.15394719  0.29098824  1
  Ti  Ti10  1  0.41625844  0.11839687  0.70995051  1
  Ti  Ti11  1  0.39907539  0.13853166  0.92039886  1
  Ti  Ti12  1  0.47286483  0.48561710  0.29637389  1
  Ti  Ti13  1  0.37468876  0.47660140  0.61697815  1
  Ti  Ti14  1  0.45753759  0.41147216  0.97472994  1
  Ti  Ti15  1  0.46516811  0.67228356  0.26461435  1
  Ti  Ti16  1  0.38534357  0.68176166  0.64924502  1
  Ti  Ti17  1  0.45169349  0.72379173  0.84896327  1
  Ti  Ti18  1  0.84472645  0.00476499  0.23593980  1
  Ti  Ti19  1  0.69884382  0.06360830  0.54283575  1
  Ti  Ti20  1  0.80689312  0.10055470  0.92063572  1
  Ti  Ti21  1  0.76060631  0.39657173  0.26508457  1
  Ti  Ti22  1  0.69012701  0.36780070  0.56518805  1
  Ti  Ti23  1  0.74632180  0.37789727  0.87647888  1
  Ti  Ti24  1  0.64315656  0.77577002  0.25824374  1
  Ti  Ti25  1  0.78683892  0.70844120  0.54620210  1
  Ti  Ti26  1  0.65928177  0.78622905  0.80776385  1
  Ti  Ti27  1  0.10253461  0.17103259  0.06901778  1
  Ti  Ti28  1  0.09700353  0.26270468  0.45935776  1
  Ti  Ti29  1  0.14166634  0.21143003  0.71471739  1
  Ti  Ti30  1  0.05927474  0.56135579  0.10691245  1
  Ti  Ti31  1  0.02663995  0.56123057  0.35207875  1
  Ti  Ti32  1  0.06539218  0.64835986  0.71520701  1
  Ti  Ti33  1  0.06348677  0.86814570  0.06177402  1
  Ti  Ti34  1  0.12387973  0.87729103  0.37152033  1
  Ti  Ti35  1  0.10627130  0.98445879  0.70884988  1
  Ti  Ti36  1  0.41837508  0.24034974  0.10414046  1
  Ti  Ti37  1  0.38828791  0.34302714  0.45346647  1
  Ti  Ti38  1  0.41404115  0.30834741  0.79805879  1
  Ti  Ti39  1  0.38966008  0.57696883  0.10217377  1
  Ti  Ti40  1  0.37874477  0.60771631  0.46419689  1
  Ti  Ti41  1  0.47062886  0.50252412  0.80040463  1
  Ti  Ti42  1  0.38620738  0.88687563  0.08323663  1
  Ti  Ti43  1  0.32339670  0.89867437  0.40718097  1
  Ti  Ti44  1  0.41630774  0.92679579  0.77731935  1
  Ti  Ti45  1  0.75912001  0.25894546  0.12249874  1
  Ti  Ti46  1  0.78541940  0.30709959  0.42082052  1
  Ti  Ti47  1  0.84673652  0.21095458  0.76917561  1
  Ti  Ti48  1  0.70012357  0.66110263  0.08864367  1
  Ti  Ti49  1  0.81673845  0.51187236  0.49190427  1
  Ti  Ti50  1  0.79769533  0.55759872  0.82070395  1
  Ti  Ti51  1  0.75524249  0.99031017  0.07076029  1
  Ti  Ti52  1  0.75154839  0.94746933  0.39414536  1
  Ti  Ti53  1  0.78625963  0.93479010  0.81009314  1
  Ti  Ti54  1  0.32919843  0.07129172  0.11144170  1
  Ti  Ti55  1  0.20008296  0.06295387  0.37281233  1
  Ti  Ti56  1  0.26210368  0.03297920  0.80972957  1
  Ti  Ti57  1  0.28288888  0.39806533  0.07442239  1
  Ti  Ti58  1  0.24100276  0.40942645  0.35905700  1
  Ti  Ti59  1  0.25365974  0.38642844  0.75131335  1
  Ti  Ti60  1  0.20205002  0.73103078  0.08520757  1
  Ti  Ti61  1  0.17944722  0.64657986  0.43899577  1
  Ti  Ti62  1  0.24259231  0.71468763  0.79128915  1
  Ti  Ti63  1  0.58850367  0.12714317  0.12596874  1
  Ti  Ti64  1  0.61092896  0.09811236  0.33011688  1
  Ti  Ti65  1  0.65532733  0.08658220  0.76668069  1
  Ti  Ti66  1  0.64099420  0.44205483  0.09824548  1
  Ti  Ti67  1  0.58451100  0.35527530  0.38822095  1
  Ti  Ti68  1  0.59818085  0.34666336  0.73859499  1
  Ti  Ti69  1  0.50920531  0.72870848  0.07540736  1
  Ti  Ti70  1  0.57058343  0.69278572  0.41452856  1
  Ti  Ti71  1  0.56736073  0.65617264  0.69896915  1
  Ti  Ti72  1  0.90552338  0.13803263  0.08274158  1
  Ti  Ti73  1  0.99700107  0.08482733  0.41894159  1
  Ti  Ti74  1  0.85858978  0.05330441  0.67631317  1
  Ti  Ti75  1  0.86675321  0.42339330  0.07420548  1
  Ti  Ti76  1  0.93658734  0.40659799  0.38951042  1
  Ti  Ti77  1  0.90979531  0.39713962  0.73544612  1
  Ti  Ti78  1  0.86310943  0.79580490  0.08633214  1
  Ti  Ti79  1  0.88875061  0.79946135  0.41049530  1
  Ti  Ti80  1  0.87913063  0.73392292  0.81060946  1
  Ti  Ti81  1  0.24705509  0.24883977  0.24265192  1
  Ti  Ti82  1  0.23435467  0.32555834  0.56337724  1
  Ti  Ti83  1  0.18079522  0.29292371  0.92690439  1
  Ti  Ti84  1  0.28988762  0.60986788  0.28332645  1
  Ti  Ti85  1  0.21780900  0.61962161  0.61859276  1
  Ti  Ti86  1  0.24628747  0.59260976  0.94128153  1
  Ti  Ti87  1  0.22100622  0.89588579  0.20479660  1
  Ti  Ti88  1  0.28286943  0.85135416  0.64187098  1
  Ti  Ti89  1  0.22510547  0.92444170  0.97633357  1
  Ti  Ti90  1  0.56466642  0.29253114  0.21327063  1
  Ti  Ti91  1  0.54550309  0.21435973  0.58780762  1
  Ti  Ti92  1  0.55015832  0.23557082  0.94094998  1
  Ti  Ti93  1  0.65974021  0.57420100  0.29292607  1
  Ti  Ti94  1  0.64591345  0.58032577  0.54446733  1
  Ti  Ti95  1  0.61857474  0.61042026  0.89685077  1
  Ti  Ti96  1  0.56336294  0.91488451  0.11980138  1
  Ti  Ti97  1  0.63542499  0.82941535  0.60530901  1
  Ti  Ti98  1  0.62102953  0.94759845  0.93413142  1
  Ti  Ti99  1  0.86282133  0.19378006  0.27218190  1
  Ti  Ti100  1  0.86472042  0.21975126  0.55985526  1
  Ti  Ti101  1  0.98513618  0.25234223  0.88579402  1
  Ti  Ti102  1  0.87787241  0.67128214  0.25609097  1
  Ti  Ti103  1  0.90672100  0.58307076  0.64357639  1
  Ti  Ti104  1  0.93515537  0.58653486  0.95056470  1
  Ti  Ti105  1  0.98720239  0.84973223  0.23847887  1
  Ti  Ti106  1  0.86088593  0.89615698  0.57172963  1
  Ti  Ti107  1  0.92226285  0.89775036  0.93709091  1
  Co  Co108  1  0.14994851  0.51569132  0.25419363  1
  Co  Co109  1  0.60121152  0.43547135  0.90734177  1
  Co  Co110  1  0.58697442  0.92429846  0.76932509  1
  Co  Co111  1  0.16351354  0.52539914  0.77404012  1
  Co  Co112  1  0.71048772  0.19616148  0.63680019  1
  Co  Co113  1  0.01030321  0.72043765  0.12334104  1
  Co  Co114  1  0.66707183  0.30529339  0.00802299  1
  Co  Co115  1  -0.03309923  0.25473850  0.36486552  1
  Co  Co116  1  -0.01133259  0.74032369  -0.04012803  1
  Co  Co117  1  0.25525313  0.23095039  0.08012612  1
  Co  Co118  1  0.22767518  0.57536431  0.12522502  1
  Co  Co119  1  0.76322700  0.33080855  0.70583557  1
  Co  Co120  1  0.39863062  0.75131686  0.39634191  1
  Co  Co121  1  0.00914448  0.21577366  0.19055898  1
  Co  Co122  1  0.48548383  0.85519603  -0.05559492  1
  Co  Co123  1  0.00029605  -0.00195975  0.60301758  1
  Co  Co124  1  0.28558508  0.01436835  0.65241740  1
  Co  Co125  1  0.69802384  0.22502659  0.84833618  1
  Co  Co126  1  0.90907878  0.34003172  0.21107242  1
  Co  Co127  1  0.09314500  0.36013796  0.76656390  1
  Co  Co128  1  0.48711262  0.05245760  0.03645316  1
  Co  Co129  1  0.88262168  0.38265507  0.57291714  1
  Co  Co130  1  0.37613261  -0.01897066  -0.05789190  1
  Co  Co131  1  0.40907845  0.58527505  0.92790324  1
  Co  Co132  1  0.20946363  0.87765260  0.78714343  1
  Co  Co133  1  0.72813675  0.11258833  0.20337989  1
  Co  Co134  1  0.28916592  0.19452097  0.65214914  1
  Co  Co135  1  -0.03513946  0.29379349  0.04404750  1
  Co  Co136  1  0.64761214  0.10875836  -0.03339104  1
  Co  Co137  1  0.26398286  0.76941273  0.50079454  1
  Co  Co138  1  0.25548525  0.22238222  0.41940767  1
  Co  Co139  1  -0.07541444  -0.04782862  0.35592730  1
  Co  Co140  1  0.17182256  0.77229458  -0.07073591  1
  Co  Co141  1  0.90835922  0.63663260  0.44202084  1
  Co  Co142  1  0.30846900  0.44567403  0.89343847  1
  Co  Co143  1  0.83239121  0.53453369  0.32900150  1
  Co  Co144  1  0.53729244  0.20027653  0.77951859  1
  Co  Co145  1  0.51597205  0.04658545  0.85937862  1
  Co  Co146  1  0.76557757  0.85360062  -0.05015323  1
  Co  Co147  1  0.86867431  0.04166606  0.50252766  1
  Co  Co148  1  0.68462693  0.47651130  0.41165782  1
  Co  Co149  1  0.71006338  -0.04333074  0.66742978  1
  Co  Co150  1  0.75189752  0.66990161  0.38349429  1
  Co  Co151  1  0.01437107  0.91250130  0.47767612  1
  Co  Co152  1  0.32967172  0.83586213  0.88294345  1
  Co  Co153  1  0.66039160  0.20972239  0.46703594  1
  Co  Co154  1  0.49391151  0.80665086  0.69870207  1
  Co  Co155  1  0.92187933  -0.04525350  0.10632549  1
  Co  Co156  1  -0.06458025  0.89420674  0.73423832  1
  Co  Co157  1  0.16093489  0.47548498  0.01060654  1
  Co  Co158  1  0.68954905  0.23918677  0.29798152  1
  Co  Co159  1  0.08915936  -0.06248705  0.88853100  1
  Co  Co160  1  0.56774314  0.59639410  0.16578663  1
  Co  Co161  1  0.83066386  0.25805306  -0.04050061  1
  Ni  Ni162  1  0.27632457  0.20430531  0.81880612  1
  Ni  Ni163  1  0.53125000  0.50320096  0.63947375  1
  Ni  Ni164  1  0.24873510  0.49227543  0.50880689  1
  Ni  Ni165  1  0.23982869  0.11026326  -0.03228970  1
  Ni  Ni166  1  0.18768141  -0.06342988  0.51982025  1
  Ni  Ni167  1  0.39932220  0.31052365  0.63451696  1
  Ni  Ni168  1  0.11757534  0.33859011  0.09688258  1
  Ni  Ni169  1  0.94239134  0.02937598  0.83725109  1
  Ni  Ni170  1  0.03684883  0.73242375  0.39020362  1
  Ni  Ni171  1  0.78874237  0.80641504  0.69299842  1
  Ni  Ni172  1  0.40455726  0.32345653  0.28461404  1
  Ni  Ni173  1  0.64595430  0.50883314  0.76071553  1
  Ni  Ni174  1  0.32269575  0.56699473  0.76623761  1
  Ni  Ni175  1  0.08933642  0.62584815  0.88911107  1
  Ni  Ni176  1  0.62849107  0.77027886  -0.02832319  1
  Ni  Ni177  1  0.00129909  0.29057568  0.65008190  1
  Ni  Ni178  1  0.10761628  0.42915086  0.44828924  1
  Ni  Ni179  1  0.15977511  0.01635110  0.09908970  1
  Ni  Ni180  1  -0.05830750  0.50184199  0.21177784  1
  Ni  Ni181  1  0.50122028  0.21756187  0.41384343  1
  Ni  Ni182  1  0.25161176  0.77002712  0.32338799  1
  Ni  Ni183  1  -0.05932209  0.75199989  0.64473679  1
  Ni  Ni184  1  0.77144524  0.48796502  0.65938326  1
  Ni  Ni185  1  0.04067203  0.65653397  0.54408921  1
  Ni  Ni186  1  0.69187208  0.80679314  0.44434888  1
  Ni  Ni187  1  0.46558515  0.01289565  0.20850698  1
  Ni  Ni188  1  0.75597781  0.52806009  -0.00921773  1
  Ni  Ni189  1  0.10980921  0.18355809  0.30856573  1
  Ni  Ni190  1  0.87515395  0.62320447  0.09303472  1
  Ni  Ni191  1  0.34457661  0.75123783  0.17728787  1
  Ni  Ni192  1  -0.02390652  0.53688064  0.79452572  1
  Ni  Ni193  1  0.77388351  0.11660704  0.38734108  1
  Ni  Ni194  1  0.67623724  -0.04398712  0.23594496  1
  Ni  Ni195  1  0.01283445  0.03486967  0.00296213  1
  Ni  Ni196  1  -0.00256057  0.13820052  0.73304426  1
  Ni  Ni197  1  0.77030906  0.53234494  0.16943616  1
  Ni  Ni198  1  -0.01405404  0.50682291  0.51792595  1
  Ni  Ni199  1  0.53936139  0.54856258  0.02002672  1
  Ni  Ni200  1  0.70409269  0.83211472  0.11240789  1
  Ni  Ni201  1  0.47076336  0.83980394  0.25191792  1
  Ni  Ni202  1  0.50218619  0.73393398  0.54972969  1
  Ni  Ni203  1  0.46170675  0.40863148  0.14350776  1
  Ni  Ni204  1  0.35303332  0.73199727  0.00569126  1
  Ni  Ni205  1  0.51779892  0.51199865  0.45894975  1
  Ni  Ni206  1  0.90411255  0.41333597  0.91036066  1
  Ni  Ni207  1  0.31941840  0.45692922  0.22098214  1
  Ni  Ni208  1  0.31515042  0.01323055  0.27279188  1
  Ni  Ni209  1  0.52199762  0.37387677  0.54840855  1
  Ni  Ni210  1  0.80310581  0.83754477  0.26102928  1
  Ni  Ni211  1  0.34422069  0.29075935  -0.04816151  1
  Ni  Ni212  1  0.02366890  0.15136640  0.57306117  1
  Ni  Ni213  1  0.78469995  0.68707094  0.94253505  1
  Ni  Ni214  1  0.73282534  0.65001627  0.69680029  1
