# generated using pymatgen
data_Ti108Co54Ni53
_symmetry_space_group_name_H-M   'P 1'
_cell_length_a   14.65553655
_cell_length_b   14.55305033
_cell_length_c   14.64119844
_cell_angle_alpha   90.22155037
_cell_angle_beta   90.26068603
_cell_angle_gamma   90.26520081
_symmetry_Int_Tables_number   1
_chemical_formula_structural   Ti108Co54Ni53
_chemical_formula_sum   'Ti108 Co54 Ni53'
_cell_volume   3122.62585444
_cell_formula_units_Z   1
loop_
 _symmetry_equiv_pos_site_id
 _symmetry_equiv_pos_as_xyz
  1  'x, y, z'
loop_
 _atom_site_type_symbol
 _atom_site_label
 _atom_site_symmetry_multiplicity
 _atom_site_fract_x
 _atom_site_fract_y
 _atom_site_fract_z
 _atom_site_occupancy
  Ti  Ti0  1  0.03531640  0.03018844  0.17659546  1
  Ti  Ti1  1  0.03296220  0.08629118  0.53202842  1
  Ti  Ti2  1  0.12758903  0.05446440  0.85260295  1
  Ti  Ti3  1  0.12282763  0.49018528  0.26160943  1
  Ti  Ti4  1  0.08564278  0.39197978  0.53591449  1
  Ti  Ti5  1  0.05086829  0.43917569  0.97199718  1
  Ti  Ti6  1  0.13528497  0.70621288  0.28051652  1
  Ti  Ti7  1  0.04986172  0.84090710  0.56862043  1
  Ti  Ti8  1  0.07855679  0.74463153  0.89670152  1
  Ti  Ti9  1  0.39752764  0.07727626  0.28069033  1
  Ti  Ti10  1  0.37373276  0.10509604  0.61367599  1
  Ti  Ti11  1  0.41336715  0.07580752  0.99473777  1
  Ti  Ti12  1  0.39068346  0.41443018  0.28998684  1
  Ti  Ti13  1  0.42194531  0.41881314  0.61668336  1
  Ti  Ti14  1  0.45125496  0.38455441  0.96133616  1
  Ti  Ti15  1  0.46402931  0.79265200  0.21535296  1
  Ti  Ti16  1  0.45704607  0.76650914  0.55191284  1
  Ti  Ti17  1  0.38884639  0.70113331  0.91039730  1
  Ti  Ti18  1  0.75077267  0.11408244  0.32505504  1
  Ti  Ti19  1  0.70163053  0.11475379  0.54563774  1
  Ti  Ti20  1  0.74923178  0.06237380  0.89991439  1
  Ti  Ti21  1  0.69617739  0.44264177  0.28580487  1
  Ti  Ti22  1  0.74052265  0.38540603  0.62880399  1
  Ti  Ti23  1  0.76719872  0.39203439  0.95695330  1
  Ti  Ti24  1  0.79221365  0.73796623  0.22740980  1
  Ti  Ti25  1  0.83057591  0.68011785  0.60888889  1
  Ti  Ti26  1  0.73535995  0.73785220  0.81284565  1
  Ti  Ti27  1  0.13432125  0.33752390  0.12891899  1
  Ti  Ti28  1  0.15552657  0.24523310  0.41361430  1
  Ti  Ti29  1  0.08896812  0.31973892  0.73247544  1
  Ti  Ti30  1  0.05752766  0.63028185  0.12565583  1
  Ti  Ti31  1  0.13068086  0.57618035  0.44770095  1
  Ti  Ti32  1  0.03561702  0.57695958  0.79530159  1
  Ti  Ti33  1  0.03338018  0.90865254  0.00201448  1
  Ti  Ti34  1  0.16153812  0.93748711  0.46800026  1
  Ti  Ti35  1  0.12889052  0.97523664  0.67875202  1
  Ti  Ti36  1  0.32647832  0.29772004  0.10575725  1
  Ti  Ti37  1  0.46413689  0.24020582  0.39567467  1
  Ti  Ti38  1  0.45896878  0.20226179  0.83056422  1
  Ti  Ti39  1  0.36702463  0.55193692  0.06468182  1
  Ti  Ti40  1  0.46449579  0.61568287  0.38361858  1
  Ti  Ti41  1  0.44217132  0.56623434  0.73678200  1
  Ti  Ti42  1  0.42115140  0.87797410  0.03749815  1
  Ti  Ti43  1  0.50373136  0.91733636  0.40346350  1
  Ti  Ti44  1  0.39771507  0.90246276  0.70608097  1
  Ti  Ti45  1  0.77295890  0.29323096  0.14998003  1
  Ti  Ti46  1  0.73151398  0.30810953  0.43998936  1
  Ti  Ti47  1  0.77492243  0.24159396  0.80103319  1
  Ti  Ti48  1  0.71492424  0.61031949  0.05460593  1
  Ti  Ti49  1  0.78716011  0.61601109  0.41746141  1
  Ti  Ti50  1  0.73598124  0.56099092  0.71134441  1
  Ti  Ti51  1  0.66342128  0.82686966  0.05876288  1
  Ti  Ti52  1  0.76338152  0.92238856  0.38186704  1
  Ti  Ti53  1  0.69339694  0.92861157  0.75625749  1
  Ti  Ti54  1  0.21505569  0.14230454  0.04119223  1
  Ti  Ti55  1  0.32117537  0.02559306  0.43759068  1
  Ti  Ti56  1  0.26073390  0.15087850  0.74706180  1
  Ti  Ti57  1  0.25290312  0.41345765  -0.02749210  1
  Ti  Ti58  1  0.32439155  0.35661666  0.44887348  1
  Ti  Ti59  1  0.27741471  0.40511896  0.74978446  1
  Ti  Ti60  1  0.18239366  0.77600608  0.10055810  1
  Ti  Ti61  1  0.26280968  0.72878515  0.43184956  1
  Ti  Ti62  1  0.25450639  0.79032879  0.79965683  1
  Ti  Ti63  1  0.58308532  0.12100652  0.11150680  1
  Ti  Ti64  1  0.51189548  0.09353864  0.49184427  1
  Ti  Ti65  1  0.56562269  0.03898425  0.67431844  1
  Ti  Ti66  1  0.59465138  0.36229262  0.11852727  1
  Ti  Ti67  1  0.52685549  0.45067294  0.45158623  1
  Ti  Ti68  1  0.59455140  0.42387931  0.78281747  1
  Ti  Ti69  1  0.51778243  0.69813685  0.06111740  1
  Ti  Ti70  1  0.62710798  0.75910996  0.38457583  1
  Ti  Ti71  1  0.53214862  0.76372509  0.78698877  1
  Ti  Ti72  1  0.92894460  0.12930804  0.01728409  1
  Ti  Ti73  1  0.95302790  0.08517526  0.35732282  1
  Ti  Ti74  1  0.94022386  0.13781779  0.72853682  1
  Ti  Ti75  1  0.93499607  0.31954703  0.07551860  1
  Ti  Ti76  1  0.86271089  0.42932412  0.37001294  1
  Ti  Ti77  1  0.91571887  0.35791885  0.68796888  1
  Ti  Ti78  1  0.92621567  0.76479001  0.08116669  1
  Ti  Ti79  1  0.97334808  0.70442323  0.45270174  1
  Ti  Ti80  1  0.97356653  0.85892963  0.74985081  1
  Ti  Ti81  1  0.20896321  0.14090097  0.23483674  1
  Ti  Ti82  1  0.23148831  0.26436495  0.59868318  1
  Ti  Ti83  1  0.17746861  0.26393547  0.88432726  1
  Ti  Ti84  1  0.28965553  0.57196066  0.31124870  1
  Ti  Ti85  1  0.28216774  0.59049855  0.60544610  1
  Ti  Ti86  1  0.20364113  0.61047934  0.95812131  1
  Ti  Ti87  1  0.21237547  0.91520833  0.27859915  1
  Ti  Ti88  1  0.24788843  0.80186265  0.60707397  1
  Ti  Ti89  1  0.23855986  0.94614601  0.96801545  1
  Ti  Ti90  1  0.48834012  0.25229485  0.21037178  1
  Ti  Ti91  1  0.58419550  0.29620763  0.56752835  1
  Ti  Ti92  1  0.62685364  0.24558159  0.93325448  1
  Ti  Ti93  1  0.61159411  0.63136977  0.22281746  1
  Ti  Ti94  1  0.62154505  0.62896327  0.55643346  1
  Ti  Ti95  1  0.52536618  0.56567069  0.91507791  1
  Ti  Ti96  1  0.60640467  0.95468690  0.23252331  1
  Ti  Ti97  1  0.64873206  0.90711592  0.54127970  1
  Ti  Ti98  1  0.54065361  0.98576087  0.86794106  1
  Ti  Ti99  1  0.98275200  0.30136135  0.26568461  1
  Ti  Ti100  1  0.86767225  0.20257376  0.55056417  1
  Ti  Ti101  1  0.93311091  0.30243987  0.88599883  1
  Ti  Ti102  1  0.94325707  0.58382044  0.27949079  1
  Ti  Ti103  1  0.99565947  0.54743187  0.60205799  1
  Ti  Ti104  1  0.85294976  0.61098697  0.91513277  1
  Ti  Ti105  1  0.90168288  0.90655156  0.25330947  1
  Ti  Ti106  1  0.86201313  0.86344335  0.54297246  1
  Ti  Ti107  1  0.85575995  0.87488503  0.90042719  1
  Co  Co108  1  0.28867016  0.09899536  0.89481216  1
  Co  Co109  1  0.15578257  0.50553934  0.07971291  1
  Co  Co110  1  0.75884385  0.11905547  0.70570053  1
  Co  Co111  1  -0.00258325  0.23520678  0.43029572  1
  Co  Co112  1  -0.04529018  0.88817003  0.41818608  1
  Co  Co113  1  0.85685940  0.42854758  0.20143428  1
  Co  Co114  1  0.38473446  0.15241368  0.13526144  1
  Co  Co115  1  0.24663683  0.43476767  0.57328512  1
  Co  Co116  1  0.88698000  0.51907770  0.71698054  1
  Co  Co117  1  0.66998043  0.74656931  0.66191203  1
  Co  Co118  1  0.63549878  0.01872136  0.40510314  1
  Co  Co119  1  0.40661892  0.04846695  0.78898060  1
  Co  Co120  1  0.06811581  0.25790832  0.00073273  1
  Co  Co121  1  0.81796834  0.83390762  0.70703531  1
  Co  Co122  1  0.79035485  0.75171031  -0.00861200  1
  Co  Co123  1  0.31066902  0.18127548  0.44836432  1
  Co  Co124  1  0.02795403  0.24843329  0.59236345  1
  Co  Co125  1  0.45185044  -0.04731970  0.55737892  1
  Co  Co126  1  0.43198332  0.39679612  0.80424935  1
  Co  Co127  1  0.07739288  0.07032213  0.01103268  1
  Co  Co128  1  0.77881352  0.57687540  0.24764138  1
  Co  Co129  1  -0.03487205  0.53184169  0.44304232  1
  Co  Co130  1  0.10472018  0.14662760  0.69516496  1
  Co  Co131  1  0.72202089  0.46905590  0.12184752  1
  Co  Co132  1  0.58337190  0.48090851  0.62486734  1
  Co  Co133  1  0.33614296  0.25818560  -0.07544671  1
  Co  Co134  1  0.68773223  0.89022150  0.91376576  1
  Co  Co135  1  0.73163775  0.77031588  0.50498077  1
  Co  Co136  1  0.19802066  0.43945731  0.40871935  1
  Co  Co137  1  0.77581477  0.40837042  0.79364514  1
  Co  Co138  1  0.23418743  0.62081430  0.15991945  1
  Co  Co139  1  0.45691399  0.59017003  0.56812167  1
  Co  Co140  1  0.25827390  -0.03671696  0.77943201  1
  Co  Co141  1  0.43737534  0.41955156  0.13461535  1
  Co  Co142  1  0.36824854  0.27146144  0.71261572  1
  Co  Co143  1  0.10450058  0.79573582  0.40665553  1
  Co  Co144  1  0.04206540  0.40054365  0.38005331  1
  Co  Co145  1  0.59643357  0.61638336  0.76313020  1
  Co  Co146  1  0.33223064  0.86750392  0.47482170  1
  Co  Co147  1  0.87688187  0.61461471  0.11668980  1
  Co  Co148  1  0.42648613  0.61103166  0.20677511  1
  Co  Co149  1  0.63082222  0.12146933  0.80575764  1
  Co  Co150  1  0.34700375  0.52239340  0.46163758  1
  Co  Co151  1  0.46487222  -0.01270588  0.15658030  1
  Co  Co152  1  0.83773122  0.77552857  0.37835115  1
  Co  Co153  1  0.35342916  0.71722076  0.08876298  1
  Co  Co154  1  0.30745937  0.86757304  0.14590982  1
  Co  Co155  1  0.26069547  0.78484269  -0.03762383  1
  Co  Co156  1  0.53340858  0.82695833  -0.06380441  1
  Co  Co157  1  0.62912138  0.58376171  0.37769303  1
  Co  Co158  1  0.30007963  0.02480827  0.14030628  1
  Co  Co159  1  0.10784099  0.89311334  0.84227168  1
  Co  Co160  1  0.11916926  0.77427217  0.71871880  1
  Co  Co161  1  0.62923702  0.27579441  0.74448686  1
  Ni  Ni162  1  0.69246555  0.46709867  0.48176552  1
  Ni  Ni163  1  0.33324270  0.24107706  0.28814585  1
  Ni  Ni164  1  0.55490999  0.86808945  0.66403415  1
  Ni  Ni165  1  0.57747045  -0.02680591  0.02982578  1
  Ni  Ni166  1  0.27760014  -0.03224139  0.60111399  1
  Ni  Ni167  1  0.15021425  0.45598362  0.84004986  1
  Ni  Ni168  1  0.00709235  0.61229365  -0.02583770  1
  Ni  Ni169  1  0.51309315  0.18912446  0.66902368  1
  Ni  Ni170  1  0.61394884  0.43791073  -0.02604154  1
  Ni  Ni171  1  0.55712642  0.10357312  0.28641676  1
  Ni  Ni172  1  0.91575468  0.36346257  0.51469851  1
  Ni  Ni173  1  0.85490934  0.24091317  0.35494066  1
  Ni  Ni174  1  0.69824935  0.54645550  0.87954607  1
  Ni  Ni175  1  0.63108511  0.69731414  -0.07237364  1
  Ni  Ni176  1  0.30535107  0.74105113  0.25896235  1
  Ni  Ni177  1  0.83752534  0.50899936  0.55046734  1
  Ni  Ni178  1  0.05057468  0.18996608  0.14805778  1
  Ni  Ni179  1  -0.02846395  0.75364939  0.27928007  1
  Ni  Ni180  1  0.20161674  0.33507583  0.28035700  1
  Ni  Ni181  1  0.62330461  0.19288289  0.40843590  1
  Ni  Ni182  1  0.53292000  0.48946936  0.26338125  1
  Ni  Ni183  1  0.63715806  0.79533311  0.21745465  1
  Ni  Ni184  1  -0.07936937  0.46327001  0.86527177  1
  Ni  Ni185  1  0.16293642  -0.04624315  0.11148991  1
  Ni  Ni186  1  0.04873159  0.85330263  0.17781358  1
  Ni  Ni187  1  0.00464403  0.46517589  0.14575265  1
  Ni  Ni188  1  0.88388015  0.48005690  0.03168696  1
  Ni  Ni189  1  -0.05439755  -0.01460242  0.63198730  1
  Ni  Ni190  1  0.42462604  0.76981704  0.37859164  1
  Ni  Ni191  1  0.85891409  0.03392239  0.48452354  1
  Ni  Ni192  1  0.38354650  0.90149663  0.87735596  1
  Ni  Ni193  1  0.13533283  0.67778035  0.57747453  1
  Ni  Ni194  1  0.79306493  0.22302194  -0.01732097  1
  Ni  Ni195  1  0.27446361  0.44972677  0.17244661  1
  Ni  Ni196  1  0.05939802  -0.05224349  0.32227942  1
  Ni  Ni197  1  0.57532663  0.34295480  0.32986673  1
  Ni  Ni198  1  0.21708151  0.60880010  0.78559081  1
  Ni  Ni199  1  0.34487367  0.52828781  0.88134707  1
  Ni  Ni200  1  0.85228811  -0.00700701  0.77148071  1
  Ni  Ni201  1  0.14541503  0.08013322  0.37729987  1
  Ni  Ni202  1  -0.01156763  0.70695715  0.64800990  1
  Ni  Ni203  1  0.65750050  0.23059233  0.24394039  1
  Ni  Ni204  1  0.37381470  -0.09230462  0.29556475  1
  Ni  Ni205  1  0.19726110  0.10584978  0.54840033  1
  Ni  Ni206  1  0.13599174  0.50029291  0.67456384  1
  Ni  Ni207  1  0.48394465  0.23182098  0.02495531  1
  Ni  Ni208  1  -0.03844332  0.01669429  -0.10961559  1
  Ni  Ni209  1  0.41875891  0.25795516  0.55411943  1
  Ni  Ni210  1  0.37669053  0.71501267  0.69645880  1
  Ni  Ni211  1  0.89176753  0.69328716  0.77499206  1
  Ni  Ni212  1  0.77764871  -0.01607866  0.62238499  1
  Ni  Ni213  1  0.54864205  0.53350760  0.09634664  1
  Ni  Ni214  1  0.02426224  0.17259491  0.86978618  1
