# generated using pymatgen
data_Ti108Co54Ni53
_symmetry_space_group_name_H-M   'P 1'
_cell_length_a   14.56057444
_cell_length_b   14.56325168
_cell_length_c   14.51963385
_cell_angle_alpha   90.07827499
_cell_angle_beta   90.11628759
_cell_angle_gamma   90.11683286
_symmetry_Int_Tables_number   1
_chemical_formula_structural   Ti108Co54Ni53
_chemical_formula_sum   'Ti108 Co54 Ni53'
_cell_volume   3078.86270915
_cell_formula_units_Z   1
loop_
 _symmetry_equiv_pos_site_id
 _symmetry_equiv_pos_as_xyz
  1  'x, y, z'
loop_
 _atom_site_type_symbol
 _atom_site_label
 _atom_site_symmetry_multiplicity
 _atom_site_fract_x
 _atom_site_fract_y
 _atom_site_fract_z
 _atom_site_occupancy
  Ti  Ti0  1  0.07292036  0.14167400  0.24194326  1
  Ti  Ti1  1  0.05132863  0.02149244  0.53064995  1
  Ti  Ti2  1  0.08788224  0.12273180  0.86219537  1
  Ti  Ti3  1  0.02399404  0.41711440  0.26244899  1
  Ti  Ti4  1  0.05454449  0.45399627  0.54770750  1
  Ti  Ti5  1  0.04872791  0.44080443  0.98018049  1
  Ti  Ti6  1  0.12023949  0.73772156  0.14049239  1
  Ti  Ti7  1  0.10753261  0.76677247  0.50172243  1
  Ti  Ti8  1  0.10439575  0.64036008  0.93641505  1
  Ti  Ti9  1  0.39956014  0.13589665  0.25581389  1
  Ti  Ti10  1  0.41882273  0.14247675  0.62673874  1
  Ti  Ti11  1  0.38935142  -0.00302862  0.93947893  1
  Ti  Ti12  1  0.35554242  0.35196608  0.26186230  1
  Ti  Ti13  1  0.38500964  0.37934337  0.57433253  1
  Ti  Ti14  1  0.44934608  0.43138715  0.95150899  1
  Ti  Ti15  1  0.42597455  0.76627109  0.32145961  1
  Ti  Ti16  1  0.43184313  0.73952558  0.54146565  1
  Ti  Ti17  1  0.43823323  0.76316043  0.88310707  1
  Ti  Ti18  1  0.73043809  0.11397394  0.34617791  1
  Ti  Ti19  1  0.76045013  0.05130843  0.63013930  1
  Ti  Ti20  1  0.77547032  0.11885102  0.92981693  1
  Ti  Ti21  1  0.68804315  0.37556352  0.30485616  1
  Ti  Ti22  1  0.73515695  0.42995829  0.68182817  1
  Ti  Ti23  1  0.73849859  0.41376404  0.94938179  1
  Ti  Ti24  1  0.79156954  0.76486311  0.23495396  1
  Ti  Ti25  1  0.80579283  0.74347681  0.60303572  1
  Ti  Ti26  1  0.80959844  0.71048045  0.88581088  1
  Ti  Ti27  1  0.10705545  0.31903268  0.11534547  1
  Ti  Ti28  1  0.07312867  0.17428093  0.43377504  1
  Ti  Ti29  1  0.13509467  0.27367755  0.71664328  1
  Ti  Ti30  1  0.12213063  0.53639460  0.14255680  1
  Ti  Ti31  1  0.10138989  0.63719871  0.31859150  1
  Ti  Ti32  1  0.07138204  0.60568675  0.71710219  1
  Ti  Ti33  1  0.13899813  0.91362277  0.06722650  1
  Ti  Ti34  1  0.17002346  0.96766285  0.39333049  1
  Ti  Ti35  1  0.03842398  0.92472104  0.79178129  1
  Ti  Ti36  1  0.37086031  0.27567002  0.05486126  1
  Ti  Ti37  1  0.50852995  0.23301351  0.35570103  1
  Ti  Ti38  1  0.39762391  0.25560343  0.81260155  1
  Ti  Ti39  1  0.42021496  0.60390833  0.18174091  1
  Ti  Ti40  1  0.41350733  0.57249523  0.41381454  1
  Ti  Ti41  1  0.42761680  0.59564653  0.73443063  1
  Ti  Ti42  1  0.50824787  0.93713309  0.09160455  1
  Ti  Ti43  1  0.47302648  0.97276586  0.37257218  1
  Ti  Ti44  1  0.36891464  0.89318644  0.75734418  1
  Ti  Ti45  1  0.71178220  0.26956908  0.10231546  1
  Ti  Ti46  1  0.74111961  0.33740143  0.52906365  1
  Ti  Ti47  1  0.78528528  0.27195406  0.78833441  1
  Ti  Ti48  1  0.70264510  0.59304110  0.02727683  1
  Ti  Ti49  1  0.78617241  0.63629078  0.43135125  1
  Ti  Ti50  1  0.74306896  0.55451679  0.81130376  1
  Ti  Ti51  1  0.69081840  0.94300549  -0.00119376  1
  Ti  Ti52  1  0.73827407  0.82339336  0.43397386  1
  Ti  Ti53  1  0.74875967  0.97528832  0.81288718  1
  Ti  Ti54  1  0.22903125  0.08580139  0.02826995  1
  Ti  Ti55  1  0.34413489  0.06652839  0.46263856  1
  Ti  Ti56  1  0.25159658  0.10219500  0.72590041  1
  Ti  Ti57  1  0.25026154  0.47430125  0.00605592  1
  Ti  Ti58  1  0.21670005  0.34686632  0.42994947  1
  Ti  Ti59  1  0.28356104  0.43194399  0.73688731  1
  Ti  Ti60  1  0.29735719  0.78251885  0.06298472  1
  Ti  Ti61  1  0.26308652  0.69451663  0.41691795  1
  Ti  Ti62  1  0.18709186  0.77161973  0.76234782  1
  Ti  Ti63  1  0.53864808  0.14383939  0.10971913  1
  Ti  Ti64  1  0.56448336  0.10338539  0.47891908  1
  Ti  Ti65  1  0.57706484  0.05759159  0.70151466  1
  Ti  Ti66  1  0.59481423  0.42918331  0.06802520  1
  Ti  Ti67  1  0.57266952  0.46126068  0.44979445  1
  Ti  Ti68  1  0.59670879  0.34659946  0.80635221  1
  Ti  Ti69  1  0.58342199  0.72643694  0.13713733  1
  Ti  Ti70  1  0.59973505  0.66737949  0.47034411  1
  Ti  Ti71  1  0.53809260  0.75631761  0.71798341  1
  Ti  Ti72  1  0.94746366  0.10537719  0.01408386  1
  Ti  Ti73  1  0.88207459  0.10309357  0.48328717  1
  Ti  Ti74  1  0.91338881  0.11504763  0.76979879  1
  Ti  Ti75  1  0.90003830  0.37615536  0.10444469  1
  Ti  Ti76  1  0.86721272  0.43066326  0.38164578  1
  Ti  Ti77  1  0.93958661  0.34704262  0.68713688  1
  Ti  Ti78  1  0.86031835  0.69946480  0.07341679  1
  Ti  Ti79  1  0.93460890  0.74738552  0.40842967  1
  Ti  Ti80  1  0.87494691  0.84878987  0.75503701  1
  Ti  Ti81  1  0.24119818  0.20442094  0.18258423  1
  Ti  Ti82  1  0.22391180  0.18438220  0.54303694  1
  Ti  Ti83  1  0.20355466  0.26175647  0.94668765  1
  Ti  Ti84  1  0.26335628  0.51673720  0.27707285  1
  Ti  Ti85  1  0.26184726  0.59584174  0.59903829  1
  Ti  Ti86  1  0.28946400  0.65833811  0.92197909  1
  Ti  Ti87  1  0.27219872  0.87226630  0.23583287  1
  Ti  Ti88  1  0.27355103  0.85677992  0.56818533  1
  Ti  Ti89  1  0.20145570  0.96670829  0.87919031  1
  Ti  Ti90  1  0.52945428  0.32433436  0.19632470  1
  Ti  Ti91  1  0.55678936  0.27976789  0.55146204  1
  Ti  Ti92  1  0.57917101  0.15675636  0.87668073  1
  Ti  Ti93  1  0.62497552  0.55004880  0.21871570  1
  Ti  Ti94  1  0.60758887  0.57789017  0.64102209  1
  Ti  Ti95  1  0.60626543  0.67323245  0.88753607  1
  Ti  Ti96  1  0.58661483  0.88185037  0.26639247  1
  Ti  Ti97  1  0.61948962  0.93602042  0.53844163  1
  Ti  Ti98  1  0.54955685  0.92345900  0.84417569  1
  Ti  Ti99  1  0.93119426  0.22358342  0.31473015  1
  Ti  Ti100  1  0.93075417  0.28829121  0.50977916  1
  Ti  Ti101  1  0.88591111  0.28913537  0.94350813  1
  Ti  Ti102  1  0.91350235  0.60914583  0.27328713  1
  Ti  Ti103  1  0.94598464  0.61681458  0.55983668  1
  Ti  Ti104  1  0.93373888  0.57407321  0.88091562  1
  Ti  Ti105  1  1.04137668  0.92424866  0.23593020  1
  Ti  Ti106  1  0.94192935  0.87041248  0.56137523  1
  Ti  Ti107  1  0.98458389  0.81797927  0.95563694  1
  Co  Co108  1  0.02849021  0.74983033  0.81025422  1
  Co  Co109  1  0.53954070  0.57766941  0.04908171  1
  Co  Co110  1  0.28296214  0.13170609  0.88001773  1
  Co  Co111  1  0.20956672  0.01734699  0.56480115  1
  Co  Co112  1  0.46215026  0.59612060  0.90224425  1
  Co  Co113  1  0.09205446  0.29529139  0.55967626  1
  Co  Co114  1  0.35719063  -0.00481139  0.63571011  1
  Co  Co115  1  0.78706445  0.58968631  0.17108596  1
  Co  Co116  1  0.43124122  0.69303983  0.03495448  1
  Co  Co117  1  0.12286429  0.45067570  0.69907567  1
  Co  Co118  1  0.55429439  0.03304110  -0.02940957  1
  Co  Co119  1  0.17135175  0.32451386  0.27647891  1
  Co  Co120  1  0.42867442  0.80919117  0.16341948  1
  Co  Co121  1  0.71588560  0.13134019  0.76708944  1
  Co  Co122  1  0.00956336  0.17213774  0.62407145  1
  Co  Co123  1  0.32534754  0.23815385  0.36812940  1
  Co  Co124  1  0.31308300  0.86018742  0.40576039  1
  Co  Co125  1  0.24875137  0.39571248  0.14559496  1
  Co  Co126  1  0.35169130  0.74263078  0.68742935  1
  Co  Co127  1  0.15416738  0.37945713  0.85525715  1
  Co  Co128  1  0.25662261  0.62088541  0.75279697  1
  Co  Co129  1  0.57172210  0.06771116  0.27971218  1
  Co  Co130  1  0.64575793  0.26241306  0.40965646  1
  Co  Co131  1  0.74892059  0.53211830  0.31888847  1
  Co  Co132  1  -0.07630573  0.01072167  0.64402330  1
  Co  Co133  1  0.54301847  0.28337170  0.00812020  1
  Co  Co134  1  0.65069674  0.20954530  0.24154861  1
  Co  Co135  1  0.04449899  0.34187064  0.40016916  1
  Co  Co136  1  0.14821375  0.79292535  -0.05661652  1
  Co  Co137  1  0.43090020  -0.02422916  0.21474985  1
  Co  Co138  1  0.80605836  0.26282370  0.39741515  1
  Co  Co139  1  0.66523458  -0.03311522  0.38285275  1
  Co  Co140  1  0.74356644  0.43453011  0.14370358  1
  Co  Co141  1  0.16300495  0.53337057  -0.15477446  1
  Co  Co142  1  0.46295957  0.43795600  0.77856212  1
  Co  Co143  1  0.33379122  0.51784557  0.85948426  1
  Co  Co144  1  0.13867632  0.48172692  0.37446715  1
  Co  Co145  1  0.71290769  0.76220313  0.02164323  1
  Co  Co146  1  -0.01016089  0.75953035  0.25302385  1
  Co  Co147  1  0.53028513  0.21771694  0.71972955  1
  Co  Co148  1  0.56702257  0.41265273  0.64136201  1
  Co  Co149  1  0.55795080  0.82466394  0.43052581  1
  Co  Co150  1  0.84659816  -0.05286270  0.45204583  1
  Co  Co151  1  0.67220949  0.81877435  0.86351144  1
  Co  Co152  1  0.43069160  0.16233463  -0.04581485  1
  Co  Co153  1  0.09220170  0.12643922  0.08176448  1
  Co  Co154  1  0.37903316  0.10136271  0.09954181  1
  Co  Co155  1  0.40805439  0.22713143  0.49648409  1
  Co  Co156  1  0.00371505  0.74545486  0.64579808  1
  Co  Co157  1  0.05666390  -0.00830304  -0.03591592  1
  Co  Co158  1  0.31278238  0.36487237  -0.10853703  1
  Co  Co159  1  0.78149330  0.89964956  0.60291275  1
  Co  Co160  1  0.21839003  0.39516218  0.58782301  1
  Co  Co161  1  0.62517231  0.77613772  0.58595980  1
  Ni  Ni162  1  -0.04719427  0.52174042  0.14272159  1
  Ni  Ni163  1  0.25852443  0.69572926  0.24421586  1
  Ni  Ni164  1  0.81876277  0.30327121  0.23211937  1
  Ni  Ni165  1  0.01286351  0.44236330  0.81393223  1
  Ni  Ni166  1  0.69302541  0.26015455  -0.06180521  1
  Ni  Ni167  1  0.30737743  0.00877993  0.31350864  1
  Ni  Ni168  1  0.00799972  0.64821268  0.06407374  1
  Ni  Ni169  1  0.85289814  0.51907078  0.01415777  1
  Ni  Ni170  1  0.71149191  0.70673024  0.73551694  1
  Ni  Ni171  1  0.55875884  0.81669312  -0.00791266  1
  Ni  Ni172  1  0.12114379  0.60362835  0.50113336  1
  Ni  Ni173  1  0.14476141  0.80396822  0.32499870  1
  Ni  Ni174  1  0.03899627  0.24966111  -0.01757081  1
  Ni  Ni175  1  0.09993955  0.87911747  0.62686980  1
  Ni  Ni176  1  0.85384685  0.42017773  0.82742633  1
  Ni  Ni177  1  0.72320784  0.50124903  0.49300491  1
  Ni  Ni178  1  0.65664904  0.72691286  0.31717693  1
  Ni  Ni179  1  0.18546213  0.02607578  0.19744654  1
  Ni  Ni180  1  0.44812365  0.53303032  0.57464686  1
  Ni  Ni181  1  0.29472225  0.84010694  0.90169707  1
  Ni  Ni182  1  0.52858660  0.63555486  0.31766398  1
  Ni  Ni183  1  0.43354311  -0.09066234  0.51747380  1
  Ni  Ni184  1  0.87308132  0.45426728  0.55553669  1
  Ni  Ni185  1  0.88429431  0.88344280  0.30620577  1
  Ni  Ni186  1  0.72470398  0.16829949  0.51487841  1
  Ni  Ni187  1  -0.01272679  0.54264679  0.41008628  1
  Ni  Ni188  1  -0.04005988  0.83483756  0.11861029  1
  Ni  Ni189  1  0.26989958  0.61319687  0.09951341  1
  Ni  Ni190  1  0.89274383  0.67139339  0.74266944  1
  Ni  Ni191  1  0.91045941  -0.01205002  0.88756560  1
  Ni  Ni192  1  0.91173794  0.51615984  0.70455798  1
  Ni  Ni193  1  0.20915615  0.13971677  0.34563219  1
  Ni  Ni194  1  0.84126880  0.20427802  0.63272923  1
  Ni  Ni195  1  -0.02270529  0.04223063  0.35259159  1
  Ni  Ni196  1  0.67647271  0.25052072  0.66196958  1
  Ni  Ni197  1  0.21421536  -0.06064369  0.71468206  1
  Ni  Ni198  1  0.02047951  0.88941736  0.40308425  1
  Ni  Ni199  1  0.48937355  0.47236172  0.28896301  1
  Ni  Ni200  1  -0.04113001  0.22488413  0.13496735  1
  Ni  Ni201  1  0.77807996  0.58498546  0.62505230  1
  Ni  Ni202  1  0.50262969  0.90673772  0.66228306  1
  Ni  Ni203  1  0.31831138  -0.05246847  0.08554432  1
  Ni  Ni204  1  0.68780833  0.86798550  0.14266089  1
  Ni  Ni205  1  0.00567436  0.26991859  0.82311012  1
  Ni  Ni206  1  0.59781658  0.49883776  0.89422491  1
  Ni  Ni207  1  0.65923695  -0.11476642  0.70840087  1
  Ni  Ni208  1  0.42644893  0.37887995  0.41496950  1
  Ni  Ni209  1  0.42492134  0.07837538  0.79164302  1
  Ni  Ni210  1  0.27804333  0.50048357  0.46589330  1
  Ni  Ni211  1  0.81950124  0.86316170  -0.06514645  1
  Ni  Ni212  1  0.30071251  0.26416573  0.66679366  1
  Ni  Ni213  1  0.09323750  0.05088620  0.69674635  1
  Ni  Ni214  1  0.41932787  0.44433292  0.12683866  1
