# generated using pymatgen
data_Ti108Co54Ni53
_symmetry_space_group_name_H-M   'P 1'
_cell_length_a   14.67939683
_cell_length_b   14.68811801
_cell_length_c   14.63884226
_cell_angle_alpha   90.31952713
_cell_angle_beta   89.90658258
_cell_angle_gamma   90.03322670
_symmetry_Int_Tables_number   1
_chemical_formula_structural   Ti108Co54Ni53
_chemical_formula_sum   'Ti108 Co54 Ni53'
_cell_volume   3156.26670258
_cell_formula_units_Z   1
loop_
 _symmetry_equiv_pos_site_id
 _symmetry_equiv_pos_as_xyz
  1  'x, y, z'
loop_
 _atom_site_type_symbol
 _atom_site_label
 _atom_site_symmetry_multiplicity
 _atom_site_fract_x
 _atom_site_fract_y
 _atom_site_fract_z
 _atom_site_occupancy
  Ti  Ti0  1  0.11843306  0.04832430  0.30093834  1
  Ti  Ti1  1  0.12286014  0.08397516  0.49411268  1
  Ti  Ti2  1  0.10481109  0.06173866  0.96687416  1
  Ti  Ti3  1  0.10957669  0.43632092  0.27341500  1
  Ti  Ti4  1  0.10142167  0.34228656  0.61984353  1
  Ti  Ti5  1  0.21523632  0.42041458  0.87779512  1
  Ti  Ti6  1  0.03905317  0.75766229  0.22780128  1
  Ti  Ti7  1  0.12968448  0.73162816  0.53781694  1
  Ti  Ti8  1  0.05552974  0.72740865  0.88607038  1
  Ti  Ti9  1  0.44022994  0.13540966  0.21861787  1
  Ti  Ti10  1  0.42336099  0.07156825  0.61108662  1
  Ti  Ti11  1  0.40610183  0.12438041  0.91497496  1
  Ti  Ti12  1  0.44556113  0.34925377  0.17079818  1
  Ti  Ti13  1  0.46085785  0.39788569  0.62323544  1
  Ti  Ti14  1  0.42087168  0.46355431  0.85108541  1
  Ti  Ti15  1  0.35653647  0.75860745  0.21863164  1
  Ti  Ti16  1  0.41250997  0.74140780  0.56383968  1
  Ti  Ti17  1  0.37638576  0.78289505  0.89344988  1
  Ti  Ti18  1  0.72787122  0.04431544  0.18374655  1
  Ti  Ti19  1  0.74497648  0.13887440  0.52467771  1
  Ti  Ti20  1  0.69914464  -0.00272040  0.95040865  1
  Ti  Ti21  1  0.74144959  0.40200731  0.39083774  1
  Ti  Ti22  1  0.79354046  0.41612507  0.61736237  1
  Ti  Ti23  1  0.74038645  0.36687957  0.91804263  1
  Ti  Ti24  1  0.69918258  0.82357509  0.25585257  1
  Ti  Ti25  1  0.72152298  0.70930349  0.57977269  1
  Ti  Ti26  1  0.79943262  0.75001701  0.91415896  1
  Ti  Ti27  1  0.14777282  0.25308304  0.19702395  1
  Ti  Ti28  1  0.04736467  0.26493814  0.43820749  1
  Ti  Ti29  1  0.06467458  0.17274952  0.72535431  1
  Ti  Ti30  1  0.08143999  0.56864210  0.13025529  1
  Ti  Ti31  1  0.06498412  0.57211633  0.44866055  1
  Ti  Ti32  1  0.06495113  0.66055277  0.70325027  1
  Ti  Ti33  1  0.11086519  0.94483187  0.14747045  1
  Ti  Ti34  1  0.14134906  0.89544486  0.43508402  1
  Ti  Ti35  1  0.11560367  0.99030354  0.77593114  1
  Ti  Ti36  1  0.31743325  0.22348510  0.09404864  1
  Ti  Ti37  1  0.43028957  0.15435821  0.44073538  1
  Ti  Ti38  1  0.37240330  0.28877092  0.77481245  1
  Ti  Ti39  1  0.47722667  0.55012583  0.06578586  1
  Ti  Ti40  1  0.42605549  0.58991092  0.35521848  1
  Ti  Ti41  1  0.40720623  0.59074676  0.68458094  1
  Ti  Ti42  1  0.40573734  0.88077704  0.06991898  1
  Ti  Ti43  1  0.41836334  0.90689912  0.43747649  1
  Ti  Ti44  1  0.37283434  0.95136408  0.75961349  1
  Ti  Ti45  1  0.74384687  0.22561696  0.10753142  1
  Ti  Ti46  1  0.75726315  0.20760788  0.33800002  1
  Ti  Ti47  1  0.68700405  0.26660540  0.68979380  1
  Ti  Ti48  1  0.68299101  0.61444341  0.08463481  1
  Ti  Ti49  1  0.76673621  0.66657943  0.39007459  1
  Ti  Ti50  1  0.70782808  0.63760445  0.78230613  1
  Ti  Ti51  1  0.81280673  0.91295042  0.06840522  1
  Ti  Ti52  1  0.79086724  0.97320927  0.39728605  1
  Ti  Ti53  1  0.74126948  0.94108136  0.73853726  1
  Ti  Ti54  1  0.26945126  0.04687594  0.06063393  1
  Ti  Ti55  1  0.29127282  0.05902939  0.37714674  1
  Ti  Ti56  1  0.23489731  0.07623801  0.65690443  1
  Ti  Ti57  1  0.31018648  0.42322552  0.05825507  1
  Ti  Ti58  1  0.25476488  0.49685825  0.37585281  1
  Ti  Ti59  1  0.27440418  0.40524033  0.68105995  1
  Ti  Ti60  1  0.19907744  0.70184801  0.01302119  1
  Ti  Ti61  1  0.23198243  0.71077190  0.35771677  1
  Ti  Ti62  1  0.23659417  0.70117783  0.78772981  1
  Ti  Ti63  1  0.58414394  0.11767210  0.04807407  1
  Ti  Ti64  1  0.61363605  0.09278442  0.38981408  1
  Ti  Ti65  1  0.62055291  0.06554147  0.66640555  1
  Ti  Ti66  1  0.62806923  0.41495246  0.09102744  1
  Ti  Ti67  1  0.54691497  0.45278169  0.42805492  1
  Ti  Ti68  1  0.57550922  0.38073221  0.77320730  1
  Ti  Ti69  1  0.55650390  0.76631724  0.11456287  1
  Ti  Ti70  1  0.56899906  0.76790144  0.43651723  1
  Ti  Ti71  1  0.53299073  0.73632747  0.77470448  1
  Ti  Ti72  1  0.94277047  0.05787776  0.14721615  1
  Ti  Ti73  1  0.93037541  0.11506328  0.41779793  1
  Ti  Ti74  1  0.93078377  0.02767412  0.70364057  1
  Ti  Ti75  1  0.81197583  0.46667327  0.09260020  1
  Ti  Ti76  1  0.88177404  0.49227584  0.45136825  1
  Ti  Ti77  1  0.85846967  0.49041041  0.81340692  1
  Ti  Ti78  1  0.84669049  0.72667035  0.11025523  1
  Ti  Ti79  1  0.92995128  0.78661147  0.43981051  1
  Ti  Ti80  1  0.94138957  0.82573594  0.75464059  1
  Ti  Ti81  1  0.31431968  0.26895737  0.31837264  1
  Ti  Ti82  1  0.27055807  0.32180907  0.50192533  1
  Ti  Ti83  1  0.21592573  0.19644913  0.86089835  1
  Ti  Ti84  1  0.27032418  0.59016003  0.16323099  1
  Ti  Ti85  1  0.19632602  0.54105734  0.58900577  1
  Ti  Ti86  1  0.31944765  0.58594566  0.93774961  1
  Ti  Ti87  1  0.32641566  0.95560605  0.23183728  1
  Ti  Ti88  1  0.23594508  0.86406471  0.63773341  1
  Ti  Ti89  1  0.21967744  0.89624009  0.95936839  1
  Ti  Ti90  1  0.62021165  0.33668159  0.26719486  1
  Ti  Ti91  1  0.55720293  0.21803866  0.55922168  1
  Ti  Ti92  1  0.61767620  0.16350164  0.85099862  1
  Ti  Ti93  1  0.61124475  0.63601807  0.27269571  1
  Ti  Ti94  1  0.61342951  0.53692013  0.61549449  1
  Ti  Ti95  1  0.61058717  0.51476850  0.91772574  1
  Ti  Ti96  1  0.55197642  0.96487154  0.19346075  1
  Ti  Ti97  1  0.57039970  0.87497479  0.63055912  1
  Ti  Ti98  1  0.54580024  0.93391336  0.85064641  1
  Ti  Ti99  1  0.91128395  0.29526976  0.27183209  1
  Ti  Ti100  1  0.89279154  0.24575973  0.62554256  1
  Ti  Ti101  1  0.89303196  0.21567494  0.83658977  1
  Ti  Ti102  1  0.94839084  0.60653158  0.30565885  1
  Ti  Ti103  1  0.97014072  0.51632254  0.64273417  1
  Ti  Ti104  1  0.93335446  0.59825385  0.96618094  1
  Ti  Ti105  1  0.97916675  0.93167744  0.31610030  1
  Ti  Ti106  1  0.84191055  0.86482604  0.58495726  1
  Ti  Ti107  1  0.87796350  0.93664440  0.88857883  1
  Co  Co108  1  0.35083259  0.13381122  0.75050605  1
  Co  Co109  1  0.31020683  0.63408348  0.48313996  1
  Co  Co110  1  0.18828439  0.52084669  0.01808992  1
  Co  Co111  1  0.77376540  0.34663718  0.20766410  1
  Co  Co112  1  0.88744555  0.66040809  0.80425203  1
  Co  Co113  1  0.80831100  0.33142644  0.76951366  1
  Co  Co114  1  0.49871683  0.06133753  0.77451236  1
  Co  Co115  1  0.73395354  0.53878340  0.50300732  1
  Co  Co116  1  0.62101215  0.28417097  -0.01975945  1
  Co  Co117  1  -0.01944679  -0.03136734  0.01307561  1
  Co  Co118  1  0.00987797  0.82707600  0.59451675  1
  Co  Co119  1  0.61318670  0.27616083  0.42211243  1
  Co  Co120  1  0.40024686  0.41014166  0.34077050  1
  Co  Co121  1  0.27740806  0.53993712  0.76979492  1
  Co  Co122  1  0.77903536  0.77982169  0.72804042  1
  Co  Co123  1  0.28381528  0.81106067  0.48838034  1
  Co  Co124  1  0.85682849  0.09153542  0.27847188  1
  Co  Co125  1  0.42884058  0.05609626  0.07921411  1
  Co  Co126  1  -0.01742881  -0.04407611  0.47786449  1
  Co  Co127  1  0.60824216  0.61604116  0.44218112  1
  Co  Co128  1  0.46384561  0.22895239  0.02776533  1
  Co  Co129  1  0.39822564  -0.04165892  -0.06664792  1
  Co  Co130  1  0.86674147  0.47085930  0.26559069  1
  Co  Co131  1  0.56438125  0.69335956  0.61646468  1
  Co  Co132  1  0.12846628  0.60051219  0.28733046  1
  Co  Co133  1  0.40738582  -0.09573928  0.60229397  1
  Co  Co134  1  0.76959757  0.57538915  -0.05866969  1
  Co  Co135  1  0.47047756  0.59041505  0.51752710  1
  Co  Co136  1  0.38349458  0.23964305  0.60448267  1
  Co  Co137  1  0.73849350  0.29190951  0.52181913  1
  Co  Co138  1  0.40111263  0.74825783  0.38580511  1
  Co  Co139  1  0.52153729  0.79966412  -0.04554235  1
  Co  Co140  1  0.11976766  0.47660403  0.73145935  1
  Co  Co141  1  0.01459629  0.70043405  0.06860027  1
  Co  Co142  1  0.10376489  0.81821672  0.72939268  1
  Co  Co143  1  0.06892842  0.73591949  0.38203730  1
  Co  Co144  1  0.61521409  0.38152113  0.56495965  1
  Co  Co145  1  0.27114756  0.16003806  0.50947527  1
  Co  Co146  1  0.93548474  0.80535370  -0.02516516  1
  Co  Co147  1  0.70437697  0.46940952  0.75850344  1
  Co  Co148  1  0.87342086  0.28439355  0.43807142  1
  Co  Co149  1  0.38068579  0.78133866  0.72274806  1
  Co  Co150  1  0.54562081  0.55705418  0.76672674  1
  Co  Co151  1  0.10658200  0.11170958  0.13050664  1
  Co  Co152  1  0.17851037  0.72490017  0.17399578  1
  Co  Co153  1  0.09306748  0.83108480  0.03732993  1
  Co  Co154  1  0.00838940  0.55385816  0.81555099  1
  Co  Co155  1  0.18033094  0.20838070  0.01671506  1
  Co  Co156  1  0.46861894  0.64528677  0.19403683  1
  Co  Co157  1  0.50064592  0.28433822  0.87657030  1
  Co  Co158  1  0.57403138  0.25642734  0.13495371  1
  Co  Co159  1  0.15303192  0.58668583  0.87145764  1
  Co  Co160  1  0.17589586  0.86999003  0.27939967  1
  Co  Co161  1  0.25818799  0.68864571  0.62979783  1
  Ni  Ni162  1  0.26040100  0.03531001  0.86369485  1
  Ni  Ni163  1  0.75441152  0.19414714  0.94192560  1
  Ni  Ni164  1  -0.02129176  0.07078436  0.86298761  1
  Ni  Ni165  1  -0.03940579  0.37897535  0.54291111  1
  Ni  Ni166  1  0.22837811  0.24047977  0.67314841  1
  Ni  Ni167  1  0.23843595  0.86876322  0.80590767  1
  Ni  Ni168  1  0.51225219  0.21405661  0.71973499  1
  Ni  Ni169  1  0.73391290  0.82460816  0.44394520  1
  Ni  Ni170  1  0.84151988  0.07479671  0.00982147  1
  Ni  Ni171  1  -0.03029592  0.36935671  0.72941261  1
  Ni  Ni172  1  0.55172549  -0.05089945  0.02451942  1
  Ni  Ni173  1  0.27880399  -0.01616834  0.52136393  1
  Ni  Ni174  1  0.80214638  0.07387611  0.84033624  1
  Ni  Ni175  1  0.61226347  0.14445816  0.23644486  1
  Ni  Ni176  1  -0.01441054  0.40658258  0.37177224  1
  Ni  Ni177  1  0.47302150  0.01353540  0.33153950  1
  Ni  Ni178  1  0.39441478  0.70303745  0.04850847  1
  Ni  Ni179  1  0.01648263  0.17008332  0.26762787  1
  Ni  Ni180  1  0.83491379  -0.07198361  0.23480602  1
  Ni  Ni181  1  0.04872987  0.89414974  0.88237069  1
  Ni  Ni182  1  0.86224875  0.77505432  0.28168167  1
  Ni  Ni183  1  0.54534671  0.01243707  0.51561674  1
  Ni  Ni184  1  0.67807710  0.83036767  0.02078015  1
  Ni  Ni185  1  0.44355334  0.32215659  0.46938423  1
  Ni  Ni186  1  0.63752100  0.68432099  -0.06110051  1
  Ni  Ni187  1  0.53969917  0.48574789  0.24929175  1
  Ni  Ni188  1  -0.08200647  0.57914153  0.14177599  1
  Ni  Ni189  1  -0.00623098  0.12612121  0.57957193  1
  Ni  Ni190  1  0.12622921  0.31841249  0.78400903  1
  Ni  Ni191  1  0.38667898  0.50080089  0.20875678  1
  Ni  Ni192  1  0.61443525  -0.07645661  0.37439562  1
  Ni  Ni193  1  0.78239360  0.13286826  0.69598103  1
  Ni  Ni194  1  0.66795241  0.82491543  0.84439179  1
  Ni  Ni195  1  0.17556607  0.19492990  0.36409443  1
  Ni  Ni196  1  0.35982445  0.47010579  0.50749111  1
  Ni  Ni197  1  0.25590419  0.11958832  0.22179448  1
  Ni  Ni198  1  0.78541956  0.63026852  0.22979908  1
  Ni  Ni199  1  0.24796321  0.85597202  0.11852316  1
  Ni  Ni200  1  0.48557185  0.25941105  0.31889747  1
  Ni  Ni201  1  0.47931016  0.39235260  0.00126885  1
  Ni  Ni202  1  0.12383925  0.41747526  0.46621415  1
  Ni  Ni203  1  0.50319705  0.82948995  0.27914409  1
  Ni  Ni204  1  0.85757001  0.03039341  0.55799781  1
  Ni  Ni205  1  0.70242677  0.49203803  0.22871508  1
  Ni  Ni206  1  -0.09233616  0.70501082  0.64625293  1
  Ni  Ni207  1  0.26520782  0.39092394  0.22026351  1
  Ni  Ni208  1  0.09386412  -0.03719481  0.61191256  1
  Ni  Ni209  1  0.47995623  0.63454950  0.90603335  1
  Ni  Ni210  1  0.80452940  0.57670395  0.65743763  1
  Ni  Ni211  1  0.88536043  0.63985746  0.50609688  1
  Ni  Ni212  1  0.33703417  0.30508172  -0.06048951  1
  Ni  Ni213  1  0.70101341  -0.03868056  0.54926775  1
  Ni  Ni214  1  -0.04405354  0.86336241  0.13831575  1
