# generated using pymatgen
data_Ti108Co54Ni53
_symmetry_space_group_name_H-M   'P 1'
_cell_length_a   14.68073294
_cell_length_b   14.62328021
_cell_length_c   14.61612567
_cell_angle_alpha   90.01405745
_cell_angle_beta   90.10274012
_cell_angle_gamma   90.18152582
_symmetry_Int_Tables_number   1
_chemical_formula_structural   Ti108Co54Ni53
_chemical_formula_sum   'Ti108 Co54 Ni53'
_cell_volume   3137.77585966
_cell_formula_units_Z   1
loop_
 _symmetry_equiv_pos_site_id
 _symmetry_equiv_pos_as_xyz
  1  'x, y, z'
loop_
 _atom_site_type_symbol
 _atom_site_label
 _atom_site_symmetry_multiplicity
 _atom_site_fract_x
 _atom_site_fract_y
 _atom_site_fract_z
 _atom_site_occupancy
  Ti  Ti0  1  0.12202775  0.07985566  0.21120131  1
  Ti  Ti1  1  0.04456820  0.07078871  0.54149882  1
  Ti  Ti2  1  0.09404198  0.09931808  0.88990424  1
  Ti  Ti3  1  0.10156783  0.41600334  0.34356429  1
  Ti  Ti4  1  0.04576644  0.42098103  0.61765220  1
  Ti  Ti5  1  0.05867410  0.38169094  0.85702136  1
  Ti  Ti6  1  0.05792746  0.74941285  0.29555497  1
  Ti  Ti7  1  0.02775417  0.71718064  0.55144592  1
  Ti  Ti8  1  0.06140289  0.81755187  0.84308670  1
  Ti  Ti9  1  0.44877275  0.08040173  0.30424513  1
  Ti  Ti10  1  0.34500027  0.07468286  0.60303146  1
  Ti  Ti11  1  0.41821469  0.10783288  0.99782694  1
  Ti  Ti12  1  0.33154202  0.38883650  0.22233473  1
  Ti  Ti13  1  0.47459673  0.41921899  0.53229643  1
  Ti  Ti14  1  0.47240107  0.45299399  0.98842721  1
  Ti  Ti15  1  0.43119197  0.78633255  0.16671297  1
  Ti  Ti16  1  0.41303751  0.77721155  0.65997743  1
  Ti  Ti17  1  0.41339952  0.72136236  0.84869248  1
  Ti  Ti18  1  0.77889082  0.04488751  0.22672148  1
  Ti  Ti19  1  0.71766967  0.05609741  0.59045491  1
  Ti  Ti20  1  0.73537444  0.09087607  0.90708940  1
  Ti  Ti21  1  0.75480657  0.42032268  0.28770667  1
  Ti  Ti22  1  0.68085015  0.42524491  0.59202805  1
  Ti  Ti23  1  0.76899488  0.36552210  0.96418800  1
  Ti  Ti24  1  0.87024904  0.76990899  0.18942091  1
  Ti  Ti25  1  0.79939943  0.76766605  0.56549822  1
  Ti  Ti26  1  0.77975553  0.70227934  0.91924318  1
  Ti  Ti27  1  0.03973334  0.24982240  0.12478978  1
  Ti  Ti28  1  0.10595679  0.25407777  0.47807490  1
  Ti  Ti29  1  0.09450562  0.23198081  0.69619834  1
  Ti  Ti30  1  0.08446347  0.53973786  0.20959186  1
  Ti  Ti31  1  0.00351645  0.58980260  0.39096625  1
  Ti  Ti32  1  0.10182136  0.56434586  0.74391855  1
  Ti  Ti33  1  0.11216043  0.94632326  0.06478450  1
  Ti  Ti34  1  0.13972565  0.94811432  0.38450498  1
  Ti  Ti35  1  0.01071342  0.91201322  0.67869811  1
  Ti  Ti36  1  0.37530436  0.28667552  0.03748924  1
  Ti  Ti37  1  0.39185002  0.28102158  0.38434098  1
  Ti  Ti38  1  0.44359153  0.29059131  0.71171212  1
  Ti  Ti39  1  0.37067813  0.62940575  0.03452287  1
  Ti  Ti40  1  0.47767876  0.56130598  0.39144828  1
  Ti  Ti41  1  0.43698144  0.55840246  0.71754578  1
  Ti  Ti42  1  0.38879655  0.91349101  0.00036707  1
  Ti  Ti43  1  0.35275142  0.96824907  0.43077303  1
  Ti  Ti44  1  0.43808313  0.96226108  0.73829856  1
  Ti  Ti45  1  0.83750964  0.23896420  0.13334229  1
  Ti  Ti46  1  0.78555041  0.28698505  0.45482671  1
  Ti  Ti47  1  0.79936564  0.22243955  0.74119314  1
  Ti  Ti48  1  0.76390036  0.52396524  0.08108662  1
  Ti  Ti49  1  0.80384885  0.52340451  0.44258542  1
  Ti  Ti50  1  0.64833099  0.56797093  0.73918208  1
  Ti  Ti51  1  0.69964396  0.95148012  0.04720821  1
  Ti  Ti52  1  0.73101683  0.99143141  0.40108617  1
  Ti  Ti53  1  0.74948638  0.90642123  0.86247635  1
  Ti  Ti54  1  0.27965567  0.04888297  0.11300369  1
  Ti  Ti55  1  0.23323439  0.12064456  0.44611732  1
  Ti  Ti56  1  0.25485506  0.07474822  0.76612057  1
  Ti  Ti57  1  0.17755118  0.34010534  0.02016415  1
  Ti  Ti58  1  0.29451961  0.47424977  0.40140130  1
  Ti  Ti59  1  0.30456047  0.43319401  0.74679708  1
  Ti  Ti60  1  0.24982549  0.77923141  0.08437015  1
  Ti  Ti61  1  0.29327918  0.65978793  0.41959785  1
  Ti  Ti62  1  0.22463255  0.77422392  0.74781261  1
  Ti  Ti63  1  0.57449033  0.08569795  0.11910491  1
  Ti  Ti64  1  0.54037575  0.07014037  0.51151911  1
  Ti  Ti65  1  0.60750882  0.11314247  0.76503046  1
  Ti  Ti66  1  0.65913544  0.35271013  0.12773512  1
  Ti  Ti67  1  0.59926893  0.35884120  0.40739155  1
  Ti  Ti68  1  0.61668173  0.41078908  0.83704407  1
  Ti  Ti69  1  0.61062971  0.79167607  0.10435448  1
  Ti  Ti70  1  0.54775122  0.90422383  0.43079748  1
  Ti  Ti71  1  0.67916995  0.76286702  0.77536876  1
  Ti  Ti72  1  0.96732818  0.07267315  0.06513792  1
  Ti  Ti73  1  0.93438949  0.03508065  0.38350814  1
  Ti  Ti74  1  0.91308843  0.03607688  0.81465097  1
  Ti  Ti75  1  0.95565426  0.41898650  0.02924964  1
  Ti  Ti76  1  0.95178950  0.37801511  0.45644045  1
  Ti  Ti77  1  0.80131403  0.42649200  0.76307654  1
  Ti  Ti78  1  1.01791246  0.63723477  0.05624911  1
  Ti  Ti79  1  0.92891772  0.82182340  0.41116372  1
  Ti  Ti80  1  0.88019129  0.76715494  0.72968616  1
  Ti  Ti81  1  0.23775880  0.23371440  0.16008793  1
  Ti  Ti82  1  0.29040009  0.30021245  0.56133973  1
  Ti  Ti83  1  0.21185313  0.24929445  0.86816740  1
  Ti  Ti84  1  0.28080477  0.59854909  0.22060171  1
  Ti  Ti85  1  0.27573910  0.63581938  0.61183332  1
  Ti  Ti86  1  0.22167279  0.52821074  0.92574996  1
  Ti  Ti87  1  0.27374010  0.80660267  0.30250244  1
  Ti  Ti88  1  0.28338475  0.82469362  0.52473076  1
  Ti  Ti89  1  0.21750064  0.90453586  0.91811026  1
  Ti  Ti90  1  0.53439749  0.25932109  0.24163538  1
  Ti  Ti91  1  0.62796771  0.23882659  0.57779053  1
  Ti  Ti92  1  0.53052870  0.25528911  0.90102814  1
  Ti  Ti93  1  0.46684606  0.54600720  0.19163916  1
  Ti  Ti94  1  0.55716772  0.59694510  0.56661613  1
  Ti  Ti95  1  0.56349897  0.62205398  0.92178968  1
  Ti  Ti96  1  0.58766026  0.94043015  0.24406151  1
  Ti  Ti97  1  0.60517642  0.90633048  0.66859577  1
  Ti  Ti98  1  0.55623850  0.93682642  0.89694706  1
  Ti  Ti99  1  0.92287854  0.28853583  0.29227745  1
  Ti  Ti100  1  0.92660202  0.23564165  0.59290935  1
  Ti  Ti101  1  0.87922204  0.19907636  0.94268595  1
  Ti  Ti102  1  0.89829356  0.56597528  0.20946327  1
  Ti  Ti103  1  0.91960918  0.59464274  0.66911903  1
  Ti  Ti104  1  0.95629856  0.66269922  0.86755412  1
  Ti  Ti105  1  0.99058368  0.94014901  0.23612760  1
  Ti  Ti106  1  0.87520446  0.94716588  0.55109195  1
  Ti  Ti107  1  0.93179258  0.82744054  1.00189832  1
  Co  Co108  1  0.09425954  0.25382543  0.28220146  1
  Co  Co109  1  0.70265840  0.25863298  0.85992542  1
  Co  Co110  1  0.27278716  0.24339384  0.71256583  1
  Co  Co111  1  0.52400526  0.64985315  0.08431680  1
  Co  Co112  1  0.87850746  0.66373564  0.49213264  1
  Co  Co113  1  0.61561509  0.28445398  0.72703098  1
  Co  Co114  1  0.27189505  -0.00840891  0.29227108  1
  Co  Co115  1  0.45648661  0.41897730  0.32134309  1
  Co  Co116  1  0.39857204  0.14053527  0.46377805  1
  Co  Co117  1  0.63895560  0.80280796  0.94089269  1
  Co  Co118  1  0.41444380  0.66964790  0.52708384  1
  Co  Co119  1  0.47365229  0.25675398  0.54081800  1
  Co  Co120  1  0.59930425  0.50578454  0.07351179  1
  Co  Co121  1  0.16185144  0.61420361  0.33547136  1
  Co  Co122  1  0.03910641  0.90292934  0.50546285  1
  Co  Co123  1  0.38359583  0.54984279  0.88564388  1
  Co  Co124  1  0.08113352  0.11129251  0.36353000  1
  Co  Co125  1  0.81611664  0.15918203  0.33331204  1
  Co  Co126  1  0.53407868  0.23749430  0.06604514  1
  Co  Co127  1  -0.05303173  0.49375860  0.79484306  1
  Co  Co128  1  0.86402742  -0.01427311  0.96432223  1
  Co  Co129  1  0.62500915  0.09248970  0.30379706  1
  Co  Co130  1  0.28878219  -0.08488412  0.67306503  1
  Co  Co131  1  0.77404813  0.80615116  0.05024022  1
  Co  Co132  1  -0.09594250  0.86662143  0.84389602  1
  Co  Co133  1  0.04818494  0.71918537  0.71321329  1
  Co  Co134  1  0.41615888  0.80440266  0.42796342  1
  Co  Co135  1  0.45995413  0.42072122  0.82470397  1
  Co  Co136  1  0.34142245  0.86510711  0.82350940  1
  Co  Co137  1  0.84383100  0.90537499  0.30411386  1
  Co  Co138  1  0.14971502  -0.05071915  0.77970230  1
  Co  Co139  1  0.92263307  0.45302941  0.31685905  1
  Co  Co140  1  0.42562651  0.90653888  0.29366497  1
  Co  Co141  1  0.68067974  0.65701158  0.04131744  1
  Co  Co142  1  0.63655986  0.51034213  0.44435495  1
  Co  Co143  1  -0.04019403  0.20370587  0.42594424  1
  Co  Co144  1  0.54571667  0.43793149  0.67994442  1
  Co  Co145  1  0.19777582  0.49628002  0.63472803  1
  Co  Co146  1  0.00366847  0.39790820  0.18362236  1
  Co  Co147  1  0.14617248  0.14472749  0.04229251  1
  Co  Co148  1  0.31219924  0.90216753  0.16165529  1
  Co  Co149  1  -0.05719189  0.34575167  0.71662250  1
  Co  Co150  1  0.59833204  0.44857378  0.25444224  1
  Co  Co151  1  0.90081552  0.34216199  0.87153079  1
  Co  Co152  1  0.69710185  0.26978198  0.30920754  1
  Co  Co153  1  0.85931716  0.66035650  0.05783992  1
  Co  Co154  1  0.68985167  0.15069368  0.44427273  1
  Co  Co155  1  -0.03504938  0.20107505  0.79352379  1
  Co  Co156  1  0.44674801  -0.01209264  0.14491786  1
  Co  Co157  1  0.19233189  0.14396636  0.60432875  1
  Co  Co158  1  0.72866356  0.87772897  0.19815346  1
  Co  Co159  1  0.33652369  0.48941796  0.55904543  1
  Co  Co160  1  0.54542319  0.19866045  0.40060956  1
  Co  Co161  1  0.84251132  0.39462322  0.15019473  1
  Ni  Ni162  1  0.40899340  0.68756517  0.29701046  1
  Ni  Ni163  1  0.26900631  0.72583334  -0.07470139  1
  Ni  Ni164  1  0.69580708  0.21832993  0.01705275  1
  Ni  Ni165  1  0.40475460  0.16401616  0.16369711  1
  Ni  Ni166  1  0.19542513  -0.01974381  0.55030351  1
  Ni  Ni167  1  0.44322931  -0.08173090  0.56938844  1
  Ni  Ni168  1  0.17456808  0.41025052  0.49870559  1
  Ni  Ni169  1  0.48663008  0.38532969  0.14204601  1
  Ni  Ni170  1  0.15496504  -0.10964404  0.21763802  1
  Ni  Ni171  1  0.15946330  0.37411250  0.73317204  1
  Ni  Ni172  1  0.23068830  0.30955507  0.36497572  1
  Ni  Ni173  1  0.48775341  0.13708880  0.66222317  1
  Ni  Ni174  1  0.66526833  0.70549381  0.62262207  1
  Ni  Ni175  1  0.13331269  0.66706569  0.86494373  1
  Ni  Ni176  1  0.86821976  0.53130522  -0.06419892  1
  Ni  Ni177  1  -0.12357616  0.67880696  0.33035672  1
  Ni  Ni178  1  0.27225351  0.61021487  0.78090340  1
  Ni  Ni179  1  0.80272437  0.60109117  0.78641829  1
  Ni  Ni180  1  0.14406835  0.76100059  0.44164724  1
  Ni  Ni181  1  0.16935329  0.38823859  0.18700293  1
  Ni  Ni182  1  0.86706814  -0.06428144  0.12392736  1
  Ni  Ni183  1  0.53715404  0.69668673  0.72873997  1
  Ni  Ni184  1  0.90096086  0.08114508  0.65487988  1
  Ni  Ni185  1  0.10902370  0.76460129  -0.00283420  1
  Ni  Ni186  1  0.68618800  0.18525172  0.17646673  1
  Ni  Ni187  1  0.04659423  0.53446641  -0.07822717  1
  Ni  Ni188  1  0.03518428  0.80807439  0.13744259  1
  Ni  Ni189  1  0.03759572  0.24576760  -0.04700581  1
  Ni  Ni190  1  0.58183016  0.10351514  -0.04701866  1
  Ni  Ni191  1  0.02640863  -0.04310200  -0.07998894  1
  Ni  Ni192  1  0.54310233  0.78402593  0.55178803  1
  Ni  Ni193  1  0.70246622  0.53070610  0.91665786  1
  Ni  Ni194  1  0.79446468  0.09066474  0.06787095  1
  Ni  Ni195  1  0.11900677  0.48383164  0.05866682  1
  Ni  Ni196  1  -0.04656562  0.52715616  0.53102640  1
  Ni  Ni197  1  0.47993608  0.78002378  -0.00909456  1
  Ni  Ni198  1  0.26562502  0.07303272  -0.06498442  1
  Ni  Ni199  1  0.75672665  0.04364044  0.74685071  1
  Ni  Ni200  1  0.06027490  0.07468452  0.71567407  1
  Ni  Ni201  1  0.25924867  0.15422077  0.29408624  1
  Ni  Ni202  1  0.78314748  0.89716811  0.68526731  1
  Ni  Ni203  1  0.14785267  0.69172758  0.17295108  1
  Ni  Ni204  1  0.14505187  0.58541971  0.50023185  1
  Ni  Ni205  1  0.30772899  0.46713120  0.07512825  1
  Ni  Ni206  1  0.14267663  0.82912715  0.61541852  1
  Ni  Ni207  1  0.76737664  0.57320309  0.60456874  1
  Ni  Ni208  1  0.84635184  0.40479742  0.59240017  1
  Ni  Ni209  1  0.36658055  0.21898674  0.85832111  1
  Ni  Ni210  1  0.31944377  0.38720108  -0.08344937  1
  Ni  Ni211  1  0.84329247  0.11536222  0.49975000  1
  Ni  Ni212  1  -0.04166458  0.12824767  0.23558856  1
  Ni  Ni213  1  0.45795076  0.08800377  0.83642894  1
  Ni  Ni214  1  0.69156774  0.89062291  0.53106661  1
