# generated using pymatgen
data_Ti108Co54Ni53
_symmetry_space_group_name_H-M   'P 1'
_cell_length_a   14.63771891
_cell_length_b   14.59541294
_cell_length_c   14.64009635
_cell_angle_alpha   90.10715484
_cell_angle_beta   89.95063011
_cell_angle_gamma   90.26005343
_symmetry_Int_Tables_number   1
_chemical_formula_structural   Ti108Co54Ni53
_chemical_formula_sum   'Ti108 Co54 Ni53'
_cell_volume   3127.72336150
_cell_formula_units_Z   1
loop_
 _symmetry_equiv_pos_site_id
 _symmetry_equiv_pos_as_xyz
  1  'x, y, z'
loop_
 _atom_site_type_symbol
 _atom_site_label
 _atom_site_symmetry_multiplicity
 _atom_site_fract_x
 _atom_site_fract_y
 _atom_site_fract_z
 _atom_site_occupancy
  Ti  Ti0  1  0.12702302  0.12114643  0.20089127  1
  Ti  Ti1  1  0.14534258  0.03498107  0.60541362  1
  Ti  Ti2  1  0.16408607  0.05019639  0.80252877  1
  Ti  Ti3  1  0.08259089  0.39848143  0.34765784  1
  Ti  Ti4  1  0.01538585  0.47430385  0.54085694  1
  Ti  Ti5  1  0.05422427  0.32223363  0.91711647  1
  Ti  Ti6  1  0.11118397  0.72949959  0.22262668  1
  Ti  Ti7  1  0.10448855  0.69459867  0.55791285  1
  Ti  Ti8  1  0.16391054  0.72771054  0.93452118  1
  Ti  Ti9  1  0.44027536  0.09196641  0.28015838  1
  Ti  Ti10  1  0.44480745  0.12091432  0.58075660  1
  Ti  Ti11  1  0.51639286  0.08599621  0.91620553  1
  Ti  Ti12  1  0.36099273  0.41781990  0.25940444  1
  Ti  Ti13  1  0.39821649  0.44305548  0.59631920  1
  Ti  Ti14  1  0.48542028  0.40432640  0.94724199  1
  Ti  Ti15  1  0.30933465  0.70881022  0.19920399  1
  Ti  Ti16  1  0.46401692  0.78874720  0.59486870  1
  Ti  Ti17  1  0.37029835  0.74303078  0.85242828  1
  Ti  Ti18  1  0.72938221  0.12550472  0.37614892  1
  Ti  Ti19  1  0.71978566  0.07951333  0.57264353  1
  Ti  Ti20  1  0.69946342  0.05534674  0.95682258  1
  Ti  Ti21  1  0.68819990  0.40451459  0.27807334  1
  Ti  Ti22  1  0.70018907  0.44070804  0.60557389  1
  Ti  Ti23  1  0.80421091  0.37508896  0.90234806  1
  Ti  Ti24  1  0.75478548  0.71438584  0.27787512  1
  Ti  Ti25  1  0.80908842  0.80042048  0.55046978  1
  Ti  Ti26  1  0.78008727  0.70337538  0.86530248  1
  Ti  Ti27  1  0.10892692  0.28294127  0.08640102  1
  Ti  Ti28  1  0.06288780  0.29815634  0.50408225  1
  Ti  Ti29  1  0.09059485  0.32466205  0.70634934  1
  Ti  Ti30  1  0.10160767  0.55924013  0.15907505  1
  Ti  Ti31  1  0.06901318  0.62889713  0.37862960  1
  Ti  Ti32  1  0.08210085  0.62855316  0.80800682  1
  Ti  Ti33  1  0.06402285  1.00470232  0.07176276  1
  Ti  Ti34  1  0.13170921  0.93975700  0.44840317  1
  Ti  Ti35  1  0.10621444  0.85998970  0.81970442  1
  Ti  Ti36  1  0.40693900  0.25694223  0.12764428  1
  Ti  Ti37  1  0.49366396  0.19870306  0.42336409  1
  Ti  Ti38  1  0.46676618  0.22298319  0.79768987  1
  Ti  Ti39  1  0.39814918  0.58688595  0.01855480  1
  Ti  Ti40  1  0.44868592  0.57365495  0.38527249  1
  Ti  Ti41  1  0.41866865  0.56115126  0.77093931  1
  Ti  Ti42  1  0.39449433  0.90929537  0.00968822  1
  Ti  Ti43  1  0.40417762  0.86238302  0.37627812  1
  Ti  Ti44  1  0.35287456  0.95714775  0.81820019  1
  Ti  Ti45  1  0.77527925  0.31509824  0.09374626  1
  Ti  Ti46  1  0.72407756  0.30941834  0.47728523  1
  Ti  Ti47  1  0.77325459  0.18759009  0.76257531  1
  Ti  Ti48  1  0.76165399  0.64579214  0.07739734  1
  Ti  Ti49  1  0.76931228  0.55112566  0.44446053  1
  Ti  Ti50  1  0.74529700  0.54323353  0.75524361  1
  Ti  Ti51  1  0.68092390  0.85649127  0.03459839  1
  Ti  Ti52  1  0.73727223  0.91937969  0.42188600  1
  Ti  Ti53  1  0.75020537  0.89285128  0.81464584  1
  Ti  Ti54  1  0.26486954  0.18288481  0.02850323  1
  Ti  Ti55  1  0.24891896  0.07662602  0.35535694  1
  Ti  Ti56  1  0.31274425  0.11291728  0.70295756  1
  Ti  Ti57  1  0.28974321  0.38538775  0.04784883  1
  Ti  Ti58  1  0.25907482  0.36368836  0.42976683  1
  Ti  Ti59  1  0.28691669  0.40152863  0.75307297  1
  Ti  Ti60  1  0.20174349  0.84466540  0.07536791  1
  Ti  Ti61  1  0.21319232  0.78126621  0.39083627  1
  Ti  Ti62  1  0.22013577  0.75130381  0.71589092  1
  Ti  Ti63  1  0.56211079  0.11712390  0.11722321  1
  Ti  Ti64  1  0.56894197  0.01224384  0.42597355  1
  Ti  Ti65  1  0.66011751  0.04260233  0.76796102  1
  Ti  Ti66  1  0.57398213  0.37744431  0.11743190  1
  Ti  Ti67  1  0.53926552  0.39862109  0.42871805  1
  Ti  Ti68  1  0.63378360  0.36784417  0.79559461  1
  Ti  Ti69  1  0.49132313  0.73852218  0.11600768  1
  Ti  Ti70  1  0.57743730  0.69651209  0.46776352  1
  Ti  Ti71  1  0.64911887  0.79316816  0.68160477  1
  Ti  Ti72  1  0.94505150  0.12998913  -0.05113946  1
  Ti  Ti73  1  1.01220679  0.11144845  0.44128235  1
  Ti  Ti74  1  0.97249295  0.09312537  0.73548807  1
  Ti  Ti75  1  0.96367888  0.43901245  0.05891620  1
  Ti  Ti76  1  0.87296557  0.38010743  0.34167609  1
  Ti  Ti77  1  0.95098713  0.45751528  0.77025675  1
  Ti  Ti78  1  0.96710679  0.75186548  0.06423022  1
  Ti  Ti79  1  0.90340969  0.71502777  0.39331235  1
  Ti  Ti80  1  0.98044558  0.76284581  0.70284445  1
  Ti  Ti81  1  0.23141402  0.26839340  0.24321251  1
  Ti  Ti82  1  0.24602231  0.26367121  0.59432415  1
  Ti  Ti83  1  0.22869033  0.23278008  0.83478932  1
  Ti  Ti84  1  0.22464466  0.53712527  0.31177634  1
  Ti  Ti85  1  0.23692125  0.56575112  0.64096109  1
  Ti  Ti86  1  0.21056369  0.55020320  0.95331396  1
  Ti  Ti87  1  0.18864428  0.92060368  0.24437894  1
  Ti  Ti88  1  0.28182624  0.85568037  0.56147073  1
  Ti  Ti89  1  0.22229102  1.00470176  0.96534639  1
  Ti  Ti90  1  0.51486653  0.28756953  0.26431770  1
  Ti  Ti91  1  0.53868005  0.30847081  0.60795233  1
  Ti  Ti92  1  0.62761040  0.24698308  0.98609133  1
  Ti  Ti93  1  0.59789016  0.60452652  0.20279633  1
  Ti  Ti94  1  0.57054565  0.61652410  0.66635713  1
  Ti  Ti95  1  0.56736434  0.62040001  0.88914519  1
  Ti  Ti96  1  0.53940873  0.89301137  0.23573555  1
  Ti  Ti97  1  0.56052437  0.96933830  0.63153367  1
  Ti  Ti98  1  0.55323256  0.90898141  0.85621071  1
  Ti  Ti99  1  0.95635903  0.29258614  0.18933082  1
  Ti  Ti100  1  0.86450138  0.21198807  0.58592034  1
  Ti  Ti101  1  0.92244624  0.27044401  0.80141616  1
  Ti  Ti102  1  0.90722392  0.59910741  0.19610559  1
  Ti  Ti103  1  0.90456099  0.63733795  0.56977264  1
  Ti  Ti104  1  0.90347890  0.57939297  0.93675410  1
  Ti  Ti105  1  0.92855099  0.91897974  0.36111032  1
  Ti  Ti106  1  0.95087599  0.94354691  0.56501688  1
  Ti  Ti107  1  0.92394969  0.89897490  0.87642949  1
  Co  Co108  1  -0.00817192  0.16116856  0.10187137  1
  Co  Co109  1  0.34865195  0.12159135  0.87898744  1
  Co  Co110  1  0.43185000  0.45143540  0.11350400  1
  Co  Co111  1  0.25290187  0.67136428  0.51434324  1
  Co  Co112  1  0.12692029  0.44390375  0.04313887  1
  Co  Co113  1  0.40477870  0.31360184  0.49715036  1
  Co  Co114  1  0.11471967  0.14531142  -0.01679892  1
  Co  Co115  1  0.26677740  0.61283723  0.81089683  1
  Co  Co116  1  0.47433821  0.05073081  0.75806030  1
  Co  Co117  1  -0.07924214  0.28426314  0.00786014  1
  Co  Co118  1  0.04247159  0.86845661  0.15867038  1
  Co  Co119  1  0.65704729  0.24012302  0.17944274  1
  Co  Co120  1  0.22227527  -0.07314415  0.71062671  1
  Co  Co121  1  0.36074262  0.85015874  0.16489267  1
  Co  Co122  1  0.34315499  -0.03778898  0.27419481  1
  Co  Co123  1  0.34897306  0.30887277  -0.09061647  1
  Co  Co124  1  0.46340186  0.87192515  0.73062683  1
  Co  Co125  1  0.35034765  0.47722588  0.89420104  1
  Co  Co126  1  0.63529993  0.20078233  0.83980103  1
  Co  Co127  1  0.61449277  0.86111478  0.51052974  1
  Co  Co128  1  0.59574142  0.12630074  0.28080114  1
  Co  Co129  1  0.36881819  -0.03121725  0.65019877  1
  Co  Co130  1  0.83819255  0.43136991  0.18497196  1
  Co  Co131  1  0.37008719  0.69535827  0.68649850  1
  Co  Co132  1  0.38616743  0.27540552  0.66767867  1
  Co  Co133  1  0.79426626  0.36920341  0.73317747  1
  Co  Co134  1  0.26749667  -0.00218563  0.11835315  1
  Co  Co135  1  0.64380691  0.77203231  0.17335128  1
  Co  Co136  1  0.61557539  0.17831104  0.51469434  1
  Co  Co137  1  0.06025913  0.84127734  0.32660903  1
  Co  Co138  1  0.72393888  -0.07546716  0.62131144  1
  Co  Co139  1  0.30731571  0.65843082  0.34770029  1
  Co  Co140  1  0.06216688  0.86508130  -0.01848770  1
  Co  Co141  1  0.69532587  0.49233594  0.13349601  1
  Co  Co142  1  0.77697600  0.54921664  0.27925242  1
  Co  Co143  1  0.57932464  0.15425449  0.68123854  1
  Co  Co144  1  0.30958562  0.12858569  0.19289925  1
  Co  Co145  1  0.81075553  0.48156892  0.02963634  1
  Co  Co146  1  0.55480120  0.46340291  0.68370136  1
  Co  Co147  1  0.82283090  0.80194956  -0.02540034  1
  Co  Co148  1  0.15027237  0.17470055  0.69232342  1
  Co  Co149  1  0.06596063  0.18307780  0.83342427  1
  Co  Co150  1  0.14962829  0.51064235  0.46442403  1
  Co  Co151  1  0.46449779  0.22891146  -0.01535898  1
  Co  Co152  1  0.25493018  0.85465589  0.89630857  1
  Co  Co153  1  0.18882799  0.41720871  0.59482273  1
  Co  Co154  1  0.01673932  -0.05474158  0.72059585  1
  Co  Co155  1  0.62932822  0.69749465  0.02072906  1
  Co  Co156  1  0.07141893  0.02097467  0.31890135  1
  Co  Co157  1  0.36358172  0.24684039  0.31951953  1
  Co  Co158  1  0.72374769  0.73916413  0.43216310  1
  Co  Co159  1  0.04391543  0.01004562  -0.10325429  1
  Co  Co160  1  0.64629061  0.77888066  0.87787333  1
  Co  Co161  1  0.64337446  0.26332390  0.35552376  1
  Ni  Ni162  1  0.39609660  0.08589562  0.03510971  1
  Ni  Ni163  1  0.30796685  0.18637799  0.46246562  1
  Ni  Ni164  1  0.90816888  0.61939557  0.76737694  1
  Ni  Ni165  1  0.82751104  0.04741614  0.85515274  1
  Ni  Ni166  1  0.02499195  0.17197766  0.59827911  1
  Ni  Ni167  1  0.51880182  0.73213471  0.77721449  1
  Ni  Ni168  1  0.04956272  0.61401457  0.01030257  1
  Ni  Ni169  1  0.15273227  0.21568645  0.38212208  1
  Ni  Ni170  1  0.86660534  0.39415880  0.50299870  1
  Ni  Ni171  1  0.20078889  0.66839139  0.08162244  1
  Ni  Ni172  1  -0.06314970  0.76672148  0.24226012  1
  Ni  Ni173  1  0.86590571  0.22129744  0.42291314  1
  Ni  Ni174  1  0.33949176  0.74904131  0.02055988  1
  Ni  Ni175  1  0.43663917  0.60299874  0.56110164  1
  Ni  Ni176  1  0.05082990  0.48941905  0.90349924  1
  Ni  Ni177  1  0.20006010  0.39369268  0.89744618  1
  Ni  Ni178  1  0.44488435  -0.05378217  0.51237200  1
  Ni  Ni179  1  0.39741615  0.72340565  0.45829631  1
  Ni  Ni180  1  0.42074566  0.58670905  0.21231287  1
  Ni  Ni181  1  0.29220211  0.02619682  0.51441555  1
  Ni  Ni182  1  0.79956166  0.71565223  0.69674934  1
  Ni  Ni183  1  0.65790659  0.41447139  -0.02234055  1
  Ni  Ni184  1  0.55518613  -0.03643561  0.03044435  1
  Ni  Ni185  1  0.10548808  0.85937961  0.60994738  1
  Ni  Ni186  1  0.69709552  0.26338366  0.63925204  1
  Ni  Ni187  1  0.66451268  -0.01744703  0.28583611  1
  Ni  Ni188  1  0.62702729  0.56424851  0.36106963  1
  Ni  Ni189  1  0.52279435  0.46397000  0.26826520  1
  Ni  Ni190  1  0.47270102  0.72695902  0.29573532  1
  Ni  Ni191  1  0.71607508  0.55226955  0.91912597  1
  Ni  Ni192  1  0.03620749  0.58046607  0.66259348  1
  Ni  Ni193  1  0.79098291  0.20401553  -0.06515854  1
  Ni  Ni194  1  0.00105090  0.24735797  0.33939788  1
  Ni  Ni195  1  0.27637187  0.52717248  0.13918555  1
  Ni  Ni196  1  -0.02301396  0.73613398  0.88941750  1
  Ni  Ni197  1  0.56250487  0.54494323  0.04309734  1
  Ni  Ni198  1  0.58119485  0.52908750  0.51799147  1
  Ni  Ni199  1  0.13716339  0.47649107  0.75963702  1
  Ni  Ni200  1  -0.00804203  0.46042322  0.23301581  1
  Ni  Ni201  1  0.01044766  0.80753348  0.48092286  1
  Ni  Ni202  1  0.85943455  0.49618550  0.63497102  1
  Ni  Ni203  1  0.86324716  0.87321974  0.69907267  1
  Ni  Ni204  1  0.31172121  0.52223869  0.47234434  1
  Ni  Ni205  1  0.45062516  0.38913084  0.77955056  1
  Ni  Ni206  1  0.82834460  0.03312398  0.68873890  1
  Ni  Ni207  1  0.44255884  -0.01087353  0.14870967  1
  Ni  Ni208  1  0.72018630  0.62839844  0.58235629  1
  Ni  Ni209  1  -0.05881393  0.34419458  0.63973277  1
  Ni  Ni210  1  0.85621069  0.05059311  0.47006964  1
  Ni  Ni211  1  0.50229120  0.78302676  -0.04273577  1
  Ni  Ni212  1  0.81710163  0.78994097  0.13884318  1
  Ni  Ni213  1  -0.06908375  0.53277286  0.39014336  1
  Ni  Ni214  1  0.16688906  0.41043175  0.19889814  1
