# generated using pymatgen
data_Ti108Co54Ni53
_symmetry_space_group_name_H-M   'P 1'
_cell_length_a   14.57579336
_cell_length_b   14.62562880
_cell_length_c   14.62931386
_cell_angle_alpha   89.90295400
_cell_angle_beta   89.96736353
_cell_angle_gamma   90.01558432
_symmetry_Int_Tables_number   1
_chemical_formula_structural   Ti108Co54Ni53
_chemical_formula_sum   'Ti108 Co54 Ni53'
_cell_volume   3118.67412682
_cell_formula_units_Z   1
loop_
 _symmetry_equiv_pos_site_id
 _symmetry_equiv_pos_as_xyz
  1  'x, y, z'
loop_
 _atom_site_type_symbol
 _atom_site_label
 _atom_site_symmetry_multiplicity
 _atom_site_fract_x
 _atom_site_fract_y
 _atom_site_fract_z
 _atom_site_occupancy
  Ti  Ti0  1  0.10570694  0.06006642  0.27747434  1
  Ti  Ti1  1  0.10115259  0.12147651  0.63185673  1
  Ti  Ti2  1  0.15558352  0.07135381  0.95968035  1
  Ti  Ti3  1  0.11759563  0.40298832  0.23722389  1
  Ti  Ti4  1  0.06287471  0.44021780  0.59738717  1
  Ti  Ti5  1  0.10714197  0.39912284  0.93255755  1
  Ti  Ti6  1  0.07632000  0.74297338  0.30519127  1
  Ti  Ti7  1  0.07204194  0.81352169  0.55573237  1
  Ti  Ti8  1  0.06865206  0.77156331  0.86993033  1
  Ti  Ti9  1  0.43273818  0.03158070  0.23297865  1
  Ti  Ti10  1  0.38547921  0.15552615  0.58199780  1
  Ti  Ti11  1  0.39777531  0.04384006  0.90839168  1
  Ti  Ti12  1  0.41555769  0.35121958  0.24126414  1
  Ti  Ti13  1  0.44074650  0.48203675  0.53243635  1
  Ti  Ti14  1  0.42351505  0.35952458  0.93566508  1
  Ti  Ti15  1  0.40573855  0.69511329  0.20144454  1
  Ti  Ti16  1  0.50384174  0.67755983  0.64878465  1
  Ti  Ti17  1  0.35383319  0.73340717  0.91014698  1
  Ti  Ti18  1  0.78597660  0.12900215  0.24327114  1
  Ti  Ti19  1  0.78020154  0.05574379  0.61667908  1
  Ti  Ti20  1  0.81098553  0.11412622  0.91904128  1
  Ti  Ti21  1  0.73585912  0.47151202  0.25340079  1
  Ti  Ti22  1  0.70198430  0.38406621  0.50724789  1
  Ti  Ti23  1  0.73551205  0.44073395  0.93194901  1
  Ti  Ti24  1  0.73632150  0.80761803  0.26322081  1
  Ti  Ti25  1  0.74039423  0.74046154  0.60067548  1
  Ti  Ti26  1  0.69608210  0.76148935  0.92653894  1
  Ti  Ti27  1  0.16226198  0.19643115  0.13856397  1
  Ti  Ti28  1  0.06469137  0.27064034  0.48396939  1
  Ti  Ti29  1  0.10457378  0.22291475  0.82041534  1
  Ti  Ti30  1  0.07854767  0.60427582  0.16350127  1
  Ti  Ti31  1  0.08973279  0.63324954  0.47306295  1
  Ti  Ti32  1  0.10674016  0.61927182  0.73911279  1
  Ti  Ti33  1  0.06680618  0.89092344  0.03374497  1
  Ti  Ti34  1  0.13224831  0.92293906  0.39626688  1
  Ti  Ti35  1  0.07195895  0.92781448  0.71390372  1
  Ti  Ti36  1  0.32993064  0.28270094  0.08683420  1
  Ti  Ti37  1  0.32071240  0.25767844  0.41331107  1
  Ti  Ti38  1  0.37120794  0.31741321  0.73694287  1
  Ti  Ti39  1  0.45376553  0.57247090  -0.00348373  1
  Ti  Ti40  1  0.40821004  0.62085789  0.38627163  1
  Ti  Ti41  1  0.37020998  0.50579880  0.83427631  1
  Ti  Ti42  1  0.39951578  0.85940565  0.06837385  1
  Ti  Ti43  1  0.42666146  0.91839482  0.43282309  1
  Ti  Ti44  1  0.39656192  0.96570521  0.72260875  1
  Ti  Ti45  1  0.71490508  0.20167506  0.06143490  1
  Ti  Ti46  1  0.72979322  0.20422494  0.41352229  1
  Ti  Ti47  1  0.69193504  0.26828843  0.86728979  1
  Ti  Ti48  1  0.72046175  0.65189108  0.11150459  1
  Ti  Ti49  1  0.73403709  0.57495216  0.44358651  1
  Ti  Ti50  1  0.78344701  0.57810468  0.75883775  1
  Ti  Ti51  1  0.70662125  0.96991728  0.15791843  1
  Ti  Ti52  1  0.81697004  0.89947752  0.42153968  1
  Ti  Ti53  1  0.81386175  0.89336403  0.71569023  1
  Ti  Ti54  1  0.32438645  0.09221771  0.06989434  1
  Ti  Ti55  1  0.23203712  0.09077350  0.46100287  1
  Ti  Ti56  1  0.22806354  0.05807761  0.78361987  1
  Ti  Ti57  1  0.30950719  0.48835873  0.09179800  1
  Ti  Ti58  1  0.21457693  0.47735918  0.47258483  1
  Ti  Ti59  1  0.27907446  0.45872203  0.66300536  1
  Ti  Ti60  1  0.19969974  0.76412229  0.13262000  1
  Ti  Ti61  1  0.28046806  0.78121163  0.40445737  1
  Ti  Ti62  1  0.33022296  0.77163375  0.71864298  1
  Ti  Ti63  1  0.54983217  0.11183857  0.04847468  1
  Ti  Ti64  1  0.56073357  0.07032516  0.39029582  1
  Ti  Ti65  1  0.59751575  0.10529834  0.69287272  1
  Ti  Ti66  1  0.61542171  0.49081722  0.08462050  1
  Ti  Ti67  1  0.52128233  0.33471286  0.41038644  1
  Ti  Ti68  1  0.67225332  0.32252726  0.69220368  1
  Ti  Ti69  1  0.60703608  0.81074273  0.09230091  1
  Ti  Ti70  1  0.59504781  0.74012756  0.42256800  1
  Ti  Ti71  1  0.51733765  0.80818823  0.78784456  1
  Ti  Ti72  1  0.99084843  0.13381329  0.05354798  1
  Ti  Ti73  1  0.93075335  0.15609876  0.37269920  1
  Ti  Ti74  1  0.93024708  0.15211387  0.73692569  1
  Ti  Ti75  1  0.90315647  0.39587354  0.17539175  1
  Ti  Ti76  1  0.88211333  0.34250510  0.47562859  1
  Ti  Ti77  1  0.89356009  0.33452813  0.67154100  1
  Ti  Ti78  1  0.95525263  0.76724720  0.14024535  1
  Ti  Ti79  1  0.90444480  0.71652881  0.49024156  1
  Ti  Ti80  1  0.95119149  0.75711152  0.70185295  1
  Ti  Ti81  1  0.29833638  0.15348413  0.26244388  1
  Ti  Ti82  1  0.22355743  0.29957834  0.57630505  1
  Ti  Ti83  1  0.29279743  0.21943570  0.88955289  1
  Ti  Ti84  1  0.28367280  0.51270183  0.27858798  1
  Ti  Ti85  1  0.33417994  0.63966304  0.55964547  1
  Ti  Ti86  1  0.20612094  0.60567173  0.97597025  1
  Ti  Ti87  1  0.24090260  0.95971111  0.16753715  1
  Ti  Ti88  1  0.27492600  0.88541483  0.57662723  1
  Ti  Ti89  1  0.22897024  0.88338551  0.84289317  1
  Ti  Ti90  1  0.59727087  0.25012592  0.22880028  1
  Ti  Ti91  1  0.57836053  0.20586823  0.53130984  1
  Ti  Ti92  1  0.50177286  0.19209632  0.84366152  1
  Ti  Ti93  1  0.57691054  0.58652596  0.27548311  1
  Ti  Ti94  1  0.63284941  0.53482321  0.62101184  1
  Ti  Ti95  1  0.60798365  0.60250485  0.86823035  1
  Ti  Ti96  1  0.55907370  0.89819415  0.27744222  1
  Ti  Ti97  1  0.60336517  0.90768614  0.62948570  1
  Ti  Ti98  1  0.57437286  0.92800532  0.93432180  1
  Ti  Ti99  1  0.99987970  0.23700189  0.22234179  1
  Ti  Ti100  1  0.91968635  0.17039934  0.55663634  1
  Ti  Ti101  1  0.89450333  0.30862156  0.98912944  1
  Ti  Ti102  1  0.87085428  0.60957280  0.22855120  1
  Ti  Ti103  1  0.90688338  0.52558507  0.52367954  1
  Ti  Ti104  1  0.88749339  0.71787917  0.94616129  1
  Ti  Ti105  1  0.89361266  0.92870585  0.21967670  1
  Ti  Ti106  1  0.96628644  0.99197763  0.51097593  1
  Ti  Ti107  1  0.82751217  0.91378225  0.97344768  1
  Co  Co108  1  0.74256448  0.30658217  0.18806270  1
  Co  Co109  1  0.10570706  0.03095376  0.11250713  1
  Co  Co110  1  0.03757341  0.46775714  0.42725216  1
  Co  Co111  1  0.39243285  0.08346804  0.41758946  1
  Co  Co112  1  0.86770247  0.21850405  0.12493734  1
  Co  Co113  1  0.43306212  0.20101178  -0.00720945  1
  Co  Co114  1  0.57661643  0.41658667  0.23432317  1
  Co  Co115  1  0.20868806  0.84292469  0.27503306  1
  Co  Co116  1  0.21355381  0.69604525  0.83808914  1
  Co  Co117  1  0.26683513  0.41524252  -0.04946969  1
  Co  Co118  1  0.17159672  0.56705233  0.60345618  1
  Co  Co119  1  0.42651858  0.75854644  0.50076643  1
  Co  Co120  1  -0.02808800  -0.00540239  0.34535076  1
  Co  Co121  1  0.64510572  0.46947083  0.77915546  1
  Co  Co122  1  0.79329381  0.40846945  0.78175627  1
  Co  Co123  1  0.54426306  0.65340901  0.10144194  1
  Co  Co124  1  0.20220921  0.78751279  -0.02306976  1
  Co  Co125  1  0.89666711  0.85693244  0.57647980  1
  Co  Co126  1  0.07204334  0.10471948  0.45253465  1
  Co  Co127  1  0.58713903  0.74058067  0.23797935  1
  Co  Co128  1  0.17185905  0.35311008  0.39378616  1
  Co  Co129  1  0.23910967  0.67491896  0.26425906  1
  Co  Co130  1  -0.02921554  -0.00051493  -0.04082244  1
  Co  Co131  1  -0.00849420  0.49977986  0.25939562  1
  Co  Co132  1  0.16451973  0.24516143  -0.01873398  1
  Co  Co133  1  0.44925403  0.84801696  0.62187519  1
  Co  Co134  1  0.84037187  0.29504326  0.31381962  1
  Co  Co135  1  0.24165380  0.62809099  0.41740340  1
  Co  Co136  1  0.12608276  0.49558752  0.06509559  1
  Co  Co137  1  0.55346520  0.37678601  0.57961283  1
  Co  Co138  1  0.53835070  -0.00470575  0.79449168  1
  Co  Co139  1  0.76137896  0.17457114  0.73985715  1
  Co  Co140  1  0.76257949  0.60035087  -0.04160199  1
  Co  Co141  1  0.03068412  0.32022029  0.08072819  1
  Co  Co142  1  0.59747905  0.48705027  0.43070895  1
  Co  Co143  1  0.20247798  0.72452710  0.58008872  1
  Co  Co144  1  0.33739840  0.67510393  0.06179194  1
  Co  Co145  1  0.38984070  0.13072066  0.74476462  1
  Co  Co146  1  0.12709014  0.56493891  0.31941810  1
  Co  Co147  1  0.14884172  0.78744842  0.71715488  1
  Co  Co148  1  0.06032098  0.89786680  0.21252872  1
  Co  Co149  1  0.26808999  0.04877764  0.62879456  1
  Co  Co150  1  0.90721391  0.61694220  0.07142061  1
  Co  Co151  1  0.72475660  0.65256221  0.30143394  1
  Co  Co152  1  -0.04792655  0.07957227  0.20545067  1
  Co  Co153  1  -0.05636790  0.00545094  0.66523828  1
  Co  Co154  1  0.44595602  0.53157387  0.17992381  1
  Co  Co155  1  0.40928549  0.88706367  0.88408342  1
  Co  Co156  1  0.53074614  0.61782351  0.50139555  1
  Co  Co157  1  0.45060190  0.18805163  0.15896269  1
  Co  Co158  1  0.25863333  0.32236594  0.25431691  1
  Co  Co159  1  0.55904659  0.45505292  -0.07164484  1
  Co  Co160  1  0.75631424  0.74901664  0.43564973  1
  Co  Co161  1  0.34153525  0.41065798  0.40850147  1
  Ni  Ni162  1  0.29003095  0.61420034  0.72203320  1
  Ni  Ni163  1  -0.01589797  0.84494380  0.41170710  1
  Ni  Ni164  1  0.28717295  -0.02176800  0.33785979  1
  Ni  Ni165  1  0.88498781  0.01069174  0.81691071  1
  Ni  Ni166  1  -0.07157292  0.85706749  0.84543769  1
  Ni  Ni167  1  0.65204140  0.70649356  0.73503859  1
  Ni  Ni168  1  0.76642842  0.23393272  0.57924895  1
  Ni  Ni169  1  0.14359039  0.21138536  0.32574600  1
  Ni  Ni170  1  0.45594154  0.77599471  0.34019914  1
  Ni  Ni171  1  0.46301457  0.19581501  0.32513345  1
  Ni  Ni172  1  0.65300303  0.88862485  0.46081834  1
  Ni  Ni173  1  0.06545789  0.28283522  0.66807073  1
  Ni  Ni174  1  0.50612826  0.24832358  0.67529284  1
  Ni  Ni175  1  0.53285618  -0.03914081  0.11003482  1
  Ni  Ni176  1  0.51678155  0.74809084  -0.04118435  1
  Ni  Ni177  1  0.19202027  0.35963841  0.09541559  1
  Ni  Ni178  1  0.79038593  0.46268781  0.62542395  1
  Ni  Ni179  1  0.20790505  0.35560328  0.78053518  1
  Ni  Ni180  1  0.53517166  0.35136103  0.80333233  1
  Ni  Ni181  1  -0.02825841  0.16867307  0.90046463  1
  Ni  Ni182  1  0.59585557  0.08139765  0.22157308  1
  Ni  Ni183  1  0.88530310  0.75739808  0.31621410  1
  Ni  Ni184  1  0.13596421  -0.02082077  0.55629117  1
  Ni  Ni185  1  0.00208301  0.62688500  0.61353225  1
  Ni  Ni186  1  0.64170663  0.04267662  0.52865793  1
  Ni  Ni187  1  0.05413383  0.70179873  0.02169884  1
  Ni  Ni188  1  0.79421805  0.48998760  0.08835482  1
  Ni  Ni189  1  0.79589758  0.80189675  0.09287938  1
  Ni  Ni190  1  0.80495675  0.06366298  0.43957171  1
  Ni  Ni191  1  0.45727203  0.64580463  0.80924840  1
  Ni  Ni192  1  0.86744111  0.46487663  0.36082927  1
  Ni  Ni193  1  0.67099255  0.86456070  0.79448196  1
  Ni  Ni194  1  0.05497040  0.05213098  0.81835574  1
  Ni  Ni195  1  0.48351050  0.48143549  0.70436605  1
  Ni  Ni196  1  -0.03988212  0.61140797  0.37010516  1
  Ni  Ni197  1  0.70172660  -0.01051581  0.32858796  1
  Ni  Ni198  1  0.48075467  0.39263895  0.08858134  1
  Ni  Ni199  1  -0.00548046  0.34099829  0.34528307  1
  Ni  Ni200  1  0.63376349  0.10978418  0.88960832  1
  Ni  Ni201  1  0.86132941  0.27193058  0.83211855  1
  Ni  Ni202  1  0.39366737  0.32587238  0.55842618  1
  Ni  Ni203  1  0.46370525  0.47843826  0.33711792  1
  Ni  Ni204  1  0.20128466  0.51466692  0.83032275  1
  Ni  Ni205  1  0.69444672  0.01690340  0.00487628  1
  Ni  Ni206  1  0.68139376  0.35173337  0.34633835  1
  Ni  Ni207  1  0.58249311  0.29727965  -0.01007371  1
  Ni  Ni208  1  0.23988568  0.20647372  0.70927461  1
  Ni  Ni209  1  0.71511306  0.01925561  0.78147964  1
  Ni  Ni210  1  0.27171053  -0.05914316  -0.00692842  1
  Ni  Ni211  1  0.83888927  0.05105037  0.08347431  1
  Ni  Ni212  1  0.80307904  0.74330481  0.79289299  1
  Ni  Ni213  1  0.45429300  0.00849319  0.56550423  1
  Ni  Ni214  1  0.37373474  0.87102754  0.23882059  1
