# generated using pymatgen
data_Ti108Co54Ni53
_symmetry_space_group_name_H-M   'P 1'
_cell_length_a   14.64122943
_cell_length_b   14.62907286
_cell_length_c   14.57988676
_cell_angle_alpha   90.04994939
_cell_angle_beta   89.87936172
_cell_angle_gamma   89.99140505
_symmetry_Int_Tables_number   1
_chemical_formula_structural   Ti108Co54Ni53
_chemical_formula_sum   'Ti108 Co54 Ni53'
_cell_volume   3122.82298562
_cell_formula_units_Z   1
loop_
 _symmetry_equiv_pos_site_id
 _symmetry_equiv_pos_as_xyz
  1  'x, y, z'
loop_
 _atom_site_type_symbol
 _atom_site_label
 _atom_site_symmetry_multiplicity
 _atom_site_fract_x
 _atom_site_fract_y
 _atom_site_fract_z
 _atom_site_occupancy
  Ti  Ti0  1  0.09321662  0.08483354  0.25168157  1
  Ti  Ti1  1  0.04136023  0.12215513  0.61503821  1
  Ti  Ti2  1  0.15540230  0.01505090  0.93169802  1
  Ti  Ti3  1  0.11520796  0.41640941  0.26565227  1
  Ti  Ti4  1  0.08494839  0.36875167  0.66246770  1
  Ti  Ti5  1  0.12793776  0.42296391  0.90549404  1
  Ti  Ti6  1  0.05272112  0.76413695  0.32936870  1
  Ti  Ti7  1  0.03325226  0.82169546  0.67704224  1
  Ti  Ti8  1  0.09147584  0.73598192  0.97838022  1
  Ti  Ti9  1  0.39866542  0.06691891  0.20876495  1
  Ti  Ti10  1  0.37589244  0.14149994  0.56266260  1
  Ti  Ti11  1  0.41749601  0.06888974  0.86284202  1
  Ti  Ti12  1  0.38739824  0.41545320  0.25386724  1
  Ti  Ti13  1  0.39623953  0.45231459  0.60712996  1
  Ti  Ti14  1  0.40940377  0.46303535  0.82909587  1
  Ti  Ti15  1  0.47163315  0.76707133  0.21477222  1
  Ti  Ti16  1  0.43500643  0.74598844  0.58678283  1
  Ti  Ti17  1  0.50501962  0.75190094  0.90366618  1
  Ti  Ti18  1  0.78080098  0.04527883  0.24258881  1
  Ti  Ti19  1  0.73840352  0.07627839  0.60223111  1
  Ti  Ti20  1  0.77287038  0.02304364  0.95474812  1
  Ti  Ti21  1  0.67131191  0.47415747  0.22308883  1
  Ti  Ti22  1  0.73528692  0.47929953  0.55258700  1
  Ti  Ti23  1  0.81190749  0.39878774  0.94114190  1
  Ti  Ti24  1  0.81399534  0.73887475  0.27907654  1
  Ti  Ti25  1  0.73201360  0.81297747  0.55861326  1
  Ti  Ti26  1  0.73163715  0.74994154  0.98381030  1
  Ti  Ti27  1  0.08748456  0.18865446  -0.01528230  1
  Ti  Ti28  1  -0.01020989  0.24777490  0.34155373  1
  Ti  Ti29  1  0.02290266  0.23811996  0.78259286  1
  Ti  Ti30  1  0.10801514  0.52952236  0.07539201  1
  Ti  Ti31  1  0.01921297  0.63432873  0.48876136  1
  Ti  Ti32  1  0.04576095  0.62590329  0.68938891  1
  Ti  Ti33  1  0.02434066  0.94449062  0.07371238  1
  Ti  Ti34  1  0.04411859  0.95418749  0.39071934  1
  Ti  Ti35  1  0.17271374  0.84594610  0.81439137  1
  Ti  Ti36  1  0.40969549  0.26105346  0.12884297  1
  Ti  Ti37  1  0.50115695  0.22242206  0.40211930  1
  Ti  Ti38  1  0.37432513  0.26845571  0.84629403  1
  Ti  Ti39  1  0.41616545  0.55762945  0.01917183  1
  Ti  Ti40  1  0.41540947  0.54504343  0.41275985  1
  Ti  Ti41  1  0.39894347  0.63126954  0.73354302  1
  Ti  Ti42  1  0.45571533  0.89243066  0.06742159  1
  Ti  Ti43  1  0.36226349  0.81517876  0.38096269  1
  Ti  Ti44  1  0.34399158  0.85644985  0.73368787  1
  Ti  Ti45  1  0.71514574  0.28871228  0.09448098  1
  Ti  Ti46  1  0.72043769  0.21753052  0.47756331  1
  Ti  Ti47  1  0.75741272  0.24641795  0.70001467  1
  Ti  Ti48  1  0.81835555  0.53745237  0.07382763  1
  Ti  Ti49  1  0.77243532  0.61080810  0.42345952  1
  Ti  Ti50  1  0.74945986  0.56959590  0.75291423  1
  Ti  Ti51  1  0.76405676  0.86407856  0.13800517  1
  Ti  Ti52  1  0.69335045  0.98575767  0.43386308  1
  Ti  Ti53  1  0.78219915  0.91910699  0.70360735  1
  Ti  Ti54  1  0.28893040  0.10487716  0.06060749  1
  Ti  Ti55  1  0.20309959  0.05641663  0.44023908  1
  Ti  Ti56  1  0.21169992  0.04243237  0.66039116  1
  Ti  Ti57  1  0.28285354  0.44663244  0.10395995  1
  Ti  Ti58  1  0.27774315  0.33214260  0.37528355  1
  Ti  Ti59  1  0.25111885  0.37740102  0.74994707  1
  Ti  Ti60  1  0.25200874  0.77488607  0.12733495  1
  Ti  Ti61  1  0.22853370  0.66127172  0.43248063  1
  Ti  Ti62  1  0.23596600  0.70580182  0.68469156  1
  Ti  Ti63  1  0.56140141  0.12453318  0.08085591  1
  Ti  Ti64  1  0.49431577  0.03010054  0.39218761  1
  Ti  Ti65  1  0.56183599  0.05533949  0.71294513  1
  Ti  Ti66  1  0.61499248  0.58483977  0.01449955  1
  Ti  Ti67  1  0.62770922  0.38358462  0.42333213  1
  Ti  Ti68  1  0.61211178  0.41195430  0.70780083  1
  Ti  Ti69  1  0.66937474  0.67155957  0.15651485  1
  Ti  Ti70  1  0.53368316  0.69643961  0.40093164  1
  Ti  Ti71  1  0.61042059  0.84790216  0.75566248  1
  Ti  Ti72  1  0.96293386  0.12470701  0.12043494  1
  Ti  Ti73  1  0.89010708  0.10123223  0.46650398  1
  Ti  Ti74  1  0.89007724  0.09486523  0.73877517  1
  Ti  Ti75  1  0.95722431  0.35689163  0.08932066  1
  Ti  Ti76  1  0.95245448  0.46787758  0.40232065  1
  Ti  Ti77  1  0.95034823  0.45454536  0.80611306  1
  Ti  Ti78  1  0.96633641  0.77597597  0.12160071  1
  Ti  Ti79  1  0.88548385  0.78767965  0.45186759  1
  Ti  Ti80  1  0.85175043  0.78447667  0.81305478  1
  Ti  Ti81  1  0.21763173  0.25378512  0.18929104  1
  Ti  Ti82  1  0.19719293  0.23848862  0.52639470  1
  Ti  Ti83  1  0.25313972  0.28858559  0.99111085  1
  Ti  Ti84  1  0.24103497  0.57256078  0.25121397  1
  Ti  Ti85  1  0.19573327  0.52787817  0.59832097  1
  Ti  Ti86  1  0.24644073  0.61929878  0.96506562  1
  Ti  Ti87  1  0.23000520  0.92718077  0.26417094  1
  Ti  Ti88  1  0.33763077  0.93682876  0.54106838  1
  Ti  Ti89  1  0.31852939  0.87754779  0.93461635  1
  Ti  Ti90  1  0.56394280  0.30361060  0.22926346  1
  Ti  Ti91  1  0.52400043  0.27500256  0.59172316  1
  Ti  Ti92  1  0.56635684  0.29795530  0.97015606  1
  Ti  Ti93  1  0.48947617  0.58071650  0.20361809  1
  Ti  Ti94  1  0.63649375  0.64059827  0.58713618  1
  Ti  Ti95  1  0.56990120  0.56456643  0.83483910  1
  Ti  Ti96  1  0.59181528  0.97329759  0.22362372  1
  Ti  Ti97  1  0.54910697  0.86243638  0.51089298  1
  Ti  Ti98  1  0.59014614  0.94678666  0.94965168  1
  Ti  Ti99  1  0.85624799  0.24477564  0.20776592  1
  Ti  Ti100  1  0.98752536  0.29194552  0.52624008  1
  Ti  Ti101  1  0.88782202  0.18708812  0.94464582  1
  Ti  Ti102  1  0.96410400  0.55887619  0.21223172  1
  Ti  Ti103  1  0.91004101  0.49030663  0.61833992  1
  Ti  Ti104  1  0.89927658  0.62433395  0.91131492  1
  Ti  Ti105  1  0.92782294  0.91057322  0.25136515  1
  Ti  Ti106  1  0.92459888  0.95213449  0.57877929  1
  Ti  Ti107  1  1.00940183  0.89185441  0.88090989  1
  Co  Co108  1  0.48456007  0.59858812  0.54854663  1
  Co  Co109  1  0.17557246  0.26507297  0.83972765  1
  Co  Co110  1  -0.07505922  0.63964784  0.35435581  1
  Co  Co111  1  0.51931061  0.34352848  0.81573053  1
  Co  Co112  1  0.30083938  0.16600819  0.74171549  1
  Co  Co113  1  0.37057705  0.66329164  0.30547114  1
  Co  Co114  1  0.13768467  0.71571119  0.56246488  1
  Co  Co115  1  0.39056191  0.24889610  0.28239121  1
  Co  Co116  1  0.88162659  0.78597164  0.62814226  1
  Co  Co117  1  0.21305983  0.74905217  0.29075589  1
  Co  Co118  1  0.19773701  0.86977515  0.42730901  1
  Co  Co119  1  0.58567633  0.13083494  0.52140957  1
  Co  Co120  1  0.41020568  -0.08646677  0.24293157  1
  Co  Co121  1  0.51206893  0.70200251  0.07115881  1
  Co  Co122  1  0.18979307  0.87408605  0.63937328  1
  Co  Co123  1  0.06090296  0.57740159  0.90344995  1
  Co  Co124  1  0.26403780  0.14161513  -0.09381398  1
  Co  Co125  1  0.28711879  0.78279440  0.54073874  1
  Co  Co126  1  0.80529297  0.57245557  0.25141881  1
  Co  Co127  1  0.31745600  0.72738318  0.84459657  1
  Co  Co128  1  0.04977771  0.47747190  0.54438975  1
  Co  Co129  1  0.34320909  0.63984643  0.14067150  1
  Co  Co130  1  0.74104568  0.56088819  -0.08197519  1
  Co  Co131  1  -0.08090840  0.32589928  0.67354471  1
  Co  Co132  1  0.67710493  0.32998644  0.58563056  1
  Co  Co133  1  0.81682716  0.63598084  0.57933429  1
  Co  Co134  1  0.68046098  0.16256414  0.20184636  1
  Co  Co135  1  0.67774435  0.43674843  0.04610949  1
  Co  Co136  1  0.08692487  0.60858412  0.30901239  1
  Co  Co137  1  -0.01880653  0.62594207  0.05506252  1
  Co  Co138  1  0.01062488  0.72988923  0.82430840  1
  Co  Co139  1  0.09780426  0.86157838  0.20297759  1
  Co  Co140  1  0.63987293  -0.04910138  0.61191815  1
  Co  Co141  1  0.32500320  0.61608696  0.56172418  1
  Co  Co142  1  0.68125697  0.01486835  0.09412045  1
  Co  Co143  1  0.16521186  0.87438335  0.01657237  1
  Co  Co144  1  0.60680597  0.54456191  0.44670454  1
  Co  Co145  1  -0.04654648  0.38632192  0.25832283  1
  Co  Co146  1  0.79163663  0.14344718  0.07857792  1
  Co  Co147  1  0.52106962  0.53189502  0.68415801  1
  Co  Co148  1  0.09681126  -0.02360152  0.54732244  1
  Co  Co149  1  0.52656457  0.14502605  0.24859299  1
  Co  Co150  1  0.64318438  0.12119169  0.35846347  1
  Co  Co151  1  0.73890499  0.73111779  0.70060782  1
  Co  Co152  1  0.25487385  0.10976982  0.25860635  1
  Co  Co153  1  0.04791567  0.25222818  0.18770727  1
  Co  Co154  1  0.47051109  -0.08291368  0.84348193  1
  Co  Co155  1  0.05956213  -0.02204931  0.71476463  1
  Co  Co156  1  0.95994408  0.47987206  -0.01910308  1
  Co  Co157  1  0.16777807  0.22223275  0.67878646  1
  Co  Co158  1  0.74933665  0.89458756  0.30861584  1
  Co  Co159  1  0.87204451  0.18606222  0.59913172  1
  Co  Co160  1  0.28331353  0.45451322  -0.06502400  1
  Co  Co161  1  -0.05044336  0.03961847  -0.03386354  1
  Ni  Ni162  1  0.26323355  0.55158904  0.80067737  1
  Ni  Ni163  1  0.42578369  0.18616139  -0.01587423  1
  Ni  Ni164  1  0.32520613  0.16524178  0.40429507  1
  Ni  Ni165  1  0.66695671  0.41719170  0.86718927  1
  Ni  Ni166  1  0.11633768  0.50010719  0.75728822  1
  Ni  Ni167  1  0.12681154  0.35676646  0.08374241  1
  Ni  Ni168  1  0.66766638  0.70248860  0.84583010  1
  Ni  Ni169  1  0.48943012  0.01491512  0.56044078  1
  Ni  Ni170  1  -0.00701313  0.32459561  -0.07305982  1
  Ni  Ni171  1  0.03913969  0.82544841  0.50114097  1
  Ni  Ni172  1  0.37050552  0.73368804  0.00269045  1
  Ni  Ni173  1  0.53225827  0.46570117  0.31598299  1
  Ni  Ni174  1  0.81219600  0.40866297  0.18009483  1
  Ni  Ni175  1  0.46516570  0.19464243  0.72547620  1
  Ni  Ni176  1  -0.06257587  0.07670429  0.30498398  1
  Ni  Ni177  1  0.78711977  0.41176652  0.72500769  1
  Ni  Ni178  1  0.10878910  0.68488934  0.16229558  1
  Ni  Ni179  1  0.02916118  0.08200755  0.83739780  1
  Ni  Ni180  1  0.16288585  0.01819936  0.12103007  1
  Ni  Ni181  1  0.40640152  0.36356644  -0.00372292  1
  Ni  Ni182  1  0.16106927  0.67571729  0.82870016  1
  Ni  Ni183  1  0.68631550  0.77383336  0.40580693  1
  Ni  Ni184  1  0.43767773  0.37211331  0.44731613  1
  Ni  Ni185  1  0.80624583  0.17498429  0.34414884  1
  Ni  Ni186  1  0.34124062  0.29008276  0.63283729  1
  Ni  Ni187  1  0.55640663  0.69512659  0.72125246  1
  Ni  Ni188  1  0.83163139  0.69250725  0.11415880  1
  Ni  Ni189  1  0.15758957  0.21696942  0.34893618  1
  Ni  Ni190  1  0.11208302  0.35812775  0.43561289  1
  Ni  Ni191  1  0.28961042  0.46279727  0.47421582  1
  Ni  Ni192  1  0.61060718  0.83589645  0.08366091  1
  Ni  Ni193  1  0.48473368  0.89739071  0.66807066  1
  Ni  Ni194  1  0.72760345  0.88067003  0.87292136  1
  Ni  Ni195  1  0.53260559  0.45376564  -0.04491717  1
  Ni  Ni196  1  0.38956392  0.03205097  0.69473847  1
  Ni  Ni197  1  0.86224852  0.29610154  0.82202642  1
  Ni  Ni198  1  0.30507915  -0.05875475  0.10214371  1
  Ni  Ni199  1  0.53986048  0.87162946  0.34981637  1
  Ni  Ni200  1  0.85910833  -0.00865929  0.09963931  1
  Ni  Ni201  1  0.33653379  -0.00778092  0.37550553  1
  Ni  Ni202  1  0.05431066  0.12410250  0.44288351  1
  Ni  Ni203  1  0.87237687  -0.03732872  0.83534420  1
  Ni  Ni204  1  0.64700704  0.62613502  0.30929887  1
  Ni  Ni205  1  0.27285302  -0.00022286  0.81164673  1
  Ni  Ni206  1  0.86409962  -0.05041379  0.40591810  1
  Ni  Ni207  1  0.71640074  0.30611866  0.28981150  1
  Ni  Ni208  1  0.83060848  0.34478399  0.52123170  1
  Ni  Ni209  1  0.63866393  0.79576629  0.24932612  1
  Ni  Ni210  1  0.86895381  0.86921439  -0.01699036  1
  Ni  Ni211  1  0.79286561  0.43447735  0.36402356  1
  Ni  Ni212  1  0.14700655  0.51217962  0.41328282  1
  Ni  Ni213  1  -0.10783347  0.64543862  0.72854387  1
  Ni  Ni214  1  0.51200587  0.42364054  0.12240470  1
