# generated using pymatgen
data_Ti108Co54Ni53
_symmetry_space_group_name_H-M   'P 1'
_cell_length_a   14.61968538
_cell_length_b   14.68803052
_cell_length_c   14.69231022
_cell_angle_alpha   90.02040910
_cell_angle_beta   90.25873715
_cell_angle_gamma   90.12522086
_symmetry_Int_Tables_number   1
_chemical_formula_structural   Ti108Co54Ni53
_chemical_formula_sum   'Ti108 Co54 Ni53'
_cell_volume   3154.90428607
_cell_formula_units_Z   1
loop_
 _symmetry_equiv_pos_site_id
 _symmetry_equiv_pos_as_xyz
  1  'x, y, z'
loop_
 _atom_site_type_symbol
 _atom_site_label
 _atom_site_symmetry_multiplicity
 _atom_site_fract_x
 _atom_site_fract_y
 _atom_site_fract_z
 _atom_site_occupancy
  Ti  Ti0  1  0.15401265  0.05969205  0.25104136  1
  Ti  Ti1  1  0.05215826  0.01096937  0.54278408  1
  Ti  Ti2  1  0.06754220  0.06524018  0.96061892  1
  Ti  Ti3  1  0.07447562  0.38894374  0.25405864  1
  Ti  Ti4  1  0.04748902  0.46046460  0.59474649  1
  Ti  Ti5  1  0.06704010  0.39115877  0.93289678  1
  Ti  Ti6  1  0.12000184  0.70880913  0.25421336  1
  Ti  Ti7  1  0.11992347  0.76048052  0.56127121  1
  Ti  Ti8  1  0.13183681  0.71734645  0.88606052  1
  Ti  Ti9  1  0.47296064  0.11274774  0.18734174  1
  Ti  Ti10  1  0.45266233  0.07114190  0.60332249  1
  Ti  Ti11  1  0.43307551  0.14422310  0.95987325  1
  Ti  Ti12  1  0.38315602  0.40994711  0.27107099  1
  Ti  Ti13  1  0.42569232  0.39513001  0.60418922  1
  Ti  Ti14  1  0.36834026  0.41818647  0.90725110  1
  Ti  Ti15  1  0.31368136  0.69516997  0.20534757  1
  Ti  Ti16  1  0.40434465  0.76833403  0.55441368  1
  Ti  Ti17  1  0.34782312  0.73454098  0.94057087  1
  Ti  Ti18  1  0.74921537  0.13641109  0.30473243  1
  Ti  Ti19  1  0.86447486  0.12647986  0.57628115  1
  Ti  Ti20  1  0.77330807  0.06737328  0.90071865  1
  Ti  Ti21  1  0.75564319  0.46496062  0.29340731  1
  Ti  Ti22  1  0.66148931  0.54347200  0.55468882  1
  Ti  Ti23  1  0.72398799  0.43884357  0.88556988  1
  Ti  Ti24  1  0.74864110  0.74222348  0.15504722  1
  Ti  Ti25  1  0.77537746  0.77041366  0.68009550  1
  Ti  Ti26  1  0.68332282  0.75480047  0.95885431  1
  Ti  Ti27  1  0.15269371  0.23753051  0.11028463  1
  Ti  Ti28  1  0.08469115  0.28462678  0.50116677  1
  Ti  Ti29  1  0.10160275  0.28291912  0.73481417  1
  Ti  Ti30  1  0.01510684  0.57116530  0.04664641  1
  Ti  Ti31  1  0.09803453  0.56097516  0.36958955  1
  Ti  Ti32  1  0.13911683  0.59552407  0.69655513  1
  Ti  Ti33  1  0.07349875  0.88382480  0.18210385  1
  Ti  Ti34  1  0.14232053  0.86660221  0.38465760  1
  Ti  Ti35  1  0.09267978  0.90381594  0.81150725  1
  Ti  Ti36  1  0.41213356  0.32374030  0.08396670  1
  Ti  Ti37  1  0.44096006  0.11007078  0.38323537  1
  Ti  Ti38  1  0.33640668  0.24884079  0.80209192  1
  Ti  Ti39  1  0.46337561  0.55174117  0.02813538  1
  Ti  Ti40  1  0.46969287  0.53415681  0.42222781  1
  Ti  Ti41  1  0.42400271  0.69514198  0.76192502  1
  Ti  Ti42  1  0.41840752  0.96491025  0.05453452  1
  Ti  Ti43  1  0.33082741  0.95641027  0.39151650  1
  Ti  Ti44  1  0.40699380  0.93619688  0.73511320  1
  Ti  Ti45  1  0.75728559  0.24987312  0.13287718  1
  Ti  Ti46  1  0.71652702  0.25166946  0.46581862  1
  Ti  Ti47  1  0.74445899  0.16229806  0.75142107  1
  Ti  Ti48  1  0.73704520  0.54165807  0.09083860  1
  Ti  Ti49  1  0.80763808  0.57485900  0.43307623  1
  Ti  Ti50  1  0.78488300  0.61249624  0.80260620  1
  Ti  Ti51  1  0.81428081  0.89450575  0.04694904  1
  Ti  Ti52  1  0.74030204  0.95913559  0.41675726  1
  Ti  Ti53  1  0.73744589  0.91731759  0.78704020  1
  Ti  Ti54  1  0.27920889  0.10227139  0.08308772  1
  Ti  Ti55  1  0.15503359  0.11745569  0.42953753  1
  Ti  Ti56  1  0.23563566  0.09872648  0.66164314  1
  Ti  Ti57  1  0.23828524  0.40159589  0.05860576  1
  Ti  Ti58  1  0.21291824  0.40271777  0.40699693  1
  Ti  Ti59  1  0.27077388  0.44360073  0.73518055  1
  Ti  Ti60  1  0.17843340  0.75066894  0.07194933  1
  Ti  Ti61  1  0.24863275  0.68331951  0.42270038  1
  Ti  Ti62  1  0.27571528  0.80953734  0.78447047  1
  Ti  Ti63  1  0.59710388  0.21247995  0.03559913  1
  Ti  Ti64  1  0.61030836  0.08710631  0.48831556  1
  Ti  Ti65  1  0.58836940  0.02782666  0.74592114  1
  Ti  Ti66  1  0.59776931  0.40436830  0.02477842  1
  Ti  Ti67  1  0.56571013  0.36567238  0.45516005  1
  Ti  Ti68  1  0.59217034  0.44550828  0.71703642  1
  Ti  Ti69  1  0.49071036  0.73050451  0.10735552  1
  Ti  Ti70  1  0.67808536  0.72708707  0.42314078  1
  Ti  Ti71  1  0.61900341  0.74793362  0.77410378  1
  Ti  Ti72  1  0.89640625  0.12537305  0.03285870  1
  Ti  Ti73  1  0.96889376  0.11488441  0.31842753  1
  Ti  Ti74  1  1.02285359  0.06199735  0.73853539  1
  Ti  Ti75  1  0.89600624  0.42047183  0.12640442  1
  Ti  Ti76  1  0.89080903  0.38165269  0.45252906  1
  Ti  Ti77  1  0.90772526  0.45305501  0.83386962  1
  Ti  Ti78  1  0.94398903  0.74930517  0.15277025  1
  Ti  Ti79  1  0.87297452  0.77986234  0.43954500  1
  Ti  Ti80  1  0.96557285  0.74040624  0.71577492  1
  Ti  Ti81  1  0.27824351  0.22797786  0.34544335  1
  Ti  Ti82  1  0.27089982  0.27386093  0.55750402  1
  Ti  Ti83  1  0.20115356  0.14359717  0.86575123  1
  Ti  Ti84  1  0.22748680  0.52177091  0.23872150  1
  Ti  Ti85  1  0.30822209  0.55524769  0.56936425  1
  Ti  Ti86  1  0.21810148  0.55086848  0.93145521  1
  Ti  Ti87  1  0.27145015  0.91482395  0.18686287  1
  Ti  Ti88  1  0.21833469  0.90114024  0.64132498  1
  Ti  Ti89  1  0.22865829  0.91175699  0.96908425  1
  Ti  Ti90  1  0.55877597  0.29258111  0.21718370  1
  Ti  Ti91  1  0.55259331  0.23843160  0.63973480  1
  Ti  Ti92  1  0.61656559  0.28011562  0.83805507  1
  Ti  Ti93  1  0.59691382  0.57875866  0.22581401  1
  Ti  Ti94  1  0.50041424  0.60499760  0.62032997  1
  Ti  Ti95  1  0.58646764  0.58128770  0.86818621  1
  Ti  Ti96  1  0.69349690  0.96849048  0.19070485  1
  Ti  Ti97  1  0.58843147  0.90054445  0.56499873  1
  Ti  Ti98  1  0.63170716  0.94530893  0.95947591  1
  Ti  Ti99  1  0.95007521  0.24401321  0.19384867  1
  Ti  Ti100  1  0.81332911  0.32028577  0.62923810  1
  Ti  Ti101  1  0.89033557  0.27520352  0.91093707  1
  Ti  Ti102  1  0.92564381  0.63994671  0.30333262  1
  Ti  Ti103  1  0.86013737  0.52577732  0.62141507  1
  Ti  Ti104  1  0.94436186  0.64069541  0.88822395  1
  Ti  Ti105  1  0.89204789  0.93254955  0.24191754  1
  Ti  Ti106  1  0.87238313  0.92989835  0.59726923  1
  Ti  Ti107  1  0.92063140  0.94941101  0.90554557  1
  Co  Co108  1  0.04140921  0.55984527  0.20545438  1
  Co  Co109  1  0.20586087  0.42091988  0.59220434  1
  Co  Co110  1  0.53050386  0.43854036  -0.12140488  1
  Co  Co111  1  0.34537174  0.81603480  0.08085642  1
  Co  Co112  1  0.69477982  0.16898258  0.60392023  1
  Co  Co113  1  0.38285860  0.21148995  0.65293193  1
  Co  Co114  1  -0.02211073  0.80128383  0.87536999  1
  Co  Co115  1  0.38286965  -0.06622912  0.55843431  1
  Co  Co116  1  0.07089619  0.88390780  -0.01274489  1
  Co  Co117  1  -0.04010945  0.55177733  0.46041371  1
  Co  Co118  1  0.66018359  0.60199631  0.70631703  1
  Co  Co119  1  0.63338152  0.12869829  0.18586855  1
  Co  Co120  1  0.22938665  0.34505719  0.22351610  1
  Co  Co121  1  -0.01067235  0.29459074  0.35527527  1
  Co  Co122  1  0.53840275  0.86753652  0.83498156  1
  Co  Co123  1  0.65852370  0.35538038  0.60167224  1
  Co  Co124  1  0.87618896  0.59042265  0.15461103  1
  Co  Co125  1  0.55729736  0.05499184  0.04948686  1
  Co  Co126  1  0.56139336  0.43493380  0.30758975  1
  Co  Co127  1  0.73590235  0.22969762  -0.05603865  1
  Co  Co128  1  0.03893337  -0.11257864  0.65259900  1
  Co  Co129  1  0.05335025  0.22136622  -0.11505213  1
  Co  Co130  1  -0.01123306  0.15722092  0.47585373  1
  Co  Co131  1  0.32464179  0.63770478  0.05517429  1
  Co  Co132  1  0.73354310  0.42392488  0.47162673  1
  Co  Co133  1  0.26746650  0.82971475  0.49003071  1
  Co  Co134  1  -0.01501662  0.80637843  0.31139359  1
  Co  Co135  1  0.68402321  0.32078472  0.32332926  1
  Co  Co136  1  0.73936050  0.84026331  0.53506357  1
  Co  Co137  1  0.13567138  0.75973583  0.72557749  1
  Co  Co138  1  0.68503635  0.39486648  0.16791345  1
  Co  Co139  1  0.50156362  0.16589572  0.78282920  1
  Co  Co140  1  0.61864593  0.11853961  0.89455207  1
  Co  Co141  1  0.50951548  0.70694281  0.91789823  1
  Co  Co142  1  0.11718666  0.21925469  0.28767227  1
  Co  Co143  1  0.83503541  0.32180380  0.27102183  1
  Co  Co144  1  0.31698199  0.04144191  -0.07523736  1
  Co  Co145  1  0.85224926  0.04257497  0.73452232  1
  Co  Co146  1  -0.06948552  0.11595643  0.86230709  1
  Co  Co147  1  0.05107992  0.42560214  0.43247364  1
  Co  Co148  1  -0.03920037  -0.02883648  0.08077591  1
  Co  Co149  1  0.78948079  0.31774383  0.79099965  1
  Co  Co150  1  0.36440682  0.08766026  0.77237809  1
  Co  Co151  1  0.15057623  0.58422365  0.52305468  1
  Co  Co152  1  0.48933358  0.01619792  0.88469629  1
  Co  Co153  1  0.77159423  0.37633115  0.02553241  1
  Co  Co154  1  0.38930063  0.57673687  0.88654699  1
  Co  Co155  1  0.63602458  0.55671570  0.39099015  1
  Co  Co156  1  0.22926419  -0.00855604  0.79396207  1
  Co  Co157  1  0.34332732  0.49380188  0.12302922  1
  Co  Co158  1  0.75498210  0.45768320  0.71733672  1
  Co  Co159  1  0.50330826  0.84480784  -0.00663710  1
  Co  Co160  1  0.26695812  0.70876551  0.62123273  1
  Co  Co161  1  0.90453084  0.88724656  0.75372381  1
  Ni  Ni162  1  0.02793607  -0.03068517  0.34496937  1
  Ni  Ni163  1  0.43207367  0.58331142  0.23257825  1
  Ni  Ni164  1  0.84614818  0.07788615  0.17974701  1
  Ni  Ni165  1  -0.00199220  0.63831482  0.58680183  1
  Ni  Ni166  1  0.44707043  0.27707390  0.34134706  1
  Ni  Ni167  1  0.46233257  0.33944530  0.75846883  1
  Ni  Ni168  1  0.49973984  -0.03708812  0.44079247  1
  Ni  Ni169  1  0.74963667  0.63833886  0.28214554  1
  Ni  Ni170  1  0.20887339  0.34887192  0.86419857  1
  Ni  Ni171  1  0.58940177  0.19076443  0.35091789  1
  Ni  Ni172  1  0.21968401  -0.01271664  0.50828871  1
  Ni  Ni173  1  0.72675085  0.07455955  0.05830838  1
  Ni  Ni174  1  0.14341502  -0.00167155  0.09026635  1
  Ni  Ni175  1  0.09852542  0.44928276  0.77651143  1
  Ni  Ni176  1  0.81079822  0.67591921  0.55940007  1
  Ni  Ni177  1  0.26601373  0.63774097  0.79110466  1
  Ni  Ni178  1  0.38220988  0.89162790  0.89458564  1
  Ni  Ni179  1  0.17802776  0.58316588  0.10071630  1
  Ni  Ni180  1  0.85885122  0.21415976  0.40267647  1
  Ni  Ni181  1  0.77613701  0.82905833  0.30289523  1
  Ni  Ni182  1  0.62965263  0.72351354  0.59123393  1
  Ni  Ni183  1  0.34513811  0.22545076  0.19387971  1
  Ni  Ni184  1  0.42948507  0.50887569  0.74457520  1
  Ni  Ni185  1  0.89802902  0.01314329  0.44217557  1
  Ni  Ni186  1  0.04163544  0.70531600  0.43029162  1
  Ni  Ni187  1  0.08058588  0.16414893  0.61506303  1
  Ni  Ni188  1  -0.02256316  0.56413534  0.73652857  1
  Ni  Ni189  1  0.62838849  0.84045178  0.09991572  1
  Ni  Ni190  1  0.00114717  0.86783345  0.48136856  1
  Ni  Ni191  1  0.47361278  0.29312984  -0.07604643  1
  Ni  Ni192  1  0.85840586  0.52246339  -0.01816432  1
  Ni  Ni193  1  0.03442425  0.11387393  0.13801205  1
  Ni  Ni194  1  0.08259480  0.42702620  0.09832528  1
  Ni  Ni195  1  0.28226343  0.81176781  0.31685194  1
  Ni  Ni196  1  0.30992226  0.53677254  0.38519362  1
  Ni  Ni197  1  0.71971918  0.00069057  0.61554756  1
  Ni  Ni198  1  0.29445539  0.25500629  -0.02194204  1
  Ni  Ni199  1  0.84359534  0.70786735  0.01353066  1
  Ni  Ni200  1  0.59936828  0.02952062  0.32099646  1
  Ni  Ni201  1  0.50636976  0.44890366  0.15731321  1
  Ni  Ni202  1  0.32146467  0.06981153  0.25961418  1
  Ni  Ni203  1  0.92550111  0.20804630  0.72707064  1
  Ni  Ni204  1  0.81575782  0.77596286  0.85228574  1
  Ni  Ni205  1  0.93211290  0.46418054  0.30755431  1
  Ni  Ni206  1  0.32004110  0.11779114  0.50444549  1
  Ni  Ni207  1  0.61247848  0.63657939  0.04554730  1
  Ni  Ni208  1  0.37115334  0.38531598  0.44992691  1
  Ni  Ni209  1  0.52753512  0.67894055  0.46687525  1
  Ni  Ni210  1  0.44565376  0.23568171  0.50099174  1
  Ni  Ni211  1  0.01922224  0.73408517  0.01296536  1
  Ni  Ni212  1  0.50784608  0.81871854  0.67517500  1
  Ni  Ni213  1  -0.04387399  0.37127287  0.70518273  1
  Ni  Ni214  1  0.00244145  0.28101562  0.04383219  1
