# generated using pymatgen
data_Ti108Co54Ni53
_symmetry_space_group_name_H-M   'P 1'
_cell_length_a   14.58082920
_cell_length_b   14.60150690
_cell_length_c   14.57211621
_cell_angle_alpha   90.10008149
_cell_angle_beta   89.50332676
_cell_angle_gamma   89.55301131
_symmetry_Int_Tables_number   1
_chemical_formula_structural   Ti108Co54Ni53
_chemical_formula_sum   'Ti108 Co54 Ni53'
_cell_volume   3102.21774841
_cell_formula_units_Z   1
loop_
 _symmetry_equiv_pos_site_id
 _symmetry_equiv_pos_as_xyz
  1  'x, y, z'
loop_
 _atom_site_type_symbol
 _atom_site_label
 _atom_site_symmetry_multiplicity
 _atom_site_fract_x
 _atom_site_fract_y
 _atom_site_fract_z
 _atom_site_occupancy
  Ti  Ti0  1  0.14419279  0.09586462  0.24581752  1
  Ti  Ti1  1  0.08003532  0.08889319  0.57049136  1
  Ti  Ti2  1  0.09968245  0.13134854  0.93803053  1
  Ti  Ti3  1  0.04382544  0.50222894  0.31942317  1
  Ti  Ti4  1  0.03172629  0.43589221  0.53364290  1
  Ti  Ti5  1  0.04581497  0.37034875  0.85582992  1
  Ti  Ti6  1  0.07901036  0.81419875  0.23995371  1
  Ti  Ti7  1  0.08428505  0.76050216  0.57719104  1
  Ti  Ti8  1  0.06485551  0.78239728  0.96928450  1
  Ti  Ti9  1  0.42588563  0.04266128  0.14196770  1
  Ti  Ti10  1  0.40462385  0.14704869  0.63879625  1
  Ti  Ti11  1  0.42267476  0.02371075  0.93742560  1
  Ti  Ti12  1  0.39779939  0.44316746  0.22380754  1
  Ti  Ti13  1  0.36566067  0.43944490  0.53582516  1
  Ti  Ti14  1  0.44037122  0.37305899  1.02172941  1
  Ti  Ti15  1  0.42857797  0.66881635  0.23374934  1
  Ti  Ti16  1  0.40044739  0.81434749  0.59985272  1
  Ti  Ti17  1  0.38218896  0.70318718  0.90930145  1
  Ti  Ti18  1  0.77631862  0.08405459  0.27663901  1
  Ti  Ti19  1  0.76656245  0.10840869  0.63522859  1
  Ti  Ti20  1  0.78267462  0.04906067  0.94007066  1
  Ti  Ti21  1  0.78031273  0.41337733  0.26205516  1
  Ti  Ti22  1  0.75242494  0.46727216  0.58522873  1
  Ti  Ti23  1  0.71324616  0.33697510  0.97954630  1
  Ti  Ti24  1  0.71880206  0.77966596  0.18218987  1
  Ti  Ti25  1  0.73928408  0.71181973  0.61120029  1
  Ti  Ti26  1  0.70991258  0.73442220  0.95722224  1
  Ti  Ti27  1  0.09196674  0.24800373  0.12837932  1
  Ti  Ti28  1  0.03631157  0.22434530  0.44758962  1
  Ti  Ti29  1  0.02453727  0.20786015  0.77820358  1
  Ti  Ti30  1  0.05945964  0.55114791  0.12945314  1
  Ti  Ti31  1  0.13665130  0.64924304  0.39087181  1
  Ti  Ti32  1  0.08598742  0.57719605  0.84832623  1
  Ti  Ti33  1  0.14814222  0.92710526  0.07933152  1
  Ti  Ti34  1  0.07220316  0.87800203  0.41130984  1
  Ti  Ti35  1  0.08827306  0.83433897  0.78776611  1
  Ti  Ti36  1  0.42633846  0.23999685  0.16265172  1
  Ti  Ti37  1  0.39179877  0.24031835  0.36636998  1
  Ti  Ti38  1  0.39296804  0.35464989  0.82699930  1
  Ti  Ti39  1  0.52028939  0.55991463  0.09935965  1
  Ti  Ti40  1  0.42627089  0.55981434  0.41357237  1
  Ti  Ti41  1  0.43057763  0.60642480  0.69478909  1
  Ti  Ti42  1  0.34714810  0.88013515  0.03669005  1
  Ti  Ti43  1  0.44411749  0.94706590  0.40987118  1
  Ti  Ti44  1  0.45741131  0.95273261  0.74139618  1
  Ti  Ti45  1  0.71446206  0.25144034  0.16677600  1
  Ti  Ti46  1  0.76724828  0.28234528  0.46550095  1
  Ti  Ti47  1  0.70778092  0.27215388  0.79030215  1
  Ti  Ti48  1  0.74525261  0.51707906  0.04044172  1
  Ti  Ti49  1  0.74063532  0.63237812  0.33193950  1
  Ti  Ti50  1  0.64850278  0.56119120  0.72286024  1
  Ti  Ti51  1  0.67436756  0.92191672  0.04527668  1
  Ti  Ti52  1  0.74276709  0.90273957  0.37367359  1
  Ti  Ti53  1  0.77822420  0.85451103  0.72071345  1
  Ti  Ti54  1  0.24446984  0.12713502  0.07283070  1
  Ti  Ti55  1  0.18017237  0.04483270  0.42364631  1
  Ti  Ti56  1  0.19348494  0.12867378  0.72014480  1
  Ti  Ti57  1  0.23526483  0.42059294  0.07675119  1
  Ti  Ti58  1  0.15830330  0.37329916  0.40371477  1
  Ti  Ti59  1  0.21091451  0.35584567  0.71683510  1
  Ti  Ti60  1  0.25980698  0.77145630  0.18178425  1
  Ti  Ti61  1  0.37374556  0.75490951  0.41954193  1
  Ti  Ti62  1  0.25945814  0.70696639  0.71537813  1
  Ti  Ti63  1  0.60538432  0.10658861  0.16085367  1
  Ti  Ti64  1  0.49055312  0.11363072  0.46948686  1
  Ti  Ti65  1  0.57312326  0.11066395  0.69774905  1
  Ti  Ti66  1  0.61007511  0.40672540  0.15517954  1
  Ti  Ti67  1  0.58257902  0.40493834  0.49145379  1
  Ti  Ti68  1  0.58146738  0.38808674  0.69087947  1
  Ti  Ti69  1  0.52259025  0.76588490  0.06131417  1
  Ti  Ti70  1  0.57674242  0.80909697  0.47867601  1
  Ti  Ti71  1  0.59734738  0.79784036  0.79808401  1
  Ti  Ti72  1  0.96872262  0.05956818  0.07776288  1
  Ti  Ti73  1  0.92233657  0.06943082  0.38762049  1
  Ti  Ti74  1  0.94680270  0.04613828  0.71811504  1
  Ti  Ti75  1  0.93221118  0.46950702  -0.01005963  1
  Ti  Ti76  1  0.92171900  0.37334413  0.37625648  1
  Ti  Ti77  1  0.85366561  0.40173003  0.73724019  1
  Ti  Ti78  1  0.94820011  0.73056097  0.13716040  1
  Ti  Ti79  1  0.91490098  0.73847006  0.44067702  1
  Ti  Ti80  1  0.91705165  0.71007036  0.78779134  1
  Ti  Ti81  1  0.24416214  0.30866801  0.23695093  1
  Ti  Ti82  1  0.26099339  0.25168373  0.54032865  1
  Ti  Ti83  1  0.30814830  0.18517104  0.90619677  1
  Ti  Ti84  1  0.23991512  0.58737207  0.17937872  1
  Ti  Ti85  1  0.17636073  0.58565020  0.57998986  1
  Ti  Ti86  1  0.22303647  0.61373686  0.99371925  1
  Ti  Ti87  1  0.27259044  0.91702021  0.30041054  1
  Ti  Ti88  1  0.28627611  0.98882309  0.61786275  1
  Ti  Ti89  1  0.28840599  0.87160737  0.84687148  1
  Ti  Ti90  1  0.62397483  0.19333734  0.35686098  1
  Ti  Ti91  1  0.61229780  0.22662323  0.56414935  1
  Ti  Ti92  1  0.55630934  0.19539003  0.90097137  1
  Ti  Ti93  1  0.58029819  0.51700636  0.30898843  1
  Ti  Ti94  1  0.63421331  0.59943451  0.50481810  1
  Ti  Ti95  1  0.61553394  0.57126750  0.91286425  1
  Ti  Ti96  1  0.56693329  0.91988255  0.22706594  1
  Ti  Ti97  1  0.63487565  0.99984042  0.52596445  1
  Ti  Ti98  1  0.60764863  0.98141416  0.86870890  1
  Ti  Ti99  1  0.90110136  0.24984882  0.18338097  1
  Ti  Ti100  1  0.92428472  0.23783860  0.62553161  1
  Ti  Ti101  1  0.87479695  0.21384486  0.96966617  1
  Ti  Ti102  1  0.87966215  0.55336150  0.19770769  1
  Ti  Ti103  1  0.97210829  0.57666092  0.64622125  1
  Ti  Ti104  1  0.88455520  0.64767312  0.95794071  1
  Ti  Ti105  1  0.88650702  0.91260326  0.22256082  1
  Ti  Ti106  1  0.95148358  0.91226900  0.56497085  1
  Ti  Ti107  1  0.92307602  0.91098780  0.89996924  1
  Co  Co108  1  -0.00867676  0.89169851  0.08324730  1
  Co  Co109  1  0.58867479  0.68725279  0.22464956  1
  Co  Co110  1  0.14512502  -0.07744427  0.53928428  1
  Co  Co111  1  0.69568715  0.55919530  0.19453843  1
  Co  Co112  1  0.34034058  0.61898373  0.55670764  1
  Co  Co113  1  0.79306447  0.54598604  -0.12933244  1
  Co  Co114  1  0.80843816  0.23468746  0.32089760  1
  Co  Co115  1  0.25057268  0.52405091  0.44714089  1
  Co  Co116  1  -0.09247880  0.90816217  0.38872132  1
  Co  Co117  1  0.81394894  -0.00260971  0.78352317  1
  Co  Co118  1  0.85854175  0.36028003  0.89098043  1
  Co  Co119  1  0.31945550  0.03771880  0.78660036  1
  Co  Co120  1  0.21677974  0.49224907  0.29586364  1
  Co  Co121  1  0.50584802  0.25651475  0.73291824  1
  Co  Co122  1  -0.05700879  0.51479384  0.81153291  1
  Co  Co123  1  0.55298341  0.35170604  0.86212266  1
  Co  Co124  1  0.33490776  0.05424729  0.34793048  1
  Co  Co125  1  0.24293730  0.75391903  0.53874221  1
  Co  Co126  1  0.19378753  0.71017834  0.86155211  1
  Co  Co127  1  -0.05299580  0.08256096  0.89028683  1
  Co  Co128  1  0.57823567  0.06936389  0.01109219  1
  Co  Co129  1  0.51781290  0.52310606  0.59016202  1
  Co  Co130  1  0.09051616  0.67825729  0.71983012  1
  Co  Co131  1  0.58514312  0.43495562  -0.00699651  1
  Co  Co132  1  0.48076531  0.38981312  0.37165616  1
  Co  Co133  1  0.55502293  0.66785080  0.38024077  1
  Co  Co134  1  0.51237811  -0.07085597  0.05624537  1
  Co  Co135  1  0.03970848  0.62522496  -0.00578247  1
  Co  Co136  1  0.07167806  -0.03385588  -0.06159300  1
  Co  Co137  1  0.57194252  0.26553336  0.06510850  1
  Co  Co138  1  0.48430912  0.68041010  0.53041418  1
  Co  Co139  1  0.12161420  0.71364206  0.11449987  1
  Co  Co140  1  0.43807418  0.17218100  0.01627885  1
  Co  Co141  1  -0.06016638  0.87310282  0.72597353  1
  Co  Co142  1  0.64335021  0.65550316  0.07610222  1
  Co  Co143  1  0.69662692  0.17819463  -0.00800573  1
  Co  Co144  1  0.00579081  0.37275308  0.69064484  1
  Co  Co145  1  0.52469077  0.65943986  0.81888380  1
  Co  Co146  1  0.74251650  0.11293669  0.44930155  1
  Co  Co147  1  0.44865985  0.11989044  0.80819762  1
  Co  Co148  1  0.80241169  0.66394789  0.10789150  1
  Co  Co149  1  0.37285479  0.69733199  0.08001936  1
  Co  Co150  1  0.29326187  0.90633289  0.46927474  1
  Co  Co151  1  0.57771935  0.69489514  0.65982538  1
  Co  Co152  1  0.12568488  0.41163472  0.19667272  1
  Co  Co153  1  0.69113062  0.42979561  0.83922384  1
  Co  Co154  1  0.32525281  0.22383464  0.74921798  1
  Co  Co155  1  0.23345962  0.77785653  0.00374424  1
  Co  Co156  1  0.72188164  0.95630377  0.19719286  1
  Co  Co157  1  0.84763661  0.76035178  0.29312747  1
  Co  Co158  1  0.17824034  0.25123959  0.83002145  1
  Co  Co159  1  0.22125538  0.85504453  0.67416564  1
  Co  Co160  1  0.47925847  -0.02310549  0.58117826  1
  Co  Co161  1  0.83968408  -0.04616082  0.06820334  1
  Ni  Ni162  1  0.61631536  0.02392848  0.35393679  1
  Ni  Ni163  1  0.75165667  0.29771464  0.63315876  1
  Ni  Ni164  1  0.73210444  0.75012210  0.44204995  1
  Ni  Ni165  1  0.78089137  0.09918509  0.10832152  1
  Ni  Ni166  1  0.15649772  0.29532564  -0.01787844  1
  Ni  Ni167  1  0.21015991  0.78865877  0.37551456  1
  Ni  Ni168  1  0.65363129  0.35675307  0.34500318  1
  Ni  Ni169  1  0.30455464  0.15128993  0.23235377  1
  Ni  Ni170  1  0.73430926  0.68977771  0.79736863  1
  Ni  Ni171  1  0.16794598  -0.01452102  0.80917079  1
  Ni  Ni172  1  0.50108106  0.80563175  0.31779875  1
  Ni  Ni173  1  0.40945442  0.86095138  0.18909390  1
  Ni  Ni174  1  0.32179051  0.39290710  0.37185113  1
  Ni  Ni175  1  0.58262487  0.85545395  0.63830034  1
  Ni  Ni176  1  0.88311430  0.37335193  0.54692938  1
  Ni  Ni177  1  0.30417320  0.27585029  0.05553851  1
  Ni  Ni178  1  0.24836924  0.01431526  -0.05247299  1
  Ni  Ni179  1  -0.01044410  0.31668187  0.02118746  1
  Ni  Ni180  1  0.45459933  0.28023015  0.51918281  1
  Ni  Ni181  1  -0.00903493  0.66535931  0.29132586  1
  Ni  Ni182  1  0.48259796  0.11032935  0.28810509  1
  Ni  Ni183  1  0.80468644  -0.02685121  0.51788648  1
  Ni  Ni184  1  0.00729389  0.60045959  0.48235491  1
  Ni  Ni185  1  0.81913528  0.58075239  0.70365347  1
  Ni  Ni186  1  0.29275051  0.64141867  0.32887546  1
  Ni  Ni187  1  0.83336397  0.60458112  0.52162152  1
  Ni  Ni188  1  0.38436668  0.34248747  0.65999213  1
  Ni  Ni189  1  0.85399939  0.18319316  0.78781036  1
  Ni  Ni190  1  0.18946412  0.41125365  0.56573077  1
  Ni  Ni191  1  0.08463561  -0.03936649  0.67749487  1
  Ni  Ni192  1  0.10941421  0.46328140  -0.01867165  1
  Ni  Ni193  1  0.32076041  0.10394739  0.49523211  1
  Ni  Ni194  1  -0.03616791  0.40466735  0.18908720  1
  Ni  Ni195  1  0.20987115  0.20699881  0.37307351  1
  Ni  Ni196  1  0.88759104  0.55664084  0.37076772  1
  Ni  Ni197  1  0.84955343  0.80525568  0.01937600  1
  Ni  Ni198  1  0.74845037  0.47679033  0.42001513  1
  Ni  Ni199  1  0.47052850  0.85871912  -0.09663877  1
  Ni  Ni200  1  -0.01953571  0.12718892  0.24237512  1
  Ni  Ni201  1  -0.08696496  0.09657343  0.54444930  1
  Ni  Ni202  1  0.27370006  -0.01009959  0.16224062  1
  Ni  Ni203  1  0.66624274  -0.02407485  0.70300873  1
  Ni  Ni204  1  0.54360262  0.28978179  0.24903196  1
  Ni  Ni205  1  0.70083380  0.11114195  0.80522942  1
  Ni  Ni206  1  0.10368805  0.25865143  0.61105441  1
  Ni  Ni207  1  0.10894183  0.49250308  0.70685632  1
  Ni  Ni208  1  0.03682919  -0.02554726  0.27578688  1
  Ni  Ni209  1  0.36205869  0.53291056  0.06814832  1
  Ni  Ni210  1  0.83091924  0.37570809  0.09348147  1
  Ni  Ni211  1  0.05531513  0.28668346  0.29036557  1
  Ni  Ni212  1  0.91022290  0.74443699  0.62000830  1
  Ni  Ni213  1  0.75193060  0.87757700  0.89106455  1
  Ni  Ni214  1  0.42292705  0.78093010  0.76131076  1
