# generated using pymatgen
data_Ti108Co54Ni53
_symmetry_space_group_name_H-M   'P 1'
_cell_length_a   14.66173555
_cell_length_b   14.66628947
_cell_length_c   14.70335092
_cell_angle_alpha   89.89194218
_cell_angle_beta   90.30999876
_cell_angle_gamma   89.68866911
_symmetry_Int_Tables_number   1
_chemical_formula_structural   Ti108Co54Ni53
_chemical_formula_sum   'Ti108 Co54 Ni53'
_cell_volume   3161.61069597
_cell_formula_units_Z   1
loop_
 _symmetry_equiv_pos_site_id
 _symmetry_equiv_pos_as_xyz
  1  'x, y, z'
loop_
 _atom_site_type_symbol
 _atom_site_label
 _atom_site_symmetry_multiplicity
 _atom_site_fract_x
 _atom_site_fract_y
 _atom_site_fract_z
 _atom_site_occupancy
  Ti  Ti0  1  0.16538507  0.11554215  0.24922657  1
  Ti  Ti1  1  0.10787487  0.17428947  0.50523911  1
  Ti  Ti2  1  0.03547954  0.05897539  0.93851220  1
  Ti  Ti3  1  0.02229613  0.42295511  0.23263423  1
  Ti  Ti4  1  0.11483078  0.42305904  0.56527971  1
  Ti  Ti5  1  0.14149835  0.37669671  0.94834639  1
  Ti  Ti6  1  0.04620210  0.77433900  0.22683100  1
  Ti  Ti7  1  0.12136256  0.72693099  0.58144478  1
  Ti  Ti8  1  0.08007504  0.70779831  0.90875419  1
  Ti  Ti9  1  0.41090591  0.06726164  0.21276350  1
  Ti  Ti10  1  0.37632611  0.07129616  0.62329528  1
  Ti  Ti11  1  0.31730064  0.03124457  0.88829056  1
  Ti  Ti12  1  0.41155486  0.44900722  0.27558275  1
  Ti  Ti13  1  0.43425574  0.42523677  0.68409705  1
  Ti  Ti14  1  0.49605899  0.41147141  0.89272873  1
  Ti  Ti15  1  0.43925046  0.75785300  0.18356694  1
  Ti  Ti16  1  0.43185298  0.74515049  0.55785140  1
  Ti  Ti17  1  0.31402928  0.72120685  0.92290974  1
  Ti  Ti18  1  0.74275379  0.05176019  0.22086439  1
  Ti  Ti19  1  0.88702275  0.14967824  0.63076129  1
  Ti  Ti20  1  0.72779128  0.06855854  0.96334165  1
  Ti  Ti21  1  0.82846795  0.43487647  0.27855647  1
  Ti  Ti22  1  0.73275381  0.49916140  0.58751656  1
  Ti  Ti23  1  0.80884634  0.38435935  0.89677548  1
  Ti  Ti24  1  0.74243252  0.76808795  0.28433480  1
  Ti  Ti25  1  0.80088566  0.71255341  0.60718816  1
  Ti  Ti26  1  0.69425973  0.76879231  0.87952053  1
  Ti  Ti27  1  0.14268703  0.22667047  0.09084167  1
  Ti  Ti28  1  0.09670624  0.28277498  0.34183866  1
  Ti  Ti29  1  0.05493407  0.30513234  0.75618455  1
  Ti  Ti30  1  0.06814569  0.50908400  0.06160899  1
  Ti  Ti31  1  0.18763669  0.64017989  0.39948371  1
  Ti  Ti32  1  0.02763401  0.57145883  0.73709412  1
  Ti  Ti33  1  0.10062561  0.93285755  0.12579326  1
  Ti  Ti34  1  0.07107771  0.93824427  0.49086470  1
  Ti  Ti35  1  0.10315995  0.97593772  0.70671012  1
  Ti  Ti36  1  0.45206116  0.23212310  0.06674254  1
  Ti  Ti37  1  0.38426983  0.31276891  0.52799015  1
  Ti  Ti38  1  0.39259428  0.28954996  0.80037075  1
  Ti  Ti39  1  0.46761836  0.57598693  0.13707722  1
  Ti  Ti40  1  0.37014388  0.61780992  0.38661144  1
  Ti  Ti41  1  0.34411253  0.59249551  0.72141286  1
  Ti  Ti42  1  0.37900281  0.88088416  0.02548054  1
  Ti  Ti43  1  0.48632688  0.91406013  0.34980634  1
  Ti  Ti44  1  0.43172842  0.88406834  0.69737840  1
  Ti  Ti45  1  0.81099482  0.20034169  0.06311891  1
  Ti  Ti46  1  0.77104792  0.23697189  0.39913487  1
  Ti  Ti47  1  0.71326072  0.22432556  0.71756972  1
  Ti  Ti48  1  0.75895723  0.52637977  0.04155709  1
  Ti  Ti49  1  0.77521643  0.56434175  0.40347438  1
  Ti  Ti50  1  0.74143269  0.56918155  0.82644756  1
  Ti  Ti51  1  0.75141485  0.89200602  0.06148180  1
  Ti  Ti52  1  0.84043546  0.92766155  0.37603366  1
  Ti  Ti53  1  0.75110940  0.92317035  0.76159552  1
  Ti  Ti54  1  0.20346226  0.05689281  0.02760069  1
  Ti  Ti55  1  0.23971228  0.03170696  0.44461292  1
  Ti  Ti56  1  0.16830885  0.12878931  0.79640575  1
  Ti  Ti57  1  0.28722955  0.48242951  0.10823857  1
  Ti  Ti58  1  0.22058722  0.44423007  0.36625643  1
  Ti  Ti59  1  0.19993277  0.44762977  0.76247279  1
  Ti  Ti60  1  0.23139827  0.75170823  0.14969653  1
  Ti  Ti61  1  0.31571187  0.79611191  0.34132395  1
  Ti  Ti62  1  0.20048225  0.81528580  0.76980647  1
  Ti  Ti63  1  0.56161036  0.05085567  0.06381764  1
  Ti  Ti64  1  0.63202339  0.00490391  0.50091655  1
  Ti  Ti65  1  0.59576293  0.03546992  0.69587432  1
  Ti  Ti66  1  0.58096438  0.44016664  0.05482138  1
  Ti  Ti67  1  0.59296378  0.47768364  0.43023818  1
  Ti  Ti68  1  0.63537852  0.41165689  0.71399276  1
  Ti  Ti69  1  0.57085948  0.81030967  0.03322010  1
  Ti  Ti70  1  0.60929112  0.78865944  0.43708456  1
  Ti  Ti71  1  0.54258648  0.70936216  0.75346450  1
  Ti  Ti72  1  0.89650262  0.02408473  0.07862894  1
  Ti  Ti73  1  0.93935672  0.09230011  0.44342123  1
  Ti  Ti74  1  0.92449777  0.00378705  0.75692010  1
  Ti  Ti75  1  0.87419257  0.36457210  0.11003373  1
  Ti  Ti76  1  0.96619930  0.41271782  0.42591634  1
  Ti  Ti77  1  0.85411775  0.40888890  0.72276556  1
  Ti  Ti78  1  0.86652015  0.72222622  0.12318641  1
  Ti  Ti79  1  0.94729334  0.78351171  0.47802843  1
  Ti  Ti80  1  0.88169528  0.72268376  0.80972424  1
  Ti  Ti81  1  0.29057287  0.29972482  0.22021581  1
  Ti  Ti82  1  0.22878011  0.24878831  0.65242458  1
  Ti  Ti83  1  0.29506974  0.21481980  0.95590846  1
  Ti  Ti84  1  0.15519327  0.58436746  0.21711773  1
  Ti  Ti85  1  0.30200116  0.56181497  0.54292003  1
  Ti  Ti86  1  0.24682974  0.54907499  0.92851353  1
  Ti  Ti87  1  0.16967220  0.91586672  0.29749411  1
  Ti  Ti88  1  0.24611462  0.88589282  0.58676607  1
  Ti  Ti89  1  0.19688421  0.85958434  0.97586888  1
  Ti  Ti90  1  0.60738606  0.29602351  0.18123271  1
  Ti  Ti91  1  0.55248528  0.24380179  0.61615469  1
  Ti  Ti92  1  0.60611725  0.24395620  0.96248079  1
  Ti  Ti93  1  0.62736752  0.51533899  0.23734442  1
  Ti  Ti94  1  0.53218883  0.56672690  0.60772855  1
  Ti  Ti95  1  0.58586332  0.61051462  0.93341306  1
  Ti  Ti96  1  0.61589182  0.88635279  0.20831308  1
  Ti  Ti97  1  0.64145891  0.84237366  0.62594117  1
  Ti  Ti98  1  0.50794519  0.96622946  0.90108021  1
  Ti  Ti99  1  0.96541584  0.20494347  0.19864431  1
  Ti  Ti100  1  0.83144609  0.31168755  0.57210611  1
  Ti  Ti101  1  0.95100285  0.26143128  0.92959686  1
  Ti  Ti102  1  0.93518868  0.60927801  0.27271871  1
  Ti  Ti103  1  0.92329808  0.50813320  0.57760662  1
  Ti  Ti104  1  0.91804937  0.58506228  0.93763150  1
  Ti  Ti105  1  0.96663492  0.98105918  0.25317625  1
  Ti  Ti106  1  0.86493962  0.94058690  0.57879960  1
  Ti  Ti107  1  0.87115473  0.90922460  0.91461481  1
  Co  Co108  1  0.01354891  0.64752097  0.11407340  1
  Co  Co109  1  0.81319627  -0.10080587  0.20859847  1
  Co  Co110  1  0.16763034  0.64564909  0.03682385  1
  Co  Co111  1  0.77716095  0.67863305  0.97436012  1
  Co  Co112  1  0.72288382  0.40773548  0.16402933  1
  Co  Co113  1  0.49875164  0.58939271  0.29790602  1
  Co  Co114  1  0.55261328  0.53783973  0.77541553  1
  Co  Co115  1  0.34134778  0.33748084  0.37476264  1
  Co  Co116  1  0.88986800  0.83842811  0.71121330  1
  Co  Co117  1  0.43070039  0.02011936  0.77493841  1
  Co  Co118  1  0.07488900  0.16518543  0.66228725  1
  Co  Co119  1  0.20190461  0.06435012  0.60625050  1
  Co  Co120  1  0.64381725  0.64386606  0.35388768  1
  Co  Co121  1  0.26945619  0.71945458  0.65112521  1
  Co  Co122  1  0.11183285  0.21636614  -0.07678959  1
  Co  Co123  1  0.31994360  0.62106188  0.23707642  1
  Co  Co124  1  0.25845553  0.01793886  0.17321021  1
  Co  Co125  1  0.02436278  0.85924563  0.62913982  1
  Co  Co126  1  0.02763128  0.32639124  0.07495204  1
  Co  Co127  1  0.04693367  0.73859241  0.73992558  1
  Co  Co128  1  0.48342103  0.74721311  0.34253251  1
  Co  Co129  1  -0.04262600  0.68005374  0.61864436  1
  Co  Co130  1  0.28512089  0.73640383  0.49513262  1
  Co  Co131  1  0.32519577  0.14991691  0.77044870  1
  Co  Co132  1  0.72037780  0.33567399  0.02264215  1
  Co  Co133  1  0.47645836  -0.06513106  0.14230182  1
  Co  Co134  1  0.27630056  -0.02052653  0.72999223  1
  Co  Co135  1  0.67677713  0.33503717  0.54978466  1
  Co  Co136  1  0.15748434  -0.03429102  0.86512008  1
  Co  Co137  1  0.33679262  0.87950697  0.85199594  1
  Co  Co138  1  0.94693084  0.43538574  -0.01709400  1
  Co  Co139  1  0.62323359  0.61991869  0.08520499  1
  Co  Co140  1  0.67687713  -0.06284919  0.35109354  1
  Co  Co141  1  0.48707929  0.79536720  -0.11251473  1
  Co  Co142  1  -0.06313056  0.86900619  0.10534589  1
  Co  Co143  1  0.02870204  -0.09663000  -0.02762561  1
  Co  Co144  1  0.53590077  0.40219046  0.56148506  1
  Co  Co145  1  0.77442284  0.25149135  0.22538017  1
  Co  Co146  1  0.01340803  0.86893365  0.82116337  1
  Co  Co147  1  0.86816928  0.25575160  0.76834795  1
  Co  Co148  1  -0.08964090  0.29764793  0.31419615  1
  Co  Co149  1  0.00388504  0.03927152  0.59683738  1
  Co  Co150  1  0.59105520  0.70957002  0.21611539  1
  Co  Co151  1  0.85541733  0.57968869  0.71471999  1
  Co  Co152  1  0.90750818  0.79319211  0.30361315  1
  Co  Co153  1  0.70524142  0.75019918  0.11378524  1
  Co  Co154  1  0.66436769  0.16005273  0.11903110  1
  Co  Co155  1  -0.05179378  0.24865223  0.46140173  1
  Co  Co156  1  0.75054402  0.03607180  0.63392169  1
  Co  Co157  1  -0.10159517  0.53123751  0.12876395  1
  Co  Co158  1  0.32074156  0.64158034  0.07485548  1
  Co  Co159  1  0.87966859  0.10166772  -0.08142456  1
  Co  Co160  1  0.07773700  0.78063232  0.06281662  1
  Co  Co161  1  0.08831429  0.53476293  -0.10917779  1
  Ni  Ni162  1  0.07935624  0.05154282  0.36806223  1
  Ni  Ni163  1  0.50618287  -0.09425024  0.54215777  1
  Ni  Ni164  1  0.65519586  0.44437065  0.89764603  1
  Ni  Ni165  1  0.35987399  0.89569761  0.47250303  1
  Ni  Ni166  1  0.41349604  0.52194157  -0.01066556  1
  Ni  Ni167  1  0.75772407  0.22239753  0.89009757  1
  Ni  Ni168  1  0.79998592  0.72397862  0.43018855  1
  Ni  Ni169  1  0.78715324  0.40663039  0.44444248  1
  Ni  Ni170  1  0.57179718  0.28416595  0.80076256  1
  Ni  Ni171  1  0.74827476  0.86168271  0.49605854  1
  Ni  Ni172  1  0.32496057  0.87988879  0.19202338  1
  Ni  Ni173  1  0.66542438  -0.07247038  -0.07993394  1
  Ni  Ni174  1  0.35606537  0.46813338  0.83316751  1
  Ni  Ni175  1  0.42028902  0.46879628  0.46097740  1
  Ni  Ni176  1  0.78054504  0.09151464  0.78778365  1
  Ni  Ni177  1  0.17780047  0.56521484  0.64589216  1
  Ni  Ni178  1  0.15667253  0.81155124  0.42582057  1
  Ni  Ni179  1  0.06924674  0.57870195  0.52053648  1
  Ni  Ni180  1  -0.02046804  0.42939557  0.82910573  1
  Ni  Ni181  1  0.39104500  0.05560618  0.03987370  1
  Ni  Ni182  1  0.21150511  0.31425886  0.48521120  1
  Ni  Ni183  1  0.77476570  0.06584655  0.45179008  1
  Ni  Ni184  1  0.27766922  0.41295137  0.61237387  1
  Ni  Ni185  1  0.37732258  0.74625150  0.76585834  1
  Ni  Ni186  1  0.16186633  0.38792891  0.16068197  1
  Ni  Ni187  1  0.48807517  0.16016201  0.74017086  1
  Ni  Ni188  1  0.75913841  0.60904581  0.21581616  1
  Ni  Ni189  1  -0.00768548  0.15181245  0.80101733  1
  Ni  Ni190  1  0.43414872  0.62071638  0.86060582  1
  Ni  Ni191  1  0.04093969  0.70028962  0.37397557  1
  Ni  Ni192  1  0.92620900  0.61424657  0.45206907  1
  Ni  Ni193  1  0.45772559  0.69388713  0.01240528  1
  Ni  Ni194  1  0.43201396  0.39061541  0.11147371  1
  Ni  Ni195  1  0.18771673  0.64317082  0.78982356  1
  Ni  Ni196  1  0.32910957  0.37549507  -0.03299560  1
  Ni  Ni197  1  0.86025194  0.12662582  0.30377767  1
  Ni  Ni198  1  0.06165712  0.53143518  0.36078573  1
  Ni  Ni199  1  0.51750442  0.63432217  0.46045067  1
  Ni  Ni200  1  0.58869860  0.87442171  0.78177972  1
  Ni  Ni201  1  0.04922056  0.08717611  0.11920629  1
  Ni  Ni202  1  0.67042833  0.64251459  0.52004527  1
  Ni  Ni203  1  0.67596496  0.62946317  0.68796943  1
  Ni  Ni204  1  0.67585967  0.36912250  0.32232345  1
  Ni  Ni205  1  0.22417991  0.29298725  0.82311398  1
  Ni  Ni206  1  -0.00457180  0.31509366  0.60263453  1
  Ni  Ni207  1  0.30340871  0.16880454  0.12308731  1
  Ni  Ni208  1  0.33070574  -0.02519529  0.32437223  1
  Ni  Ni209  1  0.93306464  0.76051646  -0.02664379  1
  Ni  Ni210  1  0.24323671  0.20469565  0.36415950  1
  Ni  Ni211  1  0.29326071  0.17188100  0.51595962  1
  Ni  Ni212  1  0.69769939  0.17082895  0.55747367  1
  Ni  Ni213  1  0.61509100  0.11729799  0.84364644  1
  Ni  Ni214  1  0.45824196  0.15318503  -0.09047420  1
