# generated using pymatgen
data_Ti108Co54Ni53
_symmetry_space_group_name_H-M   'P 1'
_cell_length_a   14.64294651
_cell_length_b   14.65477082
_cell_length_c   14.59530218
_cell_angle_alpha   90.17836697
_cell_angle_beta   90.36346409
_cell_angle_gamma   89.88757054
_symmetry_Int_Tables_number   1
_chemical_formula_structural   Ti108Co54Ni53
_chemical_formula_sum   'Ti108 Co54 Ni53'
_cell_volume   3131.90756367
_cell_formula_units_Z   1
loop_
 _symmetry_equiv_pos_site_id
 _symmetry_equiv_pos_as_xyz
  1  'x, y, z'
loop_
 _atom_site_type_symbol
 _atom_site_label
 _atom_site_symmetry_multiplicity
 _atom_site_fract_x
 _atom_site_fract_y
 _atom_site_fract_z
 _atom_site_occupancy
  Ti  Ti0  1  0.06959461  0.10015799  0.25947252  1
  Ti  Ti1  1  0.12191209  0.11016504  0.60200205  1
  Ti  Ti2  1  -0.03073886  0.15191084  0.91877550  1
  Ti  Ti3  1  0.09679355  0.41480192  0.17461805  1
  Ti  Ti4  1  0.08399277  0.44319177  0.61329649  1
  Ti  Ti5  1  0.06924233  0.37281012  0.94681703  1
  Ti  Ti6  1  0.11470335  0.63308213  0.25607348  1
  Ti  Ti7  1  0.04033472  0.76164967  0.55365858  1
  Ti  Ti8  1  0.12560852  0.68208800  0.95829380  1
  Ti  Ti9  1  0.41053396  0.11609288  0.31798609  1
  Ti  Ti10  1  0.44032544  0.14618891  0.52095714  1
  Ti  Ti11  1  0.41214646  0.06747662  0.86342913  1
  Ti  Ti12  1  0.47074996  0.42403893  0.22415578  1
  Ti  Ti13  1  0.39370063  0.35328355  0.52801645  1
  Ti  Ti14  1  0.42183701  0.45129293  0.96389479  1
  Ti  Ti15  1  0.42485203  0.70642574  0.26653492  1
  Ti  Ti16  1  0.38418137  0.77689170  0.55905086  1
  Ti  Ti17  1  0.48342104  0.71091870  0.91279591  1
  Ti  Ti18  1  0.72585405  0.08329137  0.30132413  1
  Ti  Ti19  1  0.68268043  0.06221345  0.69708801  1
  Ti  Ti20  1  0.78137500  0.12064837  0.87299672  1
  Ti  Ti21  1  0.82374186  0.41465470  0.27642370  1
  Ti  Ti22  1  0.63964690  0.44240357  0.63176634  1
  Ti  Ti23  1  0.75980911  0.45647397  0.93527503  1
  Ti  Ti24  1  0.74432758  0.73161646  0.25416720  1
  Ti  Ti25  1  0.72170728  0.77842562  0.69507706  1
  Ti  Ti26  1  0.74238034  0.73144904  0.93568996  1
  Ti  Ti27  1  0.08188900  0.14240573  0.07478242  1
  Ti  Ti28  1  0.11220302  0.22997058  0.40315202  1
  Ti  Ti29  1  0.05108613  0.23595881  0.74550011  1
  Ti  Ti30  1  -0.00538099  0.62541974  0.09352310  1
  Ti  Ti31  1  0.02715828  0.55693532  0.42886896  1
  Ti  Ti32  1  0.08222575  0.50444985  0.80341249  1
  Ti  Ti33  1  0.04933034  0.94935631  0.12708609  1
  Ti  Ti34  1  0.14412565  0.86427802  0.39243931  1
  Ti  Ti35  1  0.07585238  0.92100703  0.68972154  1
  Ti  Ti36  1  0.29543901  0.17205548  0.02676558  1
  Ti  Ti37  1  0.51138154  0.28540312  0.39276562  1
  Ti  Ti38  1  0.38790472  0.21335879  0.70750173  1
  Ti  Ti39  1  0.36773346  0.56139472  0.12935503  1
  Ti  Ti40  1  0.42436584  0.55151198  0.47118975  1
  Ti  Ti41  1  0.37245224  0.60762298  0.76158801  1
  Ti  Ti42  1  0.45966871  0.89618670  0.08228246  1
  Ti  Ti43  1  0.44292372  0.95962617  0.47161137  1
  Ti  Ti44  1  0.45779979  0.97309257  0.68126141  1
  Ti  Ti45  1  0.71370066  0.31510875  0.05790623  1
  Ti  Ti46  1  0.74751226  0.30335715  0.44207553  1
  Ti  Ti47  1  0.74444432  0.24635214  0.71537443  1
  Ti  Ti48  1  0.75697380  0.53719486  0.12179067  1
  Ti  Ti49  1  0.69378604  0.62408042  0.48524859  1
  Ti  Ti50  1  0.79826641  0.60790539  0.78398980  1
  Ti  Ti51  1  0.71727263  0.88035922  0.09700000  1
  Ti  Ti52  1  0.79696998  0.88128722  0.37524752  1
  Ti  Ti53  1  0.73087468  0.92080449  0.84856826  1
  Ti  Ti54  1  0.35356924  0.02792799  0.15304546  1
  Ti  Ti55  1  0.24613805  0.03862306  0.44001077  1
  Ti  Ti56  1  0.23566378  0.07365108  0.76061929  1
  Ti  Ti57  1  0.24838345  0.41351571  0.06358780  1
  Ti  Ti58  1  0.25394397  0.36329099  0.37563946  1
  Ti  Ti59  1  0.27549079  0.41066775  0.67768311  1
  Ti  Ti60  1  0.25211803  0.72441880  0.12381794  1
  Ti  Ti61  1  0.20168210  0.68978521  0.45541448  1
  Ti  Ti62  1  0.21111752  0.72670404  0.67553643  1
  Ti  Ti63  1  0.64077916  0.12599664  0.06698829  1
  Ti  Ti64  1  0.63364598  0.12881755  0.46787025  1
  Ti  Ti65  1  0.58680350  0.16659978  0.86773644  1
  Ti  Ti66  1  0.57516185  0.43755121  0.06616988  1
  Ti  Ti67  1  0.61399648  0.46495499  0.36029919  1
  Ti  Ti68  1  0.51283141  0.46339239  0.79406321  1
  Ti  Ti69  1  0.57608989  0.78036355  0.18797822  1
  Ti  Ti70  1  0.61365027  0.81396986  0.38985348  1
  Ti  Ti71  1  0.50940323  0.77915304  0.72169348  1
  Ti  Ti72  1  0.90047206  0.01644812  0.03563310  1
  Ti  Ti73  1  0.97117196  0.06032293  0.43352146  1
  Ti  Ti74  1  0.91747483  0.07422662  0.73818994  1
  Ti  Ti75  1  0.92415653  0.44533259  0.08366486  1
  Ti  Ti76  1  0.90587689  0.41920250  0.49688088  1
  Ti  Ti77  1  0.93034049  0.38846502  0.70493125  1
  Ti  Ti78  1  0.91844394  0.81860495  0.13673434  1
  Ti  Ti79  1  0.87818260  0.70786369  0.44990084  1
  Ti  Ti80  1  0.93134884  0.76951904  0.70137641  1
  Ti  Ti81  1  0.23846433  0.23563033  0.20839613  1
  Ti  Ti82  1  0.26000078  0.21471118  0.53913498  1
  Ti  Ti83  1  0.15928890  0.20887492  0.89910420  1
  Ti  Ti84  1  0.28994784  0.56171017  0.30993491  1
  Ti  Ti85  1  0.23066308  0.51376892  0.50264224  1
  Ti  Ti86  1  0.24324116  0.51763859  0.90191395  1
  Ti  Ti87  1  0.20767081  0.91049810  0.22364211  1
  Ti  Ti88  1  0.27163014  0.93864270  0.61335286  1
  Ti  Ti89  1  0.21218982  0.90432405  1.01485622  1
  Ti  Ti90  1  0.55038774  0.25136554  0.18518885  1
  Ti  Ti91  1  0.58232015  0.26488478  0.59123826  1
  Ti  Ti92  1  0.47291151  0.25705679  0.99998989  1
  Ti  Ti93  1  0.57931342  0.58368745  0.18652390  1
  Ti  Ti94  1  0.52582551  0.62495176  0.60891867  1
  Ti  Ti95  1  0.62103888  0.57341642  0.92513971  1
  Ti  Ti96  1  0.52041898  0.94818860  0.27339042  1
  Ti  Ti97  1  0.69642361  0.93394599  0.54770922  1
  Ti  Ti98  1  0.56964144  0.97196965  0.95718561  1
  Ti  Ti99  1  0.89121628  0.22239003  0.28322637  1
  Ti  Ti100  1  0.90955934  0.21047312  0.58873171  1
  Ti  Ti101  1  0.88158407  0.31311450  0.93660806  1
  Ti  Ti102  1  0.90266862  0.64188373  0.25737595  1
  Ti  Ti103  1  0.94469106  0.57894148  0.63374484  1
  Ti  Ti104  1  0.96271761  0.64756723  0.85923183  1
  Ti  Ti105  1  0.89296149  0.99757397  0.25409747  1
  Ti  Ti106  1  0.88749904  0.89681549  0.56245057  1
  Ti  Ti107  1  1.01371033  0.86044828  0.92848478  1
  Co  Co108  1  0.40620581  0.18449575  0.15066706  1
  Co  Co109  1  0.43289371  0.72838689  0.09382418  1
  Co  Co110  1  0.74022012  0.19208977  0.56461988  1
  Co  Co111  1  0.78465918  0.35103553  0.59761569  1
  Co  Co112  1  0.60132947  0.83028982  0.84299582  1
  Co  Co113  1  0.66402418  0.41664574  0.20225868  1
  Co  Co114  1  0.28025141  0.42390149  0.22433488  1
  Co  Co115  1  0.52376650  0.06396594  0.16501700  1
  Co  Co116  1  0.10782027  0.61007074  0.57112340  1
  Co  Co117  1  0.80716161  0.17514985  0.02722369  1
  Co  Co118  1  0.20016462  0.56370039  0.13689374  1
  Co  Co119  1  0.44298919  0.82881029  0.37239918  1
  Co  Co120  1  0.03861653  -0.05310637  0.29538996  1
  Co  Co121  1  0.55965666  0.02198164  0.56940519  1
  Co  Co122  1  0.55677442  0.62529411  0.77255815  1
  Co  Co123  1  -0.01969862  0.03996138  0.59744858  1
  Co  Co124  1  0.14205126  0.47990677  0.32461617  1
  Co  Co125  1  0.15677427  0.28284991  0.06069115  1
  Co  Co126  1  0.86037697  0.30887566  0.13572441  1
  Co  Co127  1  0.69397075  0.91178452  0.25291505  1
  Co  Co128  1  0.39002969  0.34484423  0.10712430  1
  Co  Co129  1  0.79971428  0.50417547  0.64463449  1
  Co  Co130  1  0.29947533  0.33130462  -0.06102384  1
  Co  Co131  1  -0.00717790  0.27869567  0.05578619  1
  Co  Co132  1  0.46716625  0.56372930  0.31326697  1
  Co  Co133  1  0.35083324  0.43521028  0.80981728  1
  Co  Co134  1  0.22887019  0.05853098  -0.07273547  1
  Co  Co135  1  -0.10895102  0.24138881  0.78660353  1
  Co  Co136  1  0.42728474  0.49990802  0.63708846  1
  Co  Co137  1  0.34471349  -0.03921068  0.32407021  1
  Co  Co138  1  0.82035845  0.67601038  0.60527172  1
  Co  Co139  1  0.46940710  0.09067423  0.01915447  1
  Co  Co140  1  0.62028897  -0.09502237  0.69093183  1
  Co  Co141  1  0.62239917  -0.01697171  0.39748811  1
  Co  Co142  1  0.56609438  0.00449060  0.80210502  1
  Co  Co143  1  0.32028946  0.08472834  0.61399733  1
  Co  Co144  1  0.67987944  0.61741320  0.66263579  1
  Co  Co145  1  0.24243892  0.74976112  0.29370999  1
  Co  Co146  1  0.35675065  -0.02555999  -0.01632664  1
  Co  Co147  1  0.79242332  0.01845760  0.44047329  1
  Co  Co148  1  -0.06649229  0.73389537  -0.01082741  1
  Co  Co149  1  0.32554206  0.62512102  0.59828716  1
  Co  Co150  1  0.41033696  0.42196633  0.37554569  1
  Co  Co151  1  0.20644199  0.55212514  0.70087913  1
  Co  Co152  1  0.19592130  0.03955992  0.10782534  1
  Co  Co153  1  0.07541455  0.39548654  0.44736743  1
  Co  Co154  1  0.18825900  0.82735416  0.55565406  1
  Co  Co155  1  0.30159072  0.85885713  0.44460886  1
  Co  Co156  1  0.35325930  0.69157237  0.41755419  1
  Co  Co157  1  0.29314348  0.20155576  0.38278899  1
  Co  Co158  1  0.20293476  0.35682612  0.53748070  1
  Co  Co159  1  0.53916851  0.43371177  0.50679467  1
  Co  Co160  1  0.31592914  0.19667680  0.85398018  1
  Co  Co161  1  0.74084625  0.78239965  0.50847263  1
  Ni  Ni162  1  0.38366159  0.29236668  0.27272205  1
  Ni  Ni163  1  0.65465270  0.29155900  0.31113566  1
  Ni  Ni164  1  0.18202939  0.36117685  0.81556687  1
  Ni  Ni165  1  0.79622918  0.39369372  0.78417529  1
  Ni  Ni166  1  0.36254234  0.84469086  0.20416289  1
  Ni  Ni167  1  0.67613197  0.49776384  0.78479610  1
  Ni  Ni168  1  0.46560778  0.35410956  0.67885651  1
  Ni  Ni169  1  0.06757545  0.65046012  0.72487988  1
  Ni  Ni170  1  0.91996288  0.80729874  0.29690104  1
  Ni  Ni171  1  0.33545241  0.64326120  -0.02792224  1
  Ni  Ni172  1  0.84660777  0.54859355  0.39088886  1
  Ni  Ni173  1  0.07504147  0.06262319  0.80561070  1
  Ni  Ni174  1  0.73614336  0.46411628  0.48337751  1
  Ni  Ni175  1  0.73790341  0.01381007  -0.01061170  1
  Ni  Ni176  1  0.53220282  0.13871583  0.70307381  1
  Ni  Ni177  1  0.73630935  0.21549325  0.18847671  1
  Ni  Ni178  1  0.21570545  0.66528832  0.82786035  1
  Ni  Ni179  1  0.07853348  0.79492740  0.23609289  1
  Ni  Ni180  1  0.61112553  0.65261595  0.33070281  1
  Ni  Ni181  1  -0.04507234  0.27016967  0.43824582  1
  Ni  Ni182  1  0.07533006  0.01576734  -0.03591836  1
  Ni  Ni183  1  0.72228052  0.27687738  0.88747571  1
  Ni  Ni184  1  0.09866794  -0.04029781  0.52404329  1
  Ni  Ni185  1  0.59450719  0.29969845  0.76314339  1
  Ni  Ni186  1  0.64625421  0.67014801  0.06540902  1
  Ni  Ni187  1  0.83866337  0.86874469  -0.01416163  1
  Ni  Ni188  1  0.58205502  0.80756281  0.00810020  1
  Ni  Ni189  1  0.82679337  0.92932365  0.71433356  1
  Ni  Ni190  1  0.54805382  0.83397859  0.55577633  1
  Ni  Ni191  1  0.85810732  0.80225950  0.83779788  1
  Ni  Ni192  1  0.80723053  0.70174089  0.09812408  1
  Ni  Ni193  1  0.85195763  0.58698832  -0.01819526  1
  Ni  Ni194  1  -0.07110587  0.47410233  0.88092037  1
  Ni  Ni195  1  0.83412689  0.16364804  0.42886463  1
  Ni  Ni196  1  0.44820617  0.30237973  0.84490063  1
  Ni  Ni197  1  0.08216012  0.78849722  0.07536158  1
  Ni  Ni198  1  0.57213353  0.13697603  0.31026268  1
  Ni  Ni199  1  -0.02314813  0.87609730  0.43145974  1
  Ni  Ni200  1  0.59073986  0.37174645  -0.08192852  1
  Ni  Ni201  1  0.51339348  0.69892200  0.45370242  1
  Ni  Ni202  1  -0.07534982  0.14219897  0.14390873  1
  Ni  Ni203  1  0.03592935  0.72204316  0.38114559  1
  Ni  Ni204  1  0.09538869  0.52049043  0.01271293  1
  Ni  Ni205  1  0.90532835  -0.02638201  0.86765894  1
  Ni  Ni206  1  -0.02117523  0.50142074  0.26154344  1
  Ni  Ni207  1  0.06402034  0.27660291  0.57284016  1
  Ni  Ni208  1  0.00572218  0.34513951  0.30040273  1
  Ni  Ni209  1  0.81895015  0.05523456  0.59721673  1
  Ni  Ni210  1  0.49499246  0.59159790  0.03032195  1
  Ni  Ni211  1  0.08539711  0.79085531  0.79840312  1
  Ni  Ni212  1  0.23264147  0.08075722  0.27598958  1
  Ni  Ni213  1  0.77412279  0.04977383  0.14532439  1
  Ni  Ni214  1  0.21275810  0.23931270  0.70182957  1
