# generated using pymatgen
data_Ti108Co54Ni53
_symmetry_space_group_name_H-M   'P 1'
_cell_length_a   14.66120222
_cell_length_b   14.61627622
_cell_length_c   14.58696824
_cell_angle_alpha   89.53479265
_cell_angle_beta   89.79770866
_cell_angle_gamma   90.12907433
_symmetry_Int_Tables_number   1
_chemical_formula_structural   Ti108Co54Ni53
_chemical_formula_sum   'Ti108 Co54 Ni53'
_cell_volume   3125.74259094
_cell_formula_units_Z   1
loop_
 _symmetry_equiv_pos_site_id
 _symmetry_equiv_pos_as_xyz
  1  'x, y, z'
loop_
 _atom_site_type_symbol
 _atom_site_label
 _atom_site_symmetry_multiplicity
 _atom_site_fract_x
 _atom_site_fract_y
 _atom_site_fract_z
 _atom_site_occupancy
  Ti  Ti0  1  0.17775696  0.13371976  0.22004755  1
  Ti  Ti1  1  0.09407654  0.07472668  0.57003485  1
  Ti  Ti2  1  0.04723293  0.07561498  0.88111496  1
  Ti  Ti3  1  0.08712936  0.48174667  0.24840958  1
  Ti  Ti4  1  0.06969063  0.27494615  0.57004193  1
  Ti  Ti5  1  0.14079868  0.47779668  0.89076651  1
  Ti  Ti6  1  0.08043568  0.82273997  0.27809088  1
  Ti  Ti7  1  0.14044943  0.77173620  0.54597193  1
  Ti  Ti8  1  0.14289883  0.73976168  0.90374705  1
  Ti  Ti9  1  0.40317644  0.09805853  0.26301810  1
  Ti  Ti10  1  0.40300405  0.08302744  0.57294734  1
  Ti  Ti11  1  0.39869431  0.14036115  0.93777349  1
  Ti  Ti12  1  0.40564409  0.47359094  0.27919826  1
  Ti  Ti13  1  0.36385267  0.34407420  0.55214104  1
  Ti  Ti14  1  0.33577659  0.38606842  0.91694717  1
  Ti  Ti15  1  0.45121743  0.78781171  0.27823214  1
  Ti  Ti16  1  0.46030329  0.77307571  0.52629006  1
  Ti  Ti17  1  0.36846197  0.70322285  0.91078761  1
  Ti  Ti18  1  0.74058993  0.02522125  0.23571974  1
  Ti  Ti19  1  0.72371140  0.11661602  0.63677014  1
  Ti  Ti20  1  0.69532689  0.07796102  0.93318841  1
  Ti  Ti21  1  0.79038146  0.45376096  0.29580308  1
  Ti  Ti22  1  0.66143755  0.38600527  0.58936787  1
  Ti  Ti23  1  0.77274065  0.43112874  0.87297811  1
  Ti  Ti24  1  0.77042054  0.72723432  0.26983868  1
  Ti  Ti25  1  0.71351734  0.71891997  0.64125982  1
  Ti  Ti26  1  0.74282011  0.75236846  0.94989556  1
  Ti  Ti27  1  0.05734548  0.30060844  0.14241235  1
  Ti  Ti28  1  0.17498296  0.24427959  0.39857261  1
  Ti  Ti29  1  0.05790836  0.30519293  0.79783715  1
  Ti  Ti30  1  0.15136744  0.58151658  0.06722350  1
  Ti  Ti31  1  0.05597777  0.55640436  0.44951444  1
  Ti  Ti32  1  0.04425742  0.61960107  0.78981515  1
  Ti  Ti33  1  0.09907053  0.96217055  0.11627965  1
  Ti  Ti34  1  0.05252051  0.92329363  0.42791012  1
  Ti  Ti35  1  0.10929505  0.90768367  0.77080268  1
  Ti  Ti36  1  0.46335779  0.25750600  0.08309220  1
  Ti  Ti37  1  0.45196463  0.28105927  0.37767238  1
  Ti  Ti38  1  0.45707855  0.23878464  0.71993529  1
  Ti  Ti39  1  0.35524510  0.58431484  0.09205507  1
  Ti  Ti40  1  0.37045910  0.64403253  0.41241064  1
  Ti  Ti41  1  0.42885141  0.62076293  0.72468111  1
  Ti  Ti42  1  0.41300284  0.95784252  0.08848749  1
  Ti  Ti43  1  0.41724147  0.94070722  0.42600753  1
  Ti  Ti44  1  0.43639297  0.94416701  0.78777931  1
  Ti  Ti45  1  0.82131385  0.19310940  0.07230375  1
  Ti  Ti46  1  0.76211086  0.17487515  0.38267174  1
  Ti  Ti47  1  0.79261847  0.30370663  0.71567540  1
  Ti  Ti48  1  0.75703380  0.56275799  0.13763299  1
  Ti  Ti49  1  0.82506871  0.55698633  0.46349138  1
  Ti  Ti50  1  0.77408198  0.53754444  0.66194340  1
  Ti  Ti51  1  0.73736326  0.85664673  0.12072667  1
  Ti  Ti52  1  0.78009769  0.85459327  0.47394544  1
  Ti  Ti53  1  0.77346481  0.85874844  0.77919693  1
  Ti  Ti54  1  0.23109982  0.07785599  0.01602920  1
  Ti  Ti55  1  0.27337049  0.06890049  0.41182826  1
  Ti  Ti56  1  0.22650891  0.08428487  0.80180845  1
  Ti  Ti57  1  0.21230211  0.40764859  0.08390838  1
  Ti  Ti58  1  0.23170486  0.47344732  0.39459369  1
  Ti  Ti59  1  0.13419658  0.45292302  0.67345902  1
  Ti  Ti60  1  0.07564081  0.76445754  0.09877599  1
  Ti  Ti61  1  0.26389607  0.82188973  0.39082736  1
  Ti  Ti62  1  0.33437725  0.79336926  0.70309190  1
  Ti  Ti63  1  0.64163865  0.13024553  0.09959901  1
  Ti  Ti64  1  0.60935822  0.09131263  0.46655650  1
  Ti  Ti65  1  0.55188840  0.10514501  0.81230919  1
  Ti  Ti66  1  0.64096718  0.32084570  0.12651945  1
  Ti  Ti67  1  0.59541881  0.41975790  0.34779391  1
  Ti  Ti68  1  0.49919115  0.43928850  0.78339991  1
  Ti  Ti69  1  0.54208635  0.81591259  0.05551963  1
  Ti  Ti70  1  0.63001734  0.68310678  0.42520574  1
  Ti  Ti71  1  0.53735580  0.77057332  0.71402557  1
  Ti  Ti72  1  0.96899902  0.11530531  0.14860977  1
  Ti  Ti73  1  0.93952395  0.08395685  0.42398998  1
  Ti  Ti74  1  0.85318745  0.04121073  0.74988737  1
  Ti  Ti75  1  0.88342612  0.39200828  0.03347171  1
  Ti  Ti76  1  0.93639341  0.39932080  0.41569612  1
  Ti  Ti77  1  0.93516710  0.46118835  0.73556306  1
  Ti  Ti78  1  0.93894218  0.73555183  -0.04028639  1
  Ti  Ti79  1  0.93885149  0.70926531  0.38589902  1
  Ti  Ti80  1  0.86539865  0.68524292  0.76718407  1
  Ti  Ti81  1  0.32069185  0.29376134  0.21812263  1
  Ti  Ti82  1  0.25025961  0.21886732  0.65750916  1
  Ti  Ti83  1  0.18470380  0.24629352  0.92808850  1
  Ti  Ti84  1  0.19600121  0.65023350  0.32371406  1
  Ti  Ti85  1  0.30205579  0.52110615  0.60024606  1
  Ti  Ti86  1  0.23643577  0.62684785  0.76880635  1
  Ti  Ti87  1  0.26790361  0.82963403  0.19731854  1
  Ti  Ti88  1  0.25791923  0.96806406  0.64296223  1
  Ti  Ti89  1  0.25955463  0.86664210  1.01561485  1
  Ti  Ti90  1  0.58450203  0.17873810  0.27791453  1
  Ti  Ti91  1  0.52782443  0.24304475  0.54722420  1
  Ti  Ti92  1  0.63111696  0.28702898  0.84771610  1
  Ti  Ti93  1  0.55757743  0.61724815  0.23167033  1
  Ti  Ti94  1  0.58563323  0.57105209  0.60553274  1
  Ti  Ti95  1  0.62109359  0.59845715  0.95153203  1
  Ti  Ti96  1  0.55631565  0.96127652  0.25082591  1
  Ti  Ti97  1  0.63514702  0.92484359  0.65130619  1
  Ti  Ti98  1  0.60044864  0.89078857  0.87896767  1
  Ti  Ti99  1  0.89243321  0.27246127  0.26612041  1
  Ti  Ti100  1  0.86727927  0.25140310  0.53236673  1
  Ti  Ti101  1  0.95994769  0.21690128  0.95589618  1
  Ti  Ti102  1  0.94929683  0.60250992  0.13637546  1
  Ti  Ti103  1  0.96444742  0.61206232  0.60491252  1
  Ti  Ti104  1  0.84098749  0.57673745  0.95981509  1
  Ti  Ti105  1  0.91446627  0.92777595  0.19777856  1
  Ti  Ti106  1  0.91630804  0.95841306  0.58531723  1
  Ti  Ti107  1  0.92592414  0.92528695  0.88631930  1
  Co  Co108  1  0.07740846  0.91061014  0.60575550  1
  Co  Co109  1  0.78745402  0.36382099  0.15794299  1
  Co  Co110  1  0.89498888  0.32557961  0.84910838  1
  Co  Co111  1  0.15935252  0.76305354  0.72304748  1
  Co  Co112  1  0.75122737  0.16905518  0.80241339  1
  Co  Co113  1  0.58367892  0.59909137  0.77178152  1
  Co  Co114  1  0.87935518  0.09566379  0.27914624  1
  Co  Co115  1  0.31247841  0.85003885  0.54171189  1
  Co  Co116  1  -0.04019990  0.81110091  0.51206158  1
  Co  Co117  1  0.84122830  0.69288760  0.54448573  1
  Co  Co118  1  0.01324825  0.02344129  0.71790722  1
  Co  Co119  1  0.93356126  0.13228304  0.61540783  1
  Co  Co120  1  0.66934302  0.73631955  0.80491794  1
  Co  Co121  1  0.31648144  0.20348243  0.49679253  1
  Co  Co122  1  0.70281076  0.31006923  0.29953037  1
  Co  Co123  1  0.38410079  0.76383064  0.09670805  1
  Co  Co124  1  0.03374009  0.00793038  0.27360457  1
  Co  Co125  1  0.25626728  0.50827301  0.21723650  1
  Co  Co126  1  0.09490545  0.38864163  0.41182710  1
  Co  Co127  1  -0.02784009  0.01850596  0.02315771  1
  Co  Co128  1  0.75360156  0.19095281  0.21378348  1
  Co  Co129  1  0.63810534  0.46616039  0.19609699  1
  Co  Co130  1  -0.04885403  0.30730931  0.67571427  1
  Co  Co131  1  0.45760420  0.45936666  0.62928339  1
  Co  Co132  1  0.62820927  0.23765469  0.68971524  1
  Co  Co133  1  0.83354896  0.71267681  0.09502368  1
  Co  Co134  1  -0.07163469  0.76607887  0.21495987  1
  Co  Co135  1  0.56103325  0.18283939  -0.03236842  1
  Co  Co136  1  0.03864554  0.18135236  0.28048917  1
  Co  Co137  1  0.71094910  0.45514370  0.02827770  1
  Co  Co138  1  0.02037568  0.43645979  0.56349962  1
  Co  Co139  1  0.69694336  0.58246787  0.31404455  1
  Co  Co140  1  0.51279904  0.00817627  0.95786827  1
  Co  Co141  1  0.45874364  0.11979139  0.41714026  1
  Co  Co142  1  0.42648535  0.85201112  -0.05929385  1
  Co  Co143  1  0.85002697  0.82114166  0.64154766  1
  Co  Co144  1  0.36932177  -0.06516451  0.27444324  1
  Co  Co145  1  0.19941382  -0.05026152  0.48945597  1
  Co  Co146  1  0.37691684  0.09059827  0.74136721  1
  Co  Co147  1  -0.06806783  0.17830807  0.78605058  1
  Co  Co148  1  0.30534988  0.33801416  0.38137795  1
  Co  Co149  1  0.20191267  0.36768393  0.53812824  1
  Co  Co150  1  0.49785821  0.08715016  0.12186019  1
  Co  Co151  1  0.52492024  0.56640476  0.39859389  1
  Co  Co152  1  0.17319783  0.34170236  0.25856234  1
  Co  Co153  1  0.35499585  0.36225183  0.71524442  1
  Co  Co154  1  0.11122793  0.08680287  0.39646434  1
  Co  Co155  1  0.24817939  0.70665513  0.02019482  1
  Co  Co156  1  0.00715282  0.75700017  0.65582635  1
  Co  Co157  1  0.53180657  0.40897241  0.49750486  1
  Co  Co158  1  0.49647602  0.33460854  0.22655599  1
  Co  Co159  1  0.05399313  0.87023137  -0.02665024  1
  Co  Co160  1  0.44503524  0.60940811  0.55041103  1
  Co  Co161  1  0.30050841  0.68561581  0.59706543  1
  Ni  Ni162  1  0.68502350  0.01184856  0.77703686  1
  Ni  Ni163  1  0.62070051  0.80451324  0.53939779  1
  Ni  Ni164  1  -0.00052710  0.23990133  0.42256697  1
  Ni  Ni165  1  0.80344262  0.01943834  0.07049757  1
  Ni  Ni166  1  0.89044725  0.86878769  0.04447516  1
  Ni  Ni167  1  0.09029387  0.16522423  0.71593776  1
  Ni  Ni168  1  0.62943172  -0.03214876  0.07176350  1
  Ni  Ni169  1  0.73984875  0.59081882  0.82109120  1
  Ni  Ni170  1  0.20786389  0.62454159  0.48209314  1
  Ni  Ni171  1  0.75989170  -0.07832179  0.94362716  1
  Ni  Ni172  1  0.27844658  0.55441357  -0.05594214  1
  Ni  Ni173  1  0.04887116  0.65557708  0.25588709  1
  Ni  Ni174  1  0.90488539  0.87139263  0.35534120  1
  Ni  Ni175  1  0.21841360  0.67856938  0.17328971  1
  Ni  Ni176  1  0.93363459  0.54903975  0.31959180  1
  Ni  Ni177  1  0.02708759  0.60219023  -0.03503806  1
  Ni  Ni178  1  0.61440106  0.78997781  0.22803898  1
  Ni  Ni179  1  0.00124608  0.78775171  0.81369833  1
  Ni  Ni180  1  -0.06402392  0.42826805  0.19987808  1
  Ni  Ni181  1  0.55475507  -0.05171532  0.50724492  1
  Ni  Ni182  1  0.68014567  -0.03053870  0.38297363  1
  Ni  Ni183  1  0.67033887  0.51496050  0.46983301  1
  Ni  Ni184  1  0.29762224  0.27262695  0.04227762  1
  Ni  Ni185  1  0.06272045  0.34720316  -0.02816743  1
  Ni  Ni186  1  0.54793254  0.07362176  0.64877798  1
  Ni  Ni187  1  0.13691633  0.62152324  0.63093575  1
  Ni  Ni188  1  0.17161044  -0.03869843  0.91484860  1
  Ni  Ni189  1  0.69653125  0.23606264  0.52635029  1
  Ni  Ni190  1  0.39484664  0.47691239  0.45019195  1
  Ni  Ni191  1  0.34202988  0.14089340  0.11868628  1
  Ni  Ni192  1  0.27047435  0.84520872  0.84210092  1
  Ni  Ni193  1  0.57330057  0.84053970  0.38148660  1
  Ni  Ni194  1  0.78718159  0.03815782  0.50173130  1
  Ni  Ni195  1  0.46676211  0.29113150  0.88700540  1
  Ni  Ni196  1  0.85771803  0.42004295  0.57882303  1
  Ni  Ni197  1  0.50730623  0.65302555  0.06667159  1
  Ni  Ni198  1  -0.03258723  0.46721129  0.89721294  1
  Ni  Ni199  1  0.76584270  0.36763380  0.44467534  1
  Ni  Ni200  1  0.09138793  0.15211786  0.04580797  1
  Ni  Ni201  1  0.33789153  -0.01219070  -0.08805477  1
  Ni  Ni202  1  0.66121205  0.44436082  0.75196593  1
  Ni  Ni203  1  0.03429386  0.46670419  0.07075660  1
  Ni  Ni204  1  0.86182043  0.08557960  -0.08302052  1
  Ni  Ni205  1  0.31752450  0.23384549  0.81989568  1
  Ni  Ni206  1  0.33068615  0.49802009  0.79206226  1
  Ni  Ni207  1  0.26268737  -0.00251709  0.16210329  1
  Ni  Ni208  1  0.44176338  0.91725890  0.62553597  1
  Ni  Ni209  1  0.19082350  0.95676354  0.30777318  1
  Ni  Ni210  1  0.66746817  0.69873127  0.09735462  1
  Ni  Ni211  1  0.73228858  0.29513978  -0.01879923  1
  Ni  Ni212  1  0.21653435  0.36195156  0.79336486  1
  Ni  Ni213  1  0.36634944  0.65036713  0.24298530  1
  Ni  Ni214  1  0.52786883  0.72535089  0.88489643  1
