# generated using pymatgen
data_Ti108Co54Ni53
_symmetry_space_group_name_H-M   'P 1'
_cell_length_a   14.59849014
_cell_length_b   14.66811905
_cell_length_c   14.67262030
_cell_angle_alpha   90.25564993
_cell_angle_beta   90.16422943
_cell_angle_gamma   90.10142747
_symmetry_Int_Tables_number   1
_chemical_formula_structural   Ti108Co54Ni53
_chemical_formula_sum   'Ti108 Co54 Ni53'
_cell_volume   3141.83409676
_cell_formula_units_Z   1
loop_
 _symmetry_equiv_pos_site_id
 _symmetry_equiv_pos_as_xyz
  1  'x, y, z'
loop_
 _atom_site_type_symbol
 _atom_site_label
 _atom_site_symmetry_multiplicity
 _atom_site_fract_x
 _atom_site_fract_y
 _atom_site_fract_z
 _atom_site_occupancy
  Ti  Ti0  1  0.03795403  0.10547552  0.23077963  1
  Ti  Ti1  1  0.12999679  0.04220261  0.54562155  1
  Ti  Ti2  1  0.08894498  0.11419997  0.88723165  1
  Ti  Ti3  1  0.11903787  0.43172553  0.24562190  1
  Ti  Ti4  1  0.12774336  0.44404537  0.51993221  1
  Ti  Ti5  1  0.07734724  0.43402582  0.89840294  1
  Ti  Ti6  1  0.04865204  0.74532877  0.22886078  1
  Ti  Ti7  1  0.16131851  0.77146978  0.58873710  1
  Ti  Ti8  1  0.06749997  0.79005077  0.96303726  1
  Ti  Ti9  1  0.33874384  0.11093492  0.24094854  1
  Ti  Ti10  1  0.42725876  0.11068456  0.57815478  1
  Ti  Ti11  1  0.44788382  0.11148583  0.92220748  1
  Ti  Ti12  1  0.35967057  0.33432986  0.24474972  1
  Ti  Ti13  1  0.41849308  0.37235564  0.56834577  1
  Ti  Ti14  1  0.41677586  0.45199160  0.91819146  1
  Ti  Ti15  1  0.40650560  0.71506124  0.20558453  1
  Ti  Ti16  1  0.41199094  0.78703586  0.63160147  1
  Ti  Ti17  1  0.48158610  0.73402329  0.93677165  1
  Ti  Ti18  1  0.73097785  0.05348283  0.32136916  1
  Ti  Ti19  1  0.67751995  0.18863497  0.57223889  1
  Ti  Ti20  1  0.77265705  0.04165197  0.93715319  1
  Ti  Ti21  1  0.75092376  0.37882505  0.20525241  1
  Ti  Ti22  1  0.85165086  0.28539233  0.65673280  1
  Ti  Ti23  1  0.75007432  0.47383015  0.85743766  1
  Ti  Ti24  1  0.75082217  0.78885328  0.28877302  1
  Ti  Ti25  1  0.70798699  0.77108696  0.60414619  1
  Ti  Ti26  1  0.79356693  0.79552221  0.91890654  1
  Ti  Ti27  1  0.12774693  0.21205929  0.06270817  1
  Ti  Ti28  1  0.13832560  0.22739808  0.45662333  1
  Ti  Ti29  1  0.05451307  0.26403147  0.76943617  1
  Ti  Ti30  1  0.15069470  0.53518616  0.07601489  1
  Ti  Ti31  1  0.04253858  0.63225874  0.50766714  1
  Ti  Ti32  1  0.08932400  0.73920374  0.77252988  1
  Ti  Ti33  1  0.06424115  0.91413658  0.13592148  1
  Ti  Ti34  1  0.03488166  0.88285875  0.45592432  1
  Ti  Ti35  1  0.08643981  0.92369102  0.69638719  1
  Ti  Ti36  1  0.46713359  0.20725551  0.14092528  1
  Ti  Ti37  1  0.34798155  0.23434493  0.42995279  1
  Ti  Ti38  1  0.42176643  0.29772414  0.81853257  1
  Ti  Ti39  1  0.34855905  0.58105041  0.05539216  1
  Ti  Ti40  1  0.40575242  0.64205903  0.47986325  1
  Ti  Ti41  1  0.43345752  0.58896731  0.66920061  1
  Ti  Ti42  1  0.46936515  0.99084445  0.13897873  1
  Ti  Ti43  1  0.34572068  0.86507954  0.35385655  1
  Ti  Ti44  1  0.39947036  0.84849732  0.81029471  1
  Ti  Ti45  1  0.74701252  0.22569344  0.03385624  1
  Ti  Ti46  1  0.80400629  0.20946415  0.40618515  1
  Ti  Ti47  1  0.73304219  0.16657986  0.78168486  1
  Ti  Ti48  1  0.77618847  0.61116985  -0.00835002  1
  Ti  Ti49  1  0.74376586  0.64372419  0.45416788  1
  Ti  Ti50  1  0.74982503  0.44915907  0.67414354  1
  Ti  Ti51  1  0.73870562  0.84102277  0.09954040  1
  Ti  Ti52  1  0.71016620  0.89437049  0.44712438  1
  Ti  Ti53  1  0.74081222  0.95531492  0.69377636  1
  Ti  Ti54  1  0.20706531  0.05422758  0.09849790  1
  Ti  Ti55  1  0.28084539  0.05163121  0.40731336  1
  Ti  Ti56  1  0.28051358  0.03369219  0.75414940  1
  Ti  Ti57  1  0.25542855  0.39758892  0.01470036  1
  Ti  Ti58  1  0.28005493  0.50335713  0.38198071  1
  Ti  Ti59  1  0.23728901  0.36671894  0.79651264  1
  Ti  Ti60  1  0.21919644  0.76894805  0.07984787  1
  Ti  Ti61  1  0.16041429  0.73025810  0.38521058  1
  Ti  Ti62  1  0.28644999  0.69781499  0.77914481  1
  Ti  Ti63  1  0.60980760  0.10425029  0.07695766  1
  Ti  Ti64  1  0.55674227  0.09609405  0.41969678  1
  Ti  Ti65  1  0.56958845  0.05672380  0.72532700  1
  Ti  Ti66  1  0.67610819  0.41855218  0.02704148  1
  Ti  Ti67  1  0.61761937  0.38376929  0.53772305  1
  Ti  Ti68  1  0.53373027  0.43294543  0.72233766  1
  Ti  Ti69  1  0.54778551  0.82437766  0.08758860  1
  Ti  Ti70  1  0.57249277  0.74740207  0.36745955  1
  Ti  Ti71  1  0.56926448  0.70792123  0.75616247  1
  Ti  Ti72  1  0.90630504  0.14224586  0.09759370  1
  Ti  Ti73  1  0.94254556  0.05491914  0.43100910  1
  Ti  Ti74  1  0.92757746  0.04857021  0.75768026  1
  Ti  Ti75  1  0.95535914  0.44823456  0.12225844  1
  Ti  Ti76  1  0.92096514  0.37930572  0.46180446  1
  Ti  Ti77  1  0.94162616  0.41769571  0.77217075  1
  Ti  Ti78  1  0.91574800  0.77569779  0.07817063  1
  Ti  Ti79  1  0.89777685  0.75182190  0.41180880  1
  Ti  Ti80  1  0.87240370  0.73662211  0.71812423  1
  Ti  Ti81  1  0.17758563  0.21394605  0.27119692  1
  Ti  Ti82  1  0.17548002  0.25546283  0.63739348  1
  Ti  Ti83  1  0.31876266  0.23648572  0.96850599  1
  Ti  Ti84  1  0.20627628  0.62255571  0.23018271  1
  Ti  Ti85  1  0.18456386  0.56375368  0.66548739  1
  Ti  Ti86  1  0.24620059  0.54469375  0.87675480  1
  Ti  Ti87  1  0.30363938  0.91532008  0.18038234  1
  Ti  Ti88  1  0.29494460  0.93165804  0.57057194  1
  Ti  Ti89  1  0.31141510  0.93677794  0.96083055  1
  Ti  Ti90  1  0.62262726  0.24215793  0.26699715  1
  Ti  Ti91  1  0.52723202  0.24505907  0.66503915  1
  Ti  Ti92  1  0.53037145  0.29523288  0.98962011  1
  Ti  Ti93  1  0.63670326  0.57313550  0.15206809  1
  Ti  Ti94  1  0.61706939  0.57865082  0.59063276  1
  Ti  Ti95  1  0.58005993  0.57164395  0.92839015  1
  Ti  Ti96  1  0.63191850  0.93192000  0.22740539  1
  Ti  Ti97  1  0.55501715  0.90996376  0.56719469  1
  Ti  Ti98  1  0.61341697  0.89011786  0.87737326  1
  Ti  Ti99  1  0.91674528  0.29293413  0.27154396  1
  Ti  Ti100  1  0.98645096  0.18159783  0.58337949  1
  Ti  Ti101  1  0.93895721  0.28507068  0.94080864  1
  Ti  Ti102  1  0.85024419  0.58035305  0.26531470  1
  Ti  Ti103  1  0.92305331  0.51085378  0.60262726  1
  Ti  Ti104  1  0.93390079  0.64990270  0.88703308  1
  Ti  Ti105  1  0.86823704  0.96583516  0.19625514  1
  Ti  Ti106  1  0.86771388  0.89242565  0.55522635  1
  Ti  Ti107  1  0.98162623  0.95401825  0.92332356  1
  Co  Co108  1  0.62307224  0.55412395  0.76303359  1
  Co  Co109  1  0.07967648  0.68220075  0.08592357  1
  Co  Co110  1  0.56041164  0.86824397  0.72192224  1
  Co  Co111  1  0.01083608  0.34439234  0.60588729  1
  Co  Co112  1  0.64118952  -0.04693312  0.03312727  1
  Co  Co113  1  -0.00007465  0.64511794  0.34387827  1
  Co  Co114  1  0.10893266  0.53435930  0.37705152  1
  Co  Co115  1  0.92513886  0.89330483  0.70968271  1
  Co  Co116  1  -0.00025648  0.78884179  0.59986740  1
  Co  Co117  1  0.15486287  -0.03040030  0.83665943  1
  Co  Co118  1  0.76868454  0.49351730  0.51679484  1
  Co  Co119  1  0.16215778  0.66305803  0.92847076  1
  Co  Co120  1  0.21350266  0.61351791  0.48523618  1
  Co  Co121  1  -0.01189913  0.20750455  0.39153654  1
  Co  Co122  1  0.76177650  0.61164978  0.65427668  1
  Co  Co123  1  0.85815377  0.92452091  0.37648598  1
  Co  Co124  1  0.10291940  0.07523609  0.38958095  1
  Co  Co125  1  0.65517206  0.03082436  0.57548550  1
  Co  Co126  1  0.88624221  0.10688855  0.28413260  1
  Co  Co127  1  0.87170675  0.30710554  0.10084165  1
  Co  Co128  1  0.79792378  0.50096319  0.10815326  1
  Co  Co129  1  0.91768019  0.12176017  -0.06556417  1
  Co  Co130  1  0.65270558  0.27195039  0.42044992  1
  Co  Co131  1  0.69287782  0.63407281  0.29918021  1
  Co  Co132  1  0.29758205  0.22015744  0.12569866  1
  Co  Co133  1  0.94778481  0.45779319  0.30792619  1
  Co  Co134  1  0.28606545  0.48551222  0.18855555  1
  Co  Co135  1  0.03456632  0.57021323  0.20704514  1
  Co  Co136  1  -0.08631308  0.20057105  0.78590668  1
  Co  Co137  1  -0.02462755  0.01082829  0.60112794  1
  Co  Co138  1  0.29879144  0.66874588  0.61578464  1
  Co  Co139  1  0.00923962  0.63895719  0.67037550  1
  Co  Co140  1  0.20810614  0.34270125  0.15716650  1
  Co  Co141  1  0.45656989  -0.01040137  0.81961407  1
  Co  Co142  1  0.51214649  0.23990429  0.49290067  1
  Co  Co143  1  0.03680446  0.57105545  -0.03067297  1
  Co  Co144  1  0.56758777  0.08764150  0.24830799  1
  Co  Co145  1  0.87771526  0.56040657  0.76568510  1
  Co  Co146  1  0.43533522  0.00744991  0.31040857  1
  Co  Co147  1  0.82112291  -0.07506325  0.83479104  1
  Co  Co148  1  0.36442637  0.08008717  0.06018397  1
  Co  Co149  1  0.78330874  0.38179068  0.36373256  1
  Co  Co150  1  0.85986645  0.93705131  0.02922369  1
  Co  Co151  1  0.46018109  0.19819187  0.31745360  1
  Co  Co152  1  0.47634564  0.85270974  0.24608427  1
  Co  Co153  1  0.60737738  0.73540997  0.20385873  1
  Co  Co154  1  -0.04661467  0.81403068  0.84587170  1
  Co  Co155  1  0.57507248  0.41329243  0.87772070  1
  Co  Co156  1  0.42816691  -0.03477983  0.66297477  1
  Co  Co157  1  0.03995075  0.28114337  0.17593096  1
  Co  Co158  1  0.39585395  0.36102573  0.08785716  1
  Co  Co159  1  -0.10442860  0.55828042  0.43528604  1
  Co  Co160  1  0.15005475  0.93646119  -0.00424694  1
  Co  Co161  1  0.75571589  0.04479755  0.11240791  1
  Ni  Ni162  1  0.15001089  0.27647879  0.91308062  1
  Ni  Ni163  1  0.19295106  -0.09429713  0.43576451  1
  Ni  Ni164  1  0.66578822  0.31652364  0.73492519  1
  Ni  Ni165  1  0.24569081  0.85248067  0.71813892  1
  Ni  Ni166  1  0.10348466  0.42695262  0.71193723  1
  Ni  Ni167  1  0.55348609  0.72594795  0.56282495  1
  Ni  Ni168  1  0.03836787  0.05815244  0.04832166  1
  Ni  Ni169  1  0.81473755  0.32239679  0.82076120  1
  Ni  Ni170  1  0.26813067  0.13901652  0.56070803  1
  Ni  Ni171  1  0.48151723  0.93823548  -0.02738043  1
  Ni  Ni172  1  0.41784777  0.60367821  0.84413038  1
  Ni  Ni173  1  0.34183645  0.27007657  0.67351565  1
  Ni  Ni174  1  0.45126239  0.81215733  0.46689229  1
  Ni  Ni175  1  0.74533699  0.65042298  0.82405879  1
  Ni  Ni176  1  0.38418559  0.81994976  0.06229451  1
  Ni  Ni177  1  0.31973320  0.71056686  -0.05349563  1
  Ni  Ni178  1  -0.07753986  0.60997582  0.08208821  1
  Ni  Ni179  1  0.57482363  0.35196406  0.14637481  1
  Ni  Ni180  1  0.21597998  0.82083267  0.88027081  1
  Ni  Ni181  1  0.06552920  0.35963281  0.38170618  1
  Ni  Ni182  1  0.41408966  0.14128951  0.74815629  1
  Ni  Ni183  1  0.71068367  0.80463987  0.76816924  1
  Ni  Ni184  1  -0.09003974  0.81975154  0.24974769  1
  Ni  Ni185  1  0.76894846  0.19050868  0.20234432  1
  Ni  Ni186  1  0.42979406  -0.02114382  0.47455386  1
  Ni  Ni187  1  0.55651695  -0.08073452  0.38218158  1
  Ni  Ni188  1  0.68135251  0.29485044  -0.09688554  1
  Ni  Ni189  1  0.29144279  0.77157080  0.48685832  1
  Ni  Ni190  1  0.78527304  0.04559677  0.48731323  1
  Ni  Ni191  1  0.08062186  0.36973696  0.04466483  1
  Ni  Ni192  1  0.10248472  0.09945652  0.71256748  1
  Ni  Ni193  1  0.35991539  0.46122160  0.74181255  1
  Ni  Ni194  1  0.18346503  0.01567854  0.26322716  1
  Ni  Ni195  1  0.31628109  0.50858633  0.56004962  1
  Ni  Ni196  1  0.77134213  0.32819308  0.52200262  1
  Ni  Ni197  1  0.49042312  0.50561758  0.51546854  1
  Ni  Ni198  1  0.25239482  0.08841410  -0.07567325  1
  Ni  Ni199  1  0.77112187  0.67866933  0.14991037  1
  Ni  Ni200  1  0.87834681  0.67820431  0.56073608  1
  Ni  Ni201  1  0.50137604  0.64914579  0.08475209  1
  Ni  Ni202  1  0.64549017  0.70861763  0.01828749  1
  Ni  Ni203  1  0.01663156  -0.05284428  0.29878106  1
  Ni  Ni204  1  0.07145612  0.57111707  0.80251096  1
  Ni  Ni205  1  0.26134105  0.34922988  0.52476951  1
  Ni  Ni206  1  0.51142203  0.47895478  0.05761664  1
  Ni  Ni207  1  0.32129148  0.67870678  0.34397666  1
  Ni  Ni208  1  0.56449815  0.20457184  0.82873060  1
  Ni  Ni209  1  0.23169345  0.34538714  0.36196395  1
  Ni  Ni210  1  0.82988975  0.11491912  0.63481879  1
  Ni  Ni211  1  0.17313495  0.85280209  0.27063154  1
  Ni  Ni212  1  0.89536961  0.47448454  -0.04416610  1
  Ni  Ni213  1  0.24122257  0.19523961  0.79347815  1
  Ni  Ni214  1  0.60448068  0.05686456  -0.09960163  1
