# generated using pymatgen
data_Ti108Co54Ni53
_symmetry_space_group_name_H-M   'P 1'
_cell_length_a   14.53957232
_cell_length_b   14.61036300
_cell_length_c   14.60284993
_cell_angle_alpha   89.94327846
_cell_angle_beta   90.18962045
_cell_angle_gamma   89.91668624
_symmetry_Int_Tables_number   1
_chemical_formula_structural   Ti108Co54Ni53
_chemical_formula_sum   'Ti108 Co54 Ni53'
_cell_volume   3102.03867595
_cell_formula_units_Z   1
loop_
 _symmetry_equiv_pos_site_id
 _symmetry_equiv_pos_as_xyz
  1  'x, y, z'
loop_
 _atom_site_type_symbol
 _atom_site_label
 _atom_site_symmetry_multiplicity
 _atom_site_fract_x
 _atom_site_fract_y
 _atom_site_fract_z
 _atom_site_occupancy
  Ti  Ti0  1  0.10665489  0.00840172  0.25417224  1
  Ti  Ti1  1  0.10954041  0.00778793  0.63366415  1
  Ti  Ti2  1  0.10450124  0.01233404  0.93796050  1
  Ti  Ti3  1  0.10947821  0.39266691  0.34583296  1
  Ti  Ti4  1  0.09460088  0.37020164  0.55978942  1
  Ti  Ti5  1  0.08769870  0.36184250  0.90345009  1
  Ti  Ti6  1  0.05773108  0.77712779  0.26213841  1
  Ti  Ti7  1  0.06020924  0.80417458  0.61119092  1
  Ti  Ti8  1  0.13008192  0.78480244  0.88951142  1
  Ti  Ti9  1  0.38828403  0.10983703  0.21104370  1
  Ti  Ti10  1  0.52121873  0.05032084  0.63404872  1
  Ti  Ti11  1  0.37036501  0.15480958  0.99364737  1
  Ti  Ti12  1  0.41413927  0.45027253  0.21226140  1
  Ti  Ti13  1  0.26817847  0.45200271  0.55325084  1
  Ti  Ti14  1  0.39732837  0.45074608  0.87135404  1
  Ti  Ti15  1  0.39570411  0.76986249  0.18477092  1
  Ti  Ti16  1  0.36934085  0.76854967  0.50997034  1
  Ti  Ti17  1  0.38732623  0.65424055  0.83011713  1
  Ti  Ti18  1  0.76887325  0.13540109  0.18358973  1
  Ti  Ti19  1  0.77891443  0.02348759  0.66816330  1
  Ti  Ti20  1  0.76384840  0.03615734  0.95805634  1
  Ti  Ti21  1  0.75356767  0.48062508  0.18214820  1
  Ti  Ti22  1  0.69603565  0.44471245  0.55447274  1
  Ti  Ti23  1  0.72203564  0.46236211  0.85487701  1
  Ti  Ti24  1  0.83089888  0.67104559  0.24887190  1
  Ti  Ti25  1  0.82141248  0.75283195  0.65297188  1
  Ti  Ti26  1  0.84367581  0.73294649  0.90184942  1
  Ti  Ti27  1  0.10383879  0.25509911  0.06827535  1
  Ti  Ti28  1  0.01311654  0.25192457  0.43690998  1
  Ti  Ti29  1  0.07527406  0.14020710  0.76572975  1
  Ti  Ti30  1  0.06369884  0.58327631  0.05203646  1
  Ti  Ti31  1  0.09576055  0.59592994  0.38993794  1
  Ti  Ti32  1  0.07783313  0.61266168  0.74725791  1
  Ti  Ti33  1  0.03688062  0.90959620  0.10516220  1
  Ti  Ti34  1  0.13719758  0.95156859  0.46429183  1
  Ti  Ti35  1  0.02542124  0.92594803  0.78545781  1
  Ti  Ti36  1  0.44746987  0.28068010  0.14287474  1
  Ti  Ti37  1  0.40999206  0.21665706  0.40839703  1
  Ti  Ti38  1  0.38059900  0.24908401  0.81219445  1
  Ti  Ti39  1  0.40952952  0.58086889  0.08485139  1
  Ti  Ti40  1  0.40606054  0.56459603  0.47813766  1
  Ti  Ti41  1  0.39217896  0.51739377  0.68487035  1
  Ti  Ti42  1  0.49674722  0.93377791  0.08811223  1
  Ti  Ti43  1  0.33275295  0.93523949  0.44405456  1
  Ti  Ti44  1  0.49671735  0.91030361  0.78615342  1
  Ti  Ti45  1  0.79805438  0.29089667  0.06245426  1
  Ti  Ti46  1  0.81475384  0.33524725  0.43076167  1
  Ti  Ti47  1  0.72549994  0.26258723  0.79390599  1
  Ti  Ti48  1  0.73240623  0.61932384  0.03875392  1
  Ti  Ti49  1  0.78825742  0.56442174  0.40407718  1
  Ti  Ti50  1  0.69715442  0.59138901  0.70335848  1
  Ti  Ti51  1  0.71408878  0.84652225  0.10332460  1
  Ti  Ti52  1  0.75879114  0.85131983  0.28877679  1
  Ti  Ti53  1  0.68194714  0.78447850  0.78732464  1
  Ti  Ti54  1  0.22221607  0.02496485  0.10779550  1
  Ti  Ti55  1  0.26359436  0.08861472  0.36723828  1
  Ti  Ti56  1  0.25847744  0.13997812  0.70088646  1
  Ti  Ti57  1  0.23384212  0.37437165  0.16967803  1
  Ti  Ti58  1  0.30648438  0.40469115  0.37017917  1
  Ti  Ti59  1  0.23916832  0.36684166  0.74099329  1
  Ti  Ti60  1  0.23498541  0.71688616  0.08657354  1
  Ti  Ti61  1  0.18957740  0.75967651  0.42103219  1
  Ti  Ti62  1  0.33370367  0.81024799  0.72819112  1
  Ti  Ti63  1  0.58107933  0.12821657  0.15945594  1
  Ti  Ti64  1  0.61348557  0.00782348  0.38039382  1
  Ti  Ti65  1  0.55646986  0.11589804  0.83442982  1
  Ti  Ti66  1  0.64531994  0.43028612  0.04028779  1
  Ti  Ti67  1  0.51668326  0.39466091  0.38245582  1
  Ti  Ti68  1  0.56215828  0.43694495  0.72716004  1
  Ti  Ti69  1  0.54442928  0.74205146  0.05703929  1
  Ti  Ti70  1  0.51724625  0.71485970  0.38147443  1
  Ti  Ti71  1  0.52424591  0.73927907  0.70454985  1
  Ti  Ti72  1  0.91780076  0.13111807  0.05236704  1
  Ti  Ti73  1  0.91192456  0.08768913  0.41414865  1
  Ti  Ti74  1  0.91790443  0.06628538  0.85050453  1
  Ti  Ti75  1  0.93583906  0.41490494  0.12711413  1
  Ti  Ti76  1  0.95983456  0.46612219  0.43548314  1
  Ti  Ti77  1  0.97834542  0.44461403  0.73468560  1
  Ti  Ti78  1  0.91056967  0.76154822  0.08773343  1
  Ti  Ti79  1  0.82436320  0.76520604  0.45772654  1
  Ti  Ti80  1  0.96555763  0.74917222  0.76978267  1
  Ti  Ti81  1  0.16648006  0.20648358  0.26105335  1
  Ti  Ti82  1  0.30039390  0.25347763  0.56904509  1
  Ti  Ti83  1  0.27464016  0.31488164  0.96502427  1
  Ti  Ti84  1  0.30575493  0.62689106  0.28550372  1
  Ti  Ti85  1  0.24504236  0.64863898  0.62010958  1
  Ti  Ti86  1  0.23448931  0.59242650  0.94344445  1
  Ti  Ti87  1  0.33771443  0.93474646  0.23895007  1
  Ti  Ti88  1  0.29960457  0.96835105  0.62690743  1
  Ti  Ti89  1  0.30171016  0.93899706  0.89680430  1
  Ti  Ti90  1  0.64718999  0.28269660  0.27121648  1
  Ti  Ti91  1  0.52793131  0.28265125  0.57860575  1
  Ti  Ti92  1  0.52444835  0.28925516  0.95520949  1
  Ti  Ti93  1  0.62003568  0.55546271  0.27759123  1
  Ti  Ti94  1  0.56181718  0.61125618  0.57621478  1
  Ti  Ti95  1  0.55623984  0.58615501  0.93695397  1
  Ti  Ti96  1  0.58130372  0.83090679  0.24203894  1
  Ti  Ti97  1  0.63462491  0.89742830  0.60676488  1
  Ti  Ti98  1  0.61512740  0.91303936  0.93097866  1
  Ti  Ti99  1  0.96332578  0.18121556  0.23958929  1
  Ti  Ti100  1  0.95458643  0.22542949  0.62518721  1
  Ti  Ti101  1  0.93910569  0.26704568  0.82711040  1
  Ti  Ti102  1  0.98298756  0.56126432  0.24391512  1
  Ti  Ti103  1  0.85782366  0.54388015  0.59928242  1
  Ti  Ti104  1  0.90196777  0.56211929  0.90657458  1
  Ti  Ti105  1  0.89952242  0.98558993  0.24445773  1
  Ti  Ti106  1  0.93921540  0.93149926  0.51677044  1
  Ti  Ti107  1  0.81985071  0.90576282  0.81694796  1
  Co  Co108  1  0.20892155  0.50385247  0.28525916  1
  Co  Co109  1  0.91289366  0.81901739  0.31865885  1
  Co  Co110  1  0.85942525  0.47075640  0.29806676  1
  Co  Co111  1  0.02228602  0.78510081  0.44453448  1
  Co  Co112  1  0.19885171  0.89509943  0.32360161  1
  Co  Co113  1  0.63839991  0.26808855  0.10265442  1
  Co  Co114  1  0.66667945  0.74431488  0.61289661  1
  Co  Co115  1  0.39704048  0.36755543  0.49889224  1
  Co  Co116  1  0.25694140  0.54203693  0.12547095  1
  Co  Co117  1  -0.04375581  0.29269581  0.00661743  1
  Co  Co118  1  -0.02100853  0.84240349  0.92621750  1
  Co  Co119  1  0.43266316  0.04442206  0.37289551  1
  Co  Co120  1  0.44720632  0.85462033  -0.05344860  1
  Co  Co121  1  0.72996927  0.62823281  0.53080859  1
  Co  Co122  1  0.44682111  0.89144699  0.63407782  1
  Co  Co123  1  0.52630169  0.77871609  0.53319302  1
  Co  Co124  1  0.39399696  0.03636848  0.75117728  1
  Co  Co125  1  0.40698253  0.66837487  0.62842889  1
  Co  Co126  1  0.40350650  0.35534169  0.67555679  1
  Co  Co127  1  0.01074047  -0.06410043  0.36370609  1
  Co  Co128  1  0.72249914  0.09404139  0.81404236  1
  Co  Co129  1  -0.06096800  0.65366681  0.38367159  1
  Co  Co130  1  0.18521779  0.45045778  0.00835197  1
  Co  Co131  1  0.34988251  0.40817170  0.05697186  1
  Co  Co132  1  0.19685536  -0.14428588  0.17025678  1
  Co  Co133  1  0.21089822  0.09624752  0.52234658  1
  Co  Co134  1  0.13171765  0.21789409  0.60361000  1
  Co  Co135  1  0.51285809  0.44784283  0.56755949  1
  Co  Co136  1  0.44951824  0.01143101  0.90683316  1
  Co  Co137  1  0.66343785  0.16199649  0.97281009  1
  Co  Co138  1  0.81480639  -0.02211683  0.11420571  1
  Co  Co139  1  0.54362642  0.58980113  0.77809361  1
  Co  Co140  1  0.17734540  0.88184723  0.01114256  1
  Co  Co141  1  0.03735900  0.17055070  0.93379087  1
  Co  Co142  1  0.79835829  0.32570433  0.22666696  1
  Co  Co143  1  0.48928274  0.44874628  0.01215216  1
  Co  Co144  1  0.29145207  0.77601275  0.90820779  1
  Co  Co145  1  0.80851353  0.45933425  0.01318741  1
  Co  Co146  1  0.39854208  0.70204300  -0.00667392  1
  Co  Co147  1  0.71558135  0.62352661  0.86282623  1
  Co  Co148  1  0.29341610  0.10641948  0.86218664  1
  Co  Co149  1  0.22070368  0.83045443  0.56786866  1
  Co  Co150  1  0.07676351  0.75545420  0.07227282  1
  Co  Co151  1  0.65347877  -0.03897562  0.76669255  1
  Co  Co152  1  0.56468304  0.39970516  0.18626661  1
  Co  Co153  1  0.36799971  0.01056450  0.05163597  1
  Co  Co154  1  0.24582945  0.57882352  0.44830615  1
  Co  Co155  1  0.02787772  0.10687872  0.53490936  1
  Co  Co156  1  0.01529763  0.67871393  -0.07053347  1
  Co  Co157  1  0.69325767  0.31420157  -0.06130388  1
  Co  Co158  1  0.07987755  0.31327517  0.72766421  1
  Co  Co159  1  0.82437763  0.19289926  -0.08137368  1
  Co  Co160  1  0.58300609  0.55962734  0.11638229  1
  Co  Co161  1  0.80729604  0.86968650  -0.02310236  1
  Ni  Ni162  1  0.43095427  0.18417018  0.67184987  1
  Ni  Ni163  1  0.38149339  0.09674907  0.53131198  1
  Ni  Ni164  1  0.13903062  0.63579236  0.20901046  1
  Ni  Ni165  1  0.02210211  0.52842951  0.57927170  1
  Ni  Ni166  1  0.33184754  0.85497822  0.06305801  1
  Ni  Ni167  1  -0.05512585  0.68055214  0.55890558  1
  Ni  Ni168  1  0.15193366  0.48834504  0.66895964  1
  Ni  Ni169  1  0.54143178  0.27959372  0.77196982  1
  Ni  Ni170  1  0.17304105  0.85429432  0.72686855  1
  Ni  Ni171  1  -0.06996822  -0.02506159  -0.00218761  1
  Ni  Ni172  1  0.68312221  0.75704097  -0.04296066  1
  Ni  Ni173  1  0.67724179  0.69088126  0.18188683  1
  Ni  Ni174  1  0.46974288  0.87634572  0.35242302  1
  Ni  Ni175  1  0.18893642  0.23932361  0.84033029  1
  Ni  Ni176  1  0.53737314  0.74219021  0.87572128  1
  Ni  Ni177  1  -0.06174202  0.33293940  0.31396407  1
  Ni  Ni178  1  0.91108711  0.38092542  0.57511449  1
  Ni  Ni179  1  0.69109700  -0.00900990  0.22934714  1
  Ni  Ni180  1  0.25292966  0.53298719  0.79102252  1
  Ni  Ni181  1  0.51207448  0.66691629  0.21527685  1
  Ni  Ni182  1  0.08630256  0.11085200  0.38273590  1
  Ni  Ni183  1  0.65133808  0.00914716  0.07157210  1
  Ni  Ni184  1  0.82125404  0.20270718  0.33472183  1
  Ni  Ni185  1  0.64516827  0.84932128  0.42972576  1
  Ni  Ni186  1  0.91128296  0.40648949  0.89753070  1
  Ni  Ni187  1  0.60008008  0.52973447  0.44207037  1
  Ni  Ni188  1  0.06635121  0.08789096  0.10129753  1
  Ni  Ni189  1  0.50602144  -0.05565686  0.49542762  1
  Ni  Ni190  1  0.90687666  0.89253181  0.67268352  1
  Ni  Ni191  1  0.27459200  0.21008763  0.12367809  1
  Ni  Ni192  1  0.19506766  0.14618305  -0.01420753  1
  Ni  Ni193  1  0.84527218  0.16265874  0.73441999  1
  Ni  Ni194  1  -0.05162969  0.05202677  0.67032891  1
  Ni  Ni195  1  0.18978579  0.00364188  0.78579193  1
  Ni  Ni196  1  0.07726683  0.52374207  0.88810055  1
  Ni  Ni197  1  0.53071884  0.16361665  0.31401481  1
  Ni  Ni198  1  0.32704487  0.26395482  0.27458478  1
  Ni  Ni199  1  0.69564959  0.42044622  0.35513663  1
  Ni  Ni200  1  0.22034339  0.69622217  0.78044030  1
  Ni  Ni201  1  0.80465657  -0.04927976  0.41482845  1
  Ni  Ni202  1  0.20303449  0.26578331  0.43049954  1
  Ni  Ni203  1  0.85877659  0.60641703  0.75702512  1
  Ni  Ni204  1  0.80671857  0.42543778  0.72169980  1
  Ni  Ni205  1  0.10211562  0.46961958  0.16216086  1
  Ni  Ni206  1  0.05483433  0.32079108  0.20609791  1
  Ni  Ni207  1  0.66850712  0.32246327  0.65543916  1
  Ni  Ni208  1  0.88956198  0.58930440  0.09492383  1
  Ni  Ni209  1  0.45876377  0.55531872  0.32633146  1
  Ni  Ni210  1  0.33456718  0.78680978  0.33826349  1
  Ni  Ni211  1  0.52159845  0.10236366  0.01348043  1
  Ni  Ni212  1  0.68917089  0.70315482  0.35552047  1
  Ni  Ni213  1  0.10700994  0.66181899  0.53945646  1
  Ni  Ni214  1  0.51921050  -0.00669040  0.24365550  1
