# generated using pymatgen
data_Ti108Co54Ni53
_symmetry_space_group_name_H-M   'P 1'
_cell_length_a   14.62722218
_cell_length_b   14.61370268
_cell_length_c   14.57728974
_cell_angle_alpha   89.90061602
_cell_angle_beta   89.56417138
_cell_angle_gamma   89.51401828
_symmetry_Int_Tables_number   1
_chemical_formula_structural   Ti108Co54Ni53
_chemical_formula_sum   'Ti108 Co54 Ni53'
_cell_volume   3115.80391504
_cell_formula_units_Z   1
loop_
 _symmetry_equiv_pos_site_id
 _symmetry_equiv_pos_as_xyz
  1  'x, y, z'
loop_
 _atom_site_type_symbol
 _atom_site_label
 _atom_site_symmetry_multiplicity
 _atom_site_fract_x
 _atom_site_fract_y
 _atom_site_fract_z
 _atom_site_occupancy
  Ti  Ti0  1  0.10645136  0.07767880  0.31335302  1
  Ti  Ti1  1  0.05514428  0.11461502  0.55144028  1
  Ti  Ti2  1  0.10229970  0.02415939  0.99469071  1
  Ti  Ti3  1  0.19341341  0.40496420  0.23688121  1
  Ti  Ti4  1  0.08279370  0.38487190  0.54383662  1
  Ti  Ti5  1  0.05670456  0.37969410  0.89097745  1
  Ti  Ti6  1  -0.02021469  0.75562755  0.22226058  1
  Ti  Ti7  1  0.09931572  0.67159728  0.55929951  1
  Ti  Ti8  1  0.06814632  0.77745856  0.90939505  1
  Ti  Ti9  1  0.49793090  0.12218033  0.29348968  1
  Ti  Ti10  1  0.47441110  0.10544318  0.54897374  1
  Ti  Ti11  1  0.32547365  0.07390074  0.89870020  1
  Ti  Ti12  1  0.43099363  0.49822000  0.25113657  1
  Ti  Ti13  1  0.39681218  0.39745415  0.57511325  1
  Ti  Ti14  1  0.36958901  0.44907247  0.95241300  1
  Ti  Ti15  1  0.41248628  0.76414883  0.26358648  1
  Ti  Ti16  1  0.44479969  0.75904255  0.61108043  1
  Ti  Ti17  1  0.37582172  0.76403149  0.80250042  1
  Ti  Ti18  1  0.79348616  0.09679306  0.30006816  1
  Ti  Ti19  1  0.82773916  0.09665386  0.61444918  1
  Ti  Ti20  1  0.73559743  0.09856033  1.00840047  1
  Ti  Ti21  1  0.71360911  0.43406398  0.17298811  1
  Ti  Ti22  1  0.72475565  0.45643801  0.60616142  1
  Ti  Ti23  1  0.72973131  0.45671561  0.88359964  1
  Ti  Ti24  1  0.82200221  0.70668805  0.32028116  1
  Ti  Ti25  1  0.78933941  0.78289437  0.59010756  1
  Ti  Ti26  1  0.77351363  0.80246875  0.87054146  1
  Ti  Ti27  1  0.06855313  0.31586936  0.11191379  1
  Ti  Ti28  1  0.15331120  0.25825320  0.39511250  1
  Ti  Ti29  1  0.07729860  0.17997548  0.74762203  1
  Ti  Ti30  1  0.12250160  0.58863941  0.12720050  1
  Ti  Ti31  1  0.10038452  0.57019672  0.32025248  1
  Ti  Ti32  1  0.10519361  0.62211930  0.75050595  1
  Ti  Ti33  1  0.11985407  0.90777288  0.16379082  1
  Ti  Ti34  1  0.07555158  0.87431080  0.34794263  1
  Ti  Ti35  1  0.07064892  0.96405063  0.76899180  1
  Ti  Ti36  1  0.42129116  0.27292988  0.11925299  1
  Ti  Ti37  1  0.40014372  0.25593575  0.41212384  1
  Ti  Ti38  1  0.40937864  0.25532273  0.83291968  1
  Ti  Ti39  1  0.43381955  0.61657051  0.09546111  1
  Ti  Ti40  1  0.48603522  0.60800126  0.43879847  1
  Ti  Ti41  1  0.38329815  0.57293180  0.68823146  1
  Ti  Ti42  1  0.34519400  0.92738112  0.14663221  1
  Ti  Ti43  1  0.46141665  0.92566941  0.36497664  1
  Ti  Ti44  1  0.41539261  0.96971518  0.73087719  1
  Ti  Ti45  1  0.65400289  0.27487382  0.08580754  1
  Ti  Ti46  1  0.73528643  0.21370032  0.43972019  1
  Ti  Ti47  1  0.74007115  0.25221891  0.79986715  1
  Ti  Ti48  1  0.72566604  0.57543420  0.04625881  1
  Ti  Ti49  1  0.77678522  0.51664535  0.41833102  1
  Ti  Ti50  1  0.81852284  0.54768620  0.73538838  1
  Ti  Ti51  1  0.67009916  0.89353135  0.06679106  1
  Ti  Ti52  1  0.76091053  0.88758338  0.39920558  1
  Ti  Ti53  1  0.86255314  0.91646982  0.71787782  1
  Ti  Ti54  1  0.23643731  0.15673857  0.07161200  1
  Ti  Ti55  1  0.25497380  0.08956667  0.45410515  1
  Ti  Ti56  1  0.24474557  0.09606614  0.68253527  1
  Ti  Ti57  1  0.20154925  0.42550467  0.01986916  1
  Ti  Ti58  1  0.29810405  0.44838312  0.39106810  1
  Ti  Ti59  1  0.23924770  0.50629164  0.80733905  1
  Ti  Ti60  1  0.24644830  0.75259666  0.05362670  1
  Ti  Ti61  1  0.23324207  0.73147700  0.38123980  1
  Ti  Ti62  1  0.13554319  0.80692804  0.69338225  1
  Ti  Ti63  1  0.53935368  0.09269551  0.10288284  1
  Ti  Ti64  1  0.61893606  0.01523047  0.43770640  1
  Ti  Ti65  1  0.55642488  0.13896628  0.72295547  1
  Ti  Ti66  1  0.56438672  0.46374298  0.02329477  1
  Ti  Ti67  1  0.61048433  0.38520758  0.47771969  1
  Ti  Ti68  1  0.52385294  0.46669376  0.81721600  1
  Ti  Ti69  1  0.60391899  0.71049947  0.13562948  1
  Ti  Ti70  1  0.59609009  0.76755292  0.35744827  1
  Ti  Ti71  1  0.64563129  0.71288292  0.70985677  1
  Ti  Ti72  1  0.92606476  0.05770559  0.05587746  1
  Ti  Ti73  1  0.94422277  0.02065710  0.41307542  1
  Ti  Ti74  1  0.84295219  0.07520509  0.82667195  1
  Ti  Ti75  1  0.88471900  0.36546222  0.18637730  1
  Ti  Ti76  1  0.94322937  0.42211635  0.38548252  1
  Ti  Ti77  1  0.97918249  0.45688034  0.71166300  1
  Ti  Ti78  1  0.88534175  0.75450480  0.03983910  1
  Ti  Ti79  1  0.93181029  0.79415818  0.45564379  1
  Ti  Ti80  1  0.92661673  0.66970149  0.83710024  1
  Ti  Ti81  1  0.29617393  0.19246268  0.26370157  1
  Ti  Ti82  1  0.24949887  0.30830537  0.68305466  1
  Ti  Ti83  1  0.14437358  0.22099522  0.92802677  1
  Ti  Ti84  1  0.27972771  0.61002577  0.21339743  1
  Ti  Ti85  1  0.21188512  0.50914362  0.60617225  1
  Ti  Ti86  1  0.15533633  0.60784360  0.94292247  1
  Ti  Ti87  1  0.25738793  0.92377002  0.33295774  1
  Ti  Ti88  1  0.28505013  0.87027295  0.52023088  1
  Ti  Ti89  1  0.23690433  0.89964285  0.86332782  1
  Ti  Ti90  1  0.60685162  0.28131690  0.28831894  1
  Ti  Ti91  1  0.67476167  0.26655046  0.61909250  1
  Ti  Ti92  1  0.57368418  0.19320257  0.93081432  1
  Ti  Ti93  1  0.60376895  0.47983508  0.32075207  1
  Ti  Ti94  1  0.55316393  0.54089839  0.62611925  1
  Ti  Ti95  1  0.61057258  0.66002138  0.90523536  1
  Ti  Ti96  1  0.64824917  0.96973191  0.25064897  1
  Ti  Ti97  1  0.58286351  0.94204222  0.63208888  1
  Ti  Ti98  1  0.58752465  0.94403583  0.82836311  1
  Ti  Ti99  1  0.95134938  0.18163468  0.21697453  1
  Ti  Ti100  1  0.91107420  0.26061646  0.54206003  1
  Ti  Ti101  1  0.90709305  0.23600857  0.90880496  1
  Ti  Ti102  1  0.92147748  0.58572360  0.15401598  1
  Ti  Ti103  1  0.89269788  0.62011639  0.51643125  1
  Ti  Ti104  1  0.88728997  0.50425315  0.96956588  1
  Ti  Ti105  1  0.83558076  0.89619478  0.18307662  1
  Ti  Ti106  1  1.00286066  0.92735920  0.58006613  1
  Ti  Ti107  1  0.93843488  0.91864045  0.90823577  1
  Co  Co108  1  0.16220368  0.21820220  0.57571488  1
  Co  Co109  1  0.47764646  -0.01676028  0.20964850  1
  Co  Co110  1  0.50216080  0.64922720  0.77062530  1
  Co  Co111  1  0.77634882  0.66601164  0.16756848  1
  Co  Co112  1  -0.05983573  0.59684615  0.34877799  1
  Co  Co113  1  -0.03551479  0.05867791  0.69933322  1
  Co  Co114  1  0.25951730  -0.01855752  0.02145303  1
  Co  Co115  1  0.35163962  0.04548189  0.30587347  1
  Co  Co116  1  -0.07210936  0.35003817  0.01869925  1
  Co  Co117  1  0.82003445  0.51755985  0.26131198  1
  Co  Co118  1  0.02854613  0.31285176  0.28924401  1
  Co  Co119  1  0.76704886  0.25321891  0.22440244  1
  Co  Co120  1  0.33930507  0.61261199  0.85771332  1
  Co  Co121  1  0.79177595  0.35455881  0.49463278  1
  Co  Co122  1  0.36307549  0.54394121  0.51683755  1
  Co  Co123  1  0.28647676  0.58292443  0.03090712  1
  Co  Co124  1  0.02722600  0.53099349  0.86245959  1
  Co  Co125  1  0.46223845  0.41128989  0.40898028  1
  Co  Co126  1  0.12805858  0.42437789  0.39396709  1
  Co  Co127  1  -0.02135499  -0.11775663  0.07156275  1
  Co  Co128  1  0.30649315  0.27282481  -0.02580708  1
  Co  Co129  1  0.14190048  0.86943941  0.00562598  1
  Co  Co130  1  0.50392036  0.64105622  0.27006260  1
  Co  Co131  1  0.25975223  0.31080688  0.12935775  1
  Co  Co132  1  0.37446078  0.09564527  0.14401620  1
  Co  Co133  1  0.03894438  0.53891925  0.48830152  1
  Co  Co134  1  0.53372740  0.37588044  0.66689454  1
  Co  Co135  1  0.07304389  0.73943772  0.08163106  1
  Co  Co136  1  0.72591742  0.74179087  0.01708137  1
  Co  Co137  1  0.13009903  0.41662365  0.72826578  1
  Co  Co138  1  0.01202881  0.19676943  0.02805600  1
  Co  Co139  1  0.25842537  0.19807579  0.80807850  1
  Co  Co140  1  0.07501107  0.09619288  0.14225473  1
  Co  Co141  1  0.58892919  0.54817930  0.16399758  1
  Co  Co142  1  0.14540816  0.21805173  0.22169756  1
  Co  Co143  1  0.65715749  0.56078902  0.76303547  1
  Co  Co144  1  0.12785438  -0.01197154  0.45611287  1
  Co  Co145  1  0.70663813  0.80642993  0.23111236  1
  Co  Co146  1  0.48467323  0.07481267  0.85777784  1
  Co  Co147  1  0.79440512  0.05315562  0.15033135  1
  Co  Co148  1  0.65606400  0.14319665  0.19576267  1
  Co  Co149  1  0.42675849  0.23443094  0.67773584  1
  Co  Co150  1  0.54790023  0.84508161  0.20642335  1
  Co  Co151  1  0.63657026  0.56184019  0.47348494  1
  Co  Co152  1  0.96527984  0.77307375  0.61298470  1
  Co  Co153  1  0.33259108  0.45868131  0.12657497  1
  Co  Co154  1  0.34367652  0.61419370  0.36212829  1
  Co  Co155  1  0.73469588  0.70976231  0.45615273  1
  Co  Co156  1  0.81959978  0.92787530  0.01762837  1
  Co  Co157  1  0.90839532  0.88486322  0.32463272  1
  Co  Co158  1  0.74692372  -0.04333130  0.87824390  1
  Co  Co159  1  0.13152919  0.72090881  0.24118706  1
  Co  Co160  1  0.66985124  0.39248376  0.74555580  1
  Co  Co161  1  0.74341208  0.37471983  0.33488086  1
  Ni  Ni162  1  0.24725444  0.34566318  0.50849327  1
  Ni  Ni163  1  0.83227991  0.35764079  0.68679104  1
  Ni  Ni164  1  0.12333663  0.82682515  0.50381751  1
  Ni  Ni165  1  0.16925570  0.96180073  0.61471873  1
  Ni  Ni166  1  0.70568540  0.86612528  0.72742860  1
  Ni  Ni167  1  0.20378403  0.57796201  0.45248884  1
  Ni  Ni168  1  0.23542421  0.35263608  0.85529815  1
  Ni  Ni169  1  0.22259770  0.04039415  0.19330195  1
  Ni  Ni170  1  0.57471898  0.18295672  0.43083765  1
  Ni  Ni171  1  0.29346142  0.86857885  0.68613229  1
  Ni  Ni172  1  0.67076676  0.10078554  0.84944258  1
  Ni  Ni173  1  0.53756654  0.38454922  0.17510570  1
  Ni  Ni174  1  0.74580186  -0.05602557  0.57526735  1
  Ni  Ni175  1  0.59478793  0.01027171  -0.02558350  1
  Ni  Ni176  1  -0.03575673  0.00633882  0.22969524  1
  Ni  Ni177  1  0.47154416  0.58774346  -0.06242533  1
  Ni  Ni178  1  -0.00658247  0.63101925  -0.00414263  1
  Ni  Ni179  1  0.39986935  0.77572793  0.43521237  1
  Ni  Ni180  1  0.71111531  0.02977444  0.71466571  1
  Ni  Ni181  1  0.67306749  0.62748142  0.30019795  1
  Ni  Ni182  1  0.42297611  0.15777176  -0.00509062  1
  Ni  Ni183  1  0.01860233  0.46428893  0.22240475  1
  Ni  Ni184  1  0.38445480  0.34115548  0.26596063  1
  Ni  Ni185  1  0.37830566  0.40292190  0.75039017  1
  Ni  Ni186  1  -0.00258797  0.18611779  0.40520279  1
  Ni  Ni187  1  0.03552109  0.47525151  0.04241822  1
  Ni  Ni188  1  0.77215661  0.62804860  0.88161377  1
  Ni  Ni189  1  0.01865285  0.29934473  0.66437540  1
  Ni  Ni190  1  0.89386019  0.20903879  0.72310294  1
  Ni  Ni191  1  0.45974118  -0.08884508  0.52862178  1
  Ni  Ni192  1  -0.03733039  0.61859541  0.66505466  1
  Ni  Ni193  1  0.00360798  0.09366171  0.87753522  1
  Ni  Ni194  1  0.65645931  0.10293753  0.57397650  1
  Ni  Ni195  1  0.32673043  0.20233565  0.55748721  1
  Ni  Ni196  1  0.52385038  0.81502629  0.75005872  1
  Ni  Ni197  1  0.58753496  0.70157523  0.54510527  1
  Ni  Ni198  1  0.16995730  0.06630087  0.84553224  1
  Ni  Ni199  1  0.21555532  0.72773281  0.84271213  1
  Ni  Ni200  1  0.88575874  0.39271410  -0.15748179  1
  Ni  Ni201  1  0.05874638  0.70624518  0.39908290  1
  Ni  Ni202  1  0.90473792  0.45496212  0.55938956  1
  Ni  Ni203  1  0.72869687  0.62082331  0.59799218  1
  Ni  Ni204  1  0.78608617  0.05039168  0.46129258  1
  Ni  Ni205  1  0.87126833  0.26926755  0.35099145  1
  Ni  Ni206  1  0.47733307  0.32510606  0.97592526  1
  Ni  Ni207  1  0.34140006  0.01372665  0.58033998  1
  Ni  Ni208  1  0.62552312  0.85194973  0.49751836  1
  Ni  Ni209  1  0.62197919  0.34439920  -0.09338352  1
  Ni  Ni210  1  -0.02032141  0.81157843  0.76861842  1
  Ni  Ni211  1  0.26165798  0.79714485  0.21487271  1
  Ni  Ni212  1  0.84096663  0.21815532  0.07869265  1
  Ni  Ni213  1  0.26025610  0.68413722  0.68665457  1
  Ni  Ni214  1  0.50690192  0.27484288  0.54206323  1
