# generated using pymatgen
data_Ti108Co54Ni53
_symmetry_space_group_name_H-M   'P 1'
_cell_length_a   14.63366328
_cell_length_b   14.69277554
_cell_length_c   14.62359431
_cell_angle_alpha   90.23990816
_cell_angle_beta   90.01205113
_cell_angle_gamma   90.23821266
_symmetry_Int_Tables_number   1
_chemical_formula_structural   Ti108Co54Ni53
_chemical_formula_sum   'Ti108 Co54 Ni53'
_cell_volume   3144.15147088
_cell_formula_units_Z   1
loop_
 _symmetry_equiv_pos_site_id
 _symmetry_equiv_pos_as_xyz
  1  'x, y, z'
loop_
 _atom_site_type_symbol
 _atom_site_label
 _atom_site_symmetry_multiplicity
 _atom_site_fract_x
 _atom_site_fract_y
 _atom_site_fract_z
 _atom_site_occupancy
  Ti  Ti0  1  0.06777538  0.01716969  0.21626122  1
  Ti  Ti1  1  0.09298395  -0.00318943  0.59058502  1
  Ti  Ti2  1  0.12604096  0.11670226  0.94787365  1
  Ti  Ti3  1  0.06423484  0.38412874  0.21156667  1
  Ti  Ti4  1  0.11148167  0.42455825  0.54815290  1
  Ti  Ti5  1  0.16793901  0.41682992  0.99949725  1
  Ti  Ti6  1  0.09452897  0.69417158  0.22716796  1
  Ti  Ti7  1  0.01593123  0.77611751  0.50360523  1
  Ti  Ti8  1  0.15132053  0.72285134  0.90568613  1
  Ti  Ti9  1  0.43326763  0.08713240  0.26997936  1
  Ti  Ti10  1  0.38592386  0.10770598  0.62576698  1
  Ti  Ti11  1  0.48110751  0.11198469  0.99659597  1
  Ti  Ti12  1  0.46670701  0.40596140  0.14272581  1
  Ti  Ti13  1  0.39816079  0.45495258  0.64162470  1
  Ti  Ti14  1  0.40922763  0.39195147  0.93899496  1
  Ti  Ti15  1  0.41288370  0.76283834  0.22151936  1
  Ti  Ti16  1  0.38587101  0.70955328  0.54698102  1
  Ti  Ti17  1  0.40270939  0.77430697  0.89099147  1
  Ti  Ti18  1  0.77745456  0.12666631  0.21157790  1
  Ti  Ti19  1  0.79295188  0.11136616  0.69226521  1
  Ti  Ti20  1  0.75054560  0.06362388  0.88878992  1
  Ti  Ti21  1  0.74272188  0.48500490  0.23000942  1
  Ti  Ti22  1  0.70845064  0.34906790  0.51686077  1
  Ti  Ti23  1  0.75765795  0.38532325  0.89670947  1
  Ti  Ti24  1  0.61670936  0.76608390  0.20505109  1
  Ti  Ti25  1  0.69940926  0.75794432  0.58276142  1
  Ti  Ti26  1  0.74730094  0.79577453  0.84877443  1
  Ti  Ti27  1  0.05462209  0.20270230  0.12141840  1
  Ti  Ti28  1  0.01057906  0.25471440  0.36884322  1
  Ti  Ti29  1  0.11829844  0.19748685  0.75641897  1
  Ti  Ti30  1  0.17478834  0.61227666  0.07284344  1
  Ti  Ti31  1  0.08125567  0.58631793  0.41697920  1
  Ti  Ti32  1  0.09070405  0.62575555  0.62870728  1
  Ti  Ti33  1  -0.00198903  0.89997433  0.06377483  1
  Ti  Ti34  1  0.10575092  0.92876692  0.40009404  1
  Ti  Ti35  1  0.01260235  0.89240076  0.75957036  1
  Ti  Ti36  1  0.38427856  0.24139514  0.16574763  1
  Ti  Ti37  1  0.37453907  0.36034622  0.46166605  1
  Ti  Ti38  1  0.32609207  0.23914011  0.75722354  1
  Ti  Ti39  1  0.47798955  0.56522965  -0.00036316  1
  Ti  Ti40  1  0.40951972  0.62873624  0.37125018  1
  Ti  Ti41  1  0.39272951  0.63228512  0.72125423  1
  Ti  Ti42  1  0.34807454  0.94684055  0.11121859  1
  Ti  Ti43  1  0.38540364  0.98594656  0.42913080  1
  Ti  Ti44  1  0.44654306  0.94071658  0.74796373  1
  Ti  Ti45  1  0.68428444  0.27613011  0.08938584  1
  Ti  Ti46  1  0.86768667  0.21339053  0.53894379  1
  Ti  Ti47  1  0.68101532  0.22628800  0.80539791  1
  Ti  Ti48  1  0.68178660  0.61836786  0.10313220  1
  Ti  Ti49  1  0.77167623  0.55984308  0.43379541  1
  Ti  Ti50  1  0.71312685  0.61672183  0.70312939  1
  Ti  Ti51  1  0.76511009  0.81541109  0.07743467  1
  Ti  Ti52  1  0.78169040  0.90602251  0.43149645  1
  Ti  Ti53  1  0.70243955  0.92072100  0.69573241  1
  Ti  Ti54  1  0.22490905  0.12116988  0.13882667  1
  Ti  Ti55  1  0.20215104  0.10918200  0.44623421  1
  Ti  Ti56  1  0.26369732  0.06105142  0.80034892  1
  Ti  Ti57  1  0.27747089  0.41251594  0.20371564  1
  Ti  Ti58  1  0.22354675  0.45422966  0.37274672  1
  Ti  Ti59  1  0.25953209  0.41498764  0.79163846  1
  Ti  Ti60  1  0.27500500  0.79762657  0.03659872  1
  Ti  Ti61  1  0.29242748  0.80046378  0.39179890  1
  Ti  Ti62  1  0.24142314  0.87080582  0.77280755  1
  Ti  Ti63  1  0.64754679  0.04729966  0.08825331  1
  Ti  Ti64  1  0.56926877  0.06850666  0.42573173  1
  Ti  Ti65  1  0.57991243  0.08769336  0.69332425  1
  Ti  Ti66  1  0.62138908  0.44542675  0.05035773  1
  Ti  Ti67  1  0.54984654  0.39932847  0.38474886  1
  Ti  Ti68  1  0.62231201  0.39898718  0.71989430  1
  Ti  Ti69  1  0.58939531  0.75570719  -0.02608396  1
  Ti  Ti70  1  0.65253152  0.74803117  0.39472665  1
  Ti  Ti71  1  0.56747823  0.75017683  0.76251602  1
  Ti  Ti72  1  0.93474326  0.07751962  0.05894034  1
  Ti  Ti73  1  0.86015415  0.09270880  0.39444971  1
  Ti  Ti74  1  0.94689917  0.10986218  0.82717963  1
  Ti  Ti75  1  0.86369566  0.42106495  0.09857208  1
  Ti  Ti76  1  0.89248195  0.39705776  0.45272466  1
  Ti  Ti77  1  0.82091451  0.33124185  0.69102630  1
  Ti  Ti78  1  0.93700255  0.75020427  0.14147572  1
  Ti  Ti79  1  0.92649279  0.78238817  0.33459703  1
  Ti  Ti80  1  0.95485907  0.70387697  0.82687392  1
  Ti  Ti81  1  0.28535255  0.23105991  0.33431387  1
  Ti  Ti82  1  0.24275785  0.26234289  0.57814513  1
  Ti  Ti83  1  0.31543923  0.20760029  0.95218796  1
  Ti  Ti84  1  0.28669045  0.59179307  0.22028495  1
  Ti  Ti85  1  0.27609820  0.55558829  0.52097979  1
  Ti  Ti86  1  0.30239543  0.59200795  0.91508956  1
  Ti  Ti87  1  0.20926152  0.88595439  0.23556810  1
  Ti  Ti88  1  0.20024155  0.82455728  0.59842745  1
  Ti  Ti89  1  0.17049348  0.92362765  0.93098385  1
  Ti  Ti90  1  0.65565018  0.22893117  0.33530609  1
  Ti  Ti91  1  0.53423864  0.21743456  0.52462065  1
  Ti  Ti92  1  0.50104149  0.23478529  0.84986187  1
  Ti  Ti93  1  0.55951840  0.55387464  0.24766648  1
  Ti  Ti94  1  0.60037393  0.53692596  0.56466125  1
  Ti  Ti95  1  0.65258053  0.57585276  0.87620577  1
  Ti  Ti96  1  0.56671726  0.92601129  0.28154046  1
  Ti  Ti97  1  0.53036471  0.85114711  0.58462835  1
  Ti  Ti98  1  0.51049950  0.93224808  0.96364703  1
  Ti  Ti99  1  0.90058079  0.26144087  0.18834019  1
  Ti  Ti100  1  1.05623520  0.20524089  0.56083515  1
  Ti  Ti101  1  0.89086061  0.25576766  0.98102731  1
  Ti  Ti102  1  0.94691589  0.55445991  0.25935638  1
  Ti  Ti103  1  0.87460833  0.64538158  0.58789056  1
  Ti  Ti104  1  0.88550551  0.60144545  1.03701711  1
  Ti  Ti105  1  0.84220120  0.93892524  0.22069539  1
  Ti  Ti106  1  0.87230160  0.87278030  0.61033859  1
  Ti  Ti107  1  0.86721449  0.92042559  0.92320045  1
  Co  Co108  1  0.38426663  0.15984355  0.46746010  1
  Co  Co109  1  0.71815996  0.40280778  0.36767813  1
  Co  Co110  1  0.42600065  0.55963565  0.16743769  1
  Co  Co111  1  0.27564022  0.71687547  0.80433208  1
  Co  Co112  1  0.80044048  -0.01604623  0.07055048  1
  Co  Co113  1  0.69823524  0.63865726  0.28769535  1
  Co  Co114  1  0.54720686  0.20771849  0.16220787  1
  Co  Co115  1  0.12004082  0.79383760  0.08609398  1
  Co  Co116  1  0.84585208  -0.04191752  0.76259104  1
  Co  Co117  1  0.53987072  0.68045542  0.63069283  1
  Co  Co118  1  0.48585186  0.27489152  0.02555555  1
  Co  Co119  1  0.35444320  0.66699942  0.06558897  1
  Co  Co120  1  0.61521394  0.88502065  0.09733915  1
  Co  Co121  1  0.24674087  0.67749361  0.65342983  1
  Co  Co122  1  0.04043544  0.24602668  0.92264761  1
  Co  Co123  1  0.49583510  0.00777314  0.56523078  1
  Co  Co124  1  0.68796116  -0.07672834  -0.04330094  1
  Co  Co125  1  0.81770986  0.75570182  0.71454142  1
  Co  Co126  1  0.60243620  0.37252693  0.22727237  1
  Co  Co127  1  0.82632911  0.25676445  0.37593621  1
  Co  Co128  1  0.77582037  0.79653599  0.26758686  1
  Co  Co129  1  0.05129013  0.42896449  0.37257529  1
  Co  Co130  1  0.46175618  0.82127620  0.07523498  1
  Co  Co131  1  0.23530812  0.64374936  0.35920880  1
  Co  Co132  1  0.39856727  0.28716752  0.60914775  1
  Co  Co133  1  0.54866793  0.55116057  0.72920953  1
  Co  Co134  1  0.03600495  0.85739846  0.23298825  1
  Co  Co135  1  0.60135519  0.09183363  0.24829377  1
  Co  Co136  1  0.16750165  0.26018169  0.02825749  1
  Co  Co137  1  0.61105226  0.32946565  -0.06518783  1
  Co  Co138  1  0.19568639  0.27854741  0.18873189  1
  Co  Co139  1  0.38061204  0.79990927  0.69330452  1
  Co  Co140  1  0.50176249  -0.01215940  0.14365552  1
  Co  Co141  1  0.40336043  0.50771042  0.82093109  1
  Co  Co142  1  0.11898456  0.75379328  0.74730919  1
  Co  Co143  1  0.19731927  0.28636294  0.87031373  1
  Co  Co144  1  0.37432214  0.86925786  0.53889907  1
  Co  Co145  1  0.38580324  0.10145709  0.11094387  1
  Co  Co146  1  0.24997683  0.74057432  0.19345767  1
  Co  Co147  1  0.49420448  0.64118494  0.86240131  1
  Co  Co148  1  0.95153066  0.21943378  0.69440610  1
  Co  Co149  1  0.30761693  -0.03975273  0.64997598  1
  Co  Co150  1  0.45096387  0.51349112  0.48272807  1
  Co  Co151  1  0.43523387  0.36069125  0.76513256  1
  Co  Co152  1  0.49168442  0.21257802  0.35309638  1
  Co  Co153  1  0.84159196  0.23279256  0.82607780  1
  Co  Co154  1  0.40173071  0.48601641  0.31471914  1
  Co  Co155  1  0.53186322  0.24927740  0.69006133  1
  Co  Co156  1  0.61627985  0.54882551  0.39814339  1
  Co  Co157  1  0.02891985  0.82591901  0.91515710  1
  Co  Co158  1  0.76207233  0.51074501  -0.00561866  1
  Co  Co159  1  0.39110097  0.91620463  0.27763205  1
  Co  Co160  1  0.95804519  0.35014025  0.59465067  1
  Co  Co161  1  0.88854341  0.76456431  -0.02790692  1
  Ni  Ni162  1  0.51907655  0.67593811  0.11247898  1
  Ni  Ni163  1  0.53703680  0.66943696  0.47412495  1
  Ni  Ni164  1  0.03514746  0.52262840  0.10613581  1
  Ni  Ni165  1  0.47017182  0.80788257  0.39195837  1
  Ni  Ni166  1  0.01459955  0.35738580  0.04857320  1
  Ni  Ni167  1  -0.04755915  -0.03944563  0.33496786  1
  Ni  Ni168  1  0.01919817  -0.00752449  -0.08342422  1
  Ni  Ni169  1  -0.04953330  0.11805675  0.25724649  1
  Ni  Ni170  1  0.35234256  0.93722537  0.89761279  1
  Ni  Ni171  1  0.74671347  0.68179261  -0.03082125  1
  Ni  Ni172  1  0.10665211  0.02704486  0.76747230  1
  Ni  Ni173  1  0.30873515  0.33549382  0.05721043  1
  Ni  Ni174  1  0.54862559  0.45212056  -0.13714085  1
  Ni  Ni175  1  0.23786308  -0.04435665  0.49892230  1
  Ni  Ni176  1  0.12150210  0.76995961  0.36736550  1
  Ni  Ni177  1  0.26260288  0.04319016  0.28843658  1
  Ni  Ni178  1  0.17017786  -0.03359241  0.08779016  1
  Ni  Ni179  1  0.58357486  0.05692340  0.85973553  1
  Ni  Ni180  1  0.21447499  0.50808842  0.66687277  1
  Ni  Ni181  1  0.82005962  0.61175797  0.84560806  1
  Ni  Ni182  1  0.71529401  0.15531948  0.48116465  1
  Ni  Ni183  1  0.41996274  0.08933565  0.83151508  1
  Ni  Ni184  1  -0.04486881  0.05080605  0.66378699  1
  Ni  Ni185  1  0.89295734  0.40001820  0.28721826  1
  Ni  Ni186  1  0.60499763  0.90349884  0.44743433  1
  Ni  Ni187  1  0.18345823  0.69610646  0.50226735  1
  Ni  Ni188  1  0.71359554  0.02799504  0.34368383  1
  Ni  Ni189  1  -0.07295003  0.63415064  0.42076361  1
  Ni  Ni190  1  0.75797371  0.31704788  0.23207085  1
  Ni  Ni191  1  -0.04161874  0.95058579  0.49299854  1
  Ni  Ni192  1  0.68610776  0.22951430  0.63062521  1
  Ni  Ni193  1  0.12937054  0.15817448  0.29008099  1
  Ni  Ni194  1  0.77570310  0.47763658  0.76019848  1
  Ni  Ni195  1  0.81497658  0.74416969  0.46042250  1
  Ni  Ni196  1  0.63614314  0.17413597  0.96484152  1
  Ni  Ni197  1  0.02735892  0.67736604  0.00719467  1
  Ni  Ni198  1  0.53367204  0.37895170  0.56407689  1
  Ni  Ni199  1  0.28410162  0.05054301  -0.01365213  1
  Ni  Ni200  1  0.03364897  0.08785570  0.41636056  1
  Ni  Ni201  1  0.78413044  0.48739654  0.58977728  1
  Ni  Ni202  1  0.82448718  0.64832291  0.19494910  1
  Ni  Ni203  1  0.21070658  0.10491866  0.63788226  1
  Ni  Ni204  1  0.12620896  0.53189498  0.24895725  1
  Ni  Ni205  1  0.16326724  0.30529912  0.43399018  1
  Ni  Ni206  1  0.10257093  0.33898571  0.68620553  1
  Ni  Ni207  1  0.31643234  0.49945405  0.05523064  1
  Ni  Ni208  1  0.66500632  0.00822916  0.55918853  1
  Ni  Ni209  1  0.59985983  0.89736456  0.82234095  1
  Ni  Ni210  1  -0.03118434  0.51788193  0.53687382  1
  Ni  Ni211  1  0.78461979  0.14626485  0.04066048  1
  Ni  Ni212  1  -0.01961248  0.75297249  0.66473535  1
  Ni  Ni213  1  0.82663142  0.03201173  0.55182519  1
  Ni  Ni214  1  0.41520577  0.33491553  0.29596541  1
