# generated using pymatgen
data_Ti108Co54Ni53
_symmetry_space_group_name_H-M   'P 1'
_cell_length_a   14.61172467
_cell_length_b   14.66319709
_cell_length_c   14.65395572
_cell_angle_alpha   90.18856080
_cell_angle_beta   90.35356428
_cell_angle_gamma   90.13540005
_symmetry_Int_Tables_number   1
_chemical_formula_structural   Ti108Co54Ni53
_chemical_formula_sum   'Ti108 Co54 Ni53'
_cell_volume   3139.59170373
_cell_formula_units_Z   1
loop_
 _symmetry_equiv_pos_site_id
 _symmetry_equiv_pos_as_xyz
  1  'x, y, z'
loop_
 _atom_site_type_symbol
 _atom_site_label
 _atom_site_symmetry_multiplicity
 _atom_site_fract_x
 _atom_site_fract_y
 _atom_site_fract_z
 _atom_site_occupancy
  Ti  Ti0  1  0.03253861  0.10163950  0.29195402  1
  Ti  Ti1  1  0.08795410  0.09164510  0.64826136  1
  Ti  Ti2  1  0.18489020  0.07796886  0.93493936  1
  Ti  Ti3  1  0.07006181  0.37479242  0.26623633  1
  Ti  Ti4  1  0.13144739  0.42582094  0.57925829  1
  Ti  Ti5  1  -0.02042166  0.41038494  0.94598758  1
  Ti  Ti6  1  0.07899995  0.70508862  0.35670760  1
  Ti  Ti7  1  0.09437879  0.81731553  0.52861679  1
  Ti  Ti8  1  0.04974776  0.71250680  0.87711392  1
  Ti  Ti9  1  0.36711476  0.15237189  0.25736265  1
  Ti  Ti10  1  0.41819811  0.10842597  0.57219653  1
  Ti  Ti11  1  0.35728277  -0.01666999  0.93203391  1
  Ti  Ti12  1  0.44208024  0.38503020  0.28739647  1
  Ti  Ti13  1  0.37607877  0.42283338  0.62143850  1
  Ti  Ti14  1  0.38882797  0.38958733  0.85448335  1
  Ti  Ti15  1  0.49344505  0.76000505  0.27102197  1
  Ti  Ti16  1  0.45494869  0.79565749  0.56415037  1
  Ti  Ti17  1  0.39831725  0.77446772  0.84427607  1
  Ti  Ti18  1  0.76002450  0.04910502  0.22399077  1
  Ti  Ti19  1  0.74592501  0.07945129  0.60194916  1
  Ti  Ti20  1  0.78605969  0.05935737  0.89405372  1
  Ti  Ti21  1  0.75623807  0.37646386  0.35202197  1
  Ti  Ti22  1  0.67939127  0.47209878  0.58915602  1
  Ti  Ti23  1  0.78637807  0.43242948  0.85715491  1
  Ti  Ti24  1  0.76279693  0.74568780  0.20245024  1
  Ti  Ti25  1  0.81547593  0.76565301  0.54417472  1
  Ti  Ti26  1  0.71604193  0.69589438  0.90054024  1
  Ti  Ti27  1  0.07042774  0.20764430  0.02786697  1
  Ti  Ti28  1  0.12538295  0.28174015  0.41943645  1
  Ti  Ti29  1  0.04180229  0.26595138  0.73050771  1
  Ti  Ti30  1  0.05722612  0.56622751  0.06872643  1
  Ti  Ti31  1  0.11925724  0.51708234  0.40082006  1
  Ti  Ti32  1  0.07231873  0.64207199  0.67583210  1
  Ti  Ti33  1  0.05513739  0.96799348  0.06090025  1
  Ti  Ti34  1  0.06853030  0.91889401  0.34934767  1
  Ti  Ti35  1  0.12285754  0.83410001  0.73127053  1
  Ti  Ti36  1  0.41750970  0.24615752  0.05554837  1
  Ti  Ti37  1  0.45810462  0.21734652  0.40996259  1
  Ti  Ti38  1  0.36646453  0.22916296  0.73832989  1
  Ti  Ti39  1  0.52829994  0.54859839  0.13323979  1
  Ti  Ti40  1  0.43034821  0.54594679  0.42455192  1
  Ti  Ti41  1  0.50312216  0.51735971  0.74715964  1
  Ti  Ti42  1  0.40534001  0.91817828  0.12628962  1
  Ti  Ti43  1  0.38279056  0.86833364  0.38385964  1
  Ti  Ti44  1  0.43441520  0.95912018  0.69452382  1
  Ti  Ti45  1  0.77749856  0.31622350  0.01623666  1
  Ti  Ti46  1  0.76014105  0.21062772  0.45031498  1
  Ti  Ti47  1  0.72487369  0.25295357  0.79616293  1
  Ti  Ti48  1  0.72151453  0.49327097  0.10036280  1
  Ti  Ti49  1  0.79501161  0.56061612  0.45220120  1
  Ti  Ti50  1  0.70815846  0.58585836  0.74443139  1
  Ti  Ti51  1  0.73740801  0.88178501  -0.04799057  1
  Ti  Ti52  1  0.71662196  0.91141593  0.44821215  1
  Ti  Ti53  1  0.64595979  0.94655076  0.77352373  1
  Ti  Ti54  1  0.18944481  0.11232917  0.15137061  1
  Ti  Ti55  1  0.15592204  0.08021478  0.44581558  1
  Ti  Ti56  1  0.26964346  0.05223192  0.74186878  1
  Ti  Ti57  1  0.31628105  0.50684942  0.10483362  1
  Ti  Ti58  1  0.26720124  0.44765256  0.31951296  1
  Ti  Ti59  1  0.23523734  0.37753815  0.73130344  1
  Ti  Ti60  1  0.20386614  0.81765876  0.13510783  1
  Ti  Ti61  1  0.25789175  0.73139161  0.45097073  1
  Ti  Ti62  1  0.27937752  0.75603152  0.66331492  1
  Ti  Ti63  1  0.54462702  0.06929191  0.12856797  1
  Ti  Ti64  1  0.54462294  0.04001656  0.40803285  1
  Ti  Ti65  1  0.49626069  0.10418471  0.81290633  1
  Ti  Ti66  1  0.59175894  0.35187680  0.06184300  1
  Ti  Ti67  1  0.58700055  0.41706327  0.40223661  1
  Ti  Ti68  1  0.53889032  0.31294306  0.74012631  1
  Ti  Ti69  1  0.60220722  0.80480517  0.07067487  1
  Ti  Ti70  1  0.66225359  0.72894032  0.38391836  1
  Ti  Ti71  1  0.66726995  0.77054154  0.70994665  1
  Ti  Ti72  1  0.92684902  0.11331211  0.13589242  1
  Ti  Ti73  1  0.93981929  0.10998828  0.46857306  1
  Ti  Ti74  1  0.96934563  0.03455880  0.80651837  1
  Ti  Ti75  1  0.91500006  0.44346447  0.13769447  1
  Ti  Ti76  1  0.94819830  0.42068173  0.41906312  1
  Ti  Ti77  1  0.99616376  0.46061675  0.73336287  1
  Ti  Ti78  1  0.94858018  0.75674757  0.07718137  1
  Ti  Ti79  1  0.91712077  0.83165219  0.40203525  1
  Ti  Ti80  1  0.84939164  0.74509617  0.73824945  1
  Ti  Ti81  1  0.23143786  0.31190773  0.16686281  1
  Ti  Ti82  1  0.21510470  0.23584995  0.60225580  1
  Ti  Ti83  1  0.20865042  0.28494196  0.90442744  1
  Ti  Ti84  1  0.23732335  0.63155438  0.25495924  1
  Ti  Ti85  1  0.26421486  0.57721383  0.63129816  1
  Ti  Ti86  1  0.23815553  0.52918864  0.89659497  1
  Ti  Ti87  1  0.27057968  0.97658322  0.27429381  1
  Ti  Ti88  1  0.29258554  0.91696283  0.57405950  1
  Ti  Ti89  1  0.17499384  0.87738298  0.92114357  1
  Ti  Ti90  1  0.57919329  0.26522040  0.23025559  1
  Ti  Ti91  1  0.57518454  0.28705072  0.54891003  1
  Ti  Ti92  1  0.63271452  0.18182663  0.96301945  1
  Ti  Ti93  1  0.71356919  0.56543603  0.27867131  1
  Ti  Ti94  1  0.54494947  0.63508873  0.60175583  1
  Ti  Ti95  1  0.61133222  0.52304317  0.92373532  1
  Ti  Ti96  1  0.61403878  0.91640024  0.26417291  1
  Ti  Ti97  1  0.59486326  0.95406588  0.59248356  1
  Ti  Ti98  1  0.57919807  0.98728339  0.94816944  1
  Ti  Ti99  1  0.89448097  0.27995665  0.25462544  1
  Ti  Ti100  1  0.86705315  0.25526144  0.61708908  1
  Ti  Ti101  1  0.91497996  0.22514750  0.89833724  1
  Ti  Ti102  1  0.93678975  0.66179722  0.23900902  1
  Ti  Ti103  1  0.87580518  0.58026736  0.62293392  1
  Ti  Ti104  1  0.89344471  0.58259487  0.82557100  1
  Ti  Ti105  1  0.91024953  0.91296991  0.19918669  1
  Ti  Ti106  1  0.92951553  0.92720302  0.64415403  1
  Ti  Ti107  1  0.93656664  0.89426803  0.94507340  1
  Co  Co108  1  0.73126842  0.05729151  0.39307559  1
  Co  Co109  1  0.25754609  0.07379644  0.56955878  1
  Co  Co110  1  0.06791424  0.15591662  0.85542551  1
  Co  Co111  1  0.61661207  0.24291073  0.38680236  1
  Co  Co112  1  0.87446482  0.75479678  0.89649979  1
  Co  Co113  1  0.80715773  -0.11693327  0.80570966  1
  Co  Co114  1  0.75170049  0.89560874  0.63197941  1
  Co  Co115  1  0.77602330  0.87897471  0.30070082  1
  Co  Co116  1  0.02467663  0.97083505  0.49945360  1
  Co  Co117  1  -0.10079991  -0.01157433  0.34636415  1
  Co  Co118  1  0.25053496  0.35967149  0.49614822  1
  Co  Co119  1  0.19321041  0.81303644  0.31008917  1
  Co  Co120  1  0.50651045  0.70475191  0.43780102  1
  Co  Co121  1  0.85468404  -0.03153368  0.50835743  1
  Co  Co122  1  0.05833124  0.54937432  0.88677035  1
  Co  Co123  1  0.10712545  0.67636406  0.17025953  1
  Co  Co124  1  0.71770098  0.64560380  0.58941587  1
  Co  Co125  1  0.84429082  0.49233365  -0.00568673  1
  Co  Co126  1  0.47195998  -0.08040114  0.83570860  1
  Co  Co127  1  0.61270541  0.12814482  0.51474618  1
  Co  Co128  1  0.25941047  0.20957393  0.03955412  1
  Co  Co129  1  0.19626450  0.17458747  0.30426719  1
  Co  Co130  1  0.17138024  0.48136663  0.17480374  1
  Co  Co131  1  0.20904490  0.68043644  0.78821459  1
  Co  Co132  1  0.85953417  0.16994020  0.75644966  1
  Co  Co133  1  0.37400866  0.65729977  0.53272413  1
  Co  Co134  1  0.81749406  0.15673551  0.02053899  1
  Co  Co135  1  0.37146734  0.67882294  0.34726941  1
  Co  Co136  1  -0.08289034  0.26830997  0.42619056  1
  Co  Co137  1  0.39316340  0.54347783  0.24473207  1
  Co  Co138  1  0.85792190  -0.01601186  0.06111980  1
  Co  Co139  1  0.14455619  0.95069361  0.61814275  1
  Co  Co140  1  -0.03293238  0.07324752  -0.03167439  1
  Co  Co141  1  0.47211794  0.86464417  -0.01187532  1
  Co  Co142  1  0.41302277  0.66830611  0.70323539  1
  Co  Co143  1  0.83892382  0.60891025  0.12258235  1
  Co  Co144  1  0.82321082  0.70507312  0.36786539  1
  Co  Co145  1  0.33594649  0.53027574  0.76577089  1
  Co  Co146  1  -0.02048908  0.85442962  0.79615992  1
  Co  Co147  1  0.66034366  0.10758250  0.78462789  1
  Co  Co148  1  0.54902944  0.86488743  0.41298688  1
  Co  Co149  1  0.12520735  -0.01162359  0.79422406  1
  Co  Co150  1  0.82087481  0.44402663  0.68517641  1
  Co  Co151  1  0.06148994  0.22619091  0.19385400  1
  Co  Co152  1  0.09159014  0.78007133  0.02438575  1
  Co  Co153  1  0.79114907  0.76255805  0.04251780  1
  Co  Co154  1  -0.07167994  0.09322589  0.63045323  1
  Co  Co155  1  0.59084397  0.81543251  0.88415937  1
  Co  Co156  1  0.62950554  0.78760978  0.54564941  1
  Co  Co157  1  0.04468988  0.54147537  0.25737219  1
  Co  Co158  1  0.20063337  0.19324346  0.76992711  1
  Co  Co159  1  0.86087409  0.14148485  0.31917714  1
  Co  Co160  1  0.80691509  0.02163287  0.73487336  1
  Co  Co161  1  0.89642128  0.33364000  0.77514491  1
  Ni  Ni162  1  0.74230179  0.34560634  0.18381802  1
  Ni  Ni163  1  0.71087975  0.31260465  0.64067969  1
  Ni  Ni164  1  0.06184874  0.36622666  0.10172880  1
  Ni  Ni165  1  -0.07286661  0.27601877  0.08217621  1
  Ni  Ni166  1  0.44899503  -0.00288362  0.26988625  1
  Ni  Ni167  1  0.51852626  0.46468007  0.55480052  1
  Ni  Ni168  1  0.60619787  0.43423931  0.22962016  1
  Ni  Ni169  1  0.68521901  0.19143713  0.12659497  1
  Ni  Ni170  1  0.70079432  0.04110213  0.05212642  1
  Ni  Ni171  1  0.35795855  0.08227682  0.10405453  1
  Ni  Ni172  1  0.40957621  0.26913545  0.57920356  1
  Ni  Ni173  1  0.62021532  0.57624707  0.45658797  1
  Ni  Ni174  1  0.31456937  0.37592755  0.00636757  1
  Ni  Ni175  1  0.44180765  0.39199267  0.13237943  1
  Ni  Ni176  1  -0.07126258  0.62377865  -0.02136306  1
  Ni  Ni177  1  0.47330784  0.44404368  -0.01734980  1
  Ni  Ni178  1  0.13927978  0.63951981  0.51979157  1
  Ni  Ni179  1  0.44683394  -0.04474845  0.51573456  1
  Ni  Ni180  1  0.21769754  -0.08044577  0.43044189  1
  Ni  Ni181  1  0.97280126  0.69551722  0.50310539  1
  Ni  Ni182  1  -0.02199537  0.76835301  0.64622910  1
  Ni  Ni183  1  0.40665020  0.37622196  0.45336520  1
  Ni  Ni184  1  0.33284451  0.15767832  0.88880189  1
  Ni  Ni185  1  0.00942820  0.53521484  0.53927540  1
  Ni  Ni186  1  0.03693464  0.23503592  0.55625971  1
  Ni  Ni187  1  0.30616800  0.29279534  0.33559347  1
  Ni  Ni188  1  0.46672697  0.10869183  -0.01974460  1
  Ni  Ni189  1  0.15645236  0.44405544  0.00448804  1
  Ni  Ni190  1  -0.03599648  0.38231000  0.58981058  1
  Ni  Ni191  1  0.55978319  0.66347454  0.80743318  1
  Ni  Ni192  1  0.23975258  -0.03246986  0.06600121  1
  Ni  Ni193  1  0.65674720  0.42910207  0.75404287  1
  Ni  Ni194  1  0.61342086  0.68367183  0.19760493  1
  Ni  Ni195  1  0.48507644  0.25459735  0.89503722  1
  Ni  Ni196  1  0.54277612  0.58270957  0.30596447  1
  Ni  Ni197  1  0.04473511  0.81538940  0.21272183  1
  Ni  Ni198  1  0.60908353  0.10589684  0.27591416  1
  Ni  Ni199  1  0.55279799  0.15479199  0.66578742  1
  Ni  Ni200  1  0.34936315  0.04490532  0.41113629  1
  Ni  Ni201  1  0.51200609  0.80626623  0.72149525  1
  Ni  Ni202  1  0.86370368  0.48986684  0.28077339  1
  Ni  Ni203  1  0.28969558  0.19329652  0.45801838  1
  Ni  Ni204  1  -0.05124793  0.58713819  0.38797178  1
  Ni  Ni205  1  0.33608291  0.79918332  0.23394035  1
  Ni  Ni206  1  0.73043789  0.89976470  0.13415574  1
  Ni  Ni207  1  0.12473075  -0.03882900  0.20326880  1
  Ni  Ni208  1  0.67063508  0.64191377  0.05095718  1
  Ni  Ni209  1  0.11170757  0.39952137  0.84402686  1
  Ni  Ni210  1  0.62209008  0.35335782  -0.10188403  1
  Ni  Ni211  1  0.15657720  0.52424547  0.74961040  1
  Ni  Ni212  1  0.80877794  0.38461385  0.51652310  1
  Ni  Ni213  1  0.27019049  0.52627725  0.47572747  1
  Ni  Ni214  1  0.28524341  0.89111973  0.78500238  1
