# generated using pymatgen
data_Ti108Co54Ni53
_symmetry_space_group_name_H-M   'P 1'
_cell_length_a   14.61744202
_cell_length_b   14.55668999
_cell_length_c   14.54561933
_cell_angle_alpha   89.79107337
_cell_angle_beta   90.05261993
_cell_angle_gamma   90.13463304
_symmetry_Int_Tables_number   1
_chemical_formula_structural   Ti108Co54Ni53
_chemical_formula_sum   'Ti108 Co54 Ni53'
_cell_volume   3095.00934363
_cell_formula_units_Z   1
loop_
 _symmetry_equiv_pos_site_id
 _symmetry_equiv_pos_as_xyz
  1  'x, y, z'
loop_
 _atom_site_type_symbol
 _atom_site_label
 _atom_site_symmetry_multiplicity
 _atom_site_fract_x
 _atom_site_fract_y
 _atom_site_fract_z
 _atom_site_occupancy
  Ti  Ti0  1  0.10921250  0.16800922  0.16367002  1
  Ti  Ti1  1  0.04830860  0.08334885  0.56575493  1
  Ti  Ti2  1  0.07006183  0.10982210  0.95435939  1
  Ti  Ti3  1  0.01276159  0.40316076  0.19806402  1
  Ti  Ti4  1  0.03954604  0.47675944  0.57381335  1
  Ti  Ti5  1  0.16724919  0.34692306  0.86972970  1
  Ti  Ti6  1  0.07779106  0.78029274  0.19954132  1
  Ti  Ti7  1  0.11271206  0.77698087  0.51033745  1
  Ti  Ti8  1  0.08307243  0.74682288  0.90783221  1
  Ti  Ti9  1  0.41380229  0.07887498  0.27527557  1
  Ti  Ti10  1  0.46921652  0.05317408  0.56490573  1
  Ti  Ti11  1  0.44677818  0.12122356  0.83979202  1
  Ti  Ti12  1  0.39536189  0.50170876  0.17356211  1
  Ti  Ti13  1  0.47076857  0.41136403  0.56229825  1
  Ti  Ti14  1  0.38401763  0.44240680  0.85087574  1
  Ti  Ti15  1  0.33359167  0.68654486  0.20715695  1
  Ti  Ti16  1  0.40431756  0.82546326  0.62414400  1
  Ti  Ti17  1  0.43934837  0.72438450  0.94048413  1
  Ti  Ti18  1  0.77014699  0.18078586  0.28791642  1
  Ti  Ti19  1  0.74815835  0.11924285  0.61366017  1
  Ti  Ti20  1  0.74820081  0.00356402  0.94704317  1
  Ti  Ti21  1  0.69336834  0.37433860  0.20670817  1
  Ti  Ti22  1  0.72605251  0.41581346  0.55686542  1
  Ti  Ti23  1  0.67479853  0.40239636  0.99135054  1
  Ti  Ti24  1  0.78272152  0.81101566  0.26448751  1
  Ti  Ti25  1  0.79137905  0.76114821  0.58181251  1
  Ti  Ti26  1  0.75097251  0.70733077  0.93461229  1
  Ti  Ti27  1  0.07204311  0.28924008  0.02587830  1
  Ti  Ti28  1  0.04068862  0.26426007  0.47474924  1
  Ti  Ti29  1  0.01760515  0.22946858  0.79355656  1
  Ti  Ti30  1  0.08447353  0.57064993  0.12611340  1
  Ti  Ti31  1  0.11613868  0.55942538  0.41029565  1
  Ti  Ti32  1  0.04969465  0.61309038  0.74168122  1
  Ti  Ti33  1  0.08409156  0.97267586  0.14198667  1
  Ti  Ti34  1  -0.00195810  0.90525240  0.32694314  1
  Ti  Ti35  1  0.09630406  0.90374814  0.81491120  1
  Ti  Ti36  1  0.41519318  0.26140346  0.09512809  1
  Ti  Ti37  1  0.41608383  0.33822163  0.37536419  1
  Ti  Ti38  1  0.44645303  0.30328259  0.73797405  1
  Ti  Ti39  1  0.49251674  0.54170316  -0.01846080  1
  Ti  Ti40  1  0.42874925  0.55017772  0.44292200  1
  Ti  Ti41  1  0.39877675  0.59466302  0.66634341  1
  Ti  Ti42  1  0.43101144  0.97206821  0.09296768  1
  Ti  Ti43  1  0.43113274  0.86092424  0.42416899  1
  Ti  Ti44  1  0.40459305  0.88660676  0.81375647  1
  Ti  Ti45  1  0.76450422  0.24401311  0.10029537  1
  Ti  Ti46  1  0.72517760  0.26473192  0.44478787  1
  Ti  Ti47  1  0.81239183  0.17876943  0.80068340  1
  Ti  Ti48  1  0.70248292  0.58069665  0.10642397  1
  Ti  Ti49  1  0.74946788  0.60401183  0.35970792  1
  Ti  Ti50  1  0.74568801  0.57249747  0.77856765  1
  Ti  Ti51  1  0.70699918  0.93103572  0.13628908  1
  Ti  Ti52  1  0.72332699  0.94323126  0.50509706  1
  Ti  Ti53  1  0.70833908  0.87231409  0.71278114  1
  Ti  Ti54  1  0.23262153  0.04573418  0.04688247  1
  Ti  Ti55  1  0.19885893  0.07435602  0.39582761  1
  Ti  Ti56  1  0.28336166  0.03006180  0.74992230  1
  Ti  Ti57  1  0.28427567  0.39187442  0.03969599  1
  Ti  Ti58  1  0.19029999  0.35751366  0.35991773  1
  Ti  Ti59  1  0.23915479  0.51378100  0.75037993  1
  Ti  Ti60  1  0.20839725  0.72293392  0.07717232  1
  Ti  Ti61  1  0.24865514  0.78980794  0.33893923  1
  Ti  Ti62  1  0.26653612  0.76540389  0.76409513  1
  Ti  Ti63  1  0.61467543  0.12138467  0.02505362  1
  Ti  Ti64  1  0.57342497  0.04978392  0.39400995  1
  Ti  Ti65  1  0.63837113  0.12090104  0.79435260  1
  Ti  Ti66  1  0.54824687  0.43687712  0.13472525  1
  Ti  Ti67  1  0.61676887  0.47370885  0.42197690  1
  Ti  Ti68  1  0.70059933  0.37637090  0.79421670  1
  Ti  Ti69  1  0.54333237  0.80617730  0.13078155  1
  Ti  Ti70  1  0.57376172  0.68535367  0.41760483  1
  Ti  Ti71  1  0.59569494  0.76841801  0.83949609  1
  Ti  Ti72  1  0.91919558  0.10209045  0.16563353  1
  Ti  Ti73  1  0.92611355  0.07417391  0.39326075  1
  Ti  Ti74  1  0.95267341  0.03203055  0.72800838  1
  Ti  Ti75  1  0.87296302  0.40516745  0.04272490  1
  Ti  Ti76  1  0.89238341  0.49911621  0.44502344  1
  Ti  Ti77  1  0.98375323  0.43319904  0.76248807  1
  Ti  Ti78  1  0.87983323  0.70568097  0.08402253  1
  Ti  Ti79  1  0.91223015  0.74447324  0.38066438  1
  Ti  Ti80  1  0.92163219  0.77772287  0.74779802  1
  Ti  Ti81  1  0.28007732  0.21803515  0.24885002  1
  Ti  Ti82  1  0.25006196  0.29340837  0.61111210  1
  Ti  Ti83  1  0.26232838  0.17400373  0.89395206  1
  Ti  Ti84  1  0.28685448  0.53457847  0.33038108  1
  Ti  Ti85  1  0.24507246  0.53136838  0.56055047  1
  Ti  Ti86  1  0.22174763  0.55156000  0.95924970  1
  Ti  Ti87  1  0.27118126  0.89715742  0.17605290  1
  Ti  Ti88  1  0.18922581  0.90408429  0.63218806  1
  Ti  Ti89  1  0.27665672  0.87626153  0.95391187  1
  Ti  Ti90  1  0.58873720  0.18151833  0.22432092  1
  Ti  Ti91  1  0.61253795  0.28225346  0.64500060  1
  Ti  Ti92  1  0.55326061  0.26947170  0.90286813  1
  Ti  Ti93  1  0.51436882  0.62970123  0.26206266  1
  Ti  Ti94  1  0.58004632  0.58151754  0.59296700  1
  Ti  Ti95  1  0.54425545  0.58629849  0.80290515  1
  Ti  Ti96  1  0.59730161  0.86036709  0.32369589  1
  Ti  Ti97  1  0.59250457  0.77873354  0.56893006  1
  Ti  Ti98  1  0.58193354  0.95465388  0.85927629  1
  Ti  Ti99  1  0.94073668  0.26318916  0.31689827  1
  Ti  Ti100  1  0.91519383  0.33455418  0.60943178  1
  Ti  Ti101  1  0.90300808  0.24534838  0.94881717  1
  Ti  Ti102  1  0.97478293  0.59387084  0.28129053  1
  Ti  Ti103  1  0.90055292  0.59745754  0.63725000  1
  Ti  Ti104  1  0.98873387  0.56107925  0.95183343  1
  Ti  Ti105  1  0.91040270  0.88907198  0.15292651  1
  Ti  Ti106  1  0.94770428  0.89876513  0.51160020  1
  Ti  Ti107  1  0.90944509  0.91488478  0.88795105  1
  Co  Co108  1  -0.00836390  0.38394699  -0.08349729  1
  Co  Co109  1  0.34678911  0.42628673  0.66421467  1
  Co  Co110  1  -0.12086474  0.19158420  0.48904850  1
  Co  Co111  1  0.47292893  0.38460577  -0.00135611  1
  Co  Co112  1  0.55795982  -0.07703297  0.51498760  1
  Co  Co113  1  0.10633359  0.49577180  0.85652227  1
  Co  Co114  1  0.76121877  0.41791734  0.36278363  1
  Co  Co115  1  0.87974012  0.04291173  0.55252765  1
  Co  Co116  1  0.47097992  0.88126897  -0.03664851  1
  Co  Co117  1  0.51168210  0.20398502  0.37187896  1
  Co  Co118  1  0.14184803  0.87262376  0.02952460  1
  Co  Co119  1  0.27665069  0.72114506  0.92960900  1
  Co  Co120  1  0.81659403  0.85598163  0.02064550  1
  Co  Co121  1  0.42187188  0.83157345  0.25332969  1
  Co  Co122  1  0.88072251  0.34374351  0.44971801  1
  Co  Co123  1  0.39500239  0.69877345  0.36481180  1
  Co  Co124  1  0.66155985  0.54695998  0.91964039  1
  Co  Co125  1  0.75210593  0.09038928  0.43563179  1
  Co  Co126  1  0.10842064  0.76342573  0.71234125  1
  Co  Co127  1  0.37404859  0.79151115  0.08271044  1
  Co  Co128  1  0.23957556  0.52394586  0.14155044  1
  Co  Co129  1  0.83932453  0.64997788  0.48714662  1
  Co  Co130  1  -0.01158318  0.85311334  0.01822465  1
  Co  Co131  1  0.34709402  0.17330866  0.70777502  1
  Co  Co132  1  0.75059011  0.85817657  0.86618359  1
  Co  Co133  1  0.03476611  0.70619853  0.05595555  1
  Co  Co134  1  0.17059735  0.64870829  0.25323597  1
  Co  Co135  1  0.36320816  0.60394867  0.84773852  1
  Co  Co136  1  0.55601820  0.42622652  0.85752444  1
  Co  Co137  1  0.65304993  0.52663540  0.25478319  1
  Co  Co138  1  0.13656785  0.48437294  0.26409540  1
  Co  Co139  1  -0.02948889  0.74389576  0.59467462  1
  Co  Co140  1  0.35360381  0.01636592  -0.07777936  1
  Co  Co141  1  0.58762127  -0.03506539  0.03422008  1
  Co  Co142  1  0.56989945  0.31668766  0.48409827  1
  Co  Co143  1  0.65820793  0.70630980  0.25963053  1
  Co  Co144  1  0.22562240  0.05564479  0.23235782  1
  Co  Co145  1  0.83186247  0.90767782  0.39438956  1
  Co  Co146  1  0.34122569  0.11487295  0.13281815  1
  Co  Co147  1  0.47770184  0.30857684  0.23037146  1
  Co  Co148  1  0.54328907  0.86314256  0.70409701  1
  Co  Co149  1  0.72885486  0.08942316  0.15428604  1
  Co  Co150  1  0.86162749  0.33794559  0.81140274  1
  Co  Co151  1  0.11249775  0.44393199  0.02695365  1
  Co  Co152  1  0.14988264  0.39088614  0.51336438  1
  Co  Co153  1  0.82315983  0.65117162  0.22521381  1
  Co  Co154  1  0.07865614  0.73240192  0.35709859  1
  Co  Co155  1  0.28224076  0.31625180  0.77134477  1
  Co  Co156  1  0.58943597  0.27774838  0.07607488  1
  Co  Co157  1  0.02886958  0.41623783  0.37855674  1
  Co  Co158  1  0.14320647  0.41185333  0.68982583  1
  Co  Co159  1  0.52103182  0.15736226  0.68429528  1
  Co  Co160  1  0.61277062  0.32654232  0.32713350  1
  Co  Co161  1  -0.00523966  0.63527330  0.47296776  1
  Ni  Ni162  1  0.11376183  0.21017289  0.32657851  1
  Ni  Ni163  1  0.62214868  0.01121183  0.65728287  1
  Ni  Ni164  1  0.15864707  0.92544787  0.30981585  1
  Ni  Ni165  1  0.27948625  0.83270469  0.50242512  1
  Ni  Ni166  1  0.85677378  0.91249435  0.65305794  1
  Ni  Ni167  1  0.84317374  -0.00271687  0.26005118  1
  Ni  Ni168  1  0.33609996  -0.03123639  0.60415327  1
  Ni  Ni169  1  0.69324016  0.00230401  0.30020325  1
  Ni  Ni170  1  -0.06050940  0.25980386  0.13004830  1
  Ni  Ni171  1  -0.08753354  0.74565971  0.91992212  1
  Ni  Ni172  1  0.17584194  0.18247294  0.74672967  1
  Ni  Ni173  1  0.44978103  0.72559551  0.75897504  1
  Ni  Ni174  1  0.30852254  0.37973666  0.22525800  1
  Ni  Ni175  1  0.78357013  0.00794762  0.77780221  1
  Ni  Ni176  1  0.72314126  0.77365205  0.42306227  1
  Ni  Ni177  1  0.55921382  0.00821469  0.20141166  1
  Ni  Ni178  1  0.11256309  0.63410989  0.59226131  1
  Ni  Ni179  1  0.82289120  0.45170514  0.68988671  1
  Ni  Ni180  1  0.18129611  0.64521484  0.82795669  1
  Ni  Ni181  1  0.48505212  0.65105843  0.10654109  1
  Ni  Ni182  1  0.34510633  0.61268170  0.04052647  1
  Ni  Ni183  1  0.55321558  0.45011321  0.69897213  1
  Ni  Ni184  1  0.82092198  0.55599859  -0.02720629  1
  Ni  Ni185  1  0.44743340  0.12578972  0.00633325  1
  Ni  Ni186  1  0.11088455  -0.05248692  0.47397317  1
  Ni  Ni187  1  0.59787882  0.68206010  -0.00554192  1
  Ni  Ni188  1  0.50385061  0.46082480  0.30356606  1
  Ni  Ni189  1  0.74185541  0.57670181  0.59406777  1
  Ni  Ni190  1  0.85138077  0.36539388  0.21955174  1
  Ni  Ni191  1  0.32069122  -0.04539862  0.33684298  1
  Ni  Ni192  1  -0.09413301  0.54293454  0.12674885  1
  Ni  Ni193  1  0.31386705  0.40700179  0.48563966  1
  Ni  Ni194  1  0.77739217  0.27980892  0.67084260  1
  Ni  Ni195  1  0.46747120  0.00751131  0.72439304  1
  Ni  Ni196  1  0.18790821  0.01597426  0.88407465  1
  Ni  Ni197  1  -0.07954828  0.08564965  0.88467102  1
  Ni  Ni198  1  0.16424472  0.33907952  0.16585118  1
  Ni  Ni199  1  0.05979720  0.05985251  0.28859493  1
  Ni  Ni200  1  0.92144167  0.17498366  0.64924046  1
  Ni  Ni201  1  0.43544495  0.69638364  0.52572532  1
  Ni  Ni202  1  0.26174776  0.70249800  0.61125743  1
  Ni  Ni203  1  0.07667508  0.27008094  0.63820733  1
  Ni  Ni204  1  -0.04762511  0.01059317  0.02889195  1
  Ni  Ni205  1  0.89794689  0.61847104  0.81972544  1
  Ni  Ni206  1  0.71184772  0.75230953  0.10723272  1
  Ni  Ni207  1  0.23206018  0.22815567  0.05566553  1
  Ni  Ni208  1  0.82671582  0.11829480  0.01968879  1
  Ni  Ni209  1  0.66620817  0.69689506  0.69922573  1
  Ni  Ni210  1  0.38213943  0.27864682  -0.08781895  1
  Ni  Ni211  1  0.24945106  0.66457639  0.44936505  1
  Ni  Ni212  1  0.02647717  -0.10227298  0.65526757  1
  Ni  Ni213  1  0.71888301  0.23680797  0.93203810  1
  Ni  Ni214  1  0.60468438  0.15638698  0.52301569  1
