# generated using pymatgen
data_Ti108Co54Ni53
_symmetry_space_group_name_H-M   'P 1'
_cell_length_a   14.62856890
_cell_length_b   14.66366748
_cell_length_c   14.63275830
_cell_angle_alpha   90.25130934
_cell_angle_beta   90.18681595
_cell_angle_gamma   90.10045871
_symmetry_Int_Tables_number   1
_chemical_formula_structural   Ti108Co54Ni53
_chemical_formula_sum   'Ti108 Co54 Ni53'
_cell_volume   3138.79881347
_cell_formula_units_Z   1
loop_
 _symmetry_equiv_pos_site_id
 _symmetry_equiv_pos_as_xyz
  1  'x, y, z'
loop_
 _atom_site_type_symbol
 _atom_site_label
 _atom_site_symmetry_multiplicity
 _atom_site_fract_x
 _atom_site_fract_y
 _atom_site_fract_z
 _atom_site_occupancy
  Ti  Ti0  1  0.03704274  0.09369112  0.23762577  1
  Ti  Ti1  1  0.08624290  0.14666655  0.57018109  1
  Ti  Ti2  1  0.04085029  0.07033490  0.94838420  1
  Ti  Ti3  1  0.07495678  0.40365414  0.22597368  1
  Ti  Ti4  1  0.04399991  0.43042648  0.59250905  1
  Ti  Ti5  1  0.11560069  0.38146386  0.90440609  1
  Ti  Ti6  1  0.12101273  0.72321457  0.26468766  1
  Ti  Ti7  1  0.15537068  0.66013572  0.61376594  1
  Ti  Ti8  1  0.07831552  0.69839263  0.91193812  1
  Ti  Ti9  1  0.37305217  0.12269280  0.23423125  1
  Ti  Ti10  1  0.40459803  0.05156469  0.59237706  1
  Ti  Ti11  1  0.40499286  0.00896861  0.93102656  1
  Ti  Ti12  1  0.47504046  0.43961098  0.24323476  1
  Ti  Ti13  1  0.49278684  0.42003729  0.63774985  1
  Ti  Ti14  1  0.39767829  0.37670677  1.06647436  1
  Ti  Ti15  1  0.43786750  0.77891138  0.26809372  1
  Ti  Ti16  1  0.44916334  0.71939948  0.59055792  1
  Ti  Ti17  1  0.42116991  0.71477863  0.96102678  1
  Ti  Ti18  1  0.68502494  0.06547360  0.29420739  1
  Ti  Ti19  1  0.77442458  0.08661565  0.57692334  1
  Ti  Ti20  1  0.69794461  0.03368096  0.89566803  1
  Ti  Ti21  1  0.69417307  0.40836775  0.31052872  1
  Ti  Ti22  1  0.77057404  0.54712655  0.54346158  1
  Ti  Ti23  1  0.75868527  0.46960330  0.95305356  1
  Ti  Ti24  1  0.80818931  0.80816677  0.20130411  1
  Ti  Ti25  1  0.79193460  0.74448127  0.56631560  1
  Ti  Ti26  1  0.75380192  0.78008455  0.76969507  1
  Ti  Ti27  1  0.10528102  0.22437795  0.11033269  1
  Ti  Ti28  1  0.17096912  0.28609476  0.43349272  1
  Ti  Ti29  1  0.08626618  0.21856753  0.78392778  1
  Ti  Ti30  1  0.04916249  0.55278540  0.04064141  1
  Ti  Ti31  1  0.07280179  0.61263778  0.45375682  1
  Ti  Ti32  1  0.05668874  0.53104772  0.77705265  1
  Ti  Ti33  1  0.11457790  0.89510930  0.05472030  1
  Ti  Ti34  1  0.07002626  0.84209206  0.43007632  1
  Ti  Ti35  1  0.06023153  0.88987928  0.82174843  1
  Ti  Ti36  1  0.43818327  0.16334175  0.05893660  1
  Ti  Ti37  1  0.39521263  0.27746706  0.35765047  1
  Ti  Ti38  1  0.42464645  0.24150218  0.71112289  1
  Ti  Ti39  1  0.37179452  0.60319308  0.13385422  1
  Ti  Ti40  1  0.37481895  0.59240809  0.34355363  1
  Ti  Ti41  1  0.38581260  0.71905335  0.77243930  1
  Ti  Ti42  1  0.42116625  0.95728924  0.13572275  1
  Ti  Ti43  1  0.38358701  0.89946069  0.42315417  1
  Ti  Ti44  1  0.36506739  0.91717239  0.73610504  1
  Ti  Ti45  1  0.74800310  0.27384496  0.04794995  1
  Ti  Ti46  1  0.77059639  0.19804320  0.40156876  1
  Ti  Ti47  1  0.77048258  0.19812266  0.77479414  1
  Ti  Ti48  1  0.73653713  0.63933975  0.06547306  1
  Ti  Ti49  1  0.77093500  0.68443273  0.36966629  1
  Ti  Ti50  1  0.70810281  0.58532788  0.71420196  1
  Ti  Ti51  1  0.76908346  0.93059591  0.04744048  1
  Ti  Ti52  1  0.68605159  0.92071254  0.46261590  1
  Ti  Ti53  1  0.81550148  0.97964380  0.74057925  1
  Ti  Ti54  1  0.24475955  0.08823704  0.05139233  1
  Ti  Ti55  1  0.23420122  0.05572336  0.44178546  1
  Ti  Ti56  1  0.22650029  0.06995588  0.66338666  1
  Ti  Ti57  1  0.22219960  0.48068620  0.06825365  1
  Ti  Ti58  1  0.31001964  0.42959171  0.49793727  1
  Ti  Ti59  1  0.25282979  0.42529451  0.77722459  1
  Ti  Ti60  1  0.23078110  0.69959167  0.06147252  1
  Ti  Ti61  1  0.27270697  0.72697943  0.45167043  1
  Ti  Ti62  1  0.20201109  0.76901506  0.77379720  1
  Ti  Ti63  1  0.67650146  0.10096030  0.08318690  1
  Ti  Ti64  1  0.49285594  0.00071386  0.31752745  1
  Ti  Ti65  1  0.52177616  0.06456653  0.79110073  1
  Ti  Ti66  1  0.60916456  0.42313310  0.09830488  1
  Ti  Ti67  1  0.53522436  0.40819610  0.43980882  1
  Ti  Ti68  1  0.52087755  0.45152934  0.90820451  1
  Ti  Ti69  1  0.53833464  0.74621429  0.10581845  1
  Ti  Ti70  1  0.59955572  0.70454825  0.41860978  1
  Ti  Ti71  1  0.57617748  0.71997563  0.77304115  1
  Ti  Ti72  1  0.88241504  0.10258785  0.08197848  1
  Ti  Ti73  1  0.94987711  0.11366246  0.43262497  1
  Ti  Ti74  1  0.97808084  0.05324368  0.73651428  1
  Ti  Ti75  1  0.90056544  0.39776742  0.08406647  1
  Ti  Ti76  1  0.98878594  0.42305407  0.40504277  1
  Ti  Ti77  1  0.93116122  0.36104953  0.77190939  1
  Ti  Ti78  1  0.91807537  0.73052929  0.05362628  1
  Ti  Ti79  1  0.94405295  0.71806301  0.32627071  1
  Ti  Ti80  1  0.93564515  0.82237468  0.69383709  1
  Ti  Ti81  1  0.21230769  0.20318202  0.26691732  1
  Ti  Ti82  1  0.30094638  0.21514498  0.55628953  1
  Ti  Ti83  1  0.29440779  0.20279315  0.89099734  1
  Ti  Ti84  1  0.20387188  0.53753274  0.32076084  1
  Ti  Ti85  1  0.33730515  0.56463939  0.65519516  1
  Ti  Ti86  1  0.34383851  0.52815479  0.92463551  1
  Ti  Ti87  1  0.24002166  0.86851990  0.20577715  1
  Ti  Ti88  1  0.22707942  0.89944711  0.55610349  1
  Ti  Ti89  1  0.22795972  0.97187187  0.88712103  1
  Ti  Ti90  1  0.62076078  0.25455307  0.22567211  1
  Ti  Ti91  1  0.51268427  0.18912822  0.49786688  1
  Ti  Ti92  1  0.49593349  0.25295099  0.90474533  1
  Ti  Ti93  1  0.66257060  0.58003091  0.24539595  1
  Ti  Ti94  1  0.58435911  0.57254520  0.55288876  1
  Ti  Ti95  1  0.60253142  0.63816743  0.94470094  1
  Ti  Ti96  1  0.61978022  0.91106119  0.19316238  1
  Ti  Ti97  1  0.58671689  0.96781717  0.62519926  1
  Ti  Ti98  1  0.61923406  0.84320868  0.93304632  1
  Ti  Ti99  1  0.87963307  0.30610147  0.31105646  1
  Ti  Ti100  1  0.87661668  0.29639722  0.54803606  1
  Ti  Ti101  1  0.95803705  0.25531062  0.96726241  1
  Ti  Ti102  1  0.88411138  0.50401257  0.23888202  1
  Ti  Ti103  1  0.96015940  0.61586736  0.62154476  1
  Ti  Ti104  1  0.90653308  0.59752458  0.89337411  1
  Ti  Ti105  1  0.93005943  0.93871066  0.30391814  1
  Ti  Ti106  1  0.92134207  0.94191749  0.54134958  1
  Ti  Ti107  1  0.93761241  0.90192568  0.97037932  1
  Co  Co108  1  0.10446047  0.37318293  0.73628522  1
  Co  Co109  1  0.79521780  0.89695775  -0.12254902  1
  Co  Co110  1  0.10589015  0.13840292  0.39547654  1
  Co  Co111  1  0.17521276  0.31933687  0.59591817  1
  Co  Co112  1  0.77844361  0.34574229  0.18872115  1
  Co  Co113  1  0.28578481  0.76759573  0.63112612  1
  Co  Co114  1  0.73480310  -0.11141764  0.31483653  1
  Co  Co115  1  0.02063026  0.27351305  0.63932161  1
  Co  Co116  1  0.20510706  0.60309136  0.76113045  1
  Co  Co117  1  0.31643068  0.47689779  0.20983959  1
  Co  Co118  1  0.81764387  0.64676004  0.20393469  1
  Co  Co119  1  0.75238590  0.48876772  0.13051078  1
  Co  Co120  1  0.07370725  -0.00217150  0.48168193  1
  Co  Co121  1  0.28024490  0.69635897  0.24183359  1
  Co  Co122  1  0.76785659  0.18366223  0.20212738  1
  Co  Co123  1  0.48988463  -0.11672520  0.83913690  1
  Co  Co124  1  0.42623634  0.31643758  0.53099521  1
  Co  Co125  1  0.40306247  0.88393410  0.57843379  1
  Co  Co126  1  0.01129944  0.26750855  0.46287655  1
  Co  Co127  1  0.15253581  0.58629945  0.17193190  1
  Co  Co128  1  0.24595864  0.57961392  0.48909665  1
  Co  Co129  1  0.50424118  0.58569322  0.69120491  1
  Co  Co130  1  0.80749408  0.16356573  -0.05201244  1
  Co  Co131  1  0.32670983  0.36981045  0.65004131  1
  Co  Co132  1  0.06966874  -0.02249746  0.63921530  1
  Co  Co133  1  0.68725851  0.79521764  0.08298278  1
  Co  Co134  1  0.43855646  0.73576942  0.42606765  1
  Co  Co135  1  0.64446536  0.74437773  0.24529855  1
  Co  Co136  1  0.45673515  0.86979396  0.00008034  1
  Co  Co137  1  0.21430621  0.35645452  0.17051723  1
  Co  Co138  1  0.47366550  0.59746473  0.84867753  1
  Co  Co139  1  0.77245256  0.37455234  0.45214612  1
  Co  Co140  1  -0.10020773  0.46704150  0.53364142  1
  Co  Co141  1  0.58652363  -0.04447772  0.04562800  1
  Co  Co142  1  0.68198657  0.06834535  0.72307780  1
  Co  Co143  1  0.33769951  0.83965210  0.88781501  1
  Co  Co144  1  0.36627861  0.35688452  0.89615082  1
  Co  Co145  1  0.19579883  -0.08095792  0.71690213  1
  Co  Co146  1  0.41617260  0.45834512  0.77145004  1
  Co  Co147  1  0.03953901  0.70482959  0.75367783  1
  Co  Co148  1  0.14964576  0.44946182  0.45311912  1
  Co  Co149  1  0.88579390  0.56071607  0.05902158  1
  Co  Co150  1  0.51535126  -0.00222237  0.47917483  1
  Co  Co151  1  0.11134083  -0.02343965  0.32688095  1
  Co  Co152  1  -0.07652615  0.18920895  0.82739754  1
  Co  Co153  1  0.19015259  0.49138980  0.62688780  1
  Co  Co154  1  0.67863975  0.53662637  0.41306620  1
  Co  Co155  1  0.18544326  0.81453336  -0.06040246  1
  Co  Co156  1  0.83193950  0.50346877  0.38124609  1
  Co  Co157  1  0.08321060  0.73634412  0.08725194  1
  Co  Co158  1  0.63901742  0.71625580  0.61195748  1
  Co  Co159  1  0.51494114  0.83832160  0.68719861  1
  Co  Co160  1  0.81844973  0.32270615  0.89817645  1
  Co  Co161  1  0.88287738  0.12212931  0.28365426  1
  Ni  Ni162  1  0.50518416  0.55420169  0.05120543  1
  Ni  Ni163  1  0.09169775  0.81548613  0.62784905  1
  Ni  Ni164  1  0.65523733  0.19582956  0.90008762  1
  Ni  Ni165  1  -0.07641462  0.77239795  0.86146978  1
  Ni  Ni166  1  0.90231290  0.62586857  0.46444782  1
  Ni  Ni167  1  0.65105218  0.09512454  0.46414176  1
  Ni  Ni168  1  0.51032479  0.62548309  0.21951184  1
  Ni  Ni169  1  0.80987024  0.01934709  0.40349272  1
  Ni  Ni170  1  0.62801684  0.27461421  0.40310042  1
  Ni  Ni171  1  -0.01557176  0.64057483  0.17731626  1
  Ni  Ni172  1  0.24932410  0.23770893  0.72763165  1
  Ni  Ni173  1  0.39091429  0.10273639  0.41472251  1
  Ni  Ni174  1  0.42408260  0.56702308  0.50366989  1
  Ni  Ni175  1  0.52961350  0.55322759  0.36630626  1
  Ni  Ni176  1  -0.03398063  0.76209957  0.52811078  1
  Ni  Ni177  1  0.18192766  0.02437428  0.18112046  1
  Ni  Ni178  1  0.78102744  0.75712919  -0.04945699  1
  Ni  Ni179  1  0.03723374  0.25217708  0.29436660  1
  Ni  Ni180  1  0.75043901  0.89573103  0.61980499  1
  Ni  Ni181  1  0.55981202  0.13511386  0.64164236  1
  Ni  Ni182  1  0.74474333  0.61983123  0.86699028  1
  Ni  Ni183  1  0.88224179  0.03733676  0.88944328  1
  Ni  Ni184  1  0.07158860  0.37446490  0.05740796  1
  Ni  Ni185  1  0.52819514  0.16269819  0.32832463  1
  Ni  Ni186  1  -0.05333115  0.43385973  0.92892990  1
  Ni  Ni187  1  0.54808478  0.09164185  -0.03817484  1
  Ni  Ni188  1  0.80575613  -0.00067933  0.19810215  1
  Ni  Ni189  1  0.45967677  0.27026566  0.19230189  1
  Ni  Ni190  1  0.86673397  0.66240227  0.74495287  1
  Ni  Ni191  1  0.89582068  0.17354623  0.66151151  1
  Ni  Ni192  1  0.03767673  0.55582006  0.30324856  1
  Ni  Ni193  1  0.30234890  -0.00691427  0.30062899  1
  Ni  Ni194  1  0.53829795  0.08663822  0.17526289  1
  Ni  Ni195  1  0.22339982  0.85942650  0.36843161  1
  Ni  Ni196  1  0.64563734  0.91164640  0.77729248  1
  Ni  Ni197  1  0.28751096  -0.08552440  0.03946412  1
  Ni  Ni198  1  0.16898995  0.54426355  -0.08796484  1
  Ni  Ni199  1  -0.00354358  -0.01237014  0.11641609  1
  Ni  Ni200  1  0.56710535  0.85591699  0.35220123  1
  Ni  Ni201  1  0.64087734  0.34819211  -0.05441118  1
  Ni  Ni202  1  0.24259030  0.32346456  0.00397659  1
  Ni  Ni203  1  -0.01063015  0.82578676  0.18866537  1
  Ni  Ni204  1  0.87164340  0.50247112  0.70492803  1
  Ni  Ni205  1  0.85728056  0.83748220  0.42031435  1
  Ni  Ni206  1  0.36568505  0.78811209  0.11687432  1
  Ni  Ni207  1  0.30136113  0.23086690  0.12323559  1
  Ni  Ni208  1  0.26618702  0.38012012  0.33052456  1
  Ni  Ni209  1  -0.06855448  0.24578144  0.15596800  1
  Ni  Ni210  1  0.35268971  0.09652950  0.77238282  1
  Ni  Ni211  1  0.13741680  0.20454795  -0.05058488  1
  Ni  Ni212  1  0.26836197  0.67587131  -0.10283356  1
  Ni  Ni213  1  0.13279834  0.05872899  0.79490674  1
  Ni  Ni214  1  0.54653972  0.83552389  0.51556557  1
