# generated using pymatgen
data_Ti108Co54Ni53
_symmetry_space_group_name_H-M   'P 1'
_cell_length_a   14.55813057
_cell_length_b   14.60806130
_cell_length_c   14.54719719
_cell_angle_alpha   90.23335912
_cell_angle_beta   90.23707214
_cell_angle_gamma   89.94812874
_symmetry_Int_Tables_number   1
_chemical_formula_structural   Ti108Co54Ni53
_chemical_formula_sum   'Ti108 Co54 Ni53'
_cell_volume   3093.64180328
_cell_formula_units_Z   1
loop_
 _symmetry_equiv_pos_site_id
 _symmetry_equiv_pos_as_xyz
  1  'x, y, z'
loop_
 _atom_site_type_symbol
 _atom_site_label
 _atom_site_symmetry_multiplicity
 _atom_site_fract_x
 _atom_site_fract_y
 _atom_site_fract_z
 _atom_site_occupancy
  Ti  Ti0  1  0.10990790  0.10191630  0.32558973  1
  Ti  Ti1  1  0.13994533  0.10999905  0.54519697  1
  Ti  Ti2  1  0.15496638  0.07761955  0.90246548  1
  Ti  Ti3  1  0.01073947  0.45437056  0.32019743  1
  Ti  Ti4  1  0.09926678  0.41391095  0.51057437  1
  Ti  Ti5  1  0.15704285  0.35073804  0.88883246  1
  Ti  Ti6  1  0.03599455  0.78471130  0.31098219  1
  Ti  Ti7  1  0.12704737  0.76332110  0.60027836  1
  Ti  Ti8  1  0.01504795  0.68235878  0.93761517  1
  Ti  Ti9  1  0.48941247  0.13767480  0.22427670  1
  Ti  Ti10  1  0.37013681  0.07490601  0.56065152  1
  Ti  Ti11  1  0.39958280  0.02792382  0.93252554  1
  Ti  Ti12  1  0.45532314  0.43277102  0.25937921  1
  Ti  Ti13  1  0.44269420  0.44548124  0.54673704  1
  Ti  Ti14  1  0.38769464  0.36242022  0.90928549  1
  Ti  Ti15  1  0.37622880  0.78345483  0.24805197  1
  Ti  Ti16  1  0.34083902  0.76055736  0.59094580  1
  Ti  Ti17  1  0.42595998  0.67997337  0.94251812  1
  Ti  Ti18  1  0.82297411  0.08172133  0.28140608  1
  Ti  Ti19  1  0.76674749  0.08080988  0.53425439  1
  Ti  Ti20  1  0.75826641  0.09240127  0.99095192  1
  Ti  Ti21  1  0.76123739  0.44845747  0.33057150  1
  Ti  Ti22  1  0.68628542  0.43080352  0.63983660  1
  Ti  Ti23  1  0.75096828  0.36027765  0.92319373  1
  Ti  Ti24  1  0.72039027  0.78684426  0.35204199  1
  Ti  Ti25  1  0.65552252  0.74795466  0.61027859  1
  Ti  Ti26  1  0.81384256  0.69230265  0.89487599  1
  Ti  Ti27  1  0.06793261  0.21698782  0.02545522  1
  Ti  Ti28  1  0.06203019  0.26836822  0.37188072  1
  Ti  Ti29  1  0.10743586  0.26936740  0.70439824  1
  Ti  Ti30  1  0.09660626  0.56598564  0.12074459  1
  Ti  Ti31  1  0.05646863  0.62755404  0.46329736  1
  Ti  Ti32  1  0.07196174  0.54983070  0.79606112  1
  Ti  Ti33  1  0.11803128  0.93543541  0.06776039  1
  Ti  Ti34  1  0.07497264  0.93972759  0.43297703  1
  Ti  Ti35  1  0.11835444  0.89942896  0.77904049  1
  Ti  Ti36  1  0.37117526  0.25413732  0.09455120  1
  Ti  Ti37  1  0.38808818  0.32468054  0.40330361  1
  Ti  Ti38  1  0.41589067  0.25624990  0.67001957  1
  Ti  Ti39  1  0.41806023  0.57394590  0.11176142  1
  Ti  Ti40  1  0.40212983  0.62467999  0.45858312  1
  Ti  Ti41  1  0.41947205  0.56113479  0.79494403  1
  Ti  Ti42  1  0.46031048  0.89363081  0.08875498  1
  Ti  Ti43  1  0.37780318  0.95019229  0.39772736  1
  Ti  Ti44  1  0.35594421  0.89667395  0.80717113  1
  Ti  Ti45  1  0.84155639  0.19898725  0.13174099  1
  Ti  Ti46  1  0.75784758  0.24987825  0.39075529  1
  Ti  Ti47  1  0.71125033  0.29674650  0.75344022  1
  Ti  Ti48  1  0.74782974  0.63815667  0.08291186  1
  Ti  Ti49  1  0.67790150  0.61454841  0.41030463  1
  Ti  Ti50  1  0.73079968  0.61501382  0.72300141  1
  Ti  Ti51  1  0.73791229  0.96299050  0.13570120  1
  Ti  Ti52  1  0.69895637  0.96896370  0.37291869  1
  Ti  Ti53  1  0.74939235  0.84220142  0.77171378  1
  Ti  Ti54  1  0.28436290  0.01237085  0.06832954  1
  Ti  Ti55  1  0.33823046  0.12728366  0.34566632  1
  Ti  Ti56  1  0.31923794  0.09286586  0.76144945  1
  Ti  Ti57  1  0.24932754  0.43063681  0.04907864  1
  Ti  Ti58  1  0.21834790  0.38644009  0.33435863  1
  Ti  Ti59  1  0.25630356  0.44901216  0.76729808  1
  Ti  Ti60  1  0.13112953  0.75050065  0.10071218  1
  Ti  Ti61  1  0.22312826  0.80140100  0.39946542  1
  Ti  Ti62  1  0.23822571  0.64930394  0.73660164  1
  Ti  Ti63  1  0.57808389  0.07290582  0.01876341  1
  Ti  Ti64  1  0.55583703  0.02842142  0.48716018  1
  Ti  Ti65  1  0.65637259  0.10304122  0.77137313  1
  Ti  Ti66  1  0.59440734  0.43172372  0.06272631  1
  Ti  Ti67  1  0.60611019  0.39799751  0.45455512  1
  Ti  Ti68  1  0.54864419  0.39207145  0.82806024  1
  Ti  Ti69  1  0.59609297  0.75494121  0.01849437  1
  Ti  Ti70  1  0.53040999  0.72858342  0.36385837  1
  Ti  Ti71  1  0.51305196  0.83740677  0.71942714  1
  Ti  Ti72  1  0.97625679  0.06694141  0.02868609  1
  Ti  Ti73  1  0.94392871  0.13228633  0.44109754  1
  Ti  Ti74  1  0.89655911  0.08523688  0.80827098  1
  Ti  Ti75  1  0.85318546  0.38218429  0.06988667  1
  Ti  Ti76  1  0.91602251  0.34797552  0.44155572  1
  Ti  Ti77  1  0.86521657  0.42726942  0.77131202  1
  Ti  Ti78  1  0.89943451  0.79900156  0.06127206  1
  Ti  Ti79  1  0.88615548  0.69339488  0.37488447  1
  Ti  Ti80  1  0.96066976  0.72819752  0.73883649  1
  Ti  Ti81  1  0.18725006  0.24353125  0.19874421  1
  Ti  Ti82  1  0.27456377  0.35646191  0.58910644  1
  Ti  Ti83  1  0.28082654  0.21277939  0.92101158  1
  Ti  Ti84  1  0.28945933  0.59846929  0.30553474  1
  Ti  Ti85  1  0.23886148  0.54795855  0.57804871  1
  Ti  Ti86  1  0.20715006  0.65218612  0.94342714  1
  Ti  Ti87  1  0.22841191  0.97620966  0.25984435  1
  Ti  Ti88  1  0.24507005  0.92534905  0.55339965  1
  Ti  Ti89  1  0.30615302  0.82153671  0.99550859  1
  Ti  Ti90  1  0.56684570  0.26677826  0.32871888  1
  Ti  Ti91  1  0.62895527  0.21359354  0.59483585  1
  Ti  Ti92  1  0.59666920  0.24500318  0.93695096  1
  Ti  Ti93  1  0.60485543  0.58446394  0.22256278  1
  Ti  Ti94  1  0.56504284  0.58141795  0.57158803  1
  Ti  Ti95  1  0.61399916  0.58674718  0.88707660  1
  Ti  Ti96  1  0.59914920  0.84111279  0.21430184  1
  Ti  Ti97  1  0.62992551  0.96263970  0.64734230  1
  Ti  Ti98  1  0.59676630  0.93221198  0.87544409  1
  Ti  Ti99  1  1.00440961  0.30026069  0.18491248  1
  Ti  Ti100  1  0.84353421  0.27380205  0.59796280  1
  Ti  Ti101  1  0.96512980  0.32132938  0.90898710  1
  Ti  Ti102  1  0.88071231  0.55432860  0.21645543  1
  Ti  Ti103  1  0.89698684  0.62873016  0.58331104  1
  Ti  Ti104  1  0.94228511  0.50454780  0.94562474  1
  Ti  Ti105  1  0.85677877  0.87399141  0.26589025  1
  Ti  Ti106  1  0.78007066  0.88401724  0.54364970  1
  Ti  Ti107  1  0.85660117  0.93277063  0.94476699  1
  Co  Co108  1  0.47716224  0.14843196  0.41370215  1
  Co  Co109  1  0.57314425  0.59698245  0.04788321  1
  Co  Co110  1  0.78119640  0.72216837  0.50450398  1
  Co  Co111  1  0.61979002  -0.08498057  0.03862145  1
  Co  Co112  1  0.22287962  0.22776683  0.36895864  1
  Co  Co113  1  0.38776002  0.60035711  0.63750474  1
  Co  Co114  1  0.61453634  0.41526062  0.26766713  1
  Co  Co115  1  0.24838406  0.18693676  0.64528865  1
  Co  Co116  1  0.35059597  0.28138368  0.25194145  1
  Co  Co117  1  0.42493980  0.40436133  0.09144445  1
  Co  Co118  1  0.74167246  0.78991528  0.15364739  1
  Co  Co119  1  0.13076873  0.45114774  0.66849433  1
  Co  Co120  1  0.57379470  0.00252660  0.17926138  1
  Co  Co121  1  0.01322381  0.23685927  0.54591760  1
  Co  Co122  1  0.01310942  0.61201746  0.29667175  1
  Co  Co123  1  0.78596703  0.15044592  0.68621766  1
  Co  Co124  1  0.54887431  0.35788443  0.64532866  1
  Co  Co125  1  0.44382664  0.61309169  0.27422089  1
  Co  Co126  1  0.86269667  -0.00307081  0.42059151  1
  Co  Co127  1  0.28855353  0.86659292  0.14300547  1
  Co  Co128  1  0.41895875  0.20748598  0.83423883  1
  Co  Co129  1  0.63872625  0.16161162  0.44337478  1
  Co  Co130  1  0.40221545  -0.02583015  0.22844822  1
  Co  Co131  1  0.50825912  0.71489433  0.16208319  1
  Co  Co132  1  0.12607572  0.07655579  0.15762506  1
  Co  Co133  1  0.71728330  0.28506097  0.23474071  1
  Co  Co134  1  0.47397415  0.83554614  -0.08480813  1
  Co  Co135  1  -0.04050343  0.49047702  0.50720642  1
  Co  Co136  1  0.88849814  0.84694649  0.42706562  1
  Co  Co137  1  0.81966520  0.75364508  0.66282009  1
  Co  Co138  1  0.40546800  0.42723152  0.70171147  1
  Co  Co139  1  0.70344570  0.47284951  0.80981295  1
  Co  Co140  1  0.75970586  0.18936977  0.86267004  1
  Co  Co141  1  0.85023069  0.55078728  0.41531491  1
  Co  Co142  1  0.39274224  0.79574163  0.42922372  1
  Co  Co143  1  0.49981180  0.27407551  0.51057069  1
  Co  Co144  1  0.03419084  0.39518820  0.78641499  1
  Co  Co145  1  0.77565120  0.52467781  -0.04094334  1
  Co  Co146  1  0.45572913  0.18466566  -0.01666375  1
  Co  Co147  1  0.89964249  0.72200353  0.20341800  1
  Co  Co148  1  0.03217156  0.17381248  0.85563339  1
  Co  Co149  1  0.21042740  0.00731801  0.68842842  1
  Co  Co150  1  0.24378638  0.83018585  0.69636091  1
  Co  Co151  1  0.02774539  0.78999115  0.47874313  1
  Co  Co152  1  0.10831328  0.73182671  0.79053319  1
  Co  Co153  1  0.43534987  0.06539435  0.09334275  1
  Co  Co154  1  0.37860331  0.95236529  0.66460025  1
  Co  Co155  1  0.27999436  0.28738661  0.77270909  1
  Co  Co156  1  -0.02056756  0.46024882  0.13333459  1
  Co  Co157  1  0.16691994  0.26567262  0.51244343  1
  Co  Co158  1  0.23015135  0.03399709  0.43127056  1
  Co  Co159  1  -0.13466744  0.37466835  0.23449988  1
  Co  Co160  1  0.23406717  -0.05487697  0.90871987  1
  Co  Co161  1  0.75219620  0.64290137  0.26195215  1
  Ni  Ni162  1  0.55579152  0.23249481  0.76020316  1
  Ni  Ni163  1  0.30882803  0.12337533  0.18832485  1
  Ni  Ni164  1  0.29860219  0.52166001  0.91392310  1
  Ni  Ni165  1  0.73716502  0.56456779  0.54954682  1
  Ni  Ni166  1  0.30131660  0.46515062  0.20002949  1
  Ni  Ni167  1  0.74947639  -0.00357616  0.83764292  1
  Ni  Ni168  1  0.21569322  0.16224232  0.05618571  1
  Ni  Ni169  1  0.28532403  0.67112054  0.09455303  1
  Ni  Ni170  1  0.89114617  0.58782849  0.79166646  1
  Ni  Ni171  1  0.11862237  0.82216283  -0.05994448  1
  Ni  Ni172  1  0.56052624  0.51228911  0.71890200  1
  Ni  Ni173  1  -0.01895695  0.12618491  0.21003307  1
  Ni  Ni174  1  0.07381083  0.61107156  0.64152400  1
  Ni  Ni175  1  0.52813422  0.91349217  0.34800095  1
  Ni  Ni176  1  0.53058625  0.53364332  0.38946651  1
  Ni  Ni177  1  0.54690785  0.29172342  0.15404518  1
  Ni  Ni178  1  -0.02190233  0.37145108  0.63283460  1
  Ni  Ni179  1  -0.01171783  -0.01895949  0.29637358  1
  Ni  Ni180  1  0.13543599  0.41395462  0.18912352  1
  Ni  Ni181  1  0.76883122  0.39824311  0.49449013  1
  Ni  Ni182  1  0.61517498  0.85201445  0.48129813  1
  Ni  Ni183  1  0.46683436  -0.10308565  0.54589386  1
  Ni  Ni184  1  0.89036588  0.19116560  -0.03924019  1
  Ni  Ni185  1  0.80182208  -0.01235135  0.68237266  1
  Ni  Ni186  1  0.11989109  0.51320827  -0.04742025  1
  Ni  Ni187  1  0.49731710  0.06085146  0.81074988  1
  Ni  Ni188  1  0.62643269  0.75521199  0.84605498  1
  Ni  Ni189  1  0.01877539  -0.02225381  -0.10498492  1
  Ni  Ni190  1  0.00856559  0.86429422  0.16980443  1
  Ni  Ni191  1  0.73318457  0.45927506  0.15509258  1
  Ni  Ni192  1  0.89174597  0.25283988  0.77052481  1
  Ni  Ni193  1  0.89810986  -0.00819299  0.14627072  1
  Ni  Ni194  1  -0.03846725  0.82542992  0.87230576  1
  Ni  Ni195  1  0.38743928  0.72888331  0.76358333  1
  Ni  Ni196  1  0.64827487  0.10588645  0.29355865  1
  Ni  Ni197  1  0.74029748  0.81870067  -0.02727279  1
  Ni  Ni198  1  0.49863371  0.73437301  0.55297537  1
  Ni  Ni199  1  -0.08448895  0.62049213  0.06016601  1
  Ni  Ni200  1  0.89876013  0.23310214  0.30356262  1
  Ni  Ni201  1  0.07907889  0.37949489  0.03730154  1
  Ni  Ni202  1  0.15574818  0.53544890  0.38119982  1
  Ni  Ni203  1  0.32517292  0.21464870  0.50272420  1
  Ni  Ni204  1  0.24998546  0.77978069  0.84772849  1
  Ni  Ni205  1  0.67506627  0.14473345  0.14064857  1
  Ni  Ni206  1  0.70016639  0.28840095  0.07035649  1
  Ni  Ni207  1  0.30728443  0.47935154  0.44051789  1
  Ni  Ni208  1  0.22893588  0.66265343  0.47029280  1
  Ni  Ni209  1  0.50912993  0.09439025  0.65403016  1
  Ni  Ni210  1  0.46907123  0.50378309  -0.04396245  1
  Ni  Ni211  1  0.84832959  0.47028543  0.62010099  1
  Ni  Ni212  1  0.17571789  0.82676271  0.24141157  1
  Ni  Ni213  1  0.15450480  0.66571568  0.25116074  1
  Ni  Ni214  1  0.54100544  0.67182815  0.72721220  1
