# generated using pymatgen
data_Ti108Co54Ni53
_symmetry_space_group_name_H-M   'P 1'
_cell_length_a   14.46123253
_cell_length_b   14.52947753
_cell_length_c   14.61210188
_cell_angle_alpha   89.90181230
_cell_angle_beta   89.87264789
_cell_angle_gamma   89.75205861
_symmetry_Int_Tables_number   1
_chemical_formula_structural   Ti108Co54Ni53
_chemical_formula_sum   'Ti108 Co54 Ni53'
_cell_volume   3070.16862473
_cell_formula_units_Z   1
loop_
 _symmetry_equiv_pos_site_id
 _symmetry_equiv_pos_as_xyz
  1  'x, y, z'
loop_
 _atom_site_type_symbol
 _atom_site_label
 _atom_site_symmetry_multiplicity
 _atom_site_fract_x
 _atom_site_fract_y
 _atom_site_fract_z
 _atom_site_occupancy
  Ti  Ti0  1  0.19513892  0.06995995  0.27355657  1
  Ti  Ti1  1  0.10906233  0.14348424  0.57307659  1
  Ti  Ti2  1  0.04734404  0.05997951  0.87561785  1
  Ti  Ti3  1  0.13174548  0.45560167  0.27178433  1
  Ti  Ti4  1  0.11868755  0.48097569  0.59823668  1
  Ti  Ti5  1  0.15327408  0.41727416  0.94572199  1
  Ti  Ti6  1  0.02449349  0.72502142  0.18744092  1
  Ti  Ti7  1  0.07110859  0.73910278  0.60354922  1
  Ti  Ti8  1  0.09614247  0.75610977  0.91711101  1
  Ti  Ti9  1  0.39779057  0.01446685  0.21131355  1
  Ti  Ti10  1  0.42003183  0.02165474  0.55570938  1
  Ti  Ti11  1  0.37946875  0.04719048  0.85784684  1
  Ti  Ti12  1  0.40584056  0.34880606  0.18875538  1
  Ti  Ti13  1  0.43482575  0.36143019  0.59949884  1
  Ti  Ti14  1  0.52750888  0.42744176  0.90727146  1
  Ti  Ti15  1  0.43040114  0.80973126  0.23280675  1
  Ti  Ti16  1  0.38150626  0.69958475  0.57480612  1
  Ti  Ti17  1  0.43657012  0.71955553  0.87748914  1
  Ti  Ti18  1  0.73177166  0.13505764  0.28617413  1
  Ti  Ti19  1  0.75404899  -0.01881237  0.59046554  1
  Ti  Ti20  1  0.68833491  0.04591847  0.93490982  1
  Ti  Ti21  1  0.78598205  0.47351536  0.30738638  1
  Ti  Ti22  1  0.76329578  0.41518201  0.61703610  1
  Ti  Ti23  1  0.75557587  0.40106211  0.88612033  1
  Ti  Ti24  1  0.74045904  0.80656600  0.28240421  1
  Ti  Ti25  1  0.71498558  0.75624692  0.58417748  1
  Ti  Ti26  1  0.76812725  0.82443004  0.91585307  1
  Ti  Ti27  1  0.03452535  0.24826393  0.05217978  1
  Ti  Ti28  1  0.04427921  0.27493081  0.37542544  1
  Ti  Ti29  1  0.11985280  0.30515213  0.71487839  1
  Ti  Ti30  1  0.06675377  0.57207022  0.05345026  1
  Ti  Ti31  1  0.11774371  0.58716053  0.40928103  1
  Ti  Ti32  1  0.03007740  0.59324859  0.85913014  1
  Ti  Ti33  1  0.02000901  0.88078228  0.09765383  1
  Ti  Ti34  1  0.14382147  0.91164199  0.41180246  1
  Ti  Ti35  1  0.10782262  0.90491251  0.74925433  1
  Ti  Ti36  1  0.47158702  0.21460460  0.06390408  1
  Ti  Ti37  1  0.35709673  0.28070976  0.35522662  1
  Ti  Ti38  1  0.47490060  0.21123560  0.79569851  1
  Ti  Ti39  1  0.37061805  0.46633862  0.03746979  1
  Ti  Ti40  1  0.47834344  0.58041570  0.43247857  1
  Ti  Ti41  1  0.43173403  0.53525471  0.74475965  1
  Ti  Ti42  1  0.35922421  1.00833877  0.03450513  1
  Ti  Ti43  1  0.45313057  0.93089777  0.40019341  1
  Ti  Ti44  1  0.42673835  0.89895532  0.72092399  1
  Ti  Ti45  1  0.74052610  0.30443554  0.12999775  1
  Ti  Ti46  1  0.68943479  0.27203952  0.42335909  1
  Ti  Ti47  1  0.74452998  0.25467095  0.74828716  1
  Ti  Ti48  1  0.74629550  0.50365746  0.10440900  1
  Ti  Ti49  1  0.72353213  0.59252539  0.46986472  1
  Ti  Ti50  1  0.76621533  0.64047889  0.83291125  1
  Ti  Ti51  1  0.72393822  0.98861215  0.14509257  1
  Ti  Ti52  1  0.82843687  0.92979768  0.42384270  1
  Ti  Ti53  1  0.83451506  0.89644220  0.74608127  1
  Ti  Ti54  1  0.20287270  0.11981286  0.06954596  1
  Ti  Ti55  1  0.24707671  0.05970272  0.45813206  1
  Ti  Ti56  1  0.20231601  0.12420700  0.75929966  1
  Ti  Ti57  1  0.26911309  0.29103189  0.04767502  1
  Ti  Ti58  1  0.20853210  0.40451143  0.43646310  1
  Ti  Ti59  1  0.26564574  0.42992365  0.72465601  1
  Ti  Ti60  1  0.19535790  0.72266999  0.08239397  1
  Ti  Ti61  1  0.26094016  0.75113985  0.42219145  1
  Ti  Ti62  1  0.27310246  0.79635145  0.77783640  1
  Ti  Ti63  1  0.55520034  0.04573492  0.08681631  1
  Ti  Ti64  1  0.52704569  0.13431687  0.42904912  1
  Ti  Ti65  1  0.58134269  0.08280704  0.65418322  1
  Ti  Ti66  1  0.53940097  0.50724453  0.11700674  1
  Ti  Ti67  1  0.54172100  0.39533663  0.33781505  1
  Ti  Ti68  1  0.58764111  0.37920819  0.73972592  1
  Ti  Ti69  1  0.56058215  0.72637858  0.05034875  1
  Ti  Ti70  1  0.58483596  0.76992002  0.38790444  1
  Ti  Ti71  1  0.52558789  0.72638378  0.69499148  1
  Ti  Ti72  1  0.92320287  0.04540196  0.13442606  1
  Ti  Ti73  1  1.00591582  0.06149301  0.38892794  1
  Ti  Ti74  1  0.87971791  0.09173631  0.76457208  1
  Ti  Ti75  1  0.92195902  0.38919421  0.15043391  1
  Ti  Ti76  1  0.87526641  0.36440423  0.46240287  1
  Ti  Ti77  1  0.89129082  0.51832532  0.73875492  1
  Ti  Ti78  1  0.82657206  0.78161951  0.09470171  1
  Ti  Ti79  1  0.96579063  0.71495840  0.44507250  1
  Ti  Ti80  1  0.88717249  0.71184975  0.69735301  1
  Ti  Ti81  1  0.17287114  0.26581602  0.22139850  1
  Ti  Ti82  1  0.25166140  0.28701525  0.56421617  1
  Ti  Ti83  1  0.27798985  0.28122467  0.86300935  1
  Ti  Ti84  1  0.30018015  0.57727936  0.20464324  1
  Ti  Ti85  1  0.30968901  0.52483750  0.56045774  1
  Ti  Ti86  1  0.24582850  0.59479467  0.87781407  1
  Ti  Ti87  1  0.19915663  0.84700740  0.23390854  1
  Ti  Ti88  1  0.24967042  0.96009494  0.63310770  1
  Ti  Ti89  1  0.18472071  0.91398779  0.96716748  1
  Ti  Ti90  1  0.51640081  0.18143659  0.25006715  1
  Ti  Ti91  1  0.61418542  0.25417282  0.60404535  1
  Ti  Ti92  1  0.63265076  0.25340232  0.95254357  1
  Ti  Ti93  1  0.59738048  0.61142823  0.27908432  1
  Ti  Ti94  1  0.61802838  0.56233052  0.64551081  1
  Ti  Ti95  1  0.63316809  0.56798611  0.95351779  1
  Ti  Ti96  1  0.59031321  0.96336608  0.27859615  1
  Ti  Ti97  1  0.61274315  0.90000635  0.67079437  1
  Ti  Ti98  1  0.51737417  0.91335225  0.93833464  1
  Ti  Ti99  1  0.93397412  0.21002041  0.22107769  1
  Ti  Ti100  1  0.93292689  0.24548339  0.64584455  1
  Ti  Ti101  1  0.98824175  0.32314193  0.87435998  1
  Ti  Ti102  1  0.87011078  0.61939450  0.18517011  1
  Ti  Ti103  1  0.93102007  0.53758231  0.55633763  1
  Ti  Ti104  1  0.87490410  0.57489762  0.99348224  1
  Ti  Ti105  1  0.94054887  0.83062152  0.31110548  1
  Ti  Ti106  1  0.93707531  1.02726696  0.57437968  1
  Ti  Ti107  1  0.95853488  0.88993138  0.91898072  1
  Co  Co108  1  0.46384179  0.57717034  -0.05630785  1
  Co  Co109  1  0.04602604  0.02879904  0.02541289  1
  Co  Co110  1  0.64424306  0.28384667  0.26752105  1
  Co  Co111  1  0.87228157  0.20228517  0.36666799  1
  Co  Co112  1  0.14291840  0.61993615  0.21847325  1
  Co  Co113  1  0.82114827  0.09120247  0.46343115  1
  Co  Co114  1  0.02915077  0.18976835  0.77263378  1
  Co  Co115  1  0.22732618  0.77987672  0.62088887  1
  Co  Co116  1  0.47591876  0.52139966  0.58299301  1
  Co  Co117  1  0.25562650  0.41126640  0.15413772  1
  Co  Co118  1  -0.00100189  0.62715554  0.31000344  1
  Co  Co119  1  -0.00637356  0.43084950  0.00633593  1
  Co  Co120  1  -0.02288865  0.40672731  0.64528848  1
  Co  Co121  1  0.27702134  0.12709267  0.60973994  1
  Co  Co122  1  0.29715297  0.42741424  0.30448818  1
  Co  Co123  1  0.39489616  0.07083316  0.70662774  1
  Co  Co124  1  0.56559907  0.33399055  0.13879010  1
  Co  Co125  1  0.90158401  0.54713647  0.40200872  1
  Co  Co126  1  0.42549984  0.31000790  -0.05961584  1
  Co  Co127  1  0.03451525  0.59573079  0.68880914  1
  Co  Co128  1  0.70089838  0.43098927  0.43668824  1
  Co  Co129  1  0.79391477  0.76756637  0.43061069  1
  Co  Co130  1  0.21523869  0.06977045  -0.08008105  1
  Co  Co131  1  0.89987212  0.71538880  0.88974840  1
  Co  Co132  1  -0.08913959  0.46932483  0.88182786  1
  Co  Co133  1  0.65135639  0.40357276  0.01891578  1
  Co  Co134  1  0.76700951  0.13124645  0.65326696  1
  Co  Co135  1  0.84235186  0.36841119  0.01030522  1
  Co  Co136  1  0.15648322  -0.02726966  0.12953285  1
  Co  Co137  1  0.42680933  0.76053969  0.42851884  1
  Co  Co138  1  0.67119761  0.12252655  0.51359755  1
  Co  Co139  1  0.85619117  0.67396429  0.54267970  1
  Co  Co140  1  0.20535479  0.58169059  0.69934294  1
  Co  Co141  1  0.35028889  0.16719502  0.96425593  1
  Co  Co142  1  0.21673393  0.53301358  0.05582418  1
  Co  Co143  1  0.46340713  0.64336542  0.15517729  1
  Co  Co144  1  0.77283649  0.59619794  0.65397656  1
  Co  Co145  1  0.30097454  0.57472931  0.39683524  1
  Co  Co146  1  0.39071739  0.42884246  0.44312164  1
  Co  Co147  1  0.60357808  0.40938572  0.55971627  1
  Co  Co148  1  0.64999005  0.45280911  0.22907950  1
  Co  Co149  1  0.66428068  -0.10383111  0.02308535  1
  Co  Co150  1  0.84306851  0.93945479  0.03416463  1
  Co  Co151  1  0.50325113  0.29710172  0.46519789  1
  Co  Co152  1  0.19988602  0.64434077  0.53288369  1
  Co  Co153  1  0.56490828  0.67776823  0.53193358  1
  Co  Co154  1  0.25577181  -0.03734189  0.79617758  1
  Co  Co155  1  0.71834637  0.02144653  0.76144079  1
  Co  Co156  1  0.67491770  0.87173655  0.46969744  1
  Co  Co157  1  0.68690857  0.01897551  0.39255370  1
  Co  Co158  1  0.26936419  0.74554330  -0.06275347  1
  Co  Co159  1  0.83669246  -0.00174551  0.88496057  1
  Co  Co160  1  0.34159170  0.66530251  0.73239587  1
  Co  Co161  1  0.57771253  -0.01094685  0.51097473  1
  Ni  Ni162  1  0.29996973  -0.06307718  0.33443260  1
  Ni  Ni163  1  0.40469324  0.78994938  0.03178523  1
  Ni  Ni164  1  -0.00527525  0.88425575  0.47274778  1
  Ni  Ni165  1  0.09563059  0.46061646  0.77670721  1
  Ni  Ni166  1  -0.04772375  0.40898485  0.31396761  1
  Ni  Ni167  1  0.31999411  0.24685614  0.71018282  1
  Ni  Ni168  1  0.00389426  0.51996011  0.19264408  1
  Ni  Ni169  1  0.69697614  0.50097965  0.77925525  1
  Ni  Ni170  1  0.49968503  -0.10351935  0.11132244  1
  Ni  Ni171  1  0.51449673  0.83527008  0.54930441  1
  Ni  Ni172  1  0.04686106  -0.04611135  0.25714836  1
  Ni  Ni173  1  0.87569102  0.84095244  0.57645967  1
  Ni  Ni174  1  0.81110996  0.31502722  0.28133597  1
  Ni  Ni175  1  0.78680567  0.64729813  0.32216408  1
  Ni  Ni176  1  0.35737485  0.88122483  0.90033751  1
  Ni  Ni177  1  0.35879299  0.18282474  0.48092656  1
  Ni  Ni178  1  0.34478413  0.86641921  0.52972275  1
  Ni  Ni179  1  0.79397720  0.24089785  0.54704989  1
  Ni  Ni180  1  0.43789395  0.51072256  0.27929782  1
  Ni  Ni181  1  0.10225742  0.39219032  0.11564267  1
  Ni  Ni182  1  0.45119458  0.19122900  0.61020463  1
  Ni  Ni183  1  0.73767386  0.67865195  0.00506226  1
  Ni  Ni184  1  0.34468357  0.63806786  0.04244240  1
  Ni  Ni185  1  0.07070503  0.11869710  0.17507843  1
  Ni  Ni186  1  0.63019192  0.16096942  0.80771419  1
  Ni  Ni187  1  -0.04015735  0.18944020  0.49572843  1
  Ni  Ni188  1  0.69634050  0.76723835  0.75186030  1
  Ni  Ni189  1  0.04469137  0.04865807  0.69891930  1
  Ni  Ni190  1  0.12903522  0.21843648  -0.08736107  1
  Ni  Ni191  1  0.07364399  0.30896766  0.54561728  1
  Ni  Ni192  1  -0.02227866  0.71616936  0.02962634  1
  Ni  Ni193  1  -0.00679522  0.79575722  0.77958221  1
  Ni  Ni194  1  0.10168791  -0.03025722  0.56300156  1
  Ni  Ni195  1  0.86566121  0.03746947  0.30020229  1
  Ni  Ni196  1  0.29361283  0.87733613  0.10549620  1
  Ni  Ni197  1  0.69452241  0.66031783  0.16388844  1
  Ni  Ni198  1  0.54173560  0.01536543  0.79776012  1
  Ni  Ni199  1  0.33552039  0.17861916  0.17756721  1
  Ni  Ni200  1  0.56773698  0.60715974  0.80865951  1
  Ni  Ni201  1  0.09992661  0.76176406  0.34145691  1
  Ni  Ni202  1  0.40888923  0.66855835  0.30598691  1
  Ni  Ni203  1  0.19902421  0.21599672  0.39844933  1
  Ni  Ni204  1  0.36073806  0.10360237  0.33782960  1
  Ni  Ni205  1  0.13300845  0.71147314  0.75922111  1
  Ni  Ni206  1  -0.14155019  0.90472660  0.19957835  1
  Ni  Ni207  1  0.64741838  0.16917330  0.13322985  1
  Ni  Ni208  1  0.52173166  0.11223572  -0.06694565  1
  Ni  Ni209  1  0.03355883  0.43809289  0.45062310  1
  Ni  Ni210  1  0.33421459  0.45040429  0.88279553  1
  Ni  Ni211  1  0.64826029  0.89739866  0.84165023  1
  Ni  Ni212  1  0.62584832  0.81939415  0.17207813  1
  Ni  Ni213  1  0.87369149  0.35426773  0.75987030  1
  Ni  Ni214  1  0.42160495  0.36502298  0.77689575  1
