# generated using pymatgen
data_Ti108Co54Ni53
_symmetry_space_group_name_H-M   'P 1'
_cell_length_a   14.65798524
_cell_length_b   14.69035423
_cell_length_c   14.62080636
_cell_angle_alpha   89.87628762
_cell_angle_beta   90.08335429
_cell_angle_gamma   89.94334744
_symmetry_Int_Tables_number   1
_chemical_formula_structural   Ti108Co54Ni53
_chemical_formula_sum   'Ti108 Co54 Ni53'
_cell_volume   3148.30056891
_cell_formula_units_Z   1
loop_
 _symmetry_equiv_pos_site_id
 _symmetry_equiv_pos_as_xyz
  1  'x, y, z'
loop_
 _atom_site_type_symbol
 _atom_site_label
 _atom_site_symmetry_multiplicity
 _atom_site_fract_x
 _atom_site_fract_y
 _atom_site_fract_z
 _atom_site_occupancy
  Ti  Ti0  1  0.05152908  0.05722185  0.26620155  1
  Ti  Ti1  1  0.03873492  0.08811589  0.65030536  1
  Ti  Ti2  1  0.13416993  0.12166609  0.98387663  1
  Ti  Ti3  1  0.06527300  0.40442786  0.29994589  1
  Ti  Ti4  1  0.08804159  0.44076407  0.60023760  1
  Ti  Ti5  1  0.01910936  0.35570051  0.87766641  1
  Ti  Ti6  1  0.11397069  0.71068616  0.26042020  1
  Ti  Ti7  1  0.15611762  0.74442135  0.59470103  1
  Ti  Ti8  1  0.02673979  0.72202237  0.93424970  1
  Ti  Ti9  1  0.36017746  0.01479919  0.22339274  1
  Ti  Ti10  1  0.46150071  0.09111686  0.56890761  1
  Ti  Ti11  1  0.51361132  0.00607408  0.93704867  1
  Ti  Ti12  1  0.46526997  0.44171710  0.16932474  1
  Ti  Ti13  1  0.47411200  0.44513741  0.51102646  1
  Ti  Ti14  1  0.47277742  0.47913170  0.89454376  1
  Ti  Ti15  1  0.51172581  0.75926656  0.27124293  1
  Ti  Ti16  1  0.45457741  0.75224916  0.53542086  1
  Ti  Ti17  1  0.34004685  0.75267784  1.00047173  1
  Ti  Ti18  1  0.84061823  0.04895116  0.28583280  1
  Ti  Ti19  1  0.67504857  0.08937061  0.58074044  1
  Ti  Ti20  1  0.67553913  0.05329427  0.80568138  1
  Ti  Ti21  1  0.77651357  0.49842219  0.29219286  1
  Ti  Ti22  1  0.66159670  0.49552598  0.60669041  1
  Ti  Ti23  1  0.69709299  0.35309020  0.87712434  1
  Ti  Ti24  1  0.71739363  0.73679335  0.22534888  1
  Ti  Ti25  1  0.65155129  0.80872424  0.59755048  1
  Ti  Ti26  1  0.78226717  0.72220780  0.84268248  1
  Ti  Ti27  1  0.08484810  0.29842784  0.04899333  1
  Ti  Ti28  1  0.07361739  0.22308557  0.38588256  1
  Ti  Ti29  1  0.13295562  0.23118011  0.76336132  1
  Ti  Ti30  1  0.13284574  0.53036741  0.14632470  1
  Ti  Ti31  1  0.01966093  0.69133175  0.43364018  1
  Ti  Ti32  1  0.04524052  0.61350655  0.70136257  1
  Ti  Ti33  1  0.05472384  0.94125492  0.06516048  1
  Ti  Ti34  1  0.09793880  0.93539759  0.42376304  1
  Ti  Ti35  1  0.10800390  0.89874993  0.75845184  1
  Ti  Ti36  1  0.42035664  0.27871001  0.05737449  1
  Ti  Ti37  1  0.39540007  0.20652474  0.37191819  1
  Ti  Ti38  1  0.43810566  0.22363069  0.78446907  1
  Ti  Ti39  1  0.38717490  0.57962480  0.05759887  1
  Ti  Ti40  1  0.40035199  0.59111710  0.27109593  1
  Ti  Ti41  1  0.39085406  0.60732874  0.75843929  1
  Ti  Ti42  1  0.45798854  0.89750301  0.09030963  1
  Ti  Ti43  1  0.34434427  0.93275901  0.45160128  1
  Ti  Ti44  1  0.40774024  0.92374788  0.77157790  1
  Ti  Ti45  1  0.77577787  0.18488349  0.12649466  1
  Ti  Ti46  1  0.76418461  0.32458309  0.39198329  1
  Ti  Ti47  1  0.71393763  0.23980641  0.70712822  1
  Ti  Ti48  1  0.72814162  0.55068707  0.00731787  1
  Ti  Ti49  1  0.80712569  0.53636454  0.48778895  1
  Ti  Ti50  1  0.74999950  0.52623929  0.80679530  1
  Ti  Ti51  1  0.76051932  0.86949142  0.06405238  1
  Ti  Ti52  1  0.77261831  0.95662615  0.44645634  1
  Ti  Ti53  1  0.81952335  0.92251178  0.84682492  1
  Ti  Ti54  1  0.32887145  0.08214177  0.03661052  1
  Ti  Ti55  1  0.23539068  0.07220468  0.36122510  1
  Ti  Ti56  1  0.23085726  0.04715966  0.78602750  1
  Ti  Ti57  1  0.27178814  0.40406762  0.02271562  1
  Ti  Ti58  1  0.28131943  0.40694667  0.45174605  1
  Ti  Ti59  1  0.24704953  0.48098119  0.83444569  1
  Ti  Ti60  1  0.17510398  0.78296590  0.08368545  1
  Ti  Ti61  1  0.32698365  0.72682875  0.39999178  1
  Ti  Ti62  1  0.20420774  0.70114087  0.78961803  1
  Ti  Ti63  1  0.62537344  0.01388408  0.10960884  1
  Ti  Ti64  1  0.60881059  0.15084151  0.39445376  1
  Ti  Ti65  1  0.57196906  -0.03910818  0.68373311  1
  Ti  Ti66  1  0.60930017  0.37450342  0.05563391  1
  Ti  Ti67  1  0.61389570  0.36613179  0.27683515  1
  Ti  Ti68  1  0.56225812  0.36674577  0.73693541  1
  Ti  Ti69  1  0.55115337  0.71816092  0.05350813  1
  Ti  Ti70  1  0.62130498  0.71088548  0.43354205  1
  Ti  Ti71  1  0.51672580  0.76642478  0.75777808  1
  Ti  Ti72  1  0.95642082  0.10893889  0.10329873  1
  Ti  Ti73  1  0.96292866  0.07017028  0.45003547  1
  Ti  Ti74  1  0.85078550  0.08608213  0.72213996  1
  Ti  Ti75  1  0.84469815  0.44260195  0.11078999  1
  Ti  Ti76  1  0.94594739  0.38502667  0.46456481  1
  Ti  Ti77  1  0.93460647  0.47085813  0.76544991  1
  Ti  Ti78  1  0.88553923  0.71202282  0.09188770  1
  Ti  Ti79  1  0.82506734  0.75975512  0.49393875  1
  Ti  Ti80  1  0.95255579  0.78424058  0.75683249  1
  Ti  Ti81  1  0.22628155  0.23712431  0.25385304  1
  Ti  Ti82  1  0.20219411  0.25818251  0.57379835  1
  Ti  Ti83  1  0.28437437  0.21302237  0.90990617  1
  Ti  Ti84  1  0.23160477  0.54059955  0.30881526  1
  Ti  Ti85  1  0.31122252  0.61133271  0.58032468  1
  Ti  Ti86  1  0.18313659  0.61339409  0.97867305  1
  Ti  Ti87  1  0.18683996  0.90513178  0.24447708  1
  Ti  Ti88  1  0.19982822  0.96384929  0.57920014  1
  Ti  Ti89  1  0.29733635  0.92388499  0.93307160  1
  Ti  Ti90  1  0.58523897  0.20853925  0.16152915  1
  Ti  Ti91  1  0.60598625  0.29786092  0.55102209  1
  Ti  Ti92  1  0.65013113  0.17057263  0.97469907  1
  Ti  Ti93  1  0.59984205  0.55732803  0.31462987  1
  Ti  Ti94  1  0.53340757  0.61951966  0.62132184  1
  Ti  Ti95  1  0.61514058  0.64064255  0.88343231  1
  Ti  Ti96  1  0.55413657  0.95254540  0.28477215  1
  Ti  Ti97  1  0.57548458  0.95098659  0.48371146  1
  Ti  Ti98  1  0.63009874  0.84364981  0.92078898  1
  Ti  Ti99  1  0.89905359  0.23253481  0.28673332  1
  Ti  Ti100  1  0.87834819  0.27016309  0.62429240  1
  Ti  Ti101  1  0.88846281  0.23949664  0.95964648  1
  Ti  Ti102  1  0.94923181  0.57560883  0.22293897  1
  Ti  Ti103  1  0.84699176  0.62223288  0.66355496  1
  Ti  Ti104  1  0.97344926  0.53650155  0.98479493  1
  Ti  Ti105  1  0.90289321  0.89217143  0.20508203  1
  Ti  Ti106  1  0.90121602  0.91996999  0.60552167  1
  Ti  Ti107  1  0.96766048  1.05844894  0.89389118  1
  Co  Co108  1  0.71904088  0.21189982  0.28027632  1
  Co  Co109  1  0.74734756  0.22290342  0.52703702  1
  Co  Co110  1  0.27082729  0.75176158  0.25447584  1
  Co  Co111  1  0.65576995  0.85131243  0.37617467  1
  Co  Co112  1  0.76348780  0.38328759  0.54286249  1
  Co  Co113  1  0.56046182  0.18044976  0.66996060  1
  Co  Co114  1  0.34040931  0.77550307  0.83615665  1
  Co  Co115  1  0.40219619  0.72587661  0.15749445  1
  Co  Co116  1  0.48076813  0.08255282  0.09401612  1
  Co  Co117  1  0.24253205  0.24532157  0.41803793  1
  Co  Co118  1  -0.09892995  -0.04928140  0.01717646  1
  Co  Co119  1  0.63558557  0.43816572  0.43599859  1
  Co  Co120  1  0.67475592  0.06575540  0.25479517  1
  Co  Co121  1  0.36783524  0.07322249  0.86448354  1
  Co  Co122  1  0.25515229  0.64030946  0.14453915  1
  Co  Co123  1  0.34274529  0.55302611  0.43268587  1
  Co  Co124  1  0.82310407  0.08832257  -0.02277555  1
  Co  Co125  1  0.29152881  0.81344806  0.54960940  1
  Co  Co126  1  0.31049189  0.86419564  0.13759027  1
  Co  Co127  1  0.77278073  0.12223101  0.40751766  1
  Co  Co128  1  0.21510437  -0.03174354  0.06778393  1
  Co  Co129  1  0.78115883  0.60297132  0.15888797  1
  Co  Co130  1  0.65578154  0.48972082  0.15922363  1
  Co  Co131  1  0.37846099  -0.13029768  0.28893710  1
  Co  Co132  1  -0.09980445  0.39360684  0.27281270  1
  Co  Co133  1  0.12263962  0.36228913  0.45565956  1
  Co  Co134  1  0.55738936  0.53335929  0.02087846  1
  Co  Co135  1  0.46207160  0.44629929  0.34643620  1
  Co  Co136  1  0.19989315  0.56664937  0.69176598  1
  Co  Co137  1  0.80952647  0.78271751  0.66809209  1
  Co  Co138  1  0.33864789  0.01387743  0.64266100  1
  Co  Co139  1  0.46836191  0.84339444  -0.07500981  1
  Co  Co140  1  0.14037163  -0.01859153  0.91064540  1
  Co  Co141  1  0.11080917  0.43577757  0.76405836  1
  Co  Co142  1  0.18185598  0.33053242  0.88773095  1
  Co  Co143  1  0.89914635  0.44563991  0.61133184  1
  Co  Co144  1  0.71936312  0.71828872  0.02326040  1
  Co  Co145  1  0.02757142  0.80456520  0.15539990  1
  Co  Co146  1  0.07940448  0.56776996  0.85349787  1
  Co  Co147  1  0.30414696  0.48305679  0.16251285  1
  Co  Co148  1  0.81144218  0.82779365  0.34388113  1
  Co  Co149  1  0.20553392  0.11697190  0.64416570  1
  Co  Co150  1  0.75079103  0.34143700  0.19449269  1
  Co  Co151  1  0.69388849  -0.00576312  -0.04065332  1
  Co  Co152  1  0.52299661  0.32362218  0.90941115  1
  Co  Co153  1  0.72927955  -0.08555822  0.23725318  1
  Co  Co154  1  0.11996884  0.45695423  -0.02666152  1
  Co  Co155  1  0.32349648  0.60599524  0.90587130  1
  Co  Co156  1  -0.03997105  -0.03619137  0.75347325  1
  Co  Co157  1  0.71421353  0.66007515  0.55347492  1
  Co  Co158  1  0.60504183  0.21038579  0.82810461  1
  Co  Co159  1  0.07697474  0.56856120  0.33199008  1
  Co  Co160  1  0.36804301  0.74513585  0.67671445  1
  Co  Co161  1  0.48354775  0.84586835  0.40822673  1
  Ni  Ni162  1  0.00658174  0.88633759  0.89835094  1
  Ni  Ni163  1  0.84792873  0.09150639  0.56105434  1
  Ni  Ni164  1  0.44453904  0.89846225  0.59936007  1
  Ni  Ni165  1  0.49941131  0.11394723  0.25873796  1
  Ni  Ni166  1  -0.03262975  0.73570593  0.59308549  1
  Ni  Ni167  1  0.12876735  0.10269995  0.49061288  1
  Ni  Ni168  1  0.84886779  0.43815402  -0.07235155  1
  Ni  Ni169  1  0.17230155  0.79265142  0.40825651  1
  Ni  Ni170  1  0.01048260  0.42042777  0.13556022  1
  Ni  Ni171  1  0.49514377  0.59662307  0.43993304  1
  Ni  Ni172  1  0.31650479  0.37741767  0.29147873  1
  Ni  Ni173  1  -0.06015082  -0.07506031  0.36957827  1
  Ni  Ni174  1  0.03611055  0.23762051  0.55529036  1
  Ni  Ni175  1  0.24072590  0.23028916  0.07709293  1
  Ni  Ni176  1  0.78571914  0.17805681  0.84620473  1
  Ni  Ni177  1  -0.02505700  0.57484085  0.54770340  1
  Ni  Ni178  1  0.76326042  0.32331010  0.02849108  1
  Ni  Ni179  1  0.47397519  0.17154377  -0.05462756  1
  Ni  Ni180  1  0.05466783  0.87967807  0.58238556  1
  Ni  Ni181  1  0.44640749  0.04494799  0.39675774  1
  Ni  Ni182  1  0.52477765  0.30579218  0.40909637  1
  Ni  Ni183  1  0.68111132  0.83510726  0.76369779  1
  Ni  Ni184  1  0.57813551  0.53435344  0.76291275  1
  Ni  Ni185  1  0.50802136  0.07427418  0.78404365  1
  Ni  Ni186  1  0.04536531  0.65677162  0.09324751  1
  Ni  Ni187  1  0.53253802  0.60669960  0.16811162  1
  Ni  Ni188  1  0.86196684  0.32086725  0.80498140  1
  Ni  Ni189  1  0.67703116  0.66645344  0.71650098  1
  Ni  Ni190  1  0.93134706  0.52861826  0.38221277  1
  Ni  Ni191  1  0.90017288  0.22290015  0.45826839  1
  Ni  Ni192  1  0.18019273  0.37057409  0.17291224  1
  Ni  Ni193  1  0.77119670  0.65778620  0.36259990  1
  Ni  Ni194  1  0.45405681  0.47517927  0.67388085  1
  Ni  Ni195  1  0.87535719  0.79859830  -0.05176418  1
  Ni  Ni196  1  0.75751853  0.40023898  0.70408512  1
  Ni  Ni197  1  0.60865710  0.84485308  0.14606424  1
  Ni  Ni198  1  0.18719695  0.63269779  0.45177914  1
  Ni  Ni199  1  0.06133900  0.22258527  0.20462416  1
  Ni  Ni200  1  -0.02835977  0.19632148  0.80088681  1
  Ni  Ni201  1  0.36375566  0.17656419  0.18301241  1
  Ni  Ni202  1  0.46475302  0.67861622  0.90693137  1
  Ni  Ni203  1  -0.07592061  0.73311401  0.27789743  1
  Ni  Ni204  1  0.17017148  0.81277307  -0.08779113  1
  Ni  Ni205  1  0.26206852  0.86631783  0.71177488  1
  Ni  Ni206  1  0.91615296  0.62321143  0.84017534  1
  Ni  Ni207  1  0.19272632  0.08779565  0.17515388  1
  Ni  Ni208  1  0.74693239  -0.04557127  0.66537451  1
  Ni  Ni209  1  0.30375455  0.11489779  0.50836929  1
  Ni  Ni210  1  0.36142772  0.35417869  -0.12310227  1
  Ni  Ni211  1  -0.07897523  0.28310002  0.12688893  1
  Ni  Ni212  1  0.46308721  0.29370989  0.24759553  1
  Ni  Ni213  1  0.80049516  0.02041781  0.12611853  1
  Ni  Ni214  1  0.01042943  0.32535986  0.69890597  1
