# generated using pymatgen
data_Ti108Co54Ni53
_symmetry_space_group_name_H-M   'P 1'
_cell_length_a   14.64807251
_cell_length_b   14.70326436
_cell_length_c   14.62009715
_cell_angle_alpha   90.09796472
_cell_angle_beta   90.12828279
_cell_angle_gamma   89.65206695
_symmetry_Int_Tables_number   1
_chemical_formula_structural   Ti108Co54Ni53
_chemical_formula_sum   'Ti108 Co54 Ni53'
_cell_volume   3148.72537754
_cell_formula_units_Z   1
loop_
 _symmetry_equiv_pos_site_id
 _symmetry_equiv_pos_as_xyz
  1  'x, y, z'
loop_
 _atom_site_type_symbol
 _atom_site_label
 _atom_site_symmetry_multiplicity
 _atom_site_fract_x
 _atom_site_fract_y
 _atom_site_fract_z
 _atom_site_occupancy
  Ti  Ti0  1  0.08802406  0.09904693  0.27495639  1
  Ti  Ti1  1  0.08571794  0.11097242  0.59832333  1
  Ti  Ti2  1  0.09433926  0.06397189  0.95204512  1
  Ti  Ti3  1  0.08643261  0.47778051  0.35239946  1
  Ti  Ti4  1  0.05414099  0.40863625  0.54881352  1
  Ti  Ti5  1  0.11783873  0.37178478  0.89953786  1
  Ti  Ti6  1  0.05877562  0.78325064  0.26756715  1
  Ti  Ti7  1  0.10765482  0.76935007  0.56547300  1
  Ti  Ti8  1  0.07159054  0.66583509  0.83508955  1
  Ti  Ti9  1  0.38784696  0.15802174  0.25704646  1
  Ti  Ti10  1  0.44539195  0.08211236  0.54456165  1
  Ti  Ti11  1  0.46790931  0.08980478  0.94850755  1
  Ti  Ti12  1  0.41397788  0.36524637  0.22206627  1
  Ti  Ti13  1  0.36555371  0.45024984  0.63487675  1
  Ti  Ti14  1  0.38002155  0.49203220  0.89790461  1
  Ti  Ti15  1  0.48667083  0.78825891  0.24709899  1
  Ti  Ti16  1  0.47364966  0.78388021  0.58301088  1
  Ti  Ti17  1  0.46012236  0.74997763  0.89264056  1
  Ti  Ti18  1  0.74847635  0.07818536  0.22740577  1
  Ti  Ti19  1  0.76803520  0.05254753  0.58610946  1
  Ti  Ti20  1  0.77874872  0.05480459  0.87905186  1
  Ti  Ti21  1  0.73839202  0.40380382  0.22631938  1
  Ti  Ti22  1  0.71051512  0.38333423  0.52367022  1
  Ti  Ti23  1  0.71180318  0.46494559  0.95767731  1
  Ti  Ti24  1  0.88145895  0.72217614  0.28068100  1
  Ti  Ti25  1  0.79924262  0.73050760  0.55678289  1
  Ti  Ti26  1  0.66892368  0.75366937  0.88321021  1
  Ti  Ti27  1  0.09737580  0.27921374  0.17971469  1
  Ti  Ti28  1  0.14648509  0.26553420  0.44820404  1
  Ti  Ti29  1  0.07528873  0.20135561  0.78083030  1
  Ti  Ti30  1  0.08632680  0.56267720  0.05109327  1
  Ti  Ti31  1  0.18197992  0.65974918  0.36818564  1
  Ti  Ti32  1  0.06322490  0.54783188  0.69402272  1
  Ti  Ti33  1  0.05704389  0.88058056  0.01083907  1
  Ti  Ti34  1  0.03145719  0.96558079  0.44915601  1
  Ti  Ti35  1  0.07313710  0.87601829  0.76525101  1
  Ti  Ti36  1  0.36183940  0.30449448  0.02730975  1
  Ti  Ti37  1  0.42466121  0.30560582  0.50793938  1
  Ti  Ti38  1  0.39682238  0.23695095  0.68522513  1
  Ti  Ti39  1  0.39911997  0.64204593  0.05592980  1
  Ti  Ti40  1  0.40610157  0.62807180  0.42502283  1
  Ti  Ti41  1  0.32342360  0.60307233  0.74916525  1
  Ti  Ti42  1  0.26321438  0.91912246  0.06850712  1
  Ti  Ti43  1  0.38739754  0.93223460  0.36794274  1
  Ti  Ti44  1  0.39013966  0.86708395  0.74846029  1
  Ti  Ti45  1  0.79815524  0.31553321  0.05227354  1
  Ti  Ti46  1  0.69692155  0.18544804  0.45381226  1
  Ti  Ti47  1  0.76860149  0.30705675  0.80974028  1
  Ti  Ti48  1  0.75052020  0.62992756  0.17195257  1
  Ti  Ti49  1  0.77451198  0.60959273  0.39915504  1
  Ti  Ti50  1  0.74443654  0.60697298  0.71505578  1
  Ti  Ti51  1  0.81014444  0.93508418  0.09865409  1
  Ti  Ti52  1  0.81061545  0.91103634  0.46600225  1
  Ti  Ti53  1  0.70682644  0.92984459  0.76513293  1
  Ti  Ti54  1  0.21919167  0.12152625  0.11319999  1
  Ti  Ti55  1  0.21210649  0.01659537  0.42081080  1
  Ti  Ti56  1  0.36423439  0.05999494  0.79393365  1
  Ti  Ti57  1  0.22492792  0.44829154  0.15099796  1
  Ti  Ti58  1  0.26361575  0.44248750  0.46516604  1
  Ti  Ti59  1  0.24477119  0.34534517  0.74195566  1
  Ti  Ti60  1  0.18977585  0.73184910  0.11355295  1
  Ti  Ti61  1  0.27982642  0.79895067  0.47683127  1
  Ti  Ti62  1  0.25599617  0.75950673  0.80928103  1
  Ti  Ti63  1  0.63870789  0.18302631  0.06312240  1
  Ti  Ti64  1  0.54768450  0.03933799  0.35013900  1
  Ti  Ti65  1  0.68181743  0.13822815  0.73888821  1
  Ti  Ti66  1  0.57502223  0.36374358  0.10002108  1
  Ti  Ti67  1  0.55398508  0.38034763  0.39296517  1
  Ti  Ti68  1  0.60900312  0.45603674  0.78080302  1
  Ti  Ti69  1  0.63935551  0.78893902  0.09739067  1
  Ti  Ti70  1  0.60732147  0.71188798  0.42910354  1
  Ti  Ti71  1  0.54432348  0.67262176  0.73379496  1
  Ti  Ti72  1  0.86411781  0.13096575  0.05544235  1
  Ti  Ti73  1  0.89171718  0.07321440  0.37892474  1
  Ti  Ti74  1  0.88825211  0.13597175  0.72186121  1
  Ti  Ti75  1  0.94839497  0.43897284  0.01817143  1
  Ti  Ti76  1  0.87233174  0.35945727  0.38138790  1
  Ti  Ti77  1  0.91700502  0.40930466  0.73299217  1
  Ti  Ti78  1  0.92526443  0.74737620  0.08316303  1
  Ti  Ti79  1  0.97444133  0.66965242  0.44080991  1
  Ti  Ti80  1  0.87421149  0.76689184  0.75480966  1
  Ti  Ti81  1  0.23062204  0.33880182  0.30040110  1
  Ti  Ti82  1  0.27202782  0.16493597  0.53551234  1
  Ti  Ti83  1  0.24185276  0.18703111  0.89556949  1
  Ti  Ti84  1  0.35438228  0.61752047  0.22937143  1
  Ti  Ti85  1  0.25056242  0.61053876  0.55228980  1
  Ti  Ti86  1  0.23824083  0.63189060  0.94445852  1
  Ti  Ti87  1  0.22394961  0.87390429  0.26362528  1
  Ti  Ti88  1  0.26047069  0.99975079  0.64380450  1
  Ti  Ti89  1  0.23190405  0.93703406  0.86974553  1
  Ti  Ti90  1  0.58585974  0.22660446  0.26681676  1
  Ti  Ti91  1  0.57834717  0.21451579  0.59085575  1
  Ti  Ti92  1  0.55581712  0.26575328  0.80931588  1
  Ti  Ti93  1  0.60112691  0.55152602  0.27347516  1
  Ti  Ti94  1  0.56980029  0.53177468  0.59108657  1
  Ti  Ti95  1  0.58394569  0.62176004  1.01434440  1
  Ti  Ti96  1  0.68041954  0.89349945  0.26902340  1
  Ti  Ti97  1  0.64333419  0.87101452  0.57434813  1
  Ti  Ti98  1  0.61447021  0.92948246  0.94960524  1
  Ti  Ti99  1  0.91731045  0.21504960  0.22801889  1
  Ti  Ti100  1  0.91044884  0.21784460  0.50626930  1
  Ti  Ti101  1  0.93736724  0.26368771  0.90380569  1
  Ti  Ti102  1  0.89543460  0.51876118  0.27400872  1
  Ti  Ti103  1  0.88957509  0.55349012  0.58519583  1
  Ti  Ti104  1  0.88764261  0.62534250  0.92835521  1
  Ti  Ti105  1  0.87799099  0.91009051  0.28987996  1
  Ti  Ti106  1  0.95363390  0.89519521  0.61347737  1
  Ti  Ti107  1  0.86061341  0.89727738  0.91778304  1
  Co  Co108  1  0.39008118  0.22300187  0.85152177  1
  Co  Co109  1  0.62036390  0.12445285  0.89737409  1
  Co  Co110  1  0.69641408  0.31234216  0.35509000  1
  Co  Co111  1  0.05095220  -0.05569719  0.29288712  1
  Co  Co112  1  0.35841617  0.08791689  0.39812175  1
  Co  Co113  1  0.21329523  0.85042294  0.67887196  1
  Co  Co114  1  0.66067585  0.72572787  0.27099472  1
  Co  Co115  1  0.47150889  0.52111951  0.73153232  1
  Co  Co116  1  0.50899672  0.18980657  0.40771088  1
  Co  Co117  1  -0.05953236  0.50105350  0.44292177  1
  Co  Co118  1  0.05463529  0.70008928  -0.00533789  1
  Co  Co119  1  0.34148881  0.78534978  0.15998725  1
  Co  Co120  1  0.11602280  -0.05672980  0.58885282  1
  Co  Co121  1  0.79852884  0.88002949  0.63729928  1
  Co  Co122  1  -0.04162599  0.82617323  0.41489481  1
  Co  Co123  1  0.78721716  0.79896210  0.18117608  1
  Co  Co124  1  0.01594422  0.02920392  0.71948002  1
  Co  Co125  1  0.61806172  0.87907321  0.40813178  1
  Co  Co126  1  0.58364204  0.54202104  0.43260733  1
  Co  Co127  1  0.19417736  0.51865281  0.81462067  1
  Co  Co128  1  0.33483954  0.75644634  0.32337926  1
  Co  Co129  1  0.53902677  -0.01120692  0.82260797  1
  Co  Co130  1  0.45674733  -0.02716529  0.66488698  1
  Co  Co131  1  0.22434890  0.17042263  0.30049443  1
  Co  Co132  1  0.35480596  0.90943123  0.55219398  1
  Co  Co133  1  0.28954569  0.35787221  -0.10879446  1
  Co  Co134  1  0.26845780  0.02460338  0.23954187  1
  Co  Co135  1  0.54195101  0.66047621  0.16818878  1
  Co  Co136  1  0.43962952  0.47915102  0.49168011  1
  Co  Co137  1  0.09732971  0.38294358  0.05830237  1
  Co  Co138  1  0.48804987  0.78721851  0.04895099  1
  Co  Co139  1  0.74995485  0.62589683  0.01289295  1
  Co  Co140  1  0.13662696  0.84364833  0.40978406  1
  Co  Co141  1  0.26628372  0.32313768  0.57205003  1
  Co  Co142  1  -0.02724061  0.87962570  0.15842462  1
  Co  Co143  1  0.72468393  0.46734247  0.37718478  1
  Co  Co144  1  0.19893466  0.47926467  0.63790310  1
  Co  Co145  1  0.46303448  0.79727718  0.42097543  1
  Co  Co146  1  0.91428347  0.37416670  0.19596792  1
  Co  Co147  1  -0.04714238  0.00046628  0.02903911  1
  Co  Co148  1  0.72820117  0.02616445  0.38261457  1
  Co  Co149  1  0.63175546  0.68919955  0.59132747  1
  Co  Co150  1  0.16923389  0.67193111  0.68997992  1
  Co  Co151  1  0.60555919  0.01218074  0.65826961  1
  Co  Co152  1  0.64845115  0.50810362  0.11261743  1
  Co  Co153  1  0.93321866  0.05575996  0.55202124  1
  Co  Co154  1  0.27995898  0.26538993  0.16308901  1
  Co  Co155  1  0.77711303  0.19836877  -0.07179597  1
  Co  Co156  1  0.80248252  0.19656769  0.33837981  1
  Co  Co157  1  -0.03464038  0.27686104  0.06758295  1
  Co  Co158  1  0.50194392  -0.06488050  0.50268292  1
  Co  Co159  1  0.77143049  0.77973226  0.38802308  1
  Co  Co160  1  0.88544747  -0.05124813  0.76625054  1
  Co  Co161  1  0.72528210  0.55902862  0.54151566  1
  Ni  Ni162  1  0.22182515  0.47383777  -0.01637344  1
  Ni  Ni163  1  0.50770666  0.12295452  0.73496720  1
  Ni  Ni164  1  0.47713951  0.22184162  0.12916716  1
  Ni  Ni165  1  0.67917556  0.59391880  0.86183819  1
  Ni  Ni166  1  0.24146967  0.17728932  0.70528754  1
  Ni  Ni167  1  0.33450702  0.25269326  0.39166972  1
  Ni  Ni168  1  0.30228511  0.05302978  -0.02611431  1
  Ni  Ni169  1  0.78306601  0.23484239  0.61454512  1
  Ni  Ni170  1  0.44441806  0.49534370  0.32630977  1
  Ni  Ni171  1  0.04639686  0.47202050  0.18932185  1
  Ni  Ni172  1  0.77810106  0.78490905  0.00523411  1
  Ni  Ni173  1  0.02424296  0.62229719  0.26306535  1
  Ni  Ni174  1  0.17262573  0.79508427  -0.05543720  1
  Ni  Ni175  1  0.81053082  0.48486377  0.09782859  1
  Ni  Ni176  1  0.61360737  0.05325031  0.50331421  1
  Ni  Ni177  1  0.03910778  0.13016036  0.10934474  1
  Ni  Ni178  1  0.17408112  0.59647629  0.20966581  1
  Ni  Ni179  1  0.93105535  0.58825013  0.11944294  1
  Ni  Ni180  1  0.65624736  0.30864336  -0.05891581  1
  Ni  Ni181  1  -0.05437695  0.08224686  0.87570678  1
  Ni  Ni182  1  0.56017347  0.84494514  0.74242564  1
  Ni  Ni183  1  0.36372392  0.47042478  0.06728142  1
  Ni  Ni184  1  0.70521451  0.76767545  0.71465864  1
  Ni  Ni185  1  0.42819164  0.37302197  0.78518525  1
  Ni  Ni186  1  0.70722387  0.04314839  0.03126801  1
  Ni  Ni187  1  0.12620210  0.26916615  0.62372955  1
  Ni  Ni188  1  0.26689572  0.50808361  0.31593025  1
  Ni  Ni189  1  0.88149140  0.38048462  0.56061178  1
  Ni  Ni190  1  0.41935031  0.61567769  0.59941530  1
  Ni  Ni191  1  0.48841482  0.50600137  0.15527710  1
  Ni  Ni192  1  -0.01274383  0.69699293  0.65336313  1
  Ni  Ni193  1  0.02762175  0.29700572  0.33570072  1
  Ni  Ni194  1  0.92945621  0.04073444  0.19671272  1
  Ni  Ni195  1  0.66416371  0.32133621  0.68392508  1
  Ni  Ni196  1  0.76513981  0.45060865  0.66976186  1
  Ni  Ni197  1  0.90670667  0.58774882  0.76343487  1
  Ni  Ni198  1  0.40105720  0.92336953  0.91510245  1
  Ni  Ni199  1  0.85750634  0.44913026  0.87861742  1
  Ni  Ni200  1  0.10202696  0.22544420  -0.01245080  1
  Ni  Ni201  1  0.73760186  0.24277633  0.19066158  1
  Ni  Ni202  1  0.11607993  -0.01981490  0.13866307  1
  Ni  Ni203  1  0.32174594  0.74076933  0.64305253  1
  Ni  Ni204  1  0.16520027  0.05799635  0.78084799  1
  Ni  Ni205  1  -0.02355273  0.79158073  0.88594318  1
  Ni  Ni206  1  -0.03277345  0.27049520  0.65978612  1
  Ni  Ni207  1  0.01760715  0.50379185  0.86131193  1
  Ni  Ni208  1  0.51000775  0.25256860  -0.03038207  1
  Ni  Ni209  1  0.08162162  0.38496848  0.73535135  1
  Ni  Ni210  1  0.04243515  0.13824809  0.43420148  1
  Ni  Ni211  1  0.51904379  0.37467766  0.63646892  1
  Ni  Ni212  1  0.32711769  0.78243796  -0.00959572  1
  Ni  Ni213  1  0.08524110  0.57433151  0.51917638  1
  Ni  Ni214  1  0.51116219  0.58656190  0.87370872  1
