# generated using pymatgen
data_Ti108Co54Ni53
_symmetry_space_group_name_H-M   'P 1'
_cell_length_a   14.65743337
_cell_length_b   14.63120752
_cell_length_c   14.66254730
_cell_angle_alpha   90.20801844
_cell_angle_beta   90.54928477
_cell_angle_gamma   89.93933859
_symmetry_Int_Tables_number   1
_chemical_formula_structural   Ti108Co54Ni53
_chemical_formula_sum   'Ti108 Co54 Ni53'
_cell_volume   3144.30362958
_cell_formula_units_Z   1
loop_
 _symmetry_equiv_pos_site_id
 _symmetry_equiv_pos_as_xyz
  1  'x, y, z'
loop_
 _atom_site_type_symbol
 _atom_site_label
 _atom_site_symmetry_multiplicity
 _atom_site_fract_x
 _atom_site_fract_y
 _atom_site_fract_z
 _atom_site_occupancy
  Ti  Ti0  1  0.09493766  0.13958685  0.29608807  1
  Ti  Ti1  1  0.18312936  0.09649121  0.61970743  1
  Ti  Ti2  1  0.13779129  0.02930568  0.97113871  1
  Ti  Ti3  1  0.05315269  0.40644500  0.31111393  1
  Ti  Ti4  1  0.05123732  0.34316177  0.63111939  1
  Ti  Ti5  1  -0.03857086  0.37079400  0.89458403  1
  Ti  Ti6  1  0.13725964  0.71955605  0.23543930  1
  Ti  Ti7  1  0.11929001  0.73112546  0.52561327  1
  Ti  Ti8  1  0.02789626  0.71977912  0.93171076  1
  Ti  Ti9  1  0.42245576  0.11023339  0.24832073  1
  Ti  Ti10  1  0.36975939  -0.00292664  0.61734492  1
  Ti  Ti11  1  0.36052174  0.15798018  0.94812297  1
  Ti  Ti12  1  0.42124997  0.44752197  0.29935398  1
  Ti  Ti13  1  0.35365289  0.43316681  0.53956145  1
  Ti  Ti14  1  0.38398838  0.38131018  0.99201635  1
  Ti  Ti15  1  0.48330049  0.77639806  0.26559756  1
  Ti  Ti16  1  0.47846989  0.78355226  0.46911629  1
  Ti  Ti17  1  0.45754352  0.82925989  0.91384964  1
  Ti  Ti18  1  0.77706150  0.05892487  0.20016832  1
  Ti  Ti19  1  0.75286133  0.10828702  0.54164168  1
  Ti  Ti20  1  0.72567824  0.09691012  0.92341586  1
  Ti  Ti21  1  0.77242012  0.40290125  0.30769571  1
  Ti  Ti22  1  0.79539930  0.41582997  0.61404344  1
  Ti  Ti23  1  0.75103079  0.31689451  0.93660542  1
  Ti  Ti24  1  0.80130038  0.73560517  0.26424697  1
  Ti  Ti25  1  0.73984998  0.74659570  0.61924318  1
  Ti  Ti26  1  0.82192888  0.76618122  0.89763493  1
  Ti  Ti27  1  0.08626605  0.30678600  0.04049095  1
  Ti  Ti28  1  0.10965516  0.26328234  0.44624504  1
  Ti  Ti29  1  0.01650353  0.18698801  0.73836722  1
  Ti  Ti30  1  0.08094755  0.58964136  0.06693423  1
  Ti  Ti31  1  0.05459713  0.59950167  0.38904231  1
  Ti  Ti32  1  0.12383235  0.57896554  0.81760005  1
  Ti  Ti33  1  0.04791736  0.87821265  0.06589134  1
  Ti  Ti34  1  0.15605901  0.94481071  0.33435692  1
  Ti  Ti35  1  0.07097403  0.97476779  0.73697579  1
  Ti  Ti36  1  0.48624608  0.25253844  0.09802026  1
  Ti  Ti37  1  0.43332442  0.25377094  0.41567986  1
  Ti  Ti38  1  0.46764183  0.21449150  0.77235012  1
  Ti  Ti39  1  0.43448077  0.56758290  0.02578204  1
  Ti  Ti40  1  0.47658352  0.60317395  0.40147696  1
  Ti  Ti41  1  0.48343033  0.54318418  0.75615842  1
  Ti  Ti42  1  0.40799216  0.85765740  0.11339346  1
  Ti  Ti43  1  0.36183720  0.93152403  0.29812513  1
  Ti  Ti44  1  0.40926619  1.01628960  0.81424631  1
  Ti  Ti45  1  0.77028660  0.20317849  0.08449355  1
  Ti  Ti46  1  0.73031119  0.20716967  0.38435724  1
  Ti  Ti47  1  0.77039079  0.22389010  0.73349649  1
  Ti  Ti48  1  0.74795393  0.58580189  0.12596999  1
  Ti  Ti49  1  0.79967959  0.63393513  0.47282424  1
  Ti  Ti50  1  0.70409515  0.54539809  0.72538252  1
  Ti  Ti51  1  0.74240090  0.88466309  0.07548281  1
  Ti  Ti52  1  0.66247108  0.87280438  0.47671320  1
  Ti  Ti53  1  0.68144860  0.87775584  0.75193839  1
  Ti  Ti54  1  0.18708584  0.15070039  0.11832202  1
  Ti  Ti55  1  0.28536440  0.07651863  0.43316978  1
  Ti  Ti56  1  0.20277641  0.12007959  0.81364041  1
  Ti  Ti57  1  0.22584515  0.45370563  0.05865547  1
  Ti  Ti58  1  0.26710525  0.35991551  0.37487046  1
  Ti  Ti59  1  0.27021258  0.43880605  0.71759991  1
  Ti  Ti60  1  0.19235151  0.75661106  0.05023650  1
  Ti  Ti61  1  0.28894936  0.77394135  0.38488376  1
  Ti  Ti62  1  0.18446647  0.79889908  0.74614994  1
  Ti  Ti63  1  0.49760632  0.05235552  0.05915425  1
  Ti  Ti64  1  0.48170310  0.05261860  0.44056315  1
  Ti  Ti65  1  0.62755385  0.07099999  0.76113734  1
  Ti  Ti66  1  0.61001113  0.47000736  0.03394263  1
  Ti  Ti67  1  0.61943335  0.34359834  0.44521919  1
  Ti  Ti68  1  0.61927844  0.36452456  0.73608052  1
  Ti  Ti69  1  0.55753056  0.72515422  0.04910315  1
  Ti  Ti70  1  0.64074840  0.71401590  0.35775304  1
  Ti  Ti71  1  0.53586286  0.75782238  0.76843117  1
  Ti  Ti72  1  0.96804006  0.12689305  0.11309560  1
  Ti  Ti73  1  0.94857751  0.09497456  0.44568241  1
  Ti  Ti74  1  0.84973462  0.04457454  0.76657121  1
  Ti  Ti75  1  0.93960319  0.45915891  0.07529833  1
  Ti  Ti76  1  0.92891728  0.31320910  0.41714680  1
  Ti  Ti77  1  0.94912249  0.48496074  0.74157963  1
  Ti  Ti78  1  0.91664979  0.76579703  0.12153187  1
  Ti  Ti79  1  0.95389668  0.77295821  0.42298005  1
  Ti  Ti80  1  0.92351136  0.67487849  0.75132860  1
  Ti  Ti81  1  0.28655959  0.32490623  0.17316474  1
  Ti  Ti82  1  0.26422049  0.25088472  0.54831273  1
  Ti  Ti83  1  0.26565629  0.30751760  0.84613627  1
  Ti  Ti84  1  0.21870394  0.52571088  0.26133235  1
  Ti  Ti85  1  0.20185539  0.56659010  0.55505399  1
  Ti  Ti86  1  0.25725418  0.59486581  0.95331438  1
  Ti  Ti87  1  0.21629006  0.91295781  0.15554837  1
  Ti  Ti88  1  0.17022528  0.91282559  0.52010222  1
  Ti  Ti89  1  0.29014211  0.89656693  0.96414472  1
  Ti  Ti90  1  0.57751566  0.32670260  0.25908769  1
  Ti  Ti91  1  0.51477000  0.28042371  0.59045783  1
  Ti  Ti92  1  0.54627583  0.31359617  0.92277344  1
  Ti  Ti93  1  0.54352915  0.58959139  0.20633861  1
  Ti  Ti94  1  0.58995356  0.50487351  0.56232507  1
  Ti  Ti95  1  0.62525996  0.62701041  0.89606148  1
  Ti  Ti96  1  0.65028604  0.90985155  0.25118065  1
  Ti  Ti97  1  0.60685983  1.00122639  0.59102636  1
  Ti  Ti98  1  0.59242354  0.95403556  0.91580566  1
  Ti  Ti99  1  0.88636030  0.22020457  0.25793056  1
  Ti  Ti100  1  0.88592642  0.24320131  0.58265006  1
  Ti  Ti101  1  0.91159821  0.17688848  0.92507019  1
  Ti  Ti102  1  0.87965595  0.56096305  0.31316811  1
  Ti  Ti103  1  0.98576284  0.57597511  0.56545827  1
  Ti  Ti104  1  0.82214900  0.56496743  0.87604539  1
  Ti  Ti105  1  0.86588457  0.91459749  0.31203790  1
  Ti  Ti106  1  0.90690129  0.90854412  0.57441669  1
  Ti  Ti107  1  0.94832134  0.92153514  0.86923664  1
  Co  Co108  1  0.80311142  -0.03806761  0.46595518  1
  Co  Co109  1  0.17555409  0.47827643  0.42258560  1
  Co  Co110  1  0.72197704  0.25332162  0.23122214  1
  Co  Co111  1  0.61976597  0.18506220  0.00828907  1
  Co  Co112  1  0.63904261  0.32058736  0.09536695  1
  Co  Co113  1  0.46548578  0.42085100  0.65875732  1
  Co  Co114  1  0.20944726  0.63943311  0.39368939  1
  Co  Co115  1  0.32971228  0.53143428  0.41195372  1
  Co  Co116  1  0.71489224  0.58736239  0.29330540  1
  Co  Co117  1  0.18620216  0.25717100  0.69891152  1
  Co  Co118  1  -0.04390988  0.04913590  0.27372993  1
  Co  Co119  1  0.35450726  0.30371394  0.67499233  1
  Co  Co120  1  0.49644025  0.09477422  0.66274511  1
  Co  Co121  1  0.29964765  0.78146824  0.21777797  1
  Co  Co122  1  0.50169857  0.48464998  -0.09743133  1
  Co  Co123  1  0.18803705  0.39158463  0.56042607  1
  Co  Co124  1  0.48098383  0.42697510  0.45797217  1
  Co  Co125  1  0.10867923  0.79243578  0.37669425  1
  Co  Co126  1  0.41719932  0.27776347  0.25311683  1
  Co  Co127  1  0.90966008  -0.05098968  0.14968136  1
  Co  Co128  1  0.33417026  0.48636750  0.87222760  1
  Co  Co129  1  0.81370729  0.07601791  0.35750159  1
  Co  Co130  1  0.49960043  -0.03284691  0.21313264  1
  Co  Co131  1  0.58213344  0.80766742  0.61436039  1
  Co  Co132  1  -0.01930821  0.01463880  0.00256615  1
  Co  Co133  1  0.90216368  0.08496249  0.62201607  1
  Co  Co134  1  0.88558480  0.87663839  0.00574620  1
  Co  Co135  1  0.69439940  0.27639219  0.59123056  1
  Co  Co136  1  -0.01534217  0.55300851  0.90256123  1
  Co  Co137  1  0.52492517  0.11468178  0.89934556  1
  Co  Co138  1  0.35346979  0.63267691  0.28774574  1
  Co  Co139  1  -0.08567459  0.28984082  0.04967716  1
  Co  Co140  1  0.10649748  0.42109202  0.15822700  1
  Co  Co141  1  -0.02241858  0.70698891  0.27475519  1
  Co  Co142  1  0.01111370  0.93891123  0.41554586  1
  Co  Co143  1  0.48362298  -0.08312523  0.54492860  1
  Co  Co144  1  0.25402339  0.26757192  0.00706294  1
  Co  Co145  1  0.64326415  0.21974271  0.83459086  1
  Co  Co146  1  0.59488145  0.64767099  0.67192154  1
  Co  Co147  1  0.72884599  0.70188680  0.77681095  1
  Co  Co148  1  0.49671221  0.41500119  0.13870468  1
  Co  Co149  1  0.78268303  0.34410952  0.47166235  1
  Co  Co150  1  0.41781813  0.68068272  0.15068243  1
  Co  Co151  1  0.51015513  0.92716141  0.72640111  1
  Co  Co152  1  0.33996650  0.92117756  0.45797636  1
  Co  Co153  1  0.03998118  0.00526730  0.58018718  1
  Co  Co154  1  0.04867627  0.17744107  0.57032643  1
  Co  Co155  1  0.58844184  0.16289490  0.50165818  1
  Co  Co156  1  0.42795202  0.36975415  0.81023973  1
  Co  Co157  1  0.16081531  0.28624907  0.26113683  1
  Co  Co158  1  0.02102448  0.07933388  0.85557136  1
  Co  Co159  1  0.34785247  0.17345664  0.11093353  1
  Co  Co160  1  0.66416665  0.03129056  0.07903960  1
  Co  Co161  1  0.82681900  0.03890545  0.03381514  1
  Ni  Ni162  1  0.56297745  0.17441397  0.33679935  1
  Ni  Ni163  1  0.85223110  0.83793987  0.73101413  1
  Ni  Ni164  1  0.05076852  0.83801103  0.63000520  1
  Ni  Ni165  1  0.25099648  0.05948065  0.24508612  1
  Ni  Ni166  1  0.02031012  0.27758082  0.19025524  1
  Ni  Ni167  1  0.79185962  0.79416077  0.42911932  1
  Ni  Ni168  1  0.65566498  0.03386363  0.40559996  1
  Ni  Ni169  1  0.23193515  -0.03943706  0.83057363  1
  Ni  Ni170  1  0.44817106  0.65287167  0.88503781  1
  Ni  Ni171  1  0.61001385  0.67252485  0.51304833  1
  Ni  Ni172  1  0.57055336  0.89100476  0.08303465  1
  Ni  Ni173  1  0.02517879  0.87181565  0.24814635  1
  Ni  Ni174  1  0.92262281  0.73492078  0.59234047  1
  Ni  Ni175  1  0.36068865  0.50501628  0.15900708  1
  Ni  Ni176  1  0.11094446  0.45791681  -0.06041526  1
  Ni  Ni177  1  -0.08868866  0.31893114  0.73771589  1
  Ni  Ni178  1  0.23112943  -0.06057940  0.67398643  1
  Ni  Ni179  1  0.65082446  0.74909066  0.18401800  1
  Ni  Ni180  1  0.23384462  0.74058562  0.88769768  1
  Ni  Ni181  1  0.79778771  0.37355335  0.13593429  1
  Ni  Ni182  1  0.79558686  0.41045796  0.80089323  1
  Ni  Ni183  1  0.65259783  0.79523405  0.90711257  1
  Ni  Ni184  1  0.12102497  0.86501166  -0.09329124  1
  Ni  Ni185  1  0.08457576  0.01575989  0.16888362  1
  Ni  Ni186  1  0.10044381  0.22404269  -0.10134156  1
  Ni  Ni187  1  0.90853937  0.60536402  0.15918470  1
  Ni  Ni188  1  0.35817572  0.85864432  0.77870275  1
  Ni  Ni189  1  0.33325209  0.01334090  0.09931581  1
  Ni  Ni190  1  0.73767387  0.71867739  0.03426697  1
  Ni  Ni191  1  0.88391623  0.47919132  0.46220040  1
  Ni  Ni192  1  0.10371102  0.37328254  0.79259584  1
  Ni  Ni193  1  0.71734105  0.49815029  0.44413448  1
  Ni  Ni194  1  0.08071787  0.67084450  0.67953683  1
  Ni  Ni195  1  0.78372554  0.46793534  -0.00377420  1
  Ni  Ni196  1  0.58796330  0.48887495  0.34250503  1
  Ni  Ni197  1  0.53397436  0.91060708  0.37038518  1
  Ni  Ni198  1  0.65791118  0.46096747  0.87235289  1
  Ni  Ni199  1  0.12262743  0.07448270  0.45677048  1
  Ni  Ni200  1  0.03875768  0.43249078  0.48774179  1
  Ni  Ni201  1  0.65865320  0.45798830  0.19506999  1
  Ni  Ni202  1  0.32639930  0.14544577  0.70429890  1
  Ni  Ni203  1  0.76952316  -0.06706489  0.88787286  1
  Ni  Ni204  1  -0.10801464  0.63875053  0.00509730  1
  Ni  Ni205  1  0.10682935  0.49968441  0.67163552  1
  Ni  Ni206  1  0.25883808  0.62877629  0.13016697  1
  Ni  Ni207  1  0.35864857  0.72878047  0.00424572  1
  Ni  Ni208  1  0.39792047  0.15942628  0.55558013  1
  Ni  Ni209  1  0.60129820  0.15045165  0.17540948  1
  Ni  Ni210  1  0.83418633  0.59174082  0.63534810  1
  Ni  Ni211  1  0.01976241  0.80120881  0.78352348  1
  Ni  Ni212  1  0.28397888  0.20137827  0.33017937  1
  Ni  Ni213  1  0.76743900  -0.03179102  0.64142675  1
  Ni  Ni214  1  0.04454890  0.55774887  0.22867215  1
