# generated using pymatgen
data_Ti108Co54Ni53
_symmetry_space_group_name_H-M   'P 1'
_cell_length_a   14.66337147
_cell_length_b   14.63377392
_cell_length_c   14.67962337
_cell_angle_alpha   89.86672370
_cell_angle_beta   90.07711003
_cell_angle_gamma   89.96457667
_symmetry_Int_Tables_number   1
_chemical_formula_structural   Ti108Co54Ni53
_chemical_formula_sum   'Ti108 Co54 Ni53'
_cell_volume   3149.94839679
_cell_formula_units_Z   1
loop_
 _symmetry_equiv_pos_site_id
 _symmetry_equiv_pos_as_xyz
  1  'x, y, z'
loop_
 _atom_site_type_symbol
 _atom_site_label
 _atom_site_symmetry_multiplicity
 _atom_site_fract_x
 _atom_site_fract_y
 _atom_site_fract_z
 _atom_site_occupancy
  Ti  Ti0  1  0.15057444  0.01677984  0.20616014  1
  Ti  Ti1  1  0.08772810  0.06802201  0.52643584  1
  Ti  Ti2  1  0.09601693  0.14468930  0.86301592  1
  Ti  Ti3  1  0.09106573  0.32410774  0.23280005  1
  Ti  Ti4  1  0.13466896  0.39416802  0.57603790  1
  Ti  Ti5  1  0.07554939  0.36195249  0.88689922  1
  Ti  Ti6  1  0.03770651  0.87205479  0.25637353  1
  Ti  Ti7  1  0.07153131  0.77320384  0.53820673  1
  Ti  Ti8  1  0.08199878  0.79599743  0.90074319  1
  Ti  Ti9  1  0.36441587  0.08113569  0.16287250  1
  Ti  Ti10  1  0.39369002  0.09402603  0.62578137  1
  Ti  Ti11  1  0.33630585  0.08493074  0.95201115  1
  Ti  Ti12  1  0.49087818  0.42901211  0.25745138  1
  Ti  Ti13  1  0.31923514  0.41199020  0.49149975  1
  Ti  Ti14  1  0.37665111  0.47680023  0.95901307  1
  Ti  Ti15  1  0.46567533  0.77719529  0.30617840  1
  Ti  Ti16  1  0.34781480  0.76685010  0.58152477  1
  Ti  Ti17  1  0.44316655  0.73375156  0.83192130  1
  Ti  Ti18  1  0.74618068  0.12997340  0.34897339  1
  Ti  Ti19  1  0.72529101  0.06625883  0.60004873  1
  Ti  Ti20  1  0.74006774  0.05947636  0.93503312  1
  Ti  Ti21  1  0.78948009  0.41564451  0.17311470  1
  Ti  Ti22  1  0.70229789  0.37669614  0.61366676  1
  Ti  Ti23  1  0.74207063  0.40160704  0.88653662  1
  Ti  Ti24  1  0.79489978  0.75979430  0.25389416  1
  Ti  Ti25  1  0.79849169  0.74409866  0.64939910  1
  Ti  Ti26  1  0.68190519  0.76020128  0.96936053  1
  Ti  Ti27  1  0.02524209  0.22558349  0.05777565  1
  Ti  Ti28  1  0.03026833  0.23075779  0.38951183  1
  Ti  Ti29  1  0.05318092  0.20501008  0.68622922  1
  Ti  Ti30  1  0.03000139  0.52268329  0.02429728  1
  Ti  Ti31  1  0.07336435  0.48645585  0.40743360  1
  Ti  Ti32  1  0.07824432  0.57215753  0.84921334  1
  Ti  Ti33  1  0.01949715  0.86374028  0.05942992  1
  Ti  Ti34  1  0.15814889  0.92433810  0.39815690  1
  Ti  Ti35  1  0.10005397  0.85215869  0.71532427  1
  Ti  Ti36  1  0.46819664  0.26387769  0.14646257  1
  Ti  Ti37  1  0.44956863  0.17323535  0.45449087  1
  Ti  Ti38  1  0.42646892  0.36391572  0.79114150  1
  Ti  Ti39  1  0.38925526  0.60266305  0.15440965  1
  Ti  Ti40  1  0.41901606  0.64175304  0.44941362  1
  Ti  Ti41  1  0.44613202  0.60429840  0.66156745  1
  Ti  Ti42  1  0.45475883  0.95482904  0.03111603  1
  Ti  Ti43  1  0.43263897  0.93928889  0.49225378  1
  Ti  Ti44  1  0.45126050  0.92759883  0.69566983  1
  Ti  Ti45  1  0.72559465  0.24543195  0.05141886  1
  Ti  Ti46  1  0.71723490  0.31254635  0.43508762  1
  Ti  Ti47  1  0.74400328  0.24107842  0.73927618  1
  Ti  Ti48  1  0.71451261  0.58884887  0.06873906  1
  Ti  Ti49  1  0.80956152  0.60129118  0.39063355  1
  Ti  Ti50  1  0.74525876  0.58762801  0.72978036  1
  Ti  Ti51  1  0.75156432  0.91241469  0.10760293  1
  Ti  Ti52  1  0.75042602  0.92805063  0.39324011  1
  Ti  Ti53  1  0.80670901  0.91286104  0.72565618  1
  Ti  Ti54  1  0.15455383  0.05873687  0.03069215  1
  Ti  Ti55  1  0.29162086  0.06774668  0.35326865  1
  Ti  Ti56  1  0.28064899  0.14392742  0.78239230  1
  Ti  Ti57  1  0.24317346  0.36303163  0.07657781  1
  Ti  Ti58  1  0.23178563  0.25719902  0.40914776  1
  Ti  Ti59  1  0.23910789  0.46105578  0.77329459  1
  Ti  Ti60  1  0.31729767  0.82978843  -0.02488363  1
  Ti  Ti61  1  0.22037185  0.71171182  0.43954026  1
  Ti  Ti62  1  0.29390236  0.80936402  0.76082275  1
  Ti  Ti63  1  0.60879481  0.08347017  0.08489496  1
  Ti  Ti64  1  0.58129679  0.04160107  0.39040751  1
  Ti  Ti65  1  0.58017555  0.10730231  0.76647794  1
  Ti  Ti66  1  0.53468895  0.45312557  0.07675360  1
  Ti  Ti67  1  0.53332746  0.37394838  0.46637833  1
  Ti  Ti68  1  0.59589072  0.46226744  0.76202552  1
  Ti  Ti69  1  0.57201766  0.77513209  0.12706585  1
  Ti  Ti70  1  0.63640380  0.72572534  0.41410685  1
  Ti  Ti71  1  0.63701290  0.77337464  0.77033669  1
  Ti  Ti72  1  0.94923637  0.04328726  0.07640075  1
  Ti  Ti73  1  0.88954657  0.08427395  0.48363111  1
  Ti  Ti74  1  0.93435570  0.05624944  0.76283353  1
  Ti  Ti75  1  0.89276130  0.37429066  0.00446691  1
  Ti  Ti76  1  0.89041860  0.40779914  0.45220184  1
  Ti  Ti77  1  0.93870407  0.53122933  0.72651675  1
  Ti  Ti78  1  0.91855337  0.69359755  0.11924150  1
  Ti  Ti79  1  0.87576165  0.76806798  0.45161548  1
  Ti  Ti80  1  0.93863091  0.72983671  0.79625202  1
  Ti  Ti81  1  0.28794535  0.26693668  0.23193281  1
  Ti  Ti82  1  0.27906506  0.28853181  0.65587514  1
  Ti  Ti83  1  0.27874354  0.29865783  0.89707835  1
  Ti  Ti84  1  0.28944566  0.47055666  0.26490974  1
  Ti  Ti85  1  0.25947076  0.57078737  0.58728039  1
  Ti  Ti86  1  0.27835428  0.62768047  0.89538129  1
  Ti  Ti87  1  0.31662449  0.89213678  0.23889672  1
  Ti  Ti88  1  0.22359762  0.90338188  0.58693425  1
  Ti  Ti89  1  0.20908904  0.96291552  0.85588852  1
  Ti  Ti90  1  0.57892509  0.23869645  0.31120364  1
  Ti  Ti91  1  0.57157372  0.22598046  0.61077893  1
  Ti  Ti92  1  0.56390043  0.29063012  0.94921271  1
  Ti  Ti93  1  0.60468307  0.54310617  0.37642723  1
  Ti  Ti94  1  0.61547828  0.54636154  0.57923054  1
  Ti  Ti95  1  0.53343364  0.62200434  0.94855341  1
  Ti  Ti96  1  0.52788075  0.94117451  0.21088373  1
  Ti  Ti97  1  0.60893844  0.88622140  0.58720483  1
  Ti  Ti98  1  0.54992477  0.92147372  0.85856170  1
  Ti  Ti99  1  0.88015634  0.22507963  0.19277723  1
  Ti  Ti100  1  0.90524216  0.33329675  0.64146692  1
  Ti  Ti101  1  0.90903795  0.26379830  0.83691977  1
  Ti  Ti102  1  0.94127310  0.52736437  0.25691205  1
  Ti  Ti103  1  0.93168387  0.62698779  0.55632084  1
  Ti  Ti104  1  0.86148657  0.59019989  0.91936276  1
  Ti  Ti105  1  0.88492249  1.02187127  0.25767521  1
  Ti  Ti106  1  0.97763183  0.91871949  0.46156020  1
  Ti  Ti107  1  0.88424996  0.92231883  0.92603475  1
  Co  Co108  1  0.24065526  0.54583370  0.42221903  1
  Co  Co109  1  0.94182703  0.80592479  0.63222686  1
  Co  Co110  1  0.19139419  0.39182713  0.35249564  1
  Co  Co111  1  0.28972476  -0.04148719  0.08816190  1
  Co  Co112  1  0.30918109  0.20142218  0.06610415  1
  Co  Co113  1  0.53977172  0.10149664  0.22924687  1
  Co  Co114  1  0.74654020  0.63859940  0.53051129  1
  Co  Co115  1  0.49219563  0.62086710  0.28559623  1
  Co  Co116  1  -0.07035943  0.35621401  0.30195220  1
  Co  Co117  1  0.76330427  0.29233636  0.27853434  1
  Co  Co118  1  0.68766814  0.17499256  0.19964285  1
  Co  Co119  1  0.43691537  0.21439455  0.71724067  1
  Co  Co120  1  0.62745290  0.17530057  0.47129389  1
  Co  Co121  1  0.68483970  0.20089579  0.88401937  1
  Co  Co122  1  0.41268051  0.32019843  -0.00394320  1
  Co  Co123  1  0.50568736  0.80257102  -0.03322576  1
  Co  Co124  1  0.03605302  0.38804715  0.72769033  1
  Co  Co125  1  0.17261114  0.22043373  -0.01828804  1
  Co  Co126  1  -0.10777640  0.86746469  0.15442996  1
  Co  Co127  1  0.78828158  0.45828033  0.32545401  1
  Co  Co128  1  0.36096872  0.44548664  0.66190407  1
  Co  Co129  1  0.64020639  0.39692558  0.32059313  1
  Co  Co130  1  0.87822181  0.53746147  0.08483189  1
  Co  Co131  1  0.79423501  0.59208933  0.21684900  1
  Co  Co132  1  0.16526669  0.29214442  0.76938372  1
  Co  Co133  1  0.38147657  0.42526657  0.13029466  1
  Co  Co134  1  0.10754931  0.60028615  0.52593917  1
  Co  Co135  1  0.64604474  0.50496240  0.20337715  1
  Co  Co136  1  -0.01085111  0.68252718  -0.02921891  1
  Co  Co137  1  0.41634279  0.28866923  0.56660779  1
  Co  Co138  1  0.45358756  0.50224312  0.53415711  1
  Co  Co139  1  0.86656203  0.20857459  0.00693362  1
  Co  Co140  1  0.16743125  0.18775600  0.14478844  1
  Co  Co141  1  0.46369915  0.15124594  0.03528559  1
  Co  Co142  1  0.57238068  0.62399393  0.75963953  1
  Co  Co143  1  0.64387953  -0.03902270  0.72565964  1
  Co  Co144  1  0.42378114  0.54224548  0.81758400  1
  Co  Co145  1  0.89015202  0.87195327  0.32422829  1
  Co  Co146  1  0.87164970  0.16454682  0.67054545  1
  Co  Co147  1  0.71669129  0.47070242  0.47366007  1
  Co  Co148  1  -0.01808137  0.62351994  0.40394621  1
  Co  Co149  1  0.08951251  0.37368378  0.04896655  1
  Co  Co150  1  0.16926780  0.89856743  -0.00160219  1
  Co  Co151  1  0.04787432  0.76964846  0.38115874  1
  Co  Co152  1  -0.03647767  0.22039559  0.53805134  1
  Co  Co153  1  0.41490170  0.81994447  0.12713136  1
  Co  Co154  1  -0.03413688  0.89282637  0.78619791  1
  Co  Co155  1  0.52296763  0.38782536  0.63838152  1
  Co  Co156  1  0.20002921  0.72547530  0.63036192  1
  Co  Co157  1  -0.07118005  0.43744030  0.85750928  1
  Co  Co158  1  0.30720756  0.63858500  0.73514157  1
  Co  Co159  1  0.75938607  0.07675530  0.77259898  1
  Co  Co160  1  0.43203482  -0.00752265  0.33177720  1
  Co  Co161  1  0.38378327  0.92673359  0.85573337  1
  Ni  Ni162  1  0.01896536  0.13387663  0.21279170  1
  Ni  Ni163  1  0.65067273  0.83955261  0.26810566  1
  Ni  Ni164  1  0.58211360  0.28633272  0.77244796  1
  Ni  Ni165  1  0.04341236  0.67674928  0.68050614  1
  Ni  Ni166  1  0.61956840  -0.07667969  0.01067193  1
  Ni  Ni167  1  0.55508989  0.07885443  0.92503004  1
  Ni  Ni168  1  0.29613763  0.18110023  0.52668624  1
  Ni  Ni169  1  0.41334743  0.17349819  0.29713741  1
  Ni  Ni170  1  0.62461754  0.70796100  0.61229461  1
  Ni  Ni171  1  0.13260848  0.22916895  0.54213558  1
  Ni  Ni172  1  0.49970208  0.77597633  0.50860107  1
  Ni  Ni173  1  0.49092147  0.77097774  0.67636018  1
  Ni  Ni174  1  -0.00943605  -0.03738556  0.62668282  1
  Ni  Ni175  1  0.69093107  0.59799101  0.88647021  1
  Ni  Ni176  1  0.78822838  0.07945795  0.10758037  1
  Ni  Ni177  1  0.83269257  -0.06959519  0.55761638  1
  Ni  Ni178  1  0.29198801  -0.01765763  0.71552192  1
  Ni  Ni179  1  0.20806977  0.10598600  0.63693618  1
  Ni  Ni180  1  0.72243648  0.89802116  0.87312385  1
  Ni  Ni181  1  0.56593320  0.88096146  0.40089133  1
  Ni  Ni182  1  0.10600992  0.02584771  0.73251038  1
  Ni  Ni183  1  0.17140731  -0.14605055  0.15095319  1
  Ni  Ni184  1  0.78376210  0.74099955  0.83676877  1
  Ni  Ni185  1  0.80053271  0.42063423  0.74003400  1
  Ni  Ni186  1  0.15440708  0.15376685  0.30476051  1
  Ni  Ni187  1  0.40986119  0.49962049  0.37634700  1
  Ni  Ni188  1  0.39151473  0.32761824  0.36030488  1
  Ni  Ni189  1  0.20074737  0.47274481  -0.05568168  1
  Ni  Ni190  1  0.72817074  0.80699393  0.51790820  1
  Ni  Ni191  1  0.82468483  0.50051695  0.59318566  1
  Ni  Ni192  1  -0.05810452  0.10603754  0.92055507  1
  Ni  Ni193  1  0.57951442  0.46562145  -0.08094355  1
  Ni  Ni194  1  -0.00755153  0.47058536  0.57518558  1
  Ni  Ni195  1  0.55166433  0.04758775  0.58133932  1
  Ni  Ni196  1  0.16328529  0.70403984  0.79091369  1
  Ni  Ni197  1  0.86671051  0.23578633  0.39905663  1
  Ni  Ni198  1  0.31341477  0.86923809  0.41141505  1
  Ni  Ni199  1  0.62842869  0.33425272  0.16847239  1
  Ni  Ni200  1  0.85321002  0.77790642  -0.00748030  1
  Ni  Ni201  1  0.69202483  0.41464344  0.03774889  1
  Ni  Ni202  1  0.43908583  0.20326139  0.87507025  1
  Ni  Ni203  1  0.04629213  -0.02110716  -0.09247583  1
  Ni  Ni204  1  0.11391958  0.53117615  0.68114826  1
  Ni  Ni205  1  0.69209831  0.00750680  0.23969279  1
  Ni  Ni206  1  0.78329340  0.21401498  0.54680794  1
  Ni  Ni207  1  0.19806929  0.78939878  0.29902154  1
  Ni  Ni208  1  0.64952863  0.66795688  0.25399859  1
  Ni  Ni209  1  0.39686860  0.68583673  0.01649644  1
  Ni  Ni210  1  0.27607004  0.02390730  0.50519939  1
  Ni  Ni211  1  0.32419367  0.64356387  0.30832235  1
  Ni  Ni212  1  0.03251230  0.04206444  0.35527377  1
  Ni  Ni213  1  0.55205853  0.61551598  0.12770654  1
  Ni  Ni214  1  -0.03568229  0.39822447  0.14835734  1
