# generated using pymatgen
data_Ti108Co54Ni53
_symmetry_space_group_name_H-M   'P 1'
_cell_length_a   14.46801671
_cell_length_b   14.46666510
_cell_length_c   14.50432805
_cell_angle_alpha   90.28415633
_cell_angle_beta   89.96582495
_cell_angle_gamma   90.12467152
_symmetry_Int_Tables_number   1
_chemical_formula_structural   Ti108Co54Ni53
_chemical_formula_sum   'Ti108 Co54 Ni53'
_cell_volume   3035.76814556
_cell_formula_units_Z   1
loop_
 _symmetry_equiv_pos_site_id
 _symmetry_equiv_pos_as_xyz
  1  'x, y, z'
loop_
 _atom_site_type_symbol
 _atom_site_label
 _atom_site_symmetry_multiplicity
 _atom_site_fract_x
 _atom_site_fract_y
 _atom_site_fract_z
 _atom_site_occupancy
  Ti  Ti0  1  0.07434523  0.11420139  0.21568691  1
  Ti  Ti1  1  0.11997640  0.12025182  0.60520792  1
  Ti  Ti2  1  0.04237076  0.09182679  0.89660234  1
  Ti  Ti3  1  0.02955042  0.41791833  0.20713097  1
  Ti  Ti4  1  -0.00458823  0.44133071  0.53908724  1
  Ti  Ti5  1  0.07810968  0.41947595  0.91042976  1
  Ti  Ti6  1  0.13069803  0.74121926  0.25699079  1
  Ti  Ti7  1  0.09902452  0.74714041  0.55629880  1
  Ti  Ti8  1  0.08386885  0.74739217  0.86193550  1
  Ti  Ti9  1  0.52849021  0.11977972  0.28473473  1
  Ti  Ti10  1  0.40941251  0.07603689  0.59778726  1
  Ti  Ti11  1  0.38958978  0.06754093  0.88853268  1
  Ti  Ti12  1  0.34835225  0.46029288  0.26460293  1
  Ti  Ti13  1  0.37388852  0.39514545  0.55401750  1
  Ti  Ti14  1  0.41377296  0.46548329  0.90660645  1
  Ti  Ti15  1  0.30199635  0.78552417  0.23942801  1
  Ti  Ti16  1  0.47229429  0.72649886  0.53282836  1
  Ti  Ti17  1  0.50262410  0.65463382  0.92200407  1
  Ti  Ti18  1  0.76788757  -0.01618650  0.26504504  1
  Ti  Ti19  1  0.70380964  0.01763443  0.61170665  1
  Ti  Ti20  1  0.73431561  0.05709741  0.94243365  1
  Ti  Ti21  1  0.82040903  0.45566051  0.21246278  1
  Ti  Ti22  1  0.68152001  0.34930083  0.57246548  1
  Ti  Ti23  1  0.73128830  0.40972149  0.86167011  1
  Ti  Ti24  1  0.84237916  0.78074672  0.28063291  1
  Ti  Ti25  1  0.74262776  0.81252083  0.60947071  1
  Ti  Ti26  1  0.66954216  0.74164893  0.93490904  1
  Ti  Ti27  1  0.10187323  0.27584042  0.12613925  1
  Ti  Ti28  1  0.03239483  0.24249882  0.47049349  1
  Ti  Ti29  1  0.05952765  0.25596237  0.79390653  1
  Ti  Ti30  1  0.02371988  0.63123581  0.06289859  1
  Ti  Ti31  1  0.09630288  0.51759558  0.36994796  1
  Ti  Ti32  1  0.08640378  0.57685239  0.70857583  1
  Ti  Ti33  1  0.07356350  0.81212137  0.06355524  1
  Ti  Ti34  1  0.07757668  0.97054529  0.47708684  1
  Ti  Ti35  1  0.12352129  0.94832014  0.79969243  1
  Ti  Ti36  1  0.37978781  0.24144739  0.02601037  1
  Ti  Ti37  1  0.46277012  0.33171509  0.36555698  1
  Ti  Ti38  1  0.45891934  0.27397530  0.83323634  1
  Ti  Ti39  1  0.47335296  0.57980333  0.12508822  1
  Ti  Ti40  1  0.45278287  0.56054971  0.40061227  1
  Ti  Ti41  1  0.39172099  0.54389340  0.72452222  1
  Ti  Ti42  1  0.46458412  0.99823699  0.07035524  1
  Ti  Ti43  1  0.35522886  0.91481147  0.49798186  1
  Ti  Ti44  1  0.41944739  0.86453931  0.67029154  1
  Ti  Ti45  1  0.70854659  0.30163543  0.04450303  1
  Ti  Ti46  1  0.76733288  0.17428478  0.33697544  1
  Ti  Ti47  1  0.78753052  0.28534342  0.73241913  1
  Ti  Ti48  1  0.76481147  0.61479170  0.06110024  1
  Ti  Ti49  1  0.78019505  0.59698200  0.38660556  1
  Ti  Ti50  1  0.77400304  0.57530895  0.73085190  1
  Ti  Ti51  1  0.64892377  0.88079890  0.06054955  1
  Ti  Ti52  1  0.73715273  0.88695898  0.42761880  1
  Ti  Ti53  1  0.73537909  0.90220457  0.80065378  1
  Ti  Ti54  1  0.24316963  0.06953033  0.11423393  1
  Ti  Ti55  1  0.34491231  0.13602937  0.34706295  1
  Ti  Ti56  1  0.21769945  0.10760870  0.76991109  1
  Ti  Ti57  1  0.34136101  0.44553147  0.07584902  1
  Ti  Ti58  1  0.26591870  0.50492781  0.44509309  1
  Ti  Ti59  1  0.29331615  0.36662529  0.76316698  1
  Ti  Ti60  1  0.27875225  0.83389807  0.05755460  1
  Ti  Ti61  1  0.30115408  0.72080959  0.42876402  1
  Ti  Ti62  1  0.25505998  0.70390365  0.78977732  1
  Ti  Ti63  1  0.61953873  0.12363076  0.07649588  1
  Ti  Ti64  1  0.60452194  0.11030542  0.48313798  1
  Ti  Ti65  1  0.58834373  0.10656002  0.75871363  1
  Ti  Ti66  1  0.63406347  0.44214405  0.15979399  1
  Ti  Ti67  1  0.63713357  0.44060094  0.38725087  1
  Ti  Ti68  1  0.62291112  0.46852600  0.69636378  1
  Ti  Ti69  1  0.46990525  0.79896366  0.16298438  1
  Ti  Ti70  1  0.48821082  0.78770083  0.36281867  1
  Ti  Ti71  1  0.55386818  0.66228013  0.73609946  1
  Ti  Ti72  1  0.92580442  0.05503593  0.04353831  1
  Ti  Ti73  1  0.94333343  0.09425532  0.38118489  1
  Ti  Ti74  1  0.95902703  0.06384518  0.73068534  1
  Ti  Ti75  1  0.90957394  0.35425194  0.04423656  1
  Ti  Ti76  1  0.82451331  0.42600253  0.45172238  1
  Ti  Ti77  1  0.95996227  0.41721451  0.73897008  1
  Ti  Ti78  1  0.85750442  0.79288672  0.06197214  1
  Ti  Ti79  1  0.99675211  0.78675929  0.40458399  1
  Ti  Ti80  1  0.86553699  0.76320135  0.75818033  1
  Ti  Ti81  1  0.17346312  0.25819124  0.32135132  1
  Ti  Ti82  1  0.24003804  0.23661491  0.52023668  1
  Ti  Ti83  1  0.18751585  0.24905584  0.95654462  1
  Ti  Ti84  1  0.16548932  0.53432741  0.16673590  1
  Ti  Ti85  1  0.23967410  0.63003956  0.61550551  1
  Ti  Ti86  1  0.28655613  0.61687480  0.96232215  1
  Ti  Ti87  1  0.21939780  0.98326840  0.32379903  1
  Ti  Ti88  1  0.20199520  0.94389829  0.61193005  1
  Ti  Ti89  1  0.29429145  0.89165360  0.85022503  1
  Ti  Ti90  1  0.60280207  0.28302037  0.22920538  1
  Ti  Ti91  1  0.51856180  0.24206510  0.61819905  1
  Ti  Ti92  1  0.65433732  0.22193908  0.88892803  1
  Ti  Ti93  1  0.58363138  0.65599727  0.24951543  1
  Ti  Ti94  1  0.54343593  0.54884977  0.56266674  1
  Ti  Ti95  1  0.60796631  0.51723918  0.99474978  1
  Ti  Ti96  1  0.63077035  0.85302054  0.25401371  1
  Ti  Ti97  1  0.56046254  0.91301799  0.51568291  1
  Ti  Ti98  1  0.54000491  0.84971467  0.83305131  1
  Ti  Ti99  1  0.95057003  0.26177413  0.27719819  1
  Ti  Ti100  1  0.87512111  0.27693508  0.56083611  1
  Ti  Ti101  1  0.86129613  0.20129238  0.89694461  1
  Ti  Ti102  1  0.96997089  0.60756242  0.27401024  1
  Ti  Ti103  1  0.87831153  0.61044857  0.57387932  1
  Ti  Ti104  1  0.88015259  0.52704433  0.92427124  1
  Ti  Ti105  1  0.95435360  0.92818716  0.19080069  1
  Ti  Ti106  1  0.88465226  0.95584556  0.53815316  1
  Ti  Ti107  1  0.96116339  0.89119973  0.93291064  1
  Co  Co108  1  0.62092870  0.00142998  0.35427411  1
  Co  Co109  1  0.30913660  0.32793888  0.39344355  1
  Co  Co110  1  0.35906435  -0.09053750  0.34802437  1
  Co  Co111  1  0.14704397  0.80400250  0.70646646  1
  Co  Co112  1  0.17908581  0.48005367  0.01599381  1
  Co  Co113  1  0.45544552  0.38956145  0.70113329  1
  Co  Co114  1  0.41118193  0.65953606  0.27674323  1
  Co  Co115  1  0.37720576  0.58327388  0.55356299  1
  Co  Co116  1  0.77969012  -0.01538773  0.10678355  1
  Co  Co117  1  -0.04800470  0.69932463  -0.06020997  1
  Co  Co118  1  -0.01204342  0.76740459  0.20298694  1
  Co  Co119  1  0.83660190  0.74238130  0.45599614  1
  Co  Co120  1  0.53465234  0.37875789  0.51733909  1
  Co  Co121  1  0.88347122  0.01674240  0.87252353  1
  Co  Co122  1  0.41339690  0.13936711  0.74503619  1
  Co  Co123  1  -0.06374115  0.21998385  0.70086769  1
  Co  Co124  1  0.26653999  0.06307675  0.48916656  1
  Co  Co125  1  0.80596561  0.69143616  0.88810404  1
  Co  Co126  1  0.59310963  0.70753549  0.07526034  1
  Co  Co127  1  0.87579573  0.65682848  0.16564607  1
  Co  Co128  1  0.72258370  0.51778996  0.54765410  1
  Co  Co129  1  0.54570365  0.27146076  0.05915036  1
  Co  Co130  1  0.57324583  0.36385455  0.91571049  1
  Co  Co131  1  0.72782299  0.75132269  0.16324675  1
  Co  Co132  1  0.16467796  -0.09964147  0.18237392  1
  Co  Co133  1  0.31553137  0.60033177  0.14104414  1
  Co  Co134  1  0.67930852  0.19244136  0.64841699  1
  Co  Co135  1  0.49485659  0.41657230  0.05616801  1
  Co  Co136  1  0.30739931  0.21797745  0.85647485  1
  Co  Co137  1  0.16397561  0.37913049  0.46799089  1
  Co  Co138  1  0.92148599  0.46524530  0.34062067  1
  Co  Co139  1  0.69709552  0.12933991  0.21083066  1
  Co  Co140  1  0.32297008  -0.02917318  0.00142217  1
  Co  Co141  1  0.27909219  0.37652726  -0.06442118  1
  Co  Co142  1  0.03466407  0.36401598  0.37483861  1
  Co  Co143  1  0.06563341  -0.01937137  0.08464166  1
  Co  Co144  1  0.67637941  0.65593141  0.61147031  1
  Co  Co145  1  0.90651601  0.35355246  0.87543623  1
  Co  Co146  1  0.19471425  0.41179358  0.29416230  1
  Co  Co147  1  0.69890499  0.73172168  0.34060503  1
  Co  Co148  1  0.22732519  0.08239870  0.93329828  1
  Co  Co149  1  0.57594379  0.79289097  0.64191388  1
  Co  Co150  1  0.35422543  0.24814878  0.64642328  1
  Co  Co151  1  0.64179411  0.76874449  0.48366283  1
  Co  Co152  1  0.25554403  0.51331048  0.82644116  1
  Co  Co153  1  0.18369054  0.84702441  0.42446229  1
  Co  Co154  1  0.85325442  0.94145211  0.69772249  1
  Co  Co155  1  0.59964341  0.62624658  0.42741741  1
  Co  Co156  1  -0.03974544  0.61468920  0.43931153  1
  Co  Co157  1  0.12619825  0.42005215  0.74466944  1
  Co  Co158  1  -0.01716542  0.87580379  0.77463280  1
  Co  Co159  1  0.09860845  0.56232419  0.53197890  1
  Co  Co160  1  0.32904487  0.95579109  0.19006662  1
  Co  Co161  1  0.47613295  0.94340582  0.25591704  1
  Ni  Ni162  1  -0.06871105  0.59959521  0.78687701  1
  Ni  Ni163  1  0.51910486  0.13952395  -0.04972506  1
  Ni  Ni164  1  0.69020240  0.57941604  0.86959583  1
  Ni  Ni165  1  0.39618134  0.76268058  0.86412725  1
  Ni  Ni166  1  0.60453251  -0.00129756  0.17957591  1
  Ni  Ni167  1  0.57772716  -0.01598574  -0.06885845  1
  Ni  Ni168  1  0.48827495  0.84234606  -0.00635307  1
  Ni  Ni169  1  0.46127128  0.03346196  0.42672816  1
  Ni  Ni170  1  0.27158538  0.79387670  0.58646283  1
  Ni  Ni171  1  0.39548896  0.70544235  0.68710936  1
  Ni  Ni172  1  0.60244042  -0.06277659  0.69808920  1
  Ni  Ni173  1  0.77286159  0.05041596  0.44673424  1
  Ni  Ni174  1  0.40270568  0.70985306  0.04033086  1
  Ni  Ni175  1  0.54349562  0.51269135  0.82522328  1
  Ni  Ni176  1  0.10294029  0.12888342  0.04282222  1
  Ni  Ni177  1  0.02822899  -0.06250538  0.63369175  1
  Ni  Ni178  1  0.89250623  0.09529933  0.21470957  1
  Ni  Ni179  1  0.13134699  0.11898343  0.40331602  1
  Ni  Ni180  1  0.23189031  0.35770361  0.13890304  1
  Ni  Ni181  1  0.46838606  -0.01319729  0.77019466  1
  Ni  Ni182  1  0.31683930  -0.00954853  0.71596570  1
  Ni  Ni183  1  -0.05581510  0.20959913  0.11129298  1
  Ni  Ni184  1  -0.07603696  0.79597952  0.58473064  1
  Ni  Ni185  1  0.12504863  0.58420334  0.88001190  1
  Ni  Ni186  1  0.19433855  0.69348078  0.09318434  1
  Ni  Ni187  1  0.43329814  0.32105809  0.18389283  1
  Ni  Ni188  1  0.78065934  0.89591227  -0.04408394  1
  Ni  Ni189  1  0.19790294  0.25385220  0.69826804  1
  Ni  Ni190  1  0.06947947  0.31072452  0.61896329  1
  Ni  Ni191  1  0.25325958  0.59785570  0.30004052  1
  Ni  Ni192  1  0.69320270  0.73706780  0.76165243  1
  Ni  Ni193  1  0.83104912  0.43228190  0.63769005  1
  Ni  Ni194  1  0.82283732  0.12042481  0.61575762  1
  Ni  Ni195  1  -0.03173637  0.11116333  0.55190799  1
  Ni  Ni196  1  0.00892427  0.72086582  0.70214009  1
  Ni  Ni197  1  0.79225333  0.15518091  0.07299377  1
  Ni  Ni198  1  0.41309019  0.20930858  0.48447003  1
  Ni  Ni199  1  0.77300240  0.45139064  0.03643991  1
  Ni  Ni200  1  -0.06789559  0.50737242  0.09779454  1
  Ni  Ni201  1  0.60597653  0.31137127  0.74965460  1
  Ni  Ni202  1  0.20506408  0.44632110  0.60655405  1
  Ni  Ni203  1  0.14137942  0.67323900  0.40900351  1
  Ni  Ni204  1  0.05612609  -0.01926862  0.31223257  1
  Ni  Ni205  1  0.51684891  0.48057749  0.26377878  1
  Ni  Ni206  1  0.79505726  0.27464744  0.18377588  1
  Ni  Ni207  1  0.77000932  0.08338333  0.76996600  1
  Ni  Ni208  1  0.73871768  0.21608282  0.49177286  1
  Ni  Ni209  1  0.60691361  0.25496271  0.39952666  1
  Ni  Ni210  1  0.76338603  0.33697769  0.33245637  1
  Ni  Ni211  1  0.15600294  0.92661650  -0.03755877  1
  Ni  Ni212  1  0.01878006  0.25261422  -0.03545096  1
  Ni  Ni213  1  0.90334934  0.93251246  0.36134168  1
  Ni  Ni214  1  0.72856868  0.59470028  0.22696613  1
