# generated using pymatgen
data_Ti108Co54Ni53
_symmetry_space_group_name_H-M   'P 1'
_cell_length_a   14.65849499
_cell_length_b   14.66136727
_cell_length_c   14.71331721
_cell_angle_alpha   89.88118187
_cell_angle_beta   89.91881028
_cell_angle_gamma   89.95814669
_symmetry_Int_Tables_number   1
_chemical_formula_structural   Ti108Co54Ni53
_chemical_formula_sum   'Ti108 Co54 Ni53'
_cell_volume   3162.08084529
_cell_formula_units_Z   1
loop_
 _symmetry_equiv_pos_site_id
 _symmetry_equiv_pos_as_xyz
  1  'x, y, z'
loop_
 _atom_site_type_symbol
 _atom_site_label
 _atom_site_symmetry_multiplicity
 _atom_site_fract_x
 _atom_site_fract_y
 _atom_site_fract_z
 _atom_site_occupancy
  Ti  Ti0  1  0.05981574  0.11374394  0.18721370  1
  Ti  Ti1  1  0.16294504  0.08692782  0.62824284  1
  Ti  Ti2  1  0.01303741  0.08623015  0.90367216  1
  Ti  Ti3  1  0.12044275  0.39960707  0.31028843  1
  Ti  Ti4  1  0.07526894  0.41140022  0.54032717  1
  Ti  Ti5  1  0.09427600  0.38448067  0.87379945  1
  Ti  Ti6  1  0.13156460  0.75468972  0.24920122  1
  Ti  Ti7  1  0.05323147  0.78609437  0.58562008  1
  Ti  Ti8  1  0.06959626  0.77502696  0.89139697  1
  Ti  Ti9  1  0.39211022  0.11853616  0.29181008  1
  Ti  Ti10  1  0.37217190  0.04402084  0.61868006  1
  Ti  Ti11  1  0.48664795  0.07936076  0.95122099  1
  Ti  Ti12  1  0.45784823  0.33581527  0.25977983  1
  Ti  Ti13  1  0.40698072  0.44275100  0.60965696  1
  Ti  Ti14  1  0.29153831  0.36804833  0.91247792  1
  Ti  Ti15  1  0.42099466  0.66319647  0.20897661  1
  Ti  Ti16  1  0.35215230  0.79245665  0.60752331  1
  Ti  Ti17  1  0.37811293  0.72371886  0.89645052  1
  Ti  Ti18  1  0.72836051  0.03927260  0.25140437  1
  Ti  Ti19  1  0.82188880  0.08488337  0.54436628  1
  Ti  Ti20  1  0.68253897  0.03656097  0.90415395  1
  Ti  Ti21  1  0.76209834  0.45941951  0.24471207  1
  Ti  Ti22  1  0.75815217  0.49337949  0.53763598  1
  Ti  Ti23  1  0.78393843  0.43730833  0.89079847  1
  Ti  Ti24  1  0.76651258  0.72061671  0.23110568  1
  Ti  Ti25  1  0.75653674  0.69946305  0.58486516  1
  Ti  Ti26  1  0.76114213  0.71002787  0.93676093  1
  Ti  Ti27  1  0.04353991  0.23992278  0.02734420  1
  Ti  Ti28  1  0.11623086  0.22357469  0.45803737  1
  Ti  Ti29  1  0.04213621  0.23790101  0.74536622  1
  Ti  Ti30  1  0.06636377  0.56478338  0.11566324  1
  Ti  Ti31  1  0.00344333  0.52455061  0.41077714  1
  Ti  Ti32  1  0.07827965  0.57744830  0.81653136  1
  Ti  Ti33  1  0.12055182  0.93046602  0.09030873  1
  Ti  Ti34  1  0.07395674  0.89756577  0.41171051  1
  Ti  Ti35  1  0.08464991  0.91685852  0.74869103  1
  Ti  Ti36  1  0.37598774  0.31337336  0.09345277  1
  Ti  Ti37  1  0.35386718  0.27223934  0.40411233  1
  Ti  Ti38  1  0.44647762  0.25124801  0.80458218  1
  Ti  Ti39  1  0.36660169  0.54424655  0.03791618  1
  Ti  Ti40  1  0.41287265  0.67221532  0.39235072  1
  Ti  Ti41  1  0.37112824  0.64219091  0.71683790  1
  Ti  Ti42  1  0.44492041  0.88368267  0.00246845  1
  Ti  Ti43  1  0.46995502  0.91033831  0.49704533  1
  Ti  Ti44  1  0.41293480  0.89639775  0.75679597  1
  Ti  Ti45  1  0.72854784  0.28962398  0.02994219  1
  Ti  Ti46  1  0.71699249  0.24876868  0.36325635  1
  Ti  Ti47  1  0.75421343  0.15386883  0.75000590  1
  Ti  Ti48  1  0.69249084  0.60531376  0.10214638  1
  Ti  Ti49  1  0.72458368  0.62736893  0.38822721  1
  Ti  Ti50  1  0.69447677  0.59040309  0.79200332  1
  Ti  Ti51  1  0.82871146  0.89089558  0.14002303  1
  Ti  Ti52  1  0.82285989  0.92313852  0.39457928  1
  Ti  Ti53  1  0.77394661  0.89050850  0.80581355  1
  Ti  Ti54  1  0.30845758  0.09315987  0.02362343  1
  Ti  Ti55  1  0.26816653  0.10519925  0.44392014  1
  Ti  Ti56  1  0.35102526  0.08478895  0.81630505  1
  Ti  Ti57  1  0.21599076  0.42785959  0.12490822  1
  Ti  Ti58  1  0.34555574  0.45917749  0.43923285  1
  Ti  Ti59  1  0.24543684  0.48256900  0.76271350  1
  Ti  Ti60  1  0.27263500  0.76744260  0.10924244  1
  Ti  Ti61  1  0.21522904  0.70742695  0.44330223  1
  Ti  Ti62  1  0.24318998  0.81469305  0.79165598  1
  Ti  Ti63  1  0.62506569  0.10359682  0.07542119  1
  Ti  Ti64  1  0.53204044  0.05609359  0.40309653  1
  Ti  Ti65  1  0.55991743  0.07109707  0.74803744  1
  Ti  Ti66  1  0.56112627  0.44010409  0.07528076  1
  Ti  Ti67  1  0.54465486  0.39842197  0.43563993  1
  Ti  Ti68  1  0.47659514  0.46477636  0.79831741  1
  Ti  Ti69  1  0.56847358  0.78477207  0.13906237  1
  Ti  Ti70  1  0.57804532  0.78973793  0.37059570  1
  Ti  Ti71  1  0.56590528  0.72754862  0.67752099  1
  Ti  Ti72  1  0.81341767  0.06482693  0.05431797  1
  Ti  Ti73  1  0.98871733  0.08090016  0.37554079  1
  Ti  Ti74  1  0.95545701  0.05369444  0.70635683  1
  Ti  Ti75  1  0.91888417  0.42117112  0.07294375  1
  Ti  Ti76  1  0.91610476  0.34741003  0.33333448  1
  Ti  Ti77  1  0.93242021  0.44459690  0.74852400  1
  Ti  Ti78  1  0.89835349  0.71066805  0.06733799  1
  Ti  Ti79  1  1.01399951  0.71200239  0.41499409  1
  Ti  Ti80  1  0.90268095  0.75040021  0.72270053  1
  Ti  Ti81  1  0.21724391  0.24152386  0.25647929  1
  Ti  Ti82  1  0.30024273  0.25422043  0.59075581  1
  Ti  Ti83  1  0.19625234  0.20196354  0.88585454  1
  Ti  Ti84  1  0.26196211  0.56682980  0.28417339  1
  Ti  Ti85  1  0.22447243  0.52538103  0.58398400  1
  Ti  Ti86  1  0.20105243  0.65729679  0.97006537  1
  Ti  Ti87  1  0.30320629  0.94134137  0.24482814  1
  Ti  Ti88  1  0.24189589  0.92911761  0.51773584  1
  Ti  Ti89  1  0.18208182  0.98436222  0.90603184  1
  Ti  Ti90  1  0.56735188  0.16653137  0.24368967  1
  Ti  Ti91  1  0.60143984  0.20021963  0.54621135  1
  Ti  Ti92  1  0.53985084  0.26393251  0.97284161  1
  Ti  Ti93  1  0.57873418  0.51437503  0.26100623  1
  Ti  Ti94  1  0.56014125  0.58447672  0.48756087  1
  Ti  Ti95  1  0.56750824  0.68417353  0.95680957  1
  Ti  Ti96  1  0.53257904  0.95927498  0.22806023  1
  Ti  Ti97  1  0.66700045  0.94139153  0.53957494  1
  Ti  Ti98  1  0.63201858  0.86062120  0.95095755  1
  Ti  Ti99  1  0.88690941  0.18041627  0.22423803  1
  Ti  Ti100  1  0.91780889  0.25466424  0.49430170  1
  Ti  Ti101  1  0.91421693  0.30495462  0.90687820  1
  Ti  Ti102  1  0.94012486  0.64258162  0.25752880  1
  Ti  Ti103  1  0.99916534  0.59088622  0.63110253  1
  Ti  Ti104  1  0.89420036  0.60743893  0.83694937  1
  Ti  Ti105  1  0.95053237  0.84440659  0.27647645  1
  Ti  Ti106  1  0.86337384  0.90768632  0.62526311  1
  Ti  Ti107  1  0.95692114  0.91198202  0.98636856  1
  Co  Co108  1  0.09207030  -0.05231997  0.25117828  1
  Co  Co109  1  0.09385865  0.44176733  0.69955899  1
  Co  Co110  1  0.44328688  0.39010336  0.94631984  1
  Co  Co111  1  0.49238063  0.57120186  0.63840066  1
  Co  Co112  1  0.83523234  0.56326577  -0.01647949  1
  Co  Co113  1  0.19157126  0.84943868  0.64186604  1
  Co  Co114  1  0.67324392  -0.04975859  0.08946975  1
  Co  Co115  1  0.46953654  0.17302551  0.09863351  1
  Co  Co116  1  0.52920780  0.59639547  0.10670630  1
  Co  Co117  1  0.08402711  0.72963065  0.73621303  1
  Co  Co118  1  0.74490146  0.44714455  0.06430586  1
  Co  Co119  1  0.19081744  0.31928349  0.75943001  1
  Co  Co120  1  0.33991942  0.94345781  0.89831183  1
  Co  Co121  1  0.50306928  0.53829290  -0.05656874  1
  Co  Co122  1  0.29791903  0.74938778  0.27836967  1
  Co  Co123  1  0.37033915  0.22413989  0.95004356  1
  Co  Co124  1  0.08253261  0.40462961  0.03356430  1
  Co  Co125  1  0.40948277  0.84601001  0.15986491  1
  Co  Co126  1  0.32600454  0.17059160  0.16318208  1
  Co  Co127  1  0.52064519  0.62447884  0.80444577  1
  Co  Co128  1  0.36615716  -0.01674442  0.39771757  1
  Co  Co129  1  0.43568163  0.01875983  0.11904398  1
  Co  Co130  1  0.62224053  0.34877550  0.27797131  1
  Co  Co131  1  0.66907577  0.54752565  0.95610240  1
  Co  Co132  1  0.43597455  0.84385734  0.31511409  1
  Co  Co133  1  0.77606030  0.17271932  -0.07317709  1
  Co  Co134  1  0.00012956  0.11990716  0.55981733  1
  Co  Co135  1  0.11364953  0.04334431  0.47449765  1
  Co  Co136  1  0.79321461  0.35873800  0.44583171  1
  Co  Co137  1  0.13101383  0.08468619  0.78488823  1
  Co  Co138  1  0.34806297  0.81083266  0.44417532  1
  Co  Co139  1  0.88218098  0.61632070  0.50685700  1
  Co  Co140  1  0.15412775  0.09162555  0.32563321  1
  Co  Co141  1  -0.08526445  0.44621537  0.52874101  1
  Co  Co142  1  0.79331543  0.89573126  -0.02434836  1
  Co  Co143  1  0.42563541  0.13700949  0.49294099  1
  Co  Co144  1  0.25958847  -0.01982575  0.72965889  1
  Co  Co145  1  0.66835739  0.75012609  0.80664641  1
  Co  Co146  1  0.22216754  0.86822583  0.35951190  1
  Co  Co147  1  -0.09782054  0.16967520  0.81832020  1
  Co  Co148  1  0.84798469  0.30795483  0.76028512  1
  Co  Co149  1  -0.02714745  0.06326521  0.06500110  1
  Co  Co150  1  0.71961263  0.78143319  0.07794172  1
  Co  Co151  1  0.94200451  -0.03074057  0.49657677  1
  Co  Co152  1  0.10203930  0.61633329  0.51647388  1
  Co  Co153  1  0.26395048  0.17904906  0.72686780  1
  Co  Co154  1  0.06189909  -0.04782723  0.59409100  1
  Co  Co155  1  0.67990695  0.46427792  0.39234823  1
  Co  Co156  1  0.29617799  0.39224963  0.28296936  1
  Co  Co157  1  -0.03401086  0.47718175  0.92180451  1
  Co  Co158  1  0.51079581  0.78789515  -0.16852484  1
  Co  Co159  1  0.88659988  0.19293886  0.65399760  1
  Co  Co160  1  0.10491410  0.59390759  0.29116331  1
  Co  Co161  1  0.22289387  0.61328612  0.13913552  1
  Ni  Ni162  1  0.82895586  0.11288683  0.37033265  1
  Ni  Ni163  1  0.34397668  0.34879075  0.73033028  1
  Ni  Ni164  1  0.54534726  0.04892295  0.58352000  1
  Ni  Ni165  1  0.21793664  0.35552835  0.47353359  1
  Ni  Ni166  1  0.08280313  0.31163966  0.16961400  1
  Ni  Ni167  1  0.01104742  0.80836709  0.13086244  1
  Ni  Ni168  1  0.39983213  0.47886803  0.18143638  1
  Ni  Ni169  1  -0.03194337  0.32993909  0.63602768  1
  Ni  Ni170  1  0.44140791  0.52028124  0.33277280  1
  Ni  Ni171  1  0.49253102  0.73978718  0.52506331  1
  Ni  Ni172  1  0.62036731  0.18615030  0.85682446  1
  Ni  Ni173  1  0.52996000  0.23426717  0.39192620  1
  Ni  Ni174  1  0.21603574  0.68658578  0.63254982  1
  Ni  Ni175  1  0.65164787  -0.05904382  0.37070434  1
  Ni  Ni176  1  0.00943928  0.62893990  -0.03131275  1
  Ni  Ni177  1  0.18001028  0.50754741  0.42077287  1
  Ni  Ni178  1  0.70356689  0.83558117  0.66532826  1
  Ni  Ni179  1  0.85374571  0.02650286  0.88400313  1
  Ni  Ni180  1  0.72358872  0.00491268  0.68425160  1
  Ni  Ni181  1  0.58633044  0.28444240  0.13047542  1
  Ni  Ni182  1  0.83483828  0.57649855  0.67255845  1
  Ni  Ni183  1  0.21715400  0.26203079  0.05193528  1
  Ni  Ni184  1  0.52416767  -0.04809013  0.86090629  1
  Ni  Ni185  1  0.68627786  0.86600588  0.23275117  1
  Ni  Ni186  1  -0.06113061  0.90428779  0.81189185  1
  Ni  Ni187  1  0.61275427  0.40429060  -0.08931580  1
  Ni  Ni188  1  0.29285985  -0.06542250  0.06818625  1
  Ni  Ni189  1  0.22607488  0.65182166  0.80460171  1
  Ni  Ni190  1  0.72125316  0.80347423  0.45970016  1
  Ni  Ni191  1  0.19750037  0.49938555  -0.04827482  1
  Ni  Ni192  1  -0.03954219  0.47466077  0.24039497  1
  Ni  Ni193  1  -0.10431244  0.78904195  0.51955220  1
  Ni  Ni194  1  0.60221621  0.67289721  0.25852849  1
  Ni  Ni195  1  0.65096098  0.56824833  0.63879698  1
  Ni  Ni196  1  0.90579816  0.01052705  0.23619858  1
  Ni  Ni197  1  0.21089155  0.05446652  0.17190723  1
  Ni  Ni198  1  0.68713270  0.08840509  0.44392610  1
  Ni  Ni199  1  0.72371689  0.19933965  0.18103673  1
  Ni  Ni200  1  -0.11804401  0.21940097  0.05864687  1
  Ni  Ni201  1  0.22208624  0.82948678  -0.03855106  1
  Ni  Ni202  1  0.84473325  0.50563748  0.38071752  1
  Ni  Ni203  1  0.46433594  0.17942947  0.65561267  1
  Ni  Ni204  1  0.82445305  0.32764046  0.17668906  1
  Ni  Ni205  1  0.85351553  0.56347623  0.14473476  1
  Ni  Ni206  1  0.85004154  0.73852392  0.37615074  1
  Ni  Ni207  1  0.53611025  0.89185765  0.64935425  1
  Ni  Ni208  1  0.34832819  0.55509690  0.87545243  1
  Ni  Ni209  1  0.35967168  0.62371995  0.54364059  1
  Ni  Ni210  1  0.46076545  0.29629379  0.53524474  1
  Ni  Ni211  1  0.42758845  0.71578512  0.05189384  1
  Ni  Ni212  1  0.13847071  0.10162723  0.02889516  1
  Ni  Ni213  1  0.04253022  0.23400067  0.31146980  1
  Ni  Ni214  1  0.90587478  0.77093150  0.89840900  1
