# generated using pymatgen
data_Ti108Co54Ni53
_symmetry_space_group_name_H-M   'P 1'
_cell_length_a   14.66084746
_cell_length_b   14.61601674
_cell_length_c   14.63232775
_cell_angle_alpha   89.84972757
_cell_angle_beta   90.17616618
_cell_angle_gamma   90.05989734
_symmetry_Int_Tables_number   1
_chemical_formula_structural   Ti108Co54Ni53
_chemical_formula_sum   'Ti108 Co54 Ni53'
_cell_volume   3135.43460451
_cell_formula_units_Z   1
loop_
 _symmetry_equiv_pos_site_id
 _symmetry_equiv_pos_as_xyz
  1  'x, y, z'
loop_
 _atom_site_type_symbol
 _atom_site_label
 _atom_site_symmetry_multiplicity
 _atom_site_fract_x
 _atom_site_fract_y
 _atom_site_fract_z
 _atom_site_occupancy
  Ti  Ti0  1  0.14580839  0.14601335  0.22395361  1
  Ti  Ti1  1  0.03301417  0.02351092  0.58020022  1
  Ti  Ti2  1  0.10246948  0.04575616  0.92095236  1
  Ti  Ti3  1  0.06565452  0.42703427  0.31043410  1
  Ti  Ti4  1  0.06204663  0.42964142  0.62802820  1
  Ti  Ti5  1  0.04081155  0.45853321  0.96494611  1
  Ti  Ti6  1  0.07703596  0.72582430  0.24587282  1
  Ti  Ti7  1  0.10647624  0.70849701  0.60347628  1
  Ti  Ti8  1  0.04937137  0.75964200  0.92048997  1
  Ti  Ti9  1  0.35078015  0.10214522  0.22130235  1
  Ti  Ti10  1  0.44734464  0.06487502  0.59164969  1
  Ti  Ti11  1  0.31006263  0.16103058  0.91528876  1
  Ti  Ti12  1  0.38857648  0.47231093  0.20124236  1
  Ti  Ti13  1  0.40394774  0.44814743  0.59950935  1
  Ti  Ti14  1  0.40422657  0.35230573  0.91107571  1
  Ti  Ti15  1  0.41940514  0.74181384  0.28300254  1
  Ti  Ti16  1  0.42913806  0.72693589  0.57595369  1
  Ti  Ti17  1  0.44298808  0.75565130  0.77184966  1
  Ti  Ti18  1  0.76137688  0.03772062  0.18573307  1
  Ti  Ti19  1  0.68389338  0.02720154  0.56570106  1
  Ti  Ti20  1  0.81207448  0.10526719  0.86161367  1
  Ti  Ti21  1  0.69500782  0.42652203  0.27026229  1
  Ti  Ti22  1  0.76516591  0.38499475  0.56636811  1
  Ti  Ti23  1  0.71096278  0.37895659  1.01803769  1
  Ti  Ti24  1  0.82949045  0.71856157  0.26158066  1
  Ti  Ti25  1  0.72030254  0.81033630  0.55796253  1
  Ti  Ti26  1  0.80184381  0.78644557  0.83508631  1
  Ti  Ti27  1  0.04948962  0.28104267  0.09277284  1
  Ti  Ti28  1  0.14437353  0.24197380  0.40255470  1
  Ti  Ti29  1  0.02180731  0.27699901  0.74977677  1
  Ti  Ti30  1  0.11124083  0.56435581  0.13986570  1
  Ti  Ti31  1  0.05511728  0.56589635  0.46650687  1
  Ti  Ti32  1  0.09912483  0.60332692  0.81245111  1
  Ti  Ti33  1  0.05836051  0.90196217  0.05014231  1
  Ti  Ti34  1  0.14054213  0.90700527  0.46267131  1
  Ti  Ti35  1  0.13545015  0.97994855  0.74815155  1
  Ti  Ti36  1  0.41436754  0.18528216  0.06930684  1
  Ti  Ti37  1  0.38156366  0.25174040  0.45545910  1
  Ti  Ti38  1  0.44323313  0.20412980  0.75430519  1
  Ti  Ti39  1  0.35259631  0.53428370  0.01734374  1
  Ti  Ti40  1  0.43171483  0.55502940  0.37163925  1
  Ti  Ti41  1  0.48271240  0.56379136  0.85332426  1
  Ti  Ti42  1  0.39226297  0.95010659  0.08239761  1
  Ti  Ti43  1  0.37846636  0.86332208  0.44310155  1
  Ti  Ti44  1  0.43018323  0.97077192  0.77693643  1
  Ti  Ti45  1  0.83776936  0.22769589  0.09060815  1
  Ti  Ti46  1  0.80129160  0.18661378  0.45569185  1
  Ti  Ti47  1  0.79022668  0.27461743  0.75365463  1
  Ti  Ti48  1  0.78380692  0.64364863  0.08474723  1
  Ti  Ti49  1  0.76811052  0.56749709  0.50939590  1
  Ti  Ti50  1  0.69507550  0.51349950  0.71449885  1
  Ti  Ti51  1  0.76333081  0.88781348  0.03004090  1
  Ti  Ti52  1  0.77460481  1.00857427  0.38954538  1
  Ti  Ti53  1  0.82256289  0.97167221  0.70717851  1
  Ti  Ti54  1  0.22314865  0.05435229  0.06930572  1
  Ti  Ti55  1  0.30319422  0.02876566  0.41405017  1
  Ti  Ti56  1  0.27128823  0.11420176  0.72832229  1
  Ti  Ti57  1  0.21197554  0.41491366  0.11715157  1
  Ti  Ti58  1  0.24200856  0.43710585  0.44122115  1
  Ti  Ti59  1  0.17953780  0.41203182  0.78690659  1
  Ti  Ti60  1  0.33947769  0.73757674  0.05679549  1
  Ti  Ti61  1  0.24019635  0.78752166  0.33957952  1
  Ti  Ti62  1  0.25914174  0.75536807  0.71134816  1
  Ti  Ti63  1  0.55730575  0.05854991  0.03138011  1
  Ti  Ti64  1  0.59013847  0.16224209  0.44887292  1
  Ti  Ti65  1  0.59617665  0.07797631  0.80978073  1
  Ti  Ti66  1  0.55315616  0.39501070  0.13599717  1
  Ti  Ti67  1  0.61580701  0.45483233  0.44799848  1
  Ti  Ti68  1  0.52565847  0.40262789  0.76003096  1
  Ti  Ti69  1  0.53144822  0.64586502  0.04355745  1
  Ti  Ti70  1  0.56651551  0.72383184  0.41872942  1
  Ti  Ti71  1  0.63491755  0.69758605  0.77080120  1
  Ti  Ti72  1  0.96917079  0.08770189  0.11999038  1
  Ti  Ti73  1  0.97887728  0.11591201  0.41234120  1
  Ti  Ti74  1  0.97531846  0.08797202  0.76294390  1
  Ti  Ti75  1  0.84910540  0.44145142  0.15513703  1
  Ti  Ti76  1  0.86684552  0.44232659  0.37800755  1
  Ti  Ti77  1  0.85503318  0.44485058  0.83017715  1
  Ti  Ti78  1  0.96446932  0.73548086  0.10009169  1
  Ti  Ti79  1  0.97332759  0.76512481  0.39525630  1
  Ti  Ti80  1  0.94214022  0.69396005  0.74285948  1
  Ti  Ti81  1  0.29188143  0.29123877  0.25580832  1
  Ti  Ti82  1  0.19691226  0.27559685  0.60977940  1
  Ti  Ti83  1  0.22030611  0.32944730  0.95052844  1
  Ti  Ti84  1  0.26493276  0.63909711  0.20467861  1
  Ti  Ti85  1  0.27104300  0.60889597  0.53812422  1
  Ti  Ti86  1  0.29209958  0.58104356  0.82139805  1
  Ti  Ti87  1  0.22914331  0.96311711  0.25339472  1
  Ti  Ti88  1  0.27030392  0.97353495  0.59181606  1
  Ti  Ti89  1  0.32154090  0.84480077  0.89559506  1
  Ti  Ti90  1  0.58825739  0.19234849  0.21974731  1
  Ti  Ti91  1  0.53679638  0.28951335  0.58814421  1
  Ti  Ti92  1  0.67183613  0.21112034  0.93168870  1
  Ti  Ti93  1  0.57779007  0.58184738  0.23534906  1
  Ti  Ti94  1  0.62256449  0.64754703  0.57513899  1
  Ti  Ti95  1  0.66627501  0.55186058  0.92131440  1
  Ti  Ti96  1  0.58726670  1.00994754  0.31063841  1
  Ti  Ti97  1  0.54652362  0.90484341  0.52318100  1
  Ti  Ti98  1  0.61785919  0.88338964  0.85780532  1
  Ti  Ti99  1  0.82867810  0.27106991  0.28764701  1
  Ti  Ti100  1  0.90046548  0.20102228  0.61957981  1
  Ti  Ti101  1  0.96151072  0.19020907  0.93741981  1
  Ti  Ti102  1  0.95301790  0.57700984  0.25034599  1
  Ti  Ti103  1  0.90136827  0.68359793  0.55624417  1
  Ti  Ti104  1  0.90951718  0.62704537  0.92706815  1
  Ti  Ti105  1  0.93909286  0.95311575  0.27827996  1
  Ti  Ti106  1  0.88271779  0.90453296  0.51124575  1
  Ti  Ti107  1  0.96942667  0.90684734  0.83876967  1
  Co  Co108  1  0.70868792  0.29927958  0.16162373  1
  Co  Co109  1  0.15902192  0.72575937  0.07745858  1
  Co  Co110  1  0.76539193  0.68132132  0.66726748  1
  Co  Co111  1  0.86789250  0.11406279  0.28356565  1
  Co  Co112  1  0.11378767  0.04859513  0.35453955  1
  Co  Co113  1  0.14887943  0.87263922  0.62837084  1
  Co  Co114  1  0.75520703  0.71313060  0.42637377  1
  Co  Co115  1  0.42595380  0.62830410  0.16769852  1
  Co  Co116  1  0.70275926  0.22649721  0.57286291  1
  Co  Co117  1  0.01416006  0.58073545  0.64607992  1
  Co  Co118  1  0.24421320  0.43184433  0.61981262  1
  Co  Co119  1  -0.05272138  0.01164696  -0.03854882  1
  Co  Co120  1  0.01403334  0.82562502  0.54475454  1
  Co  Co121  1  0.28277577  0.91283541  0.74599687  1
  Co  Co122  1  0.01717508  0.42683759  0.15013421  1
  Co  Co123  1  0.70346862  0.86170555  0.71667933  1
  Co  Co124  1  0.06039013  0.31556583  0.90284852  1
  Co  Co125  1  0.13452273  0.31633867  0.22656499  1
  Co  Co126  1  0.81830428  0.28749345  0.91453544  1
  Co  Co127  1  0.54808873  0.72152860  0.90313101  1
  Co  Co128  1  0.49541955  0.04640975  0.18172735  1
  Co  Co129  1  0.49272431  0.19069835  -0.08543218  1
  Co  Co130  1  0.58444766  0.46712898  0.60169988  1
  Co  Co131  1  0.80980405  -0.05777401  0.88021146  1
  Co  Co132  1  0.38769349  0.68232897  -0.08484641  1
  Co  Co133  1  0.64690568  0.59432662  0.38116002  1
  Co  Co134  1  0.27032242  0.16217329  0.36117249  1
  Co  Co135  1  0.77815184  0.56570924  0.28379755  1
  Co  Co136  1  0.36829842  0.39489016  0.35124602  1
  Co  Co137  1  -0.00998539  -0.09272207  0.68102595  1
  Co  Co138  1  0.81797699  0.50064371  -0.01160576  1
  Co  Co139  1  0.85505416  0.54307466  0.67083384  1
  Co  Co140  1  0.07890900  -0.00858201  0.18625008  1
  Co  Co141  1  0.90206990  0.82324380  -0.02289352  1
  Co  Co142  1  0.90114260  -0.06907804  0.11171347  1
  Co  Co143  1  0.89470073  0.32120264  0.50488365  1
  Co  Co144  1  0.11154027  0.13860655  0.66550735  1
  Co  Co145  1  0.59749414  0.24525626  0.78769107  1
  Co  Co146  1  0.15229520  0.10216160  0.49979010  1
  Co  Co147  1  0.47129441  0.39356532  0.46810930  1
  Co  Co148  1  -0.07725138  0.49012757  0.52932294  1
  Co  Co149  1  -0.09644871  0.37996664  0.66708291  1
  Co  Co150  1  0.23824840  0.47070464  0.27468087  1
  Co  Co151  1  0.39404014  -0.05678834  0.28303093  1
  Co  Co152  1  0.70451757  0.14623866  0.32461550  1
  Co  Co153  1  0.35928043  0.60349031  0.67806699  1
  Co  Co154  1  0.13080735  0.71746516  0.43613582  1
  Co  Co155  1  0.57108342  -0.03241105  0.68842513  1
  Co  Co156  1  0.15260423  0.84399230  0.17437468  1
  Co  Co157  1  0.81822381  0.06548425  0.03080094  1
  Co  Co158  1  0.69832469  0.38951153  0.84073130  1
  Co  Co159  1  0.36406976  0.28929031  0.63505360  1
  Co  Co160  1  0.69068063  0.14727754  0.08602724  1
  Co  Co161  1  0.40475377  -0.11831243  0.63222491  1
  Ni  Ni162  1  0.68636497  0.02091908  -0.05464346  1
  Ni  Ni163  1  0.44910958  0.28936789  0.21987110  1
  Ni  Ni164  1  0.37336525  0.35587787  0.07599711  1
  Ni  Ni165  1  0.09396709  0.78663014  0.76106628  1
  Ni  Ni166  1  0.94663348  0.56141305  0.07757065  1
  Ni  Ni167  1  0.70535899  0.72198599  -0.04687828  1
  Ni  Ni168  1  0.47888686  0.57672844  0.52353888  1
  Ni  Ni169  1  0.25226914  0.23300390  0.09955824  1
  Ni  Ni170  1  0.21621865  0.70346447  0.91546189  1
  Ni  Ni171  1  0.13192332  0.58659403  0.32044697  1
  Ni  Ni172  1  0.46872865  0.01938020  0.42648041  1
  Ni  Ni173  1  0.67305154  0.87300612  0.40967945  1
  Ni  Ni174  1  0.66066250  0.34688780  0.68367079  1
  Ni  Ni175  1  0.35561139  0.43150859  0.76186635  1
  Ni  Ni176  1  0.85344773  0.05872122  0.55434320  1
  Ni  Ni177  1  0.04184138  0.23395767  0.54174323  1
  Ni  Ni178  1  0.56602874  0.25199355  0.05891133  1
  Ni  Ni179  1  0.51641765  0.48273706  0.00364567  1
  Ni  Ni180  1  0.28018233  0.62403737  0.37566152  1
  Ni  Ni181  1  0.28640576  0.27872769  0.78783607  1
  Ni  Ni182  1  0.08135480  0.38414060  0.47601180  1
  Ni  Ni183  1  0.14541691  0.18810352  0.82306347  1
  Ni  Ni184  1  0.55931107  0.80312402  0.65780072  1
  Ni  Ni185  1  0.23374010  0.88667614  0.03673381  1
  Ni  Ni186  1  0.01057677  0.46292608  0.78815961  1
  Ni  Ni187  1  0.29685806  0.14746234  0.55885335  1
  Ni  Ni188  1  -0.01857591  0.29105912  0.38141905  1
  Ni  Ni189  1  0.56589873  0.34888557  0.92159357  1
  Ni  Ni190  1  0.78598647  0.61573077  0.82121267  1
  Ni  Ni191  1  0.08176810  0.61798696  -0.01457940  1
  Ni  Ni192  1  0.26069189  0.78343429  0.53477887  1
  Ni  Ni193  1  -0.10639228  0.61204899  0.40227884  1
  Ni  Ni194  1  0.31531596  0.83265591  0.18604739  1
  Ni  Ni195  1  0.47380506  0.86253533  -0.05182716  1
  Ni  Ni196  1  -0.08293888  0.36384292  0.01613902  1
  Ni  Ni197  1  0.08085703  0.88107776  0.31527898  1
  Ni  Ni198  1  0.52546137  0.41942522  0.30419022  1
  Ni  Ni199  1  0.66493663  0.52798530  0.09682968  1
  Ni  Ni200  1  0.18705775  0.57005277  0.67874891  1
  Ni  Ni201  1  0.20197522  0.50695430  -0.05238225  1
  Ni  Ni202  1  0.45431728  0.15725975  0.33355891  1
  Ni  Ni203  1  0.82742546  0.85004042  0.36089067  1
  Ni  Ni204  1  0.58560065  0.13775049  0.65049108  1
  Ni  Ni205  1  0.42488041  0.03439934  0.93305959  1
  Ni  Ni206  1  0.85913122  0.81523354  0.66254944  1
  Ni  Ni207  1  0.51780720  0.58783897  0.69394928  1
  Ni  Ni208  1  0.26684242  0.00391489  -0.11163301  1
  Ni  Ni209  1  0.69644351  0.30884624  0.40974088  1
  Ni  Ni210  1  0.13817077  0.18628843  -0.00715777  1
  Ni  Ni211  1  0.15561556  -0.11891886  0.88710580  1
  Ni  Ni212  1  -0.00610181  0.21477795  0.24098834  1
  Ni  Ni213  1  0.75036405  0.12241310  0.69432670  1
  Ni  Ni214  1  0.51890221  0.86566980  0.34991373  1
