# generated using pymatgen
data_Ti108Co54Ni53
_symmetry_space_group_name_H-M   'P 1'
_cell_length_a   14.60539396
_cell_length_b   14.57339973
_cell_length_c   14.63809664
_cell_angle_alpha   89.86208544
_cell_angle_beta   90.21893167
_cell_angle_gamma   89.89021746
_symmetry_Int_Tables_number   1
_chemical_formula_structural   Ti108Co54Ni53
_chemical_formula_sum   'Ti108 Co54 Ni53'
_cell_volume   3115.68490044
_cell_formula_units_Z   1
loop_
 _symmetry_equiv_pos_site_id
 _symmetry_equiv_pos_as_xyz
  1  'x, y, z'
loop_
 _atom_site_type_symbol
 _atom_site_label
 _atom_site_symmetry_multiplicity
 _atom_site_fract_x
 _atom_site_fract_y
 _atom_site_fract_z
 _atom_site_occupancy
  Ti  Ti0  1  0.08090576  0.06953138  0.27140983  1
  Ti  Ti1  1  0.10459918  0.08014013  0.57435118  1
  Ti  Ti2  1  0.10605642  0.00278419  0.94348744  1
  Ti  Ti3  1  0.10818974  0.39460552  0.24870386  1
  Ti  Ti4  1  0.09853794  0.51788722  0.53640216  1
  Ti  Ti5  1  0.07632224  0.34188399  0.88165451  1
  Ti  Ti6  1  0.06711406  0.78147192  0.31215239  1
  Ti  Ti7  1  0.12730784  0.70505241  0.61106980  1
  Ti  Ti8  1  0.05011014  0.76827567  0.93506427  1
  Ti  Ti9  1  0.41806776  0.09202990  0.25152079  1
  Ti  Ti10  1  0.39479926  -0.00725208  0.56119073  1
  Ti  Ti11  1  0.36917290  0.08705840  0.93175832  1
  Ti  Ti12  1  0.33194669  0.41417569  0.27881536  1
  Ti  Ti13  1  0.46774254  0.43597420  0.61585849  1
  Ti  Ti14  1  0.45350287  0.44167497  0.98840936  1
  Ti  Ti15  1  0.43719455  0.69491306  0.26716250  1
  Ti  Ti16  1  0.45368557  0.72829445  0.60708869  1
  Ti  Ti17  1  0.44213311  0.80507197  0.89911689  1
  Ti  Ti18  1  0.73635010  0.02152829  0.18323474  1
  Ti  Ti19  1  0.68101390  0.05597821  0.55595507  1
  Ti  Ti20  1  0.72397666  0.14249602  0.99420078  1
  Ti  Ti21  1  0.81102851  0.38821870  0.21575639  1
  Ti  Ti22  1  0.64729899  0.44774714  0.57862702  1
  Ti  Ti23  1  0.67605492  0.45353083  0.95606400  1
  Ti  Ti24  1  0.78441097  0.66849111  0.22096472  1
  Ti  Ti25  1  0.80785755  0.90205392  0.59022300  1
  Ti  Ti26  1  0.75386719  0.69760219  0.88469411  1
  Ti  Ti27  1  0.15596349  0.30204538  0.03555405  1
  Ti  Ti28  1  0.09391050  0.33132457  0.43843694  1
  Ti  Ti29  1  0.09673901  0.25876408  0.69863514  1
  Ti  Ti30  1  0.01707948  0.60370853  0.05045464  1
  Ti  Ti31  1  0.11854313  0.61061220  0.36805422  1
  Ti  Ti32  1  0.05973782  0.55204336  0.84436430  1
  Ti  Ti33  1  0.06243704  0.90404686  0.16457400  1
  Ti  Ti34  1  0.11072588  0.87430358  0.49757425  1
  Ti  Ti35  1  0.08921710  0.96466827  0.73734328  1
  Ti  Ti36  1  0.45448053  0.22995230  0.06052373  1
  Ti  Ti37  1  0.40151243  0.25578702  0.38084612  1
  Ti  Ti38  1  0.40065484  0.26105667  0.75791879  1
  Ti  Ti39  1  0.39230696  0.64741386  0.08175247  1
  Ti  Ti40  1  0.46942916  0.53041775  0.41884311  1
  Ti  Ti41  1  0.40740976  0.56716926  0.72472685  1
  Ti  Ti42  1  0.36206162  0.87736749  0.05362331  1
  Ti  Ti43  1  0.35638655  0.91835585  0.36605514  1
  Ti  Ti44  1  0.35442977  0.93666057  0.74897207  1
  Ti  Ti45  1  0.72763342  0.20033078  0.22687340  1
  Ti  Ti46  1  0.80738356  0.26493156  0.38634367  1
  Ti  Ti47  1  0.72156742  0.27497156  0.67993560  1
  Ti  Ti48  1  0.77166747  0.59488869  0.03447218  1
  Ti  Ti49  1  0.80783178  0.58462385  0.40776992  1
  Ti  Ti50  1  0.75324140  0.57460797  0.70753751  1
  Ti  Ti51  1  0.73225531  0.85394243  0.13783719  1
  Ti  Ti52  1  0.76553242  0.99345598  0.38369845  1
  Ti  Ti53  1  0.72845790  0.86871774  0.78524894  1
  Ti  Ti54  1  0.28095715  0.15923920  0.10724468  1
  Ti  Ti55  1  0.28098589  0.13385788  0.48954519  1
  Ti  Ti56  1  0.26087668  0.12174586  0.69591130  1
  Ti  Ti57  1  0.26254567  0.48171359  0.07072131  1
  Ti  Ti58  1  0.29696080  0.45393342  0.49381436  1
  Ti  Ti59  1  0.26035205  0.47666468  0.86849495  1
  Ti  Ti60  1  0.22781028  0.75191770  0.15044579  1
  Ti  Ti61  1  0.25601677  0.75868081  0.34807037  1
  Ti  Ti62  1  0.32291192  0.71562884  0.79319038  1
  Ti  Ti63  1  0.57104829  0.09248450  0.09099234  1
  Ti  Ti64  1  0.55252033  -0.00998225  0.41458825  1
  Ti  Ti65  1  0.59167017  0.14306326  0.73671441  1
  Ti  Ti66  1  0.64890770  0.32841905  0.08903005  1
  Ti  Ti67  1  0.62361682  0.32463910  0.42126451  1
  Ti  Ti68  1  0.59685270  0.38824200  0.77929199  1
  Ti  Ti69  1  0.55666191  0.80452020  0.05262689  1
  Ti  Ti70  1  0.55525143  0.72514457  0.42094891  1
  Ti  Ti71  1  0.60512305  0.70869045  0.72666594  1
  Ti  Ti72  1  0.98833948  0.07785843  0.08355004  1
  Ti  Ti73  1  0.95548511  0.15093297  0.41188945  1
  Ti  Ti74  1  0.83559158  0.06980819  0.69304221  1
  Ti  Ti75  1  0.98451175  0.39854678  0.09293803  1
  Ti  Ti76  1  0.92136486  0.41938114  0.47915762  1
  Ti  Ti77  1  0.92611314  0.46072318  0.67387374  1
  Ti  Ti78  1  0.88265465  0.76144003  0.06310563  1
  Ti  Ti79  1  0.87927767  0.76452264  0.38982441  1
  Ti  Ti80  1  0.89092798  0.73773495  0.75680319  1
  Ti  Ti81  1  0.22103502  0.21222567  0.28438755  1
  Ti  Ti82  1  0.34355094  0.28728065  0.58087927  1
  Ti  Ti83  1  0.30873805  0.28322108  0.92073717  1
  Ti  Ti84  1  0.24492297  0.58242487  0.22289781  1
  Ti  Ti85  1  0.21399737  0.54425948  0.69076868  1
  Ti  Ti86  1  0.19629914  0.63308721  0.97338892  1
  Ti  Ti87  1  0.25074079  0.96112557  0.19137188  1
  Ti  Ti88  1  0.29307827  0.82307036  0.54596730  1
  Ti  Ti89  1  0.21773925  0.86453829  0.87165616  1
  Ti  Ti90  1  0.54487697  0.24870069  0.23362551  1
  Ti  Ti91  1  0.52929068  0.16705939  0.52866276  1
  Ti  Ti92  1  0.52788204  0.24983079  0.89913153  1
  Ti  Ti93  1  0.60815588  0.54385507  0.27485128  1
  Ti  Ti94  1  0.68440413  0.66630888  0.54187937  1
  Ti  Ti95  1  0.56232342  0.62477709  0.97735139  1
  Ti  Ti96  1  0.52743606  0.92743310  0.18625086  1
  Ti  Ti97  1  0.60961689  0.86938698  0.60070175  1
  Ti  Ti98  1  0.56266228  0.95201093  0.82820966  1
  Ti  Ti99  1  0.93737442  0.22971574  0.20535727  1
  Ti  Ti100  1  0.90397191  0.26181507  0.63075309  1
  Ti  Ti101  1  0.84990151  0.29836460  0.92684591  1
  Ti  Ti102  1  0.94776384  0.49330896  0.29911473  1
  Ti  Ti103  1  0.93163630  0.62394151  0.58448758  1
  Ti  Ti104  1  0.89943232  0.49646989  0.94248986  1
  Ti  Ti105  1  0.94668450  0.94243567  0.33066405  1
  Ti  Ti106  1  0.97796443  0.82259972  0.62283141  1
  Ti  Ti107  1  0.88313472  0.87311539  0.89665457  1
  Co  Co108  1  0.01962489  0.73898865  0.47634848  1
  Co  Co109  1  0.65407862  0.37419708  0.26038258  1
  Co  Co110  1  0.05377050  0.00970246  0.43478357  1
  Co  Co111  1  0.61100957  0.75831813  0.23290587  1
  Co  Co112  1  0.82437080  0.27410303  0.08803586  1
  Co  Co113  1  0.36940123  0.58545809  0.54660867  1
  Co  Co114  1  0.83929620  0.73787997  0.53828122  1
  Co  Co115  1  0.14838504  0.06076109  0.10906979  1
  Co  Co116  1  0.02514918  0.64682339  0.71817833  1
  Co  Co117  1  0.84106734  0.12061437  0.11041305  1
  Co  Co118  1  0.53462970  0.59354257  0.56342419  1
  Co  Co119  1  0.79018666  0.85596614  0.29030604  1
  Co  Co120  1  0.47564834  0.35645115  0.47879456  1
  Co  Co121  1  0.60093957  0.78195719  0.87411841  1
  Co  Co122  1  0.18189035  0.23954344  0.55866267  1
  Co  Co123  1  -0.02254858  -0.01664894  0.60380864  1
  Co  Co124  1  0.25776480  -0.00927244  0.00995242  1
  Co  Co125  1  0.71622721  0.50936844  0.15970970  1
  Co  Co126  1  0.33816380  0.34232768  0.06840049  1
  Co  Co127  1  0.68498835  0.00238096  0.70536717  1
  Co  Co128  1  0.02335723  0.22079896  0.53966154  1
  Co  Co129  1  0.54085842  0.17096592  0.37239590  1
  Co  Co130  1  0.24250752  0.03030430  0.84186589  1
  Co  Co131  1  0.24983971  0.30504141  0.41566766  1
  Co  Co132  1  -0.02987456  0.59372799  0.42867787  1
  Co  Co133  1  0.22815830  0.65287950  0.48901279  1
  Co  Co134  1  0.38678783  0.72065952  0.43740238  1
  Co  Co135  1  0.23028771  -0.02918937  0.63091979  1
  Co  Co136  1  0.81110099  0.42511447  0.05282850  1
  Co  Co137  1  0.31710892  0.58529258  0.36487429  1
  Co  Co138  1  0.89419745  -0.04195253  0.16766042  1
  Co  Co139  1  0.28995858  0.68788557  0.64054763  1
  Co  Co140  1  0.57263650  0.49783036  0.08811770  1
  Co  Co141  1  0.72939970  0.83750462  -0.03425779  1
  Co  Co142  1  0.41069813  0.07852347  0.41317302  1
  Co  Co143  1  0.68855245  0.71203516  0.08011396  1
  Co  Co144  1  0.90865220  0.92396162  0.74278199  1
  Co  Co145  1  0.04832279  0.81568349  0.78093378  1
  Co  Co146  1  0.15244571  0.91900491  0.32377796  1
  Co  Co147  1  0.22657061  0.33105234  0.17515892  1
  Co  Co148  1  0.49920404  0.40154178  0.31694684  1
  Co  Co149  1  0.37728076  0.26397057  0.21423631  1
  Co  Co150  1  0.18852276  0.46763832  0.37157713  1
  Co  Co151  1  0.13258864  0.15759962  0.41527827  1
  Co  Co152  1  0.63732082  0.54456911  0.43817595  1
  Co  Co153  1  0.33379083  0.42294357  0.69935022  1
  Co  Co154  1  -0.08606731  0.67404172  -0.07280974  1
  Co  Co155  1  0.49085825  0.84235456  0.32878707  1
  Co  Co156  1  0.66136361  -0.02451783  0.02085847  1
  Co  Co157  1  0.03693853  0.37314873  0.59088659  1
  Co  Co158  1  0.08890021  0.43556117  0.73488362  1
  Co  Co159  1  0.19820211  0.14005713  -0.02815950  1
  Co  Co160  1  0.48268940  0.82830716  0.73883724  1
  Co  Co161  1  0.55045957  0.64422944  0.14380627  1
  Ni  Ni162  1  0.73063512  0.01573599  0.86985159  1
  Ni  Ni163  1  0.49759971  0.95658275  -0.01220887  1
  Ni  Ni164  1  0.57516783  0.53963151  0.70811052  1
  Ni  Ni165  1  -0.01827489  -0.08683361  0.02212252  1
  Ni  Ni166  1  0.70352996  0.70466065  0.36107138  1
  Ni  Ni167  1  0.70836097  0.84332241  0.45655228  1
  Ni  Ni168  1  0.20405611  0.82582196  0.70378955  1
  Ni  Ni169  1  0.57361340  0.09208440  -0.08509650  1
  Ni  Ni170  1  -0.07558662  0.80625338  0.21710385  1
  Ni  Ni171  1  -0.01773921  0.24104242  0.02524369  1
  Ni  Ni172  1  0.37352700  0.59214880  0.92617595  1
  Ni  Ni173  1  0.09568274  0.21372588  0.16182660  1
  Ni  Ni174  1  0.65320372  0.56866604  0.84414915  1
  Ni  Ni175  1  0.11389769  0.47043623  -0.01253442  1
  Ni  Ni176  1  0.16313377  0.85029064  0.03315550  1
  Ni  Ni177  1  0.52223602  1.00128324  0.66334537  1
  Ni  Ni178  1  0.15982632  0.68979381  0.80859712  1
  Ni  Ni179  1  0.64212646  -0.09486518  0.30380202  1
  Ni  Ni180  1  0.75784065  0.42958474  0.38260352  1
  Ni  Ni181  1  -0.06124717  0.39716558  0.81622420  1
  Ni  Ni182  1  0.89158710  0.54348974  0.14537470  1
  Ni  Ni183  1  0.88163367  0.08454333  0.26883062  1
  Ni  Ni184  1  0.19834104  0.39001540  0.61650620  1
  Ni  Ni185  1  0.23408607  -0.02443685  0.46631167  1
  Ni  Ni186  1  0.25907272  0.05781815  0.32829118  1
  Ni  Ni187  1  0.88823452  0.57159066  0.79693619  1
  Ni  Ni188  1  0.74995499  0.75473243  0.66837128  1
  Ni  Ni189  1  0.60169180  0.07048431  0.26526368  1
  Ni  Ni190  1  0.43361722  0.53410022  0.21617026  1
  Ni  Ni191  1  0.77927073  0.34852836  0.53584404  1
  Ni  Ni192  1  0.29954936  0.74916680  -0.02904711  1
  Ni  Ni193  1  0.76891850  0.42031173  0.79832858  1
  Ni  Ni194  1  0.43606951  0.40646782  0.83021774  1
  Ni  Ni195  1  -0.04397090  0.65474618  0.26191976  1
  Ni  Ni196  1  0.40359306  0.03935708  0.09737294  1
  Ni  Ni197  1  0.07493184  0.55284987  0.19620014  1
  Ni  Ni198  1  0.41947721  0.14256084  0.64107046  1
  Ni  Ni199  1  0.68249843  0.29875468  -0.08915150  1
  Ni  Ni200  1  0.44123642  0.08602694  0.78962988  1
  Ni  Ni201  1  0.78514029  0.18427879  0.53792787  1
  Ni  Ni202  1  0.73543362  0.17324515  0.81993706  1
  Ni  Ni203  1  0.22465910  0.33862527  0.77771957  1
  Ni  Ni204  1  0.49327823  0.65717853  0.82837295  1
  Ni  Ni205  1  -0.04247775  0.32985996  0.33275607  1
  Ni  Ni206  1  0.18985334  0.19060373  0.82820120  1
  Ni  Ni207  1  0.46579220  -0.14307642  0.49576897  1
  Ni  Ni208  1  0.79584275  0.51298125  0.55618679  1
  Ni  Ni209  1  0.06127958  0.73477990  0.13684197  1
  Ni  Ni210  1  0.37097390  0.83590534  0.21170267  1
  Ni  Ni211  1  0.55508482  0.29106477  0.63358292  1
  Ni  Ni212  1  0.47789684  0.38421666  0.15272827  1
  Ni  Ni213  1  0.86869408  0.04331794  0.50461579  1
  Ni  Ni214  1  0.69171111  0.14237997  0.40190915  1
