# generated using pymatgen
data_Ti108Co54Ni53
_symmetry_space_group_name_H-M   'P 1'
_cell_length_a   14.60412079
_cell_length_b   14.66841875
_cell_length_c   14.67232000
_cell_angle_alpha   90.27946971
_cell_angle_beta   89.90600172
_cell_angle_gamma   89.90500047
_symmetry_Int_Tables_number   1
_chemical_formula_structural   Ti108Co54Ni53
_chemical_formula_sum   'Ti108 Co54 Ni53'
_cell_volume   3143.04900726
_cell_formula_units_Z   1
loop_
 _symmetry_equiv_pos_site_id
 _symmetry_equiv_pos_as_xyz
  1  'x, y, z'
loop_
 _atom_site_type_symbol
 _atom_site_label
 _atom_site_symmetry_multiplicity
 _atom_site_fract_x
 _atom_site_fract_y
 _atom_site_fract_z
 _atom_site_occupancy
  Ti  Ti0  1  0.04169702  0.04511261  0.20904907  1
  Ti  Ti1  1  0.05265673  0.07655044  0.60901609  1
  Ti  Ti2  1  0.23903022  0.08522728  0.92839793  1
  Ti  Ti3  1  0.16474070  0.40034850  0.24743244  1
  Ti  Ti4  1  0.10633449  0.45654441  0.55788685  1
  Ti  Ti5  1  0.04686056  0.46706105  0.93534487  1
  Ti  Ti6  1  0.09423966  0.73322437  0.26879432  1
  Ti  Ti7  1  0.04806523  0.77277447  0.59961869  1
  Ti  Ti8  1  0.12291957  0.81427237  0.94220722  1
  Ti  Ti9  1  0.43939300  0.06491310  0.25859380  1
  Ti  Ti10  1  0.38351963  0.08567469  0.52139389  1
  Ti  Ti11  1  0.45583516  0.08281647  0.94522223  1
  Ti  Ti12  1  0.38308302  0.41676959  0.22022975  1
  Ti  Ti13  1  0.41234183  0.37414156  0.59869932  1
  Ti  Ti14  1  0.40624239  0.44452577  0.91001262  1
  Ti  Ti15  1  0.39534299  0.76035745  0.26268197  1
  Ti  Ti16  1  0.35588288  0.74637870  0.61489337  1
  Ti  Ti17  1  0.44182217  0.74727656  0.95310842  1
  Ti  Ti18  1  0.75933576  0.14592846  0.22192943  1
  Ti  Ti19  1  0.58356780  0.11322935  0.55957962  1
  Ti  Ti20  1  0.78555537  0.07522882  0.89339400  1
  Ti  Ti21  1  0.68873359  0.47231763  0.26032842  1
  Ti  Ti22  1  0.78917835  0.44918923  0.56996318  1
  Ti  Ti23  1  0.74393786  0.49139092  0.90665513  1
  Ti  Ti24  1  0.75183538  0.66284918  0.21302090  1
  Ti  Ti25  1  0.80144579  0.76310791  0.59303689  1
  Ti  Ti26  1  0.69869841  0.70979278  0.87626209  1
  Ti  Ti27  1  0.07837383  0.23178817  0.14574217  1
  Ti  Ti28  1  0.12088266  0.29011212  0.40474514  1
  Ti  Ti29  1  0.15918890  0.23344761  0.69870448  1
  Ti  Ti30  1  0.02453572  0.59694319  0.11200778  1
  Ti  Ti31  1  0.14970175  0.57321502  0.40808649  1
  Ti  Ti32  1  0.10874429  0.59357559  0.68634203  1
  Ti  Ti33  1  0.11276775  0.88167588  0.14007916  1
  Ti  Ti34  1  0.11978016  0.93630708  0.35104094  1
  Ti  Ti35  1  0.03877428  0.88512363  0.77516708  1
  Ti  Ti36  1  0.48291529  0.23959553  0.10144557  1
  Ti  Ti37  1  0.43806594  0.31109320  0.40968261  1
  Ti  Ti38  1  0.34685706  0.21504810  0.68448294  1
  Ti  Ti39  1  0.34435986  0.58132786  0.04611043  1
  Ti  Ti40  1  0.39683073  0.59959362  0.39775185  1
  Ti  Ti41  1  0.44935140  0.59342309  0.71805356  1
  Ti  Ti42  1  0.47750760  0.88305382  0.15432349  1
  Ti  Ti43  1  0.41248487  0.91440413  0.39894877  1
  Ti  Ti44  1  0.47122925  0.84730525  0.74533796  1
  Ti  Ti45  1  0.69216533  0.29857794  0.14031896  1
  Ti  Ti46  1  0.74712385  0.15494672  0.43074381  1
  Ti  Ti47  1  0.68481222  0.20490458  0.77067560  1
  Ti  Ti48  1  0.83547512  0.48515577  0.09662281  1
  Ti  Ti49  1  0.76228586  0.58927637  0.44616311  1
  Ti  Ti50  1  0.65445412  0.57557029  0.75177607  1
  Ti  Ti51  1  0.80554975  0.84894097  0.12165240  1
  Ti  Ti52  1  0.68584661  0.86875713  0.43629625  1
  Ti  Ti53  1  0.68065358  0.91954006  0.80120142  1
  Ti  Ti54  1  0.31807365  0.14102968  0.10762638  1
  Ti  Ti55  1  0.16240483  0.10141110  0.45467276  1
  Ti  Ti56  1  0.30192893  0.00173223  0.72338212  1
  Ti  Ti57  1  0.21117465  0.39176985  0.03056127  1
  Ti  Ti58  1  0.27943223  0.42334451  0.44987949  1
  Ti  Ti59  1  0.29420693  0.44244664  0.74923504  1
  Ti  Ti60  1  0.30225220  0.81259562  0.06714855  1
  Ti  Ti61  1  0.18141508  0.76818094  0.44798118  1
  Ti  Ti62  1  0.22125309  0.79186893  0.77148391  1
  Ti  Ti63  1  0.63340980  0.14444093  0.02178784  1
  Ti  Ti64  1  0.60909615  0.05346268  0.35571787  1
  Ti  Ti65  1  0.50508154  0.08632487  0.73466193  1
  Ti  Ti66  1  0.64843339  0.47505880  0.07756532  1
  Ti  Ti67  1  0.63572509  0.40867631  0.42878201  1
  Ti  Ti68  1  0.63464504  0.38359266  0.77837358  1
  Ti  Ti69  1  0.63220127  0.77007705  0.05672621  1
  Ti  Ti70  1  0.52998786  0.75438303  0.41263099  1
  Ti  Ti71  1  0.59889233  0.73421138  0.65477826  1
  Ti  Ti72  1  0.92067763  0.10360133  0.06606927  1
  Ti  Ti73  1  0.90336727  0.07364993  0.35555916  1
  Ti  Ti74  1  0.85094486  0.05613522  0.62558863  1
  Ti  Ti75  1  1.01313235  0.41443125  0.12750669  1
  Ti  Ti76  1  0.95030031  0.36948045  0.44814108  1
  Ti  Ti77  1  0.92719652  0.41147074  0.78166951  1
  Ti  Ti78  1  0.98132197  0.77189623  0.06530824  1
  Ti  Ti79  1  0.84795075  0.74719814  0.38165561  1
  Ti  Ti80  1  0.84230393  0.81223203  0.78165168  1
  Ti  Ti81  1  0.21116181  0.15317443  0.26451077  1
  Ti  Ti82  1  0.26732825  0.24801103  0.52025387  1
  Ti  Ti83  1  0.34963222  0.26060432  0.95625075  1
  Ti  Ti84  1  0.20755623  0.59207849  0.19346089  1
  Ti  Ti85  1  0.31858048  0.54898071  0.57679144  1
  Ti  Ti86  1  0.19177349  0.57127532  0.86038661  1
  Ti  Ti87  1  0.27486559  0.95946712  0.20406391  1
  Ti  Ti88  1  0.26842107  0.93407872  0.51956570  1
  Ti  Ti89  1  0.33214129  0.90432849  0.89439065  1
  Ti  Ti90  1  0.56876663  0.25696748  0.28481610  1
  Ti  Ti91  1  0.62147507  0.31918048  0.59667592  1
  Ti  Ti92  1  0.56848128  0.34648221  0.95963373  1
  Ti  Ti93  1  0.53711716  0.61173504  0.25719032  1
  Ti  Ti94  1  0.58881146  0.53073917  0.58096462  1
  Ti  Ti95  1  0.55048447  0.60091311  0.97765157  1
  Ti  Ti96  1  0.66189988  0.96484839  0.19491937  1
  Ti  Ti97  1  0.60815061  0.92689481  0.62352696  1
  Ti  Ti98  1  0.64031751  0.95295872  0.99345797  1
  Ti  Ti99  1  0.85837876  0.34815579  0.24379690  1
  Ti  Ti100  1  0.90745777  0.24954927  0.60339600  1
  Ti  Ti101  1  0.88766648  0.25323628  0.92372900  1
  Ti  Ti102  1  0.89206067  0.54355030  0.29034285  1
  Ti  Ti103  1  0.91121193  0.57576880  0.64433987  1
  Ti  Ti104  1  0.89569278  0.61245639  0.93930569  1
  Ti  Ti105  1  0.93567907  0.88258185  0.27650287  1
  Ti  Ti106  1  0.89272773  0.91265590  0.48690349  1
  Ti  Ti107  1  0.89353862  0.91830478  0.94713861  1
  Co  Co108  1  0.26367090  0.67479459  0.33279826  1
  Co  Co109  1  0.77932912  0.01188175  0.05372242  1
  Co  Co110  1  0.78323793  0.18113275  0.03716954  1
  Co  Co111  1  -0.04046708  0.41282200  0.62138518  1
  Co  Co112  1  0.28295567  0.50724461  0.31627152  1
  Co  Co113  1  0.47840056  0.64732732  0.54272186  1
  Co  Co114  1  0.48152082  0.52343314  0.11434389  1
  Co  Co115  1  0.54344518  0.37820611  0.15647417  1
  Co  Co116  1  -0.04643063  0.71913525  0.71274803  1
  Co  Co117  1  -0.03887900  0.76658734  0.88720988  1
  Co  Co118  1  0.18258034  -0.05010373  0.83902867  1
  Co  Co119  1  0.08824015  0.71513952  0.79970937  1
  Co  Co120  1  0.73113410  0.62120307  0.01434522  1
  Co  Co121  1  0.26483936  0.85221954  0.34248264  1
  Co  Co122  1  0.01475421  0.32013485  0.28004662  1
  Co  Co123  1  0.65637867  0.70502817  0.51290992  1
  Co  Co124  1  0.22605309  0.09503766  0.61162433  1
  Co  Co125  1  0.74367763  0.61077563  0.62166344  1
  Co  Co126  1  0.54570074  -0.03493926  0.47531070  1
  Co  Co127  1  0.37243308  0.60093015  0.21593194  1
  Co  Co128  1  0.06273345  0.64959753  -0.04926616  1
  Co  Co129  1  -0.00183845  0.17798376  0.48374051  1
  Co  Co130  1  0.14693201  0.71580535  0.08251355  1
  Co  Co131  1  -0.04728231  -0.06507838  0.10208260  1
  Co  Co132  1  0.69410081  0.05383868  0.70490910  1
  Co  Co133  1  0.62058637  0.62469979  0.12999423  1
  Co  Co134  1  0.36103440  0.75886624  0.45090952  1
  Co  Co135  1  0.76569667  -0.01358420  0.35088173  1
  Co  Co136  1  0.75492561  0.83822062  0.27543426  1
  Co  Co137  1  -0.07474436  0.18119178  0.21480615  1
  Co  Co138  1  0.27751475  0.61971246  0.72139028  1
  Co  Co139  1  0.55519798  0.50265639  0.86272816  1
  Co  Co140  1  0.48489344  0.14493971  0.40689983  1
  Co  Co141  1  0.04966984  0.15984691  0.32511315  1
  Co  Co142  1  0.78645649  0.47694212  0.73031029  1
  Co  Co143  1  0.58245523  0.82096691  0.89992412  1
  Co  Co144  1  0.46594470  0.70314366  0.11397754  1
  Co  Co145  1  0.89900473  0.41590950  -0.03376613  1
  Co  Co146  1  0.39182009  0.38605752  0.05936099  1
  Co  Co147  1  0.52705454  0.21706585  -0.12077392  1
  Co  Co148  1  0.80559018  0.43702745  0.38834889  1
  Co  Co149  1  0.23383793  0.36953268  0.62269513  1
  Co  Co150  1  0.17037882  0.07358256  0.11005197  1
  Co  Co151  1  0.60893174  0.24304928  0.45262324  1
  Co  Co152  1  0.48827877  0.82007226  0.55342140  1
  Co  Co153  1  0.27637125  0.31714845  0.32816899  1
  Co  Co154  1  0.54460819  0.90116482  0.30948215  1
  Co  Co155  1  0.23868964  0.77518263  0.20515831  1
  Co  Co156  1  0.01398021  0.01704388  0.44644293  1
  Co  Co157  1  0.46307413  0.22486994  0.55565456  1
  Co  Co158  1  0.77826376  0.32483537  0.67549686  1
  Co  Co159  1  0.59725781  0.13132119  0.18853581  1
  Co  Co160  1  0.77322558  0.91233639  0.64724119  1
  Co  Co161  1  0.78512630  0.34168823  0.83484604  1
  Ni  Ni162  1  0.50070333  0.04068943  0.09913999  1
  Ni  Ni163  1  0.35853946  0.14623135  0.82720388  1
  Ni  Ni164  1  0.39684597  0.22782390  0.25208261  1
  Ni  Ni165  1  0.19765417  0.94539731  0.00929109  1
  Ni  Ni166  1  0.25916085  0.70830345  -0.06259967  1
  Ni  Ni167  1  0.47415987  0.90637160  -0.00607389  1
  Ni  Ni168  1  0.49036169  0.43733269  0.72150928  1
  Ni  Ni169  1  0.62251421  0.07718615  0.86394236  1
  Ni  Ni170  1  0.77757189  0.30337861  0.49678206  1
  Ni  Ni171  1  0.20490496  0.82659655  0.61864521  1
  Ni  Ni172  1  0.03808080  0.30827772  -0.00150439  1
  Ni  Ni173  1  0.82324444  0.63258014  0.78131072  1
  Ni  Ni174  1  0.43735478  -0.03571251  0.61530380  1
  Ni  Ni175  1  0.84823707  0.00700618  0.20473202  1
  Ni  Ni176  1  0.36466219  0.59243397  0.86952761  1
  Ni  Ni177  1  0.10285943  0.42504166  0.74049591  1
  Ni  Ni178  1  0.24397603  0.30427712  0.82903840  1
  Ni  Ni179  1  0.37010999  0.73564874  0.80034338  1
  Ni  Ni180  1  0.72468866  0.29743859  0.33248713  1
  Ni  Ni181  1  -0.06440794  0.52793226  0.48139036  1
  Ni  Ni182  1  0.41039889  0.31443965  0.80763629  1
  Ni  Ni183  1  0.72306645  0.01283327  0.51879858  1
  Ni  Ni184  1  0.89307888  0.29278140  0.08948969  1
  Ni  Ni185  1  0.09726355  -0.07447895  0.54387323  1
  Ni  Ni186  1  -0.00158349  0.57344557  0.80951412  1
  Ni  Ni187  1  0.52518569  0.44938421  0.31121835  1
  Ni  Ni188  1  -0.06875362  0.71121454  0.23785635  1
  Ni  Ni189  1  0.07508759  0.29239861  0.57129679  1
  Ni  Ni190  1  0.34704930  -0.01134213  0.05175813  1
  Ni  Ni191  1  0.01404006  0.81288776  0.42260696  1
  Ni  Ni192  1  0.52445839  0.25472278  0.71033548  1
  Ni  Ni193  1  0.53526592  0.68502442  0.82167499  1
  Ni  Ni194  1  0.86440794  0.65952060  0.10004144  1
  Ni  Ni195  1  -0.05819052  -0.09409604  0.64559886  1
  Ni  Ni196  1  0.74974911  0.34260671  -0.00403826  1
  Ni  Ni197  1  0.18690285  0.22274957  0.01408425  1
  Ni  Ni198  1  0.05606039  0.53570237  0.27027235  1
  Ni  Ni199  1  0.27077609  0.29508561  0.15295156  1
  Ni  Ni200  1  0.46579627  0.47099011  0.47521032  1
  Ni  Ni201  1  0.73729421  0.17928909  0.60092916  1
  Ni  Ni202  1  -0.00226951  0.64745482  0.38017639  1
  Ni  Ni203  1  0.59771492  0.77412814  0.22075717  1
  Ni  Ni204  1  0.88375942  0.23944221  0.37074420  1
  Ni  Ni205  1  0.28033397  0.01680762  0.36106728  1
  Ni  Ni206  1  0.81521803  0.76961364  -0.02598323  1
  Ni  Ni207  1  0.51256432  -0.03904639  0.84626312  1
  Ni  Ni208  1  0.58681215  0.57599377  0.41607789  1
  Ni  Ni209  1  0.19836705  0.65874949  0.56839082  1
  Ni  Ni210  1  0.67929127  0.70509068  0.35138286  1
  Ni  Ni211  1  0.32250044  0.17075160  0.38594732  1
  Ni  Ni212  1  0.86358533  -0.02138535  0.78061609  1
  Ni  Ni213  1  0.17093584  0.55416882  0.02913690  1
  Ni  Ni214  1  0.92906472  0.69315603  0.52033200  1
