# generated using pymatgen
data_Ti108Co54Ni53
_symmetry_space_group_name_H-M   'P 1'
_cell_length_a   14.72906538
_cell_length_b   14.59877288
_cell_length_c   14.64598599
_cell_angle_alpha   89.78355859
_cell_angle_beta   90.28001148
_cell_angle_gamma   90.00311286
_symmetry_Int_Tables_number   1
_chemical_formula_structural   Ti108Co54Ni53
_chemical_formula_sum   'Ti108 Co54 Ni53'
_cell_volume   3149.21180442
_cell_formula_units_Z   1
loop_
 _symmetry_equiv_pos_site_id
 _symmetry_equiv_pos_as_xyz
  1  'x, y, z'
loop_
 _atom_site_type_symbol
 _atom_site_label
 _atom_site_symmetry_multiplicity
 _atom_site_fract_x
 _atom_site_fract_y
 _atom_site_fract_z
 _atom_site_occupancy
  Ti  Ti0  1  0.14337323  0.07234610  0.31025311  1
  Ti  Ti1  1  0.12366812  0.08951135  0.56603979  1
  Ti  Ti2  1  0.09412797  0.05883085  0.95837983  1
  Ti  Ti3  1  0.09141836  0.37800295  0.33111409  1
  Ti  Ti4  1  0.03131913  0.43097869  0.56654829  1
  Ti  Ti5  1  0.17522086  0.34783715  0.98571416  1
  Ti  Ti6  1  0.16072014  0.74263069  0.25886602  1
  Ti  Ti7  1  0.04833622  0.74353514  0.56047853  1
  Ti  Ti8  1  0.01875906  0.72741066  0.94162458  1
  Ti  Ti9  1  0.46742570  0.05244628  0.25153078  1
  Ti  Ti10  1  0.42726015  0.05642886  0.54968608  1
  Ti  Ti11  1  0.39070149  0.11822448  0.88942863  1
  Ti  Ti12  1  0.28731524  0.37735362  0.29276183  1
  Ti  Ti13  1  0.43628360  0.49719328  0.70960347  1
  Ti  Ti14  1  0.37501054  0.31037824  0.91580332  1
  Ti  Ti15  1  0.34687627  0.75534652  0.30137509  1
  Ti  Ti16  1  0.38265690  0.69653877  0.64043625  1
  Ti  Ti17  1  0.45486212  0.82108149  0.86650948  1
  Ti  Ti18  1  0.81298985  0.01756821  0.26390713  1
  Ti  Ti19  1  0.72206228  0.07696839  0.54362848  1
  Ti  Ti20  1  0.80018653  0.07502339  0.86202156  1
  Ti  Ti21  1  0.72208163  0.35683345  0.21589349  1
  Ti  Ti22  1  0.76348763  0.39324082  0.59194999  1
  Ti  Ti23  1  0.78113565  0.41313847  0.83228347  1
  Ti  Ti24  1  0.75573178  0.79697167  0.27283967  1
  Ti  Ti25  1  0.73935390  0.80959591  0.56753334  1
  Ti  Ti26  1  0.76623318  0.84854116  0.85560799  1
  Ti  Ti27  1  0.06030948  0.24897955  0.17801166  1
  Ti  Ti28  1  0.11277645  0.26681551  0.48082793  1
  Ti  Ti29  1  0.01806569  0.19100035  0.76574292  1
  Ti  Ti30  1  0.01842583  0.58541481  0.10458091  1
  Ti  Ti31  1  0.10476272  0.60777101  0.44062623  1
  Ti  Ti32  1  0.12536481  0.63566228  0.76580854  1
  Ti  Ti33  1  0.10911959  0.86502192  0.07410260  1
  Ti  Ti34  1  0.07972913  0.92601723  0.41935319  1
  Ti  Ti35  1  0.04524314  0.96649049  0.76075711  1
  Ti  Ti36  1  0.45901729  0.21080774  0.09478440  1
  Ti  Ti37  1  0.44886551  0.32071502  0.40382602  1
  Ti  Ti38  1  0.44204747  0.29511071  0.70836176  1
  Ti  Ti39  1  0.47517120  0.63327500  0.05498584  1
  Ti  Ti40  1  0.41261284  0.59515722  0.39814690  1
  Ti  Ti41  1  0.30598960  0.61378866  0.81800880  1
  Ti  Ti42  1  0.43688024  0.98201688  0.02787777  1
  Ti  Ti43  1  0.36923278  0.91782797  0.41321503  1
  Ti  Ti44  1  0.42320189  0.92841590  0.70079432  1
  Ti  Ti45  1  0.76384487  0.35860427  0.02691245  1
  Ti  Ti46  1  0.78352736  0.25064927  0.42974863  1
  Ti  Ti47  1  0.64138006  0.30831075  0.75173675  1
  Ti  Ti48  1  0.83661124  0.51617266  0.14495593  1
  Ti  Ti49  1  0.71114598  0.63070926  0.39503678  1
  Ti  Ti50  1  0.75407955  0.57587275  0.71903879  1
  Ti  Ti51  1  0.78809137  0.94738766  0.03023100  1
  Ti  Ti52  1  0.78376377  0.91941764  0.42028593  1
  Ti  Ti53  1  0.71829707  0.95736886  0.69996024  1
  Ti  Ti54  1  0.20944819  0.03295661  0.12421024  1
  Ti  Ti55  1  0.30617150  0.14875980  0.41491481  1
  Ti  Ti56  1  0.23738518  0.02381683  0.77415191  1
  Ti  Ti57  1  0.33191903  0.37211060  0.09958734  1
  Ti  Ti58  1  0.25939161  0.47595893  0.45437664  1
  Ti  Ti59  1  0.25125135  0.36124384  0.74632511  1
  Ti  Ti60  1  0.30834373  0.72008086  0.10136846  1
  Ti  Ti61  1  0.21712387  0.79043797  0.45707816  1
  Ti  Ti62  1  0.24024226  0.80215365  0.81052664  1
  Ti  Ti63  1  0.61499280  0.06607621  0.12058203  1
  Ti  Ti64  1  0.57876795  0.16226433  0.42837697  1
  Ti  Ti65  1  0.59936479  0.09518212  0.82046258  1
  Ti  Ti66  1  0.56117167  0.38258357  0.10639989  1
  Ti  Ti67  1  0.58543488  0.48090317  0.43907020  1
  Ti  Ti68  1  0.60106887  0.47236377  0.62419488  1
  Ti  Ti69  1  0.60434672  0.77639106  0.13965695  1
  Ti  Ti70  1  0.54391164  0.73012635  0.32580422  1
  Ti  Ti71  1  0.57953765  0.77525873  0.70428607  1
  Ti  Ti72  1  0.93644862  0.12404495  0.03875046  1
  Ti  Ti73  1  0.90441203  0.05576331  0.45030932  1
  Ti  Ti74  1  0.88323521  0.09523436  0.66816683  1
  Ti  Ti75  1  0.98837341  0.37665880  0.03896688  1
  Ti  Ti76  1  0.88276466  0.38369077  0.29850974  1
  Ti  Ti77  1  0.97726192  0.38993899  0.78273799  1
  Ti  Ti78  1  0.86406452  0.72925158  0.13778594  1
  Ti  Ti79  1  0.87632317  0.73014698  0.42032555  1
  Ti  Ti80  1  0.94540223  0.63044837  0.71945883  1
  Ti  Ti81  1  0.26710729  0.21345949  0.19778549  1
  Ti  Ti82  1  0.27543417  0.22192315  0.60296957  1
  Ti  Ti83  1  0.20380037  0.19210146  0.88339030  1
  Ti  Ti84  1  0.28309301  0.55842445  0.20955360  1
  Ti  Ti85  1  0.25212224  0.52931109  0.64679848  1
  Ti  Ti86  1  0.30121641  0.53913192  0.99723180  1
  Ti  Ti87  1  0.33532413  0.90921385  0.19576778  1
  Ti  Ti88  1  0.16726047  0.90250943  0.61768191  1
  Ti  Ti89  1  0.29587629  0.87787263  1.00124085  1
  Ti  Ti90  1  0.58293278  0.22200043  0.25456935  1
  Ti  Ti91  1  0.57449435  0.19452949  0.61179809  1
  Ti  Ti92  1  0.59440453  0.25617003  0.95324434  1
  Ti  Ti93  1  0.58004310  0.54121755  0.23684256  1
  Ti  Ti94  1  0.54904491  0.66310815  0.52765066  1
  Ti  Ti95  1  0.52540428  0.55533755  0.87556387  1
  Ti  Ti96  1  0.63028619  0.95019016  0.30379540  1
  Ti  Ti97  1  0.59281665  0.92737308  0.51414599  1
  Ti  Ti98  1  0.60632603  0.92387508  0.96747511  1
  Ti  Ti99  1  0.97491161  0.20133392  0.34700413  1
  Ti  Ti100  1  0.91695262  0.28283184  0.60452021  1
  Ti  Ti101  1  0.89142728  0.26276113  0.90038979  1
  Ti  Ti102  1  0.98742595  0.61127476  0.28727823  1
  Ti  Ti103  1  0.90844040  0.56303073  0.52706967  1
  Ti  Ti104  1  1.01646028  0.54039605  0.90181736  1
  Ti  Ti105  1  0.94232516  0.93629702  0.14643614  1
  Ti  Ti106  1  0.91717768  0.82596104  0.65795448  1
  Ti  Ti107  1  0.95622458  0.92288452  0.93340731  1
  Co  Co108  1  0.23207274  -0.00881595  0.46554930  1
  Co  Co109  1  0.73851492  0.23382859  0.59217442  1
  Co  Co110  1  0.18694298  0.38463008  0.58168698  1
  Co  Co111  1  0.34995012  0.70752719  -0.05712969  1
  Co  Co112  1  0.10661811  0.46157605  0.71887607  1
  Co  Co113  1  0.28426399  0.03938932  0.62091545  1
  Co  Co114  1  0.44241146  0.33345971  0.21661988  1
  Co  Co115  1  0.72632815  0.09340378  0.38253211  1
  Co  Co116  1  0.42177222  0.22327383  0.53376117  1
  Co  Co117  1  0.67624321  0.67087371  0.61620252  1
  Co  Co118  1  0.53175101  -0.07740314  0.14561938  1
  Co  Co119  1  0.67877409  0.49617562  0.11004341  1
  Co  Co120  1  0.44349399  0.78842428  0.17349625  1
  Co  Co121  1  0.04311033  0.23644687  -0.06023599  1
  Co  Co122  1  0.83471553  0.63169637  0.28242509  1
  Co  Co123  1  -0.05680854  0.32819540  0.44599265  1
  Co  Co124  1  0.34390204  0.38685001  0.59593434  1
  Co  Co125  1  0.05526592  0.05587564  0.14533762  1
  Co  Co126  1  0.63609714  0.41559544  -0.05917824  1
  Co  Co127  1  0.16703650  0.62639438  0.92555452  1
  Co  Co128  1  0.16546214  0.23321886  0.32536677  1
  Co  Co129  1  0.44769564  0.68077535  0.78987553  1
  Co  Co130  1  0.56402908  0.60773952  0.71377397  1
  Co  Co131  1  -0.06777064  0.79990253  0.81859862  1
  Co  Co132  1  0.53192872  0.09877197  -0.02693206  1
  Co  Co133  1  0.22846908  0.89892250  0.32525210  1
  Co  Co134  1  0.70043300  0.91462689  0.15649061  1
  Co  Co135  1  0.79638362  0.19752006  0.01287069  1
  Co  Co136  1  0.78375248  0.08003548  0.12119540  1
  Co  Co137  1  0.08336215  0.28188866  0.64793105  1
  Co  Co138  1  0.48303384  -0.00953011  0.84652158  1
  Co  Co139  1  0.26188145  0.04617467  -0.03255665  1
  Co  Co140  1  0.44091390  0.63757259  0.21846483  1
  Co  Co141  1  0.49669773  0.36794572  0.56056912  1
  Co  Co142  1  0.72619758  0.23148616  0.86917757  1
  Co  Co143  1  0.36478784  0.08170840  0.12591222  1
  Co  Co144  1  0.63524102  0.47401680  0.78460760  1
  Co  Co145  1  0.83781460  0.68319118  0.58812600  1
  Co  Co146  1  0.18586253  0.77030458  -0.03351459  1
  Co  Co147  1  0.62781914  0.31576710  0.48847227  1
  Co  Co148  1  0.11688699  0.32636428  0.82449417  1
  Co  Co149  1  -0.04043922  0.07970619  0.86096443  1
  Co  Co150  1  -0.01309632  0.16718415  0.52573100  1
  Co  Co151  1  0.27088718  0.31268841  0.45132797  1
  Co  Co152  1  0.60684570  0.90340129  0.80124664  1
  Co  Co153  1  0.40568091  0.19519084  0.28383869  1
  Co  Co154  1  0.47262562  0.80260329  0.02274509  1
  Co  Co155  1  0.68932525  0.08623016  -0.02519731  1
  Co  Co156  1  -0.10509885  0.62342650  0.01156588  1
  Co  Co157  1  0.48552039  0.87968178  0.30099927  1
  Co  Co158  1  0.32027289  0.20322424  0.76858966  1
  Co  Co159  1  0.33385117  0.94019991  0.85956339  1
  Co  Co160  1  0.30205609  0.05149867  0.28045671  1
  Co  Co161  1  0.73220544  0.50054486  0.29274815  1
  Ni  Ni162  1  -0.07779917  0.13571602  0.20189992  1
  Ni  Ni163  1  -0.01555913  0.48446699  0.39794739  1
  Ni  Ni164  1  0.14500810  0.18411877  0.05904873  1
  Ni  Ni165  1  0.09396372  0.58573298  0.60447921  1
  Ni  Ni166  1  0.15038293  -0.08225957  0.89993783  1
  Ni  Ni167  1  0.32362603  0.87498882  0.57276133  1
  Ni  Ni168  1  0.00636009  -0.02507525  0.58899497  1
  Ni  Ni169  1  0.16957632  0.15926628  0.71605742  1
  Ni  Ni170  1  0.03983044  0.75999337  0.38162418  1
  Ni  Ni171  1  0.48230527  0.82485638  0.57072285  1
  Ni  Ni172  1  0.00091826  0.43785425  0.19610707  1
  Ni  Ni173  1  0.71905662  0.13613077  0.71755091  1
  Ni  Ni174  1  0.46054640  0.44384342  -0.01111518  1
  Ni  Ni175  1  0.81543448  0.44991282  0.43459013  1
  Ni  Ni176  1  0.67182785  0.22760284  0.11137912  1
  Ni  Ni177  1  0.50661375  0.01488999  0.40721129  1
  Ni  Ni178  1  0.87870188  -0.04665496  0.77019891  1
  Ni  Ni179  1  0.35912431  0.45943122  0.85254147  1
  Ni  Ni180  1  0.50847998  0.38140249  0.83820577  1
  Ni  Ni181  1  0.26702061  0.63659064  0.52283569  1
  Ni  Ni182  1  0.30237282  0.20542449  0.02670140  1
  Ni  Ni183  1  0.85892153  0.65536614  0.85746338  1
  Ni  Ni184  1  0.66226838  0.79888948  0.41909846  1
  Ni  Ni185  1  0.88451115  0.29503525  0.15038497  1
  Ni  Ni186  1  0.25085174  0.63397917  0.36060301  1
  Ni  Ni187  1  -0.01678358  0.01960880  0.30414831  1
  Ni  Ni188  1  0.16641358  0.41043992  0.16545458  1
  Ni  Ni189  1  0.21611387  0.73593818  0.64874543  1
  Ni  Ni190  1  0.92448706  0.85837649  0.30054986  1
  Ni  Ni191  1  0.08932971  -0.09082688  0.23944855  1
  Ni  Ni192  1  0.13765642  0.50298737  0.02727992  1
  Ni  Ni193  1  0.01761774  0.76581944  0.18010436  1
  Ni  Ni194  1  0.14902541  0.67955150  0.10042230  1
  Ni  Ni195  1  0.58874643  0.37901100  0.31331300  1
  Ni  Ni196  1  0.84138359  -0.04498732  0.58084272  1
  Ni  Ni197  1  0.72825992  0.54708639  0.53592856  1
  Ni  Ni198  1  0.19040089  0.47729436  0.86382445  1
  Ni  Ni199  1  0.43711776  0.10642172  0.71199462  1
  Ni  Ni200  1  -0.06072537  0.86860001  0.47774399  1
  Ni  Ni201  1  0.14227418  0.52800879  0.29396166  1
  Ni  Ni202  1  0.78317665  0.20243354  0.26437327  1
  Ni  Ni203  1  0.41970721  0.52852822  0.54643386  1
  Ni  Ni204  1  0.38329989  0.74419068  0.47089384  1
  Ni  Ni205  1  0.87888285  0.46808888  -0.04129504  1
  Ni  Ni206  1  0.82265281  0.27460021  0.73847499  1
  Ni  Ni207  1  0.70509840  0.64417709  0.19113584  1
  Ni  Ni208  1  0.43187728  0.49425717  0.14368594  1
  Ni  Ni209  1  0.57098630  0.02264754  0.65548571  1
  Ni  Ni210  1  0.07456468  0.79269516  0.72894154  1
  Ni  Ni211  1  0.78260855  0.74461121  0.73233681  1
  Ni  Ni212  1  0.86365941  0.78832635  -0.02076642  1
  Ni  Ni213  1  0.88509312  0.46799198  0.67604807  1
  Ni  Ni214  1  0.43944359  0.46746746  0.30850145  1
