# generated using pymatgen
data_Ti108Co54Ni53
_symmetry_space_group_name_H-M   'P 1'
_cell_length_a   14.60421848
_cell_length_b   14.60880608
_cell_length_c   14.59883371
_cell_angle_alpha   89.95998117
_cell_angle_beta   90.02160026
_cell_angle_gamma   89.93880214
_symmetry_Int_Tables_number   1
_chemical_formula_structural   Ti108Co54Ni53
_chemical_formula_sum   'Ti108 Co54 Ni53'
_cell_volume   3114.66126803
_cell_formula_units_Z   1
loop_
 _symmetry_equiv_pos_site_id
 _symmetry_equiv_pos_as_xyz
  1  'x, y, z'
loop_
 _atom_site_type_symbol
 _atom_site_label
 _atom_site_symmetry_multiplicity
 _atom_site_fract_x
 _atom_site_fract_y
 _atom_site_fract_z
 _atom_site_occupancy
  Ti  Ti0  1  0.04277562  0.06635852  0.21219419  1
  Ti  Ti1  1  0.14751990  0.07656080  0.55217540  1
  Ti  Ti2  1  0.10076748  0.09502941  0.88353378  1
  Ti  Ti3  1  0.13998267  0.37561435  0.26055221  1
  Ti  Ti4  1  0.07843750  0.38225166  0.53089522  1
  Ti  Ti5  1  0.13258214  0.34380106  0.89376675  1
  Ti  Ti6  1  0.07762991  0.72002514  0.23808300  1
  Ti  Ti7  1  0.09026572  0.77339553  0.56575999  1
  Ti  Ti8  1  0.02513383  0.76325196  0.87412122  1
  Ti  Ti9  1  0.39807448  0.08494991  0.29033938  1
  Ti  Ti10  1  0.46435966  0.07134301  0.61153563  1
  Ti  Ti11  1  0.43727320  0.07456351  0.92966630  1
  Ti  Ti12  1  0.43432724  0.41069936  0.26395210  1
  Ti  Ti13  1  0.43202275  0.41800871  0.55742930  1
  Ti  Ti14  1  0.34617722  0.50864652  0.95944479  1
  Ti  Ti15  1  0.45793333  0.83241909  0.29503284  1
  Ti  Ti16  1  0.33007666  0.73589719  0.56519319  1
  Ti  Ti17  1  0.44189028  0.76036629  0.98282421  1
  Ti  Ti18  1  0.65101160  0.10452525  0.25012613  1
  Ti  Ti19  1  0.78572427  0.11766762  0.53170923  1
  Ti  Ti20  1  0.81673405  0.04469378  0.95446455  1
  Ti  Ti21  1  0.86899324  0.42772593  0.21670539  1
  Ti  Ti22  1  0.72685052  0.32006057  0.53656945  1
  Ti  Ti23  1  0.79463510  0.39304834  0.89615740  1
  Ti  Ti24  1  0.65342082  0.72253435  0.25035005  1
  Ti  Ti25  1  0.76555077  0.71084892  0.50901653  1
  Ti  Ti26  1  0.64719776  0.74413497  0.95116821  1
  Ti  Ti27  1  0.03980452  0.38471645  0.07894284  1
  Ti  Ti28  1  0.05658820  0.22645717  0.43458955  1
  Ti  Ti29  1  0.07042670  0.32739562  0.72401130  1
  Ti  Ti30  1  0.14408055  0.54395525  0.13516300  1
  Ti  Ti31  1  0.05350534  0.64335319  0.43774935  1
  Ti  Ti32  1  0.04707787  0.52106573  0.67323741  1
  Ti  Ti33  1  0.16783817  0.97282522  0.09552010  1
  Ti  Ti34  1  0.06357234  0.94276618  0.43255090  1
  Ti  Ti35  1  0.15018262  0.98980927  0.72805533  1
  Ti  Ti36  1  0.42261387  0.20649199  0.06243400  1
  Ti  Ti37  1  0.38074757  0.27642114  0.40903522  1
  Ti  Ti38  1  0.40268529  0.26448403  0.69698931  1
  Ti  Ti39  1  0.36234794  0.59267039  0.19968814  1
  Ti  Ti40  1  0.38450761  0.58460186  0.40956402  1
  Ti  Ti41  1  0.38703524  0.57431839  0.76103601  1
  Ti  Ti42  1  0.42919471  0.92702521  0.11013599  1
  Ti  Ti43  1  0.52061953  0.90582103  0.47800403  1
  Ti  Ti44  1  0.38020875  0.89094619  0.69859828  1
  Ti  Ti45  1  0.72114679  0.20200684  0.10333136  1
  Ti  Ti46  1  0.71908960  0.23095755  0.37680307  1
  Ti  Ti47  1  0.71507965  0.18912343  0.68576375  1
  Ti  Ti48  1  0.71825364  0.51867984  0.03280401  1
  Ti  Ti49  1  0.70394565  0.53519688  0.44535649  1
  Ti  Ti50  1  0.69974063  0.52257842  0.72055412  1
  Ti  Ti51  1  0.78448879  0.94993306  0.11660708  1
  Ti  Ti52  1  0.76758444  0.90334542  0.41238135  1
  Ti  Ti53  1  0.76225352  0.96206805  0.68179114  1
  Ti  Ti54  1  0.23613106  0.13529956  0.03164003  1
  Ti  Ti55  1  0.25264575  0.13651729  0.40938100  1
  Ti  Ti56  1  0.21409676  0.17048272  0.72336048  1
  Ti  Ti57  1  0.25424062  0.33767060  0.06690506  1
  Ti  Ti58  1  0.25064887  0.46830786  0.48596314  1
  Ti  Ti59  1  0.22059841  0.49488881  0.80805617  1
  Ti  Ti60  1  0.26412266  0.80142103  0.02623199  1
  Ti  Ti61  1  0.25711249  0.82189942  0.41612358  1
  Ti  Ti62  1  0.23685808  0.75704499  0.76596495  1
  Ti  Ti63  1  0.61186634  0.04013003  0.03801221  1
  Ti  Ti64  1  0.61397322  0.06783746  0.46359168  1
  Ti  Ti65  1  0.63360343  0.03475384  0.82628318  1
  Ti  Ti66  1  0.55662774  0.37444941  0.06280819  1
  Ti  Ti67  1  0.56528511  0.34888441  0.43962939  1
  Ti  Ti68  1  0.47735430  0.40272637  0.84253272  1
  Ti  Ti69  1  0.51121577  0.72160474  0.14189917  1
  Ti  Ti70  1  0.58249123  0.70385102  0.43553858  1
  Ti  Ti71  1  0.57552404  0.70693779  0.74892938  1
  Ti  Ti72  1  0.88622933  0.11166024  0.11194054  1
  Ti  Ti73  1  0.93598265  0.08000548  0.37255800  1
  Ti  Ti74  1  0.94889552  0.01013442  0.77468532  1
  Ti  Ti75  1  0.85486786  0.32106155  0.06752335  1
  Ti  Ti76  1  0.86015457  0.41843233  0.43102975  1
  Ti  Ti77  1  0.90335615  0.42264888  0.75820064  1
  Ti  Ti78  1  0.90111670  0.75343085  0.10660540  1
  Ti  Ti79  1  0.92335920  0.78806947  0.41855755  1
  Ti  Ti80  1  0.93231931  0.82954484  0.69800340  1
  Ti  Ti81  1  0.28394689  0.24520626  0.23653088  1
  Ti  Ti82  1  0.24618053  0.29235267  0.57006058  1
  Ti  Ti83  1  0.30696552  0.24964151  0.88481627  1
  Ti  Ti84  1  0.20661518  0.57686187  0.30714822  1
  Ti  Ti85  1  0.19208336  0.62546218  0.64891600  1
  Ti  Ti86  1  0.18565260  0.63783250  0.96179616  1
  Ti  Ti87  1  0.27051313  0.89553784  0.24034247  1
  Ti  Ti88  1  0.21580475  0.90192526  0.57932628  1
  Ti  Ti89  1  0.24871750  0.91022530  0.86819862  1
  Ti  Ti90  1  0.60522007  0.31461221  0.24969988  1
  Ti  Ti91  1  0.58508236  0.34652251  0.67222207  1
  Ti  Ti92  1  0.64323446  0.26691074  0.84838337  1
  Ti  Ti93  1  0.60362975  0.52978108  0.22099617  1
  Ti  Ti94  1  0.49464867  0.60708795  0.57442783  1
  Ti  Ti95  1  0.52905502  0.57038845  1.00503297  1
  Ti  Ti96  1  0.61893435  0.91560815  0.20899877  1
  Ti  Ti97  1  0.57530924  0.89795411  0.68241964  1
  Ti  Ti98  1  0.52953878  0.89062900  0.88537184  1
  Ti  Ti99  1  0.95889673  0.25079036  0.24689040  1
  Ti  Ti100  1  0.90374067  0.26069553  0.61163023  1
  Ti  Ti101  1  0.95785860  0.23430180  0.91027333  1
  Ti  Ti102  1  0.99224560  0.54150808  0.29844441  1
  Ti  Ti103  1  0.87042569  0.57511774  0.60175867  1
  Ti  Ti104  1  0.99866177  0.56414087  0.96212302  1
  Ti  Ti105  1  0.95921701  0.88083024  0.25866246  1
  Ti  Ti106  1  0.90847010  0.97188721  0.54911405  1
  Ti  Ti107  1  0.97275143  0.93567022  1.00317378  1
  Co  Co108  1  -0.08393999  0.69381291  0.27818806  1
  Co  Co109  1  0.54080690  0.19244149  0.37779076  1
  Co  Co110  1  0.48479103  0.64854512  0.87197175  1
  Co  Co111  1  0.62984141  0.05020878  0.63615010  1
  Co  Co112  1  0.70520222  0.40976534  0.33925160  1
  Co  Co113  1  0.56693832  0.21433757  0.12654085  1
  Co  Co114  1  -0.04187783  0.40380053  -0.06978682  1
  Co  Co115  1  0.46385409  0.24622478  0.54519901  1
  Co  Co116  1  0.42440306  0.75124582  0.43356477  1
  Co  Co117  1  0.86509250  0.10451908  0.67600689  1
  Co  Co118  1  0.10493899  0.82587525  0.72484731  1
  Co  Co119  1  0.05889719  0.48329998  0.83551651  1
  Co  Co120  1  0.37460041  0.91019633  0.53900344  1
  Co  Co121  1  0.20186708  0.30714298  0.40038458  1
  Co  Co122  1  0.79172397  0.64756495  0.17316188  1
  Co  Co123  1  -0.00902753  0.22785258  0.08423181  1
  Co  Co124  1  0.83770718  0.85023106  -0.01523642  1
  Co  Co125  1  0.77931901  0.29117598  0.23600409  1
  Co  Co126  1  0.59279936  0.18175842  -0.02702148  1
  Co  Co127  1  0.65098076  0.65236660  0.09361104  1
  Co  Co128  1  0.87183642  0.48421569  0.04397350  1
  Co  Co129  1  0.29364071  0.42699965  0.33390473  1
  Co  Co130  1  0.37826309  0.13241565  0.77122829  1
  Co  Co131  1  0.35666600  0.64454034  0.04776613  1
  Co  Co132  1  0.32492901  0.15845709  0.55963710  1
  Co  Co133  1  0.82429827  0.84268357  0.57183919  1
  Co  Co134  1  0.04899744  -0.06135949  0.61053562  1
  Co  Co135  1  0.61393493  0.20044238  0.55243619  1
  Co  Co136  1  0.71155190  0.41808280  0.15922255  1
  Co  Co137  1  0.74893662  0.35362825  0.72976092  1
  Co  Co138  1  0.27689434  0.44719051  0.17797550  1
  Co  Co139  1  0.88063375  0.61028902  0.42627260  1
  Co  Co140  1  0.11897766  0.22742321  -0.01318312  1
  Co  Co141  1  0.47143935  0.23590295  0.87335151  1
  Co  Co142  1  0.10486874  0.79538702  0.37873486  1
  Co  Co143  1  0.20291576  0.45247293  0.64562883  1
  Co  Co144  1  -0.06444686  0.71418596  0.56429586  1
  Co  Co145  1  0.11968950  0.47601589  0.39583458  1
  Co  Co146  1  0.76579372  0.69832340  0.35259489  1
  Co  Co147  1  0.43572915  0.08757615  0.45280422  1
  Co  Co148  1  0.83213594  0.14779877  0.25870396  1
  Co  Co149  1  0.77198204  0.44853416  0.59899180  1
  Co  Co150  1  0.23689549  0.32752492  0.75286824  1
  Co  Co151  1  -0.01307754  0.50795278  0.48807640  1
  Co  Co152  1  0.21273314  -0.01845494  0.39704848  1
  Co  Co153  1  0.06660612  0.92318432  0.85113001  1
  Co  Co154  1  -0.06576593  0.41537961  0.60457375  1
  Co  Co155  1  0.31719654  0.66217870  0.87893264  1
  Co  Co156  1  0.63693462  0.43590632  0.84771043  1
  Co  Co157  1  0.11637480  -0.07421366  0.26683983  1
  Co  Co158  1  0.63152971  0.84613063  0.36542592  1
  Co  Co159  1  0.79202247  0.21476167  -0.04789661  1
  Co  Co160  1  0.12498167  0.63473543  0.81078266  1
  Co  Co161  1  0.68733357  0.33492189  -0.00045213  1
  Ni  Ni162  1  0.53200872  0.50323868  0.70970302  1
  Ni  Ni163  1  0.31173714  -0.02484222  0.00361466  1
  Ni  Ni164  1  0.81934847  -0.07374651  0.83722728  1
  Ni  Ni165  1  0.12685662  0.18703308  0.29885908  1
  Ni  Ni166  1  -0.00133801  0.37022404  0.36292211  1
  Ni  Ni167  1  0.30251591  0.71611704  0.30417187  1
  Ni  Ni168  1  0.84110551  -0.01164857  0.26239594  1
  Ni  Ni169  1  0.35883852  0.77571005  0.15949944  1
  Ni  Ni170  1  0.40767932  0.35305133  -0.01370576  1
  Ni  Ni171  1  0.50522380  0.77688741  0.58623283  1
  Ni  Ni172  1  0.13713650  0.23322300  0.14699087  1
  Ni  Ni173  1  0.50563384  0.06830362  0.16173213  1
  Ni  Ni174  1  0.65468706  0.63980541  0.60594192  1
  Ni  Ni175  1  0.79648451  0.82388577  0.25108309  1
  Ni  Ni176  1  0.35810599  0.42390254  0.70339029  1
  Ni  Ni177  1  0.33401659  0.56209084  0.58952190  1
  Ni  Ni178  1  0.69211435  -0.08058100  -0.04674425  1
  Ni  Ni179  1  0.26718960  0.07466095  0.86952552  1
  Ni  Ni180  1  0.11994176  0.84667458  -0.02081333  1
  Ni  Ni181  1  0.39406907  0.80279948  0.83622633  1
  Ni  Ni182  1  -0.03000837  0.12190165  0.53996041  1
  Ni  Ni183  1  0.21529923  0.06326837  0.24226932  1
  Ni  Ni184  1  0.57370333  0.86349011  0.05193128  1
  Ni  Ni185  1  0.65906533  0.83337586  0.54772390  1
  Ni  Ni186  1  0.47247024  0.00772833  0.77718301  1
  Ni  Ni187  1  0.79373150  0.54498488  0.29920546  1
  Ni  Ni188  1  0.37445020  -0.05194938  0.38013611  1
  Ni  Ni189  1  0.06220354  0.84788542  0.13029384  1
  Ni  Ni190  1  0.77058455  0.11977119  0.82246816  1
  Ni  Ni191  1  0.33925150  0.06923161  0.13692259  1
  Ni  Ni192  1  0.45178732  0.23662274  0.24016205  1
  Ni  Ni193  1  0.48771471  0.65713344  0.30076274  1
  Ni  Ni194  1  0.72105308  0.79888373  0.10172532  1
  Ni  Ni195  1  0.60176610  0.47470003  0.55906109  1
  Ni  Ni196  1  0.04967469  0.08559454  0.04129335  1
  Ni  Ni197  1  0.86532684  0.24361719  0.77703971  1
  Ni  Ni198  1  0.08495687  0.22113730  0.60162536  1
  Ni  Ni199  1  0.76361747  0.06375469  0.38008667  1
  Ni  Ni200  1  -0.02451751  0.55870707  0.13790778  1
  Ni  Ni201  1  0.21725411  0.69385840  0.14724616  1
  Ni  Ni202  1  0.88308996  0.23800246  0.43110913  1
  Ni  Ni203  1  0.01452471  0.68387514  0.70865987  1
  Ni  Ni204  1  0.22016768  0.64885050  0.46966937  1
  Ni  Ni205  1  0.53834769  0.51173697  0.38982996  1
  Ni  Ni206  1  0.67511433  0.84518422  0.80399357  1
  Ni  Ni207  1  0.54693667  0.16818514  0.73026544  1
  Ni  Ni208  1  0.17931584  0.47016666  -0.01165615  1
  Ni  Ni209  1  0.30147013  0.03362617  0.65638779  1
  Ni  Ni210  1  0.06236269  0.70062566  0.05547840  1
  Ni  Ni211  1  0.53510383  -0.00275298  0.33045996  1
  Ni  Ni212  1  0.01907066  0.16184816  0.74064375  1
  Ni  Ni213  1  0.43012108  0.47521876  0.10609718  1
  Ni  Ni214  1  0.40990697  0.71808814  0.70404322  1
