# generated using pymatgen
data_Ti108Co54Ni53
_symmetry_space_group_name_H-M   'P 1'
_cell_length_a   14.56479974
_cell_length_b   14.61894116
_cell_length_c   14.64239883
_cell_angle_alpha   90.02714019
_cell_angle_beta   89.88058736
_cell_angle_gamma   89.82988200
_symmetry_Int_Tables_number   1
_chemical_formula_structural   Ti108Co54Ni53
_chemical_formula_sum   'Ti108 Co54 Ni53'
_cell_volume   3117.66724516
_cell_formula_units_Z   1
loop_
 _symmetry_equiv_pos_site_id
 _symmetry_equiv_pos_as_xyz
  1  'x, y, z'
loop_
 _atom_site_type_symbol
 _atom_site_label
 _atom_site_symmetry_multiplicity
 _atom_site_fract_x
 _atom_site_fract_y
 _atom_site_fract_z
 _atom_site_occupancy
  Ti  Ti0  1  0.19740008  0.05909612  0.30861892  1
  Ti  Ti1  1  0.11510099  0.02740650  0.60899396  1
  Ti  Ti2  1  0.09584150  0.04227214  0.91899277  1
  Ti  Ti3  1  0.13490792  0.37340603  0.25565733  1
  Ti  Ti4  1  0.15298751  0.38253455  0.61799552  1
  Ti  Ti5  1  0.10218008  0.39038334  0.97671496  1
  Ti  Ti6  1  0.03264036  0.81037004  0.26907179  1
  Ti  Ti7  1  0.07701161  0.73014739  0.63879763  1
  Ti  Ti8  1  0.07527784  0.70501721  0.93338593  1
  Ti  Ti9  1  0.36092821  0.13182188  0.24921635  1
  Ti  Ti10  1  0.40730674  0.05042845  0.58184116  1
  Ti  Ti11  1  0.41044781  0.06080511  0.91410364  1
  Ti  Ti12  1  0.40902790  0.44341715  0.30811011  1
  Ti  Ti13  1  0.34309229  0.44327479  0.55773718  1
  Ti  Ti14  1  0.41833177  0.38440046  0.95145998  1
  Ti  Ti15  1  0.39297687  0.76114829  0.14282722  1
  Ti  Ti16  1  0.38689503  0.65910238  0.52793777  1
  Ti  Ti17  1  0.41145800  0.73498009  0.91742244  1
  Ti  Ti18  1  0.80013129  0.14351592  0.23151780  1
  Ti  Ti19  1  0.82069086  0.11154396  0.56184387  1
  Ti  Ti20  1  0.76470507  0.08404853  0.88042695  1
  Ti  Ti21  1  0.71130127  0.42269236  0.23729953  1
  Ti  Ti22  1  0.79504030  0.39519096  0.62487415  1
  Ti  Ti23  1  0.78497847  0.47617627  0.84325010  1
  Ti  Ti24  1  0.74342648  0.75884252  0.21972212  1
  Ti  Ti25  1  0.69263139  0.80482069  0.59861173  1
  Ti  Ti26  1  0.72369074  0.79346219  0.92813758  1
  Ti  Ti27  1  0.05359148  0.17257068  0.05634758  1
  Ti  Ti28  1  0.08124284  0.20755684  0.39772500  1
  Ti  Ti29  1  0.08476310  0.22884428  0.86452628  1
  Ti  Ti30  1  0.08831675  0.54642988  0.14976879  1
  Ti  Ti31  1  0.17388859  0.62338263  0.36758635  1
  Ti  Ti32  1  0.09752254  0.54901628  0.76811737  1
  Ti  Ti33  1  0.12036689  0.86172721  0.06123469  1
  Ti  Ti34  1  0.07842007  0.88186650  0.44917239  1
  Ti  Ti35  1  0.01727792  0.89742858  0.75449665  1
  Ti  Ti36  1  0.42759031  0.26385513  0.12295789  1
  Ti  Ti37  1  0.53337303  0.20493977  0.44468284  1
  Ti  Ti38  1  0.41044005  0.14971562  0.75491355  1
  Ti  Ti39  1  0.46517177  0.57075403  0.16951346  1
  Ti  Ti40  1  0.43311870  0.64591485  0.33970225  1
  Ti  Ti41  1  0.42644465  0.46864475  0.76281545  1
  Ti  Ti42  1  0.41172344  0.96147736  0.08526283  1
  Ti  Ti43  1  0.40799289  0.96543600  0.36370311  1
  Ti  Ti44  1  0.37208931  0.90709678  0.72515925  1
  Ti  Ti45  1  0.77776843  0.28862763  0.09145519  1
  Ti  Ti46  1  0.72047805  0.18518768  0.39729852  1
  Ti  Ti47  1  0.75334430  0.18421155  0.72329091  1
  Ti  Ti48  1  0.76128089  0.50694531  0.05330707  1
  Ti  Ti49  1  0.72283695  0.68070415  0.44565992  1
  Ti  Ti50  1  0.67571083  0.65696404  0.77803492  1
  Ti  Ti51  1  0.77932101  0.95700943  0.13542851  1
  Ti  Ti52  1  0.71288202  0.97203169  0.46239609  1
  Ti  Ti53  1  0.70213966  0.92657457  0.79556803  1
  Ti  Ti54  1  0.21431992  0.03809765  0.11388169  1
  Ti  Ti55  1  0.25611443  0.12413728  0.49221234  1
  Ti  Ti56  1  0.20324195  0.19924117  0.70430700  1
  Ti  Ti57  1  0.26682388  0.49949481  0.03902908  1
  Ti  Ti58  1  0.35611276  0.29646352  0.40690415  1
  Ti  Ti59  1  0.25122604  0.44413975  0.86758628  1
  Ti  Ti60  1  0.21538031  0.69097813  0.07510432  1
  Ti  Ti61  1  0.32663128  0.78950008  0.41471318  1
  Ti  Ti62  1  0.26817149  0.73456425  0.69039033  1
  Ti  Ti63  1  0.57568451  0.12216398  0.03426533  1
  Ti  Ti64  1  0.57175855  0.07691977  0.31165712  1
  Ti  Ti65  1  0.59329090  0.09367052  0.72126729  1
  Ti  Ti66  1  0.58588868  0.36690118  0.05617455  1
  Ti  Ti67  1  0.64429858  0.47569197  0.50337337  1
  Ti  Ti68  1  0.61856696  0.44734646  0.71143976  1
  Ti  Ti69  1  0.62892650  0.66041483  0.06985399  1
  Ti  Ti70  1  0.53759202  0.79921214  0.47095142  1
  Ti  Ti71  1  0.54820654  0.80415046  0.77564721  1
  Ti  Ti72  1  0.85942893  0.11939599  0.05196505  1
  Ti  Ti73  1  0.90001768  0.08489454  0.37871674  1
  Ti  Ti74  1  0.97258315  0.13171441  0.72694204  1
  Ti  Ti75  1  0.91713382  0.41021356  0.15841399  1
  Ti  Ti76  1  0.85350226  0.41416771  0.39364627  1
  Ti  Ti77  1  0.96085649  0.42649204  0.70031873  1
  Ti  Ti78  1  0.97075295  0.72307767  0.10066776  1
  Ti  Ti79  1  0.87179493  0.82126426  0.43686275  1
  Ti  Ti80  1  0.90302015  0.78187531  0.86712117  1
  Ti  Ti81  1  0.21749502  0.22956414  0.14908884  1
  Ti  Ti82  1  0.36160291  0.25563610  0.59684358  1
  Ti  Ti83  1  0.29685259  0.25510143  0.88119964  1
  Ti  Ti84  1  0.27317548  0.55259977  0.21986427  1
  Ti  Ti85  1  0.20263955  0.58190108  0.56811502  1
  Ti  Ti86  1  0.24613561  0.63161851  0.85910349  1
  Ti  Ti87  1  0.24717082  0.87516143  0.23246176  1
  Ti  Ti88  1  0.25471866  0.88975458  0.55547300  1
  Ti  Ti89  1  0.21996620  0.91876035  0.85061919  1
  Ti  Ti90  1  0.62327058  0.24213553  0.22115077  1
  Ti  Ti91  1  0.65312451  0.27816129  0.57668489  1
  Ti  Ti92  1  0.62119090  0.23867195  0.88460185  1
  Ti  Ti93  1  0.60955161  0.57739398  0.29932190  1
  Ti  Ti94  1  0.56416053  0.64528578  0.62188992  1
  Ti  Ti95  1  0.58123010  0.54678471  0.90830363  1
  Ti  Ti96  1  0.57297025  0.90272171  0.20252858  1
  Ti  Ti97  1  0.55328192  0.92623177  0.62462714  1
  Ti  Ti98  1  0.56553724  0.91758926  0.94759705  1
  Ti  Ti99  1  0.97123935  0.23942743  0.23125725  1
  Ti  Ti100  1  0.97927841  0.30924796  0.53221086  1
  Ti  Ti101  1  0.89625588  0.29393308  0.82497629  1
  Ti  Ti102  1  0.83660210  0.58032324  0.23287566  1
  Ti  Ti103  1  0.91487758  0.60337814  0.65222461  1
  Ti  Ti104  1  0.93926253  0.56653303  0.90779065  1
  Ti  Ti105  1  0.87335163  0.92435165  0.29069513  1
  Ti  Ti106  1  0.83955551  0.90217964  0.63295190  1
  Ti  Ti107  1  0.89850548  0.95603645  0.94840159  1
  Co  Co108  1  0.13740463  0.69862209  0.21307835  1
  Co  Co109  1  0.31396322  0.32352740  0.24419209  1
  Co  Co110  1  0.41632614  0.88397554  0.53971791  1
  Co  Co111  1  0.03297197  0.28165327  0.70092963  1
  Co  Co112  1  0.00090507  0.67873761  0.78090453  1
  Co  Co113  1  0.28598430  0.86393183  0.06044521  1
  Co  Co114  1  0.47306153  0.24442431  0.28998831  1
  Co  Co115  1  0.76883752  0.52624176  0.69523112  1
  Co  Co116  1  0.36377050  0.12619337  0.06666352  1
  Co  Co117  1  0.02365353  -0.01072652  0.33292154  1
  Co  Co118  1  0.59210293  0.27457355  0.72775371  1
  Co  Co119  1  0.72853979  0.84313661  0.35653500  1
  Co  Co120  1  0.64817249  0.11489918  0.54474425  1
  Co  Co121  1  -0.02550003  0.13807134  0.52719986  1
  Co  Co122  1  0.22484567  0.22489297  0.33148931  1
  Co  Co123  1  0.58212686  0.72057035  0.91298578  1
  Co  Co124  1  0.60324695  0.74399374  0.33277435  1
  Co  Co125  1  0.57649986  0.39381949  0.86009835  1
  Co  Co126  1  0.25810391  0.10417913  0.83905211  1
  Co  Co127  1  0.55986427  0.63050118  0.45557431  1
  Co  Co128  1  0.86643375  0.71930614  0.54724812  1
  Co  Co129  1  0.92929062  -0.03107584  0.47707633  1
  Co  Co130  1  0.00103367  0.41487803  0.85470539  1
  Co  Co131  1  0.74198772  0.52966529  0.37325233  1
  Co  Co132  1  0.90545189  0.23744341  0.39249813  1
  Co  Co133  1  0.71223223  -0.01770511  -0.00666912  1
  Co  Co134  1  0.72832651  0.33121968  0.79049163  1
  Co  Co135  1  0.48981469  0.50491734  0.02784167  1
  Co  Co136  1  0.38500397  0.89315030  0.90636908  1
  Co  Co137  1  0.83701414  0.64603071  0.79929492  1
  Co  Co138  1  0.61838633  0.51027574  0.13403218  1
  Co  Co139  1  0.11139229  0.20205839  0.57202357  1
  Co  Co140  1  0.55164950  0.72723441  0.19083735  1
  Co  Co141  1  0.27030534  0.00663266  -0.02475781  1
  Co  Co142  1  0.60296734  0.06495152  0.88273790  1
  Co  Co143  1  0.49250237  0.64726293  0.78969903  1
  Co  Co144  1  -0.05907133  0.13308621  0.90523516  1
  Co  Co145  1  0.40141881  0.12115387  0.40986561  1
  Co  Co146  1  0.26318718  0.33221585  0.02677012  1
  Co  Co147  1  0.67946807  0.09278033  0.14568354  1
  Co  Co148  1  0.04737250  0.87709068  0.91866692  1
  Co  Co149  1  0.12428771  0.55381724  -0.03766488  1
  Co  Co150  1  0.22319969  0.29426678  0.50136795  1
  Co  Co151  1  0.58259105  0.90999391  0.36088397  1
  Co  Co152  1  0.12190257  0.05769075  0.76426652  1
  Co  Co153  1  0.13622321  0.76868829  0.79560025  1
  Co  Co154  1  0.88931543  0.76396270  0.69878994  1
  Co  Co155  1  0.74004863  0.62514990  -0.06617978  1
  Co  Co156  1  0.74345649  0.66445143  0.62886912  1
  Co  Co157  1  0.17335286  0.78848819  0.35626758  1
  Co  Co158  1  -0.04004787  0.00637925  0.62819665  1
  Co  Co159  1  0.19406329  0.73270046  0.51656033  1
  Co  Co160  1  0.31759470  0.55010955  0.43059352  1
  Co  Co161  1  0.87691907  0.25556986  0.64900248  1
  Ni  Ni162  1  0.23729632  0.44365857  0.35332050  1
  Ni  Ni163  1  0.37494244  0.60176634  0.67863405  1
  Ni  Ni164  1  -0.01181225  0.64883984  0.25456854  1
  Ni  Ni165  1  0.38897789  0.55536944  0.89924455  1
  Ni  Ni166  1  0.93608889  0.05246506  0.19465642  1
  Ni  Ni167  1  0.71518203  0.37408764  -0.04518132  1
  Ni  Ni168  1  0.24366931  -0.05501910  0.40648330  1
  Ni  Ni169  1  0.49919036  0.34820669  0.52615676  1
  Ni  Ni170  1  0.80966707  0.66706854  0.08135745  1
  Ni  Ni171  1  0.29192265  0.71373592  0.26501017  1
  Ni  Ni172  1  0.88151925  0.41927699  -0.02221134  1
  Ni  Ni173  1  0.71815049  0.00607921  0.29496703  1
  Ni  Ni174  1  0.37054714  0.62716750  0.04600898  1
  Ni  Ni175  1  0.50465903  -0.02992227  0.79255341  1
  Ni  Ni176  1  0.14557797  0.36082117  0.78276425  1
  Ni  Ni177  1  0.79400396  0.23441580  -0.06754841  1
  Ni  Ni178  1  0.70823338  -0.00155816  0.64218979  1
  Ni  Ni179  1  -0.01318560  0.49185902  0.28132696  1
  Ni  Ni180  1  0.81362793  0.30385645  0.26912827  1
  Ni  Ni181  1  0.66495017  0.34874923  0.38983814  1
  Ni  Ni182  1  0.44529696  0.81452990  0.29367929  1
  Ni  Ni183  1  0.86778884  0.00300655  0.77340290  1
  Ni  Ni184  1  0.09261705  -0.04639846  0.19640307  1
  Ni  Ni185  1  -0.01716380  0.84461187  0.57954338  1
  Ni  Ni186  1  0.01082198  0.35870069  0.36584802  1
  Ni  Ni187  1  0.38014281  0.42179906  0.13158494  1
  Ni  Ni188  1  0.51462676  0.80023292  0.04388006  1
  Ni  Ni189  1  0.30565533  0.34593793  0.72600281  1
  Ni  Ni190  1  0.27413665  0.03972518  0.68533978  1
  Ni  Ni191  1  0.05850844  0.33347140  0.11777193  1
  Ni  Ni192  1  0.43828316  0.76199148  0.65612767  1
  Ni  Ni193  1  0.47696792  0.49393491  0.44701907  1
  Ni  Ni194  1  0.01850546  0.00853778  0.05820864  1
  Ni  Ni195  1  0.21020125  0.16569023  -0.01130335  1
  Ni  Ni196  1  0.45054339  0.30365318  0.80155221  1
  Ni  Ni197  1  0.53150639  0.01453154  0.47584666  1
  Ni  Ni198  1  0.79994990  0.29255822  0.49763579  1
  Ni  Ni199  1  0.54053182  0.39182559  0.22247636  1
  Ni  Ni200  1  0.08251485  0.12018209  0.21716258  1
  Ni  Ni201  1  -0.05474096  0.88952865  0.13949617  1
  Ni  Ni202  1  0.83723511  0.82240161  0.04221118  1
  Ni  Ni203  1  0.80464944  0.54552578  0.52637157  1
  Ni  Ni204  1  0.49595493  0.49669441  0.60753356  1
  Ni  Ni205  1  0.67303350  0.83184038  0.08418241  1
  Ni  Ni206  1  0.46396275  0.22073347  -0.04934853  1
  Ni  Ni207  1  -0.05509025  0.27644747  -0.00054201  1
  Ni  Ni208  1  -0.05918872  0.55606146  0.07316533  1
  Ni  Ni209  1  0.25052696  0.50246938  0.70934166  1
  Ni  Ni210  1  0.17930798  0.89202242  0.69605016  1
  Ni  Ni211  1  0.23837482  0.78101453  -0.07024250  1
  Ni  Ni212  1  0.49897612  0.08112784  0.17003820  1
  Ni  Ni213  1  0.10415642  0.05205683  0.45447117  1
  Ni  Ni214  1  0.51040929  0.19168483  0.61312253  1
