# generated using pymatgen
data_Ti108Co54Ni53
_symmetry_space_group_name_H-M   'P 1'
_cell_length_a   14.61751772
_cell_length_b   14.58651607
_cell_length_c   14.65708043
_cell_angle_alpha   90.31391625
_cell_angle_beta   89.76555662
_cell_angle_gamma   90.48452829
_symmetry_Int_Tables_number   1
_chemical_formula_structural   Ti108Co54Ni53
_chemical_formula_sum   'Ti108 Co54 Ni53'
_cell_volume   3124.97878158
_cell_formula_units_Z   1
loop_
 _symmetry_equiv_pos_site_id
 _symmetry_equiv_pos_as_xyz
  1  'x, y, z'
loop_
 _atom_site_type_symbol
 _atom_site_label
 _atom_site_symmetry_multiplicity
 _atom_site_fract_x
 _atom_site_fract_y
 _atom_site_fract_z
 _atom_site_occupancy
  Ti  Ti0  1  0.07478293  0.01662553  0.16502578  1
  Ti  Ti1  1  0.10427510  0.10704166  0.72330874  1
  Ti  Ti2  1  0.02980736  0.10910824  0.90366671  1
  Ti  Ti3  1  0.15526583  0.45277878  0.30383588  1
  Ti  Ti4  1  0.10087429  0.46215760  0.57752568  1
  Ti  Ti5  1  0.12430882  0.43490492  0.92852292  1
  Ti  Ti6  1  0.04956887  0.72444240  0.27157387  1
  Ti  Ti7  1  0.11533446  0.80841873  0.60753187  1
  Ti  Ti8  1  0.04850509  0.72568520  0.94269751  1
  Ti  Ti9  1  0.37564350  0.02413518  0.19922300  1
  Ti  Ti10  1  0.39407734  0.12948569  0.59826625  1
  Ti  Ti11  1  0.47127887  -0.00365214  0.89732389  1
  Ti  Ti12  1  0.48126599  0.45911553  0.31241352  1
  Ti  Ti13  1  0.43308990  0.32456512  0.56356232  1
  Ti  Ti14  1  0.43313213  0.41734136  1.00293316  1
  Ti  Ti15  1  0.39005647  0.74723184  0.18732160  1
  Ti  Ti16  1  0.43690545  0.81182020  0.55885961  1
  Ti  Ti17  1  0.40041540  0.77825396  0.90307354  1
  Ti  Ti18  1  0.70519668  -0.01786477  0.20240971  1
  Ti  Ti19  1  0.73612214  0.08467039  0.55165855  1
  Ti  Ti20  1  0.79177632  -0.01864800  0.92379419  1
  Ti  Ti21  1  0.80075652  0.47747477  0.36595497  1
  Ti  Ti22  1  0.77951655  0.40262660  0.64833695  1
  Ti  Ti23  1  0.64194587  0.37537860  0.94834546  1
  Ti  Ti24  1  0.72697106  0.79086613  0.23508506  1
  Ti  Ti25  1  0.78767529  0.79888866  0.53760910  1
  Ti  Ti26  1  0.72833470  0.79919821  0.84739662  1
  Ti  Ti27  1  0.14941750  0.25206731  -0.02068999  1
  Ti  Ti28  1  0.09254358  0.20394547  0.41046126  1
  Ti  Ti29  1  0.07175839  0.30026482  0.67365882  1
  Ti  Ti30  1  0.04815150  0.57374106  0.06084817  1
  Ti  Ti31  1  0.11475911  0.59852176  0.42276654  1
  Ti  Ti32  1  0.03083171  0.58846611  0.70310467  1
  Ti  Ti33  1  0.11158960  0.85394054  0.07119457  1
  Ti  Ti34  1  0.11659227  0.89876617  0.42752406  1
  Ti  Ti35  1  0.04174433  0.91761171  0.77822460  1
  Ti  Ti36  1  0.40833897  0.22653120  0.15320170  1
  Ti  Ti37  1  0.44822577  0.17398454  0.41851445  1
  Ti  Ti38  1  0.37088715  0.26042743  0.73063740  1
  Ti  Ti39  1  0.39990262  0.55737394  0.13177503  1
  Ti  Ti40  1  0.41349253  0.60646911  0.44629419  1
  Ti  Ti41  1  0.40168585  0.60216136  0.75890151  1
  Ti  Ti42  1  0.44267947  0.89428517  0.06153508  1
  Ti  Ti43  1  0.31629622  0.89880792  0.39216866  1
  Ti  Ti44  1  0.51113723  0.91569692  0.73989382  1
  Ti  Ti45  1  0.70049450  0.19908491  -0.00044836  1
  Ti  Ti46  1  0.72675228  0.29069948  0.48409500  1
  Ti  Ti47  1  0.70737812  0.28742290  0.77780096  1
  Ti  Ti48  1  0.72711191  0.55866217  0.02505669  1
  Ti  Ti49  1  0.67902975  0.61137847  0.45836241  1
  Ti  Ti50  1  0.71680998  0.61534212  0.77280109  1
  Ti  Ti51  1  0.74287118  0.77311817  0.03770977  1
  Ti  Ti52  1  0.78547760  0.93661858  0.39019699  1
  Ti  Ti53  1  0.79102828  0.94216697  0.71719285  1
  Ti  Ti54  1  0.22746083  0.14870664  0.11409037  1
  Ti  Ti55  1  0.20842679  0.04987294  0.31205234  1
  Ti  Ti56  1  0.30040310  0.06886762  0.76974197  1
  Ti  Ti57  1  0.21171454  0.47405642  0.11846335  1
  Ti  Ti58  1  0.29006238  0.31500516  0.41417660  1
  Ti  Ti59  1  0.23303283  0.43421788  0.74943210  1
  Ti  Ti60  1  0.19504746  0.68838504  0.10936473  1
  Ti  Ti61  1  0.25757738  0.71714701  0.49611675  1
  Ti  Ti62  1  0.26270922  0.76026945  0.71342782  1
  Ti  Ti63  1  0.52562265  0.11917248  0.04365080  1
  Ti  Ti64  1  0.58960711  0.04599864  0.34932978  1
  Ti  Ti65  1  0.65568579  0.06676245  0.73177180  1
  Ti  Ti66  1  0.58084007  0.46444663  0.12068513  1
  Ti  Ti67  1  0.55635956  0.46773419  0.48308168  1
  Ti  Ti68  1  0.51941800  0.38933601  0.74123214  1
  Ti  Ti69  1  0.52600885  0.68776410  0.03284445  1
  Ti  Ti70  1  0.54897034  0.73104501  0.37481339  1
  Ti  Ti71  1  0.59915438  0.76040416  0.68371606  1
  Ti  Ti72  1  0.91079208  0.08233236  0.09177520  1
  Ti  Ti73  1  0.95807597  0.05377156  0.47447663  1
  Ti  Ti74  1  0.91034187  0.09596749  0.66265628  1
  Ti  Ti75  1  0.84732893  0.41724351  0.06023850  1
  Ti  Ti76  1  0.98423572  0.41628670  0.39057087  1
  Ti  Ti77  1  0.90590866  0.36713756  0.79790242  1
  Ti  Ti78  1  0.93009876  0.77234335  0.12489902  1
  Ti  Ti79  1  0.99358306  0.73770390  0.46279337  1
  Ti  Ti80  1  0.92152397  0.71324452  0.78892518  1
  Ti  Ti81  1  0.25298449  0.30751319  0.22923702  1
  Ti  Ti82  1  0.21769965  0.21717473  0.57595241  1
  Ti  Ti83  1  0.29775008  0.31512067  0.88949317  1
  Ti  Ti84  1  0.27357390  0.61855528  0.28583921  1
  Ti  Ti85  1  0.28147407  0.53512445  0.58298462  1
  Ti  Ti86  1  0.24736070  0.62138720  0.89197933  1
  Ti  Ti87  1  0.21981565  0.85930383  0.22910303  1
  Ti  Ti88  1  0.22751074  1.01810456  0.57806148  1
  Ti  Ti89  1  0.27098996  0.94862461  0.96328564  1
  Ti  Ti90  1  0.58360666  0.29177482  0.22807995  1
  Ti  Ti91  1  0.57396989  0.20382395  0.63031959  1
  Ti  Ti92  1  0.56018139  0.19232304  0.84355659  1
  Ti  Ti93  1  0.63943745  0.58184196  0.27266865  1
  Ti  Ti94  1  0.60875578  0.53867308  0.64804765  1
  Ti  Ti95  1  0.56001968  0.53444357  0.88218221  1
  Ti  Ti96  1  0.50327535  0.87766657  0.25879667  1
  Ti  Ti97  1  0.54946499  1.00027062  0.55696318  1
  Ti  Ti98  1  0.63602662  0.94627231  1.01830309  1
  Ti  Ti99  1  0.97269942  0.27715975  0.18144176  1
  Ti  Ti100  1  0.92066277  0.27434827  0.55701001  1
  Ti  Ti101  1  0.95450314  0.27661196  0.97545507  1
  Ti  Ti102  1  0.90511957  0.56073820  0.20032538  1
  Ti  Ti103  1  0.83664912  0.58532249  0.60397601  1
  Ti  Ti104  1  0.94390528  0.52553287  0.91393733  1
  Ti  Ti105  1  0.89691243  0.94158564  0.23627932  1
  Ti  Ti106  1  0.94510159  0.88015640  0.61465717  1
  Ti  Ti107  1  0.96771738  0.92809904  0.97741302  1
  Co  Co108  1  0.54892539  0.29179302  0.05565867  1
  Co  Co109  1  0.43449200  0.38632155  0.16446461  1
  Co  Co110  1  0.63120586  0.14476305  0.16702701  1
  Co  Co111  1  0.87482552  0.42167406  0.50774115  1
  Co  Co112  1  0.64290481  0.92858533  0.82953380  1
  Co  Co113  1  0.58902927  0.83904441  0.12391769  1
  Co  Co114  1  0.03640114  0.03456473  0.33233298  1
  Co  Co115  1  0.82383071  -0.09079387  0.08533681  1
  Co  Co116  1  -0.05278604  0.71209542  0.61348429  1
  Co  Co117  1  0.56034647  0.82371089  -0.05784517  1
  Co  Co118  1  0.69854703  0.67449303  0.60191507  1
  Co  Co119  1  0.32542111  0.45804146  0.27541611  1
  Co  Co120  1  0.40407377  0.14406359  0.86795783  1
  Co  Co121  1  -0.01966271  0.56233215  0.52277743  1
  Co  Co122  1  0.04910664  0.15845355  0.57600215  1
  Co  Co123  1  0.01358555  0.41130827  0.04823831  1
  Co  Co124  1  0.26174465  0.36805113  0.60045660  1
  Co  Co125  1  0.41523448  0.02558762  0.35245705  1
  Co  Co126  1  0.75768706  0.14200447  0.82674210  1
  Co  Co127  1  0.80308252  0.29574245  0.91938254  1
  Co  Co128  1  0.27806156  0.33591504  0.06238356  1
  Co  Co129  1  0.12962798  0.05838644  0.46562390  1
  Co  Co130  1  0.75105131  0.06580840  0.07007085  1
  Co  Co131  1  0.63698063  0.07007418  0.91423969  1
  Co  Co132  1  0.88820721  0.78146808  -0.04168130  1
  Co  Co133  1  0.38186108  0.66628082  0.61069967  1
  Co  Co134  1  0.08271774  0.31616900  0.29710017  1
  Co  Co135  1  -0.03438745  0.58553818  0.35190580  1
  Co  Co136  1  0.85246083  0.65532423  0.45591412  1
  Co  Co137  1  0.45133146  0.61711068  0.27886107  1
  Co  Co138  1  0.72901638  0.75170127  0.39147048  1
  Co  Co139  1  0.02279203  0.44356478  0.20289765  1
  Co  Co140  1  0.53562197  0.65279162  0.54489517  1
  Co  Co141  1  0.49497975  0.14160067  0.25882402  1
  Co  Co142  1  0.71651006  0.45658728  0.50935191  1
  Co  Co143  1  0.79635999  0.62930081  0.31087457  1
  Co  Co144  1  0.12362998  0.64712285  0.58048552  1
  Co  Co145  1  -0.04858390  0.43525787  0.64736021  1
  Co  Co146  1  0.28931994  0.83259263  0.08217134  1
  Co  Co147  1  0.83069191  -0.03605302  0.54448659  1
  Co  Co148  1  0.86080354  0.13463453  -0.04886536  1
  Co  Co149  1  0.23780228  -0.01663927  0.12533919  1
  Co  Co150  1  0.66830465  0.45028120  0.77542953  1
  Co  Co151  1  0.65936136  -0.08822609  0.63867970  1
  Co  Co152  1  0.79862957  0.76776910  0.69797859  1
  Co  Co153  1  0.32465340  0.16618047  0.29086840  1
  Co  Co154  1  0.27230391  0.86315129  0.55892762  1
  Co  Co155  1  0.05311441  0.16642324  0.07985586  1
  Co  Co156  1  0.06361609  -0.00895696  0.61011096  1
  Co  Co157  1  0.41923700  0.58564280  -0.06406213  1
  Co  Co158  1  0.12542426  0.32066078  0.13131476  1
  Co  Co159  1  0.09093377  0.58804640  0.85993743  1
  Co  Co160  1  0.39150528  0.43672527  0.45995293  1
  Co  Co161  1  -0.10668690  0.63345791  0.04291126  1
  Ni  Ni162  1  0.38723652  0.45267767  0.82848668  1
  Ni  Ni163  1  0.10265331  0.58514892  0.22090613  1
  Ni  Ni164  1  0.04508184  0.88224228  0.26397464  1
  Ni  Ni165  1  0.64787136  0.41754713  0.33501659  1
  Ni  Ni166  1  -0.05141793  0.89447881  0.40854740  1
  Ni  Ni167  1  0.37102696  -0.04701649  0.66406259  1
  Ni  Ni168  1  0.73809233  0.47692492  0.18688750  1
  Ni  Ni169  1  0.05537168  0.27440485  0.83616187  1
  Ni  Ni170  1  0.20639866  0.23735569  0.76765282  1
  Ni  Ni171  1  0.47002599  0.31599040  0.88166098  1
  Ni  Ni172  1  0.88321070  0.77621573  0.31103632  1
  Ni  Ni173  1  0.76472728  0.65043925  0.15501995  1
  Ni  Ni174  1  0.19311546  0.75206613  0.35089633  1
  Ni  Ni175  1  0.13847632  0.35813180  0.46098587  1
  Ni  Ni176  1  0.60904398  0.15343144  0.47503723  1
  Ni  Ni177  1  0.61709386  0.35846373  0.60388760  1
  Ni  Ni178  1  0.63916426  -0.11883005  0.35563006  1
  Ni  Ni179  1  0.81731538  0.63677011  0.90045090  1
  Ni  Ni180  1  0.38739447  -0.01016939  0.50849487  1
  Ni  Ni181  1  0.24553896  0.13185025  -0.07955099  1
  Ni  Ni182  1  0.61430378  0.80627280  0.51298249  1
  Ni  Ni183  1  0.86928679  0.39405558  0.23624012  1
  Ni  Ni184  1  0.28680627  0.12302109  0.44776502  1
  Ni  Ni185  1  0.32594241  0.89581598  0.81159954  1
  Ni  Ni186  1  0.86380846  0.53126638  0.76389559  1
  Ni  Ni187  1  0.78231681  0.46144419  -0.10692479  1
  Ni  Ni188  1  0.37964674  0.75458972  0.35663254  1
  Ni  Ni189  1  0.53196853  0.69608023  0.82961991  1
  Ni  Ni190  1  0.38504974  0.22820306  -0.00333831  1
  Ni  Ni191  1  0.42404732  0.77467596  0.73205723  1
  Ni  Ni192  1  0.48026919  0.08748090  0.72993512  1
  Ni  Ni193  1  0.56358106  0.70026950  0.19224820  1
  Ni  Ni194  1  0.19803163  0.92221052  0.70751344  1
  Ni  Ni195  1  0.56268759  0.30745856  0.42915620  1
  Ni  Ni196  1  0.21696199  0.78074981  -0.05904143  1
  Ni  Ni197  1  0.54410967  0.00398361  0.16434989  1
  Ni  Ni198  1  0.12675521  0.02852057  0.00683187  1
  Ni  Ni199  1  -0.09336896  0.20448737  0.79518652  1
  Ni  Ni200  1  0.49604481  0.89594955  0.42691902  1
  Ni  Ni201  1  0.42763388  0.30153166  0.31146608  1
  Ni  Ni202  1  0.20583074  0.59993447  0.72289826  1
  Ni  Ni203  1  0.78296558  0.21604210  0.64835529  1
  Ni  Ni204  1  -0.10807564  0.87113343  0.82450341  1
  Ni  Ni205  1  0.44366280  0.50362323  0.61720635  1
  Ni  Ni206  1  0.36411752  0.06805035  0.03114580  1
  Ni  Ni207  1  0.16240785  0.00221721  0.84880759  1
  Ni  Ni208  1  0.34237414  0.68801929  0.03289668  1
  Ni  Ni209  1  0.91063128  0.03658967  0.81708885  1
  Ni  Ni210  1  0.05885069  0.44053272  0.77489456  1
  Ni  Ni211  1  0.25550824  0.50963376  0.42270400  1
  Ni  Ni212  1  0.28424698  0.47849295  -0.03737562  1
  Ni  Ni213  1  0.11020033  0.16984122  0.23806887  1
  Ni  Ni214  1  0.65436530  0.67312143  -0.07179341  1
