# generated using pymatgen
data_Ti108Co54Ni53
_symmetry_space_group_name_H-M   'P 1'
_cell_length_a   14.61466340
_cell_length_b   14.63533738
_cell_length_c   14.49161311
_cell_angle_alpha   89.86527613
_cell_angle_beta   90.06153761
_cell_angle_gamma   89.92341066
_symmetry_Int_Tables_number   1
_chemical_formula_structural   Ti108Co54Ni53
_chemical_formula_sum   'Ti108 Co54 Ni53'
_cell_volume   3099.60566807
_cell_formula_units_Z   1
loop_
 _symmetry_equiv_pos_site_id
 _symmetry_equiv_pos_as_xyz
  1  'x, y, z'
loop_
 _atom_site_type_symbol
 _atom_site_label
 _atom_site_symmetry_multiplicity
 _atom_site_fract_x
 _atom_site_fract_y
 _atom_site_fract_z
 _atom_site_occupancy
  Ti  Ti0  1  0.03949986  0.06611279  0.27077600  1
  Ti  Ti1  1  0.06783297  0.07142608  0.65139930  1
  Ti  Ti2  1  0.11330975  0.08488753  0.85669763  1
  Ti  Ti3  1  0.06053529  0.40911696  0.25318119  1
  Ti  Ti4  1  0.17443671  0.39440666  0.57124090  1
  Ti  Ti5  1  0.15860955  0.38808804  0.94317407  1
  Ti  Ti6  1  0.09496021  0.71890061  0.27714795  1
  Ti  Ti7  1  0.06887272  0.85816821  0.58076090  1
  Ti  Ti8  1  0.05722237  0.73374785  0.88257573  1
  Ti  Ti9  1  0.50542553  0.01220502  0.25812515  1
  Ti  Ti10  1  0.40486728  0.11480816  0.53895247  1
  Ti  Ti11  1  0.30369933  0.07973673  0.91641499  1
  Ti  Ti12  1  0.46949901  0.39013201  0.24903740  1
  Ti  Ti13  1  0.47675600  0.44564211  0.58555387  1
  Ti  Ti14  1  0.39422888  0.37927749  0.90296814  1
  Ti  Ti15  1  0.32562195  0.68692219  0.21268505  1
  Ti  Ti16  1  0.36314418  0.78060152  0.65597691  1
  Ti  Ti17  1  0.43648178  0.77966351  0.89278771  1
  Ti  Ti18  1  0.71645665  0.00362363  0.25144947  1
  Ti  Ti19  1  0.74126397  0.06152071  0.64040873  1
  Ti  Ti20  1  0.75745330  0.04409834  0.95795762  1
  Ti  Ti21  1  0.73152107  0.37043767  0.25174041  1
  Ti  Ti22  1  0.78875439  0.40515392  0.56167895  1
  Ti  Ti23  1  0.70846896  0.46955122  0.96724384  1
  Ti  Ti24  1  0.75117000  0.80241150  0.26866425  1
  Ti  Ti25  1  0.73698486  0.72798825  0.55132029  1
  Ti  Ti26  1  0.74524674  0.68618241  0.93707750  1
  Ti  Ti27  1  0.10690069  0.26317559  0.10077578  1
  Ti  Ti28  1  0.05743186  0.23463777  0.39959242  1
  Ti  Ti29  1  0.05857125  0.31949018  0.71673955  1
  Ti  Ti30  1  0.10793057  0.62137319  0.02660382  1
  Ti  Ti31  1  0.13067668  0.56039328  0.40103990  1
  Ti  Ti32  1  0.05267230  0.50008774  0.71738766  1
  Ti  Ti33  1  0.07979458  0.87949474  0.14242290  1
  Ti  Ti34  1  0.11128710  0.90598709  0.38563898  1
  Ti  Ti35  1  0.10687000  0.89133977  0.81796004  1
  Ti  Ti36  1  0.47687184  0.26484232  0.08548418  1
  Ti  Ti37  1  0.44536680  0.27556349  0.42044439  1
  Ti  Ti38  1  0.39267655  0.25988611  0.72083426  1
  Ti  Ti39  1  0.44716090  0.58016302  0.10189432  1
  Ti  Ti40  1  0.41896677  0.59828587  0.42637818  1
  Ti  Ti41  1  0.37562000  0.51640152  0.75555442  1
  Ti  Ti42  1  0.40937937  0.82048582  0.08721121  1
  Ti  Ti43  1  0.37368126  0.89508524  0.44326460  1
  Ti  Ti44  1  0.39516139  0.94543810  0.77438006  1
  Ti  Ti45  1  0.67650543  0.24037041  0.01276705  1
  Ti  Ti46  1  0.71785076  0.28139359  0.43184701  1
  Ti  Ti47  1  0.71747555  0.27857696  0.72063204  1
  Ti  Ti48  1  0.81962767  0.59288925  0.07687973  1
  Ti  Ti49  1  0.79307891  0.59010569  0.36809819  1
  Ti  Ti50  1  0.78455489  0.68891976  0.72611500  1
  Ti  Ti51  1  0.69777366  0.92776790  0.09566833  1
  Ti  Ti52  1  0.80938692  0.97880817  0.41769778  1
  Ti  Ti53  1  0.68801593  0.87937397  0.68591621  1
  Ti  Ti54  1  0.22423190  0.06918435  0.11388567  1
  Ti  Ti55  1  0.26375208  0.03359038  0.38331788  1
  Ti  Ti56  1  0.29449133  0.10466605  0.71317028  1
  Ti  Ti57  1  0.25197371  0.38949388  0.15864003  1
  Ti  Ti58  1  0.32350123  0.43022027  0.42799288  1
  Ti  Ti59  1  0.23732557  0.37301491  0.75570843  1
  Ti  Ti60  1  0.27283033  0.71342648  -0.01808604  1
  Ti  Ti61  1  0.26490213  0.74683620  0.38425319  1
  Ti  Ti62  1  0.21268717  0.66984358  0.77294408  1
  Ti  Ti63  1  0.58102581  0.09808334  0.11116719  1
  Ti  Ti64  1  0.55970804  0.12834609  0.42025377  1
  Ti  Ti65  1  0.59497240  0.04424743  0.76443129  1
  Ti  Ti66  1  0.59736621  0.44914242  0.11532604  1
  Ti  Ti67  1  0.63478253  0.47980128  0.42162907  1
  Ti  Ti68  1  0.60945548  0.43301738  0.80527163  1
  Ti  Ti69  1  0.58825947  0.76700386  0.03285539  1
  Ti  Ti70  1  0.56995710  0.80213999  0.42164170  1
  Ti  Ti71  1  0.58325888  0.71091114  0.73257276  1
  Ti  Ti72  1  0.91836783  0.15744327  0.11035796  1
  Ti  Ti73  1  0.85885793  0.15321246  0.40325126  1
  Ti  Ti74  1  0.87684812  0.08059720  0.77782342  1
  Ti  Ti75  1  0.92692949  0.43858055  0.11341807  1
  Ti  Ti76  1  0.93769938  0.46122703  0.43319557  1
  Ti  Ti77  1  0.87450161  0.40044779  0.74152311  1
  Ti  Ti78  1  0.90894963  0.77295673  0.05628547  1
  Ti  Ti79  1  0.91140934  0.74596892  0.38016310  1
  Ti  Ti80  1  0.96637597  0.65656536  0.74247899  1
  Ti  Ti81  1  0.32023528  0.23774751  0.27166982  1
  Ti  Ti82  1  0.19251447  0.19430260  0.55883480  1
  Ti  Ti83  1  0.30268657  0.25117871  1.03296795  1
  Ti  Ti84  1  0.17627691  0.56337520  0.20063594  1
  Ti  Ti85  1  0.24632339  0.62629825  0.54845628  1
  Ti  Ti86  1  0.28128477  0.51762004  1.02529747  1
  Ti  Ti87  1  0.34376851  0.91305418  0.24274591  1
  Ti  Ti88  1  0.22677955  0.97504752  0.58351909  1
  Ti  Ti89  1  0.26092388  0.90443487  0.94882931  1
  Ti  Ti90  1  0.66138960  0.17325832  0.27777923  1
  Ti  Ti91  1  0.58552123  0.20081573  0.60628123  1
  Ti  Ti92  1  0.54243069  0.21853652  0.86204195  1
  Ti  Ti93  1  0.64128555  0.64209849  0.22542435  1
  Ti  Ti94  1  0.55635154  0.63934588  0.55134486  1
  Ti  Ti95  1  0.55034676  0.61620404  0.89662644  1
  Ti  Ti96  1  0.56817009  0.84418636  0.22562441  1
  Ti  Ti97  1  0.52730115  0.87926617  0.59679454  1
  Ti  Ti98  1  0.61404339  0.91511554  0.90837344  1
  Ti  Ti99  1  0.90623273  0.31565189  0.30126323  1
  Ti  Ti100  1  0.91087079  0.23110364  0.64093527  1
  Ti  Ti101  1  0.91488561  0.26498355  0.85812703  1
  Ti  Ti102  1  0.97246123  0.58168242  0.27738566  1
  Ti  Ti103  1  0.90345666  0.57440907  0.58132681  1
  Ti  Ti104  1  0.88051496  0.54390379  0.86672558  1
  Ti  Ti105  1  0.92351679  0.90615189  0.27511205  1
  Ti  Ti106  1  0.86278514  0.90035995  0.58119991  1
  Ti  Ti107  1  0.91335252  0.90261077  0.87171003  1
  Co  Co108  1  0.74991853  0.11482689  0.11360270  1
  Co  Co109  1  0.09307955  0.26321735  0.87964278  1
  Co  Co110  1  0.00908366  0.80371594  0.71974773  1
  Co  Co111  1  0.00632441  0.41143021  0.86539946  1
  Co  Co112  1  0.17835914  -0.01062246  0.23951440  1
  Co  Co113  1  0.57913380  0.03942150  0.58530978  1
  Co  Co114  1  0.00344623  0.16433426  0.52731256  1
  Co  Co115  1  0.80461606  0.52680606  0.69819515  1
  Co  Co116  1  0.23257227  -0.02542807  0.77917338  1
  Co  Co117  1  0.40867269  0.09402975  0.35093145  1
  Co  Co118  1  0.31982721  0.47470909  0.59077377  1
  Co  Co119  1  0.68609122  0.92291249  0.53149314  1
  Co  Co120  1  0.46279916  0.10623707  0.69257616  1
  Co  Co121  1  0.83139033  0.66355699  0.22158999  1
  Co  Co122  1  0.07696452  0.52383134  0.55262813  1
  Co  Co123  1  -0.04458804  0.76333161  0.21229821  1
  Co  Co124  1  0.86959120  0.46690100  0.27273751  1
  Co  Co125  1  0.18916418  0.72505302  0.12786582  1
  Co  Co126  1  -0.03231419  0.03210868  0.41689147  1
  Co  Co127  1  0.30419006  0.18369081  0.43589930  1
  Co  Co128  1  0.88061724  0.74397999  0.86624245  1
  Co  Co129  1  0.58795092  0.31675985  0.33905177  1
  Co  Co130  1  0.44760130  0.08822621  0.84840731  1
  Co  Co131  1  -0.01494886  0.61301892  0.12779675  1
  Co  Co132  1  0.41764858  0.67665762  0.77117272  1
  Co  Co133  1  -0.04995130  0.63694835  -0.03225724  1
  Co  Co134  1  0.01227100  0.17046185  0.76746254  1
  Co  Co135  1  0.28811158  0.80515533  0.82170735  1
  Co  Co136  1  0.24315107  0.87771989  0.10888495  1
  Co  Co137  1  0.16651493  0.28724239  0.25666463  1
  Co  Co138  1  0.49887578  -0.01986424  0.45651382  1
  Co  Co139  1  0.27630279  0.58715023  0.35309594  1
  Co  Co140  1  0.73798195  0.56159227  0.52121698  1
  Co  Co141  1  0.58623220  0.07483798  -0.04926464  1
  Co  Co142  1  0.40302338  0.61768332  0.61553296  1
  Co  Co143  1  0.62816457  0.60580727  0.05638060  1
  Co  Co144  1  0.17175164  0.14641540  0.31983029  1
  Co  Co145  1  0.21476099  0.43286211  0.31504181  1
  Co  Co146  1  0.01807129  0.22097143  0.23321390  1
  Co  Co147  1  0.53484392  -0.05940256  0.08750280  1
  Co  Co148  1  0.50054128  0.70710405  0.17016962  1
  Co  Co149  1  0.49420522  0.20539363  0.25304178  1
  Co  Co150  1  0.88707560  0.06615812  0.57633790  1
  Co  Co151  1  -0.02615460  0.39816251  0.59202333  1
  Co  Co152  1  0.66595094  0.58881240  0.65718049  1
  Co  Co153  1  0.75935362  -0.02653125  0.80666041  1
  Co  Co154  1  0.12764703  0.81791423  -0.00348231  1
  Co  Co155  1  0.57661276  0.35165010  -0.04650774  1
  Co  Co156  1  0.20382618  0.83391392  0.25973487  1
  Co  Co157  1  0.52876547  0.55265440  0.72090080  1
  Co  Co158  1  0.48473222  0.44644045  0.40251763  1
  Co  Co159  1  0.20376513  0.53673818  0.68177507  1
  Co  Co160  1  -0.04013428  0.87226183  0.45024211  1
  Co  Co161  1  0.17263369  0.16808482  -0.01605071  1
  Ni  Ni162  1  0.43439868  0.77123179  0.31990293  1
  Ni  Ni163  1  0.64263595  0.42998591  0.63364489  1
  Ni  Ni164  1  0.81077420  0.20853665  0.23505482  1
  Ni  Ni165  1  -0.03402590  -0.04107273  0.70677480  1
  Ni  Ni166  1  0.78149809  0.85689096  -0.02714960  1
  Ni  Ni167  1  0.50050303  0.57420210  0.28618232  1
  Ni  Ni168  1  0.34906362  0.50893602  0.22868679  1
  Ni  Ni169  1  0.41547478  0.74564234  0.49918793  1
  Ni  Ni170  1  -0.02354134  0.30423843  0.01392663  1
  Ni  Ni171  1  0.17234931  0.20635521  0.73407266  1
  Ni  Ni172  1  0.74162515  0.32259272  0.87913299  1
  Ni  Ni173  1  -0.01108411  0.62794449  0.45212683  1
  Ni  Ni174  1  0.23628612  0.81386741  0.53113313  1
  Ni  Ni175  1  0.37706283  0.11418169  0.17658987  1
  Ni  Ni176  1  0.21257982  0.30397443  0.42268405  1
  Ni  Ni177  1  0.73848888  0.51833006  0.19439587  1
  Ni  Ni178  1  0.64565078  0.65652783  0.40141291  1
  Ni  Ni179  1  0.76842254  0.21433318  0.57072455  1
  Ni  Ni180  1  0.57764396  0.33687395  0.50559009  1
  Ni  Ni181  1  0.69516708  0.57578172  0.82012239  1
  Ni  Ni182  1  0.38851519  -0.03206746  0.60570786  1
  Ni  Ni183  1  0.23976100  0.51695177  0.85674293  1
  Ni  Ni184  1  0.54214350  0.32073721  0.71313379  1
  Ni  Ni185  1  0.36819801  -0.01662363  0.08022109  1
  Ni  Ni186  1  0.43373776  0.12016356  0.01371198  1
  Ni  Ni187  1  0.81648647  0.30446928  0.09839892  1
  Ni  Ni188  1  0.11956017  0.06196972  0.47276784  1
  Ni  Ni189  1  0.76745330  0.82210244  0.42753247  1
  Ni  Ni190  1  0.89675759  0.30023444  0.47699152  1
  Ni  Ni191  1  0.70737790  0.09720063  0.47482335  1
  Ni  Ni192  1  0.86864485  0.06072499  0.25193326  1
  Ni  Ni193  1  0.08038331  0.56952007  0.86342191  1
  Ni  Ni194  1  0.61688470  0.28592105  0.16518410  1
  Ni  Ni195  1  0.45061123  0.94586457  -0.05764982  1
  Ni  Ni196  1  0.53467173  0.86001036  0.76998511  1
  Ni  Ni197  1  0.10052034  0.45661084  0.09013143  1
  Ni  Ni198  1  0.71917282  0.80852485  0.83170592  1
  Ni  Ni199  1  0.19840042  0.82889546  0.68962550  1
  Ni  Ni200  1  0.93176944  0.74240721  0.57148506  1
  Ni  Ni201  1  0.27096761  0.24444617  0.86351783  1
  Ni  Ni202  1  0.73836454  0.75164809  0.10532093  1
  Ni  Ni203  1  0.33130278  0.30216479  0.56252654  1
  Ni  Ni204  1  0.08585306  0.40020984  0.42916052  1
  Ni  Ni205  1  0.10025215  0.74650915  0.45469664  1
  Ni  Ni206  1  0.63508151  -0.05363866  0.37687497  1
  Ni  Ni207  1  0.40233718  0.41085975  0.08694568  1
  Ni  Ni208  1  0.83017868  0.19393993  -0.02758620  1
  Ni  Ni209  1  0.86230235  0.40520147  -0.04237883  1
  Ni  Ni210  1  0.38063860  0.59469674  -0.08438731  1
  Ni  Ni211  1  0.50272499  0.48671453  -0.02467029  1
  Ni  Ni212  1  0.84969435  0.83978894  0.73167344  1
  Ni  Ni213  1  0.08931760  0.67824436  0.61702086  1
  Ni  Ni214  1  0.71910078  0.15133990  0.83018115  1
