# generated using pymatgen
data_Ti108Co54Ni53
_symmetry_space_group_name_H-M   'P 1'
_cell_length_a   14.61879039
_cell_length_b   14.60716576
_cell_length_c   14.64779901
_cell_angle_alpha   89.87448373
_cell_angle_beta   90.09256359
_cell_angle_gamma   89.75097830
_symmetry_Int_Tables_number   1
_chemical_formula_structural   Ti108Co54Ni53
_chemical_formula_sum   'Ti108 Co54 Ni53'
_cell_volume   3127.83655934
_cell_formula_units_Z   1
loop_
 _symmetry_equiv_pos_site_id
 _symmetry_equiv_pos_as_xyz
  1  'x, y, z'
loop_
 _atom_site_type_symbol
 _atom_site_label
 _atom_site_symmetry_multiplicity
 _atom_site_fract_x
 _atom_site_fract_y
 _atom_site_fract_z
 _atom_site_occupancy
  Ti  Ti0  1  0.13625849  0.07627421  0.23669318  1
  Ti  Ti1  1  0.16002298  0.01688559  0.57421506  1
  Ti  Ti2  1  0.11313587  0.10561212  0.83776558  1
  Ti  Ti3  1  0.04180156  0.38423283  0.22140374  1
  Ti  Ti4  1  0.04966914  0.40474101  0.60656688  1
  Ti  Ti5  1  0.10900589  0.34246115  0.92070705  1
  Ti  Ti6  1  0.14262220  0.73354246  0.20978237  1
  Ti  Ti7  1  0.08992945  0.69603285  0.52540172  1
  Ti  Ti8  1  0.11750850  0.73361939  0.93384836  1
  Ti  Ti9  1  0.43589213  0.07718418  0.22401263  1
  Ti  Ti10  1  0.43925867  0.18473811  0.61539691  1
  Ti  Ti11  1  0.37611753  0.05159353  1.00649703  1
  Ti  Ti12  1  0.40072663  0.40432289  0.30763993  1
  Ti  Ti13  1  0.37785987  0.48210766  0.61027581  1
  Ti  Ti14  1  0.44827110  0.40627467  0.96049362  1
  Ti  Ti15  1  0.48405141  0.79031698  0.23258944  1
  Ti  Ti16  1  0.46104391  0.77553525  0.54970960  1
  Ti  Ti17  1  0.44832232  0.77623986  0.90251040  1
  Ti  Ti18  1  0.70807004  0.06771042  0.32630525  1
  Ti  Ti19  1  0.69987965  0.06792640  0.53457192  1
  Ti  Ti20  1  0.84016953  0.10762929  0.91214523  1
  Ti  Ti21  1  0.76157280  0.37194439  0.31612765  1
  Ti  Ti22  1  0.67477009  0.38917214  0.64288555  1
  Ti  Ti23  1  0.72771853  0.30388689  0.91664417  1
  Ti  Ti24  1  0.77139714  0.72558109  0.18648640  1
  Ti  Ti25  1  0.72977320  0.68517248  0.57674058  1
  Ti  Ti26  1  0.78581340  0.75974967  0.88971354  1
  Ti  Ti27  1  0.18258862  0.29048280  0.10509948  1
  Ti  Ti28  1  0.05569617  0.29104630  0.42855377  1
  Ti  Ti29  1  0.04494924  0.27873119  0.75410806  1
  Ti  Ti30  1  0.09363422  0.61057117  0.06923533  1
  Ti  Ti31  1  0.06618952  0.59821323  0.34624122  1
  Ti  Ti32  1  0.06323816  0.62190065  0.75487756  1
  Ti  Ti33  1  0.05068931  0.93487949  0.08168085  1
  Ti  Ti34  1  0.12563716  0.87010400  0.45199407  1
  Ti  Ti35  1  0.04390234  0.95239692  0.73299019  1
  Ti  Ti36  1  0.37447198  0.23919427  0.09375925  1
  Ti  Ti37  1  0.43498861  0.22936640  0.38886283  1
  Ti  Ti38  1  0.42821059  0.26979040  0.78822647  1
  Ti  Ti39  1  0.41273405  0.57171096  0.08306682  1
  Ti  Ti40  1  0.43739333  0.57000374  0.43173801  1
  Ti  Ti41  1  0.40966119  0.61837618  0.76238386  1
  Ti  Ti42  1  0.49776970  0.91906044  0.07878000  1
  Ti  Ti43  1  0.42479655  0.91312499  0.36456885  1
  Ti  Ti44  1  0.38000478  0.92927616  0.81932251  1
  Ti  Ti45  1  0.71231320  0.28706332  0.11323287  1
  Ti  Ti46  1  0.79593255  0.25870577  0.48576396  1
  Ti  Ti47  1  0.77163619  0.22636564  0.72652564  1
  Ti  Ti48  1  0.70275775  0.60841534  0.04533367  1
  Ti  Ti49  1  0.69474197  0.54154625  0.36897201  1
  Ti  Ti50  1  0.72953190  0.56366138  0.74026026  1
  Ti  Ti51  1  0.74309876  0.94237964  -0.02829844  1
  Ti  Ti52  1  0.79335934  0.92690471  0.46343664  1
  Ti  Ti53  1  0.69963981  0.91430592  0.75500756  1
  Ti  Ti54  1  0.17907102  0.06952500  0.03312062  1
  Ti  Ti55  1  0.23334768  0.12266907  0.41816051  1
  Ti  Ti56  1  0.28654421  0.09370323  0.71551071  1
  Ti  Ti57  1  0.24807736  0.47472071  0.05532732  1
  Ti  Ti58  1  0.15416178  0.44486370  0.40852641  1
  Ti  Ti59  1  0.24618349  0.39500537  0.77238621  1
  Ti  Ti60  1  0.35275541  0.76893395  0.07881339  1
  Ti  Ti61  1  0.30037979  0.76222934  0.46623952  1
  Ti  Ti62  1  0.22488703  0.74036098  0.73028723  1
  Ti  Ti63  1  0.53956027  0.11707112  0.06909907  1
  Ti  Ti64  1  0.51073586  0.07904056  0.46459966  1
  Ti  Ti65  1  0.57109023  0.08232990  0.72287688  1
  Ti  Ti66  1  0.56513417  0.46608554  0.14519780  1
  Ti  Ti67  1  0.58999002  0.35673611  0.41972013  1
  Ti  Ti68  1  0.57873316  0.40976469  0.82033411  1
  Ti  Ti69  1  0.54664247  0.70591424  0.05874045  1
  Ti  Ti70  1  0.58138932  0.69075593  0.42832437  1
  Ti  Ti71  1  0.57409255  0.70936778  0.68936557  1
  Ti  Ti72  1  0.96547930  0.11969495  0.06118396  1
  Ti  Ti73  1  0.92165751  0.08269644  0.43301481  1
  Ti  Ti74  1  0.92710391  0.09890170  0.74170182  1
  Ti  Ti75  1  0.89708280  0.41760623  0.05639049  1
  Ti  Ti76  1  0.92347719  0.47909673  0.38171250  1
  Ti  Ti77  1  0.92537055  0.48082059  0.75558849  1
  Ti  Ti78  1  0.90808289  0.69484007  0.03274963  1
  Ti  Ti79  1  0.88207012  0.73886931  0.45404967  1
  Ti  Ti80  1  0.88028866  0.81672523  0.72596187  1
  Ti  Ti81  1  0.29103907  0.22825477  0.26368614  1
  Ti  Ti82  1  0.18405091  0.23147708  0.58495347  1
  Ti  Ti83  1  0.26439039  0.20278942  0.90115672  1
  Ti  Ti84  1  0.27772966  0.59303354  0.31527054  1
  Ti  Ti85  1  0.18087797  0.53802115  0.61795318  1
  Ti  Ti86  1  0.15838752  0.54049651  0.89589827  1
  Ti  Ti87  1  0.22727903  0.89193945  0.29442370  1
  Ti  Ti88  1  0.31153681  0.89429025  0.62703105  1
  Ti  Ti89  1  0.15989375  0.91659911  0.91873581  1
  Ti  Ti90  1  0.53095892  0.27816660  0.20525272  1
  Ti  Ti91  1  0.61171976  0.23013081  0.58715598  1
  Ti  Ti92  1  0.57075337  0.20944909  0.91515293  1
  Ti  Ti93  1  0.59865287  0.64618053  0.23730086  1
  Ti  Ti94  1  0.60866888  0.53078577  0.54559054  1
  Ti  Ti95  1  0.60901570  0.64513336  0.87416695  1
  Ti  Ti96  1  0.67491936  0.84580295  0.30590912  1
  Ti  Ti97  1  0.60412618  0.91274183  0.58788014  1
  Ti  Ti98  1  0.56085115  0.99447116  0.89761281  1
  Ti  Ti99  1  0.89113688  0.24947108  0.19926921  1
  Ti  Ti100  1  0.97214348  0.22063262  0.58678793  1
  Ti  Ti101  1  0.90121616  0.33111907  0.87274440  1
  Ti  Ti102  1  0.95014582  0.68880747  0.22762820  1
  Ti  Ti103  1  0.91878461  0.61314408  0.61349634  1
  Ti  Ti104  1  0.84284338  0.55252271  0.91682685  1
  Ti  Ti105  1  1.02111994  0.88297569  0.25972086  1
  Ti  Ti106  1  0.96718399  0.88448458  0.55915582  1
  Ti  Ti107  1  0.95448893  0.87105552  0.91993996  1
  Co  Co108  1  0.87422869  0.65090251  0.77460268  1
  Co  Co109  1  0.41954468  0.21569487  -0.04965332  1
  Co  Co110  1  -0.00210607  0.29632038  0.04292462  1
  Co  Co111  1  0.25319668  0.56958421  0.75449485  1
  Co  Co112  1  0.56672882  0.52265262  -0.01236747  1
  Co  Co113  1  0.84127053  0.58011494  0.28837728  1
  Co  Co114  1  0.09212191  0.45394254  0.76842308  1
  Co  Co115  1  0.43258859  0.72718490  0.37448276  1
  Co  Co116  1  0.30143498  0.03409601  0.30176450  1
  Co  Co117  1  0.20998972  0.23830176  0.74959632  1
  Co  Co118  1  -0.01001925  0.04429440  0.58729791  1
  Co  Co119  1  0.61465253  0.26134976  0.75890353  1
  Co  Co120  1  0.85582143  -0.03241065  0.64356049  1
  Co  Co121  1  0.76888816  0.39755264  0.77959927  1
  Co  Co122  1  0.87086865  0.85689818  0.05777494  1
  Co  Co123  1  0.20846106  -0.05530617  0.13917543  1
  Co  Co124  1  0.28674486  0.94143726  0.45416767  1
  Co  Co125  1  0.31602941  -0.09347308  -0.00063073  1
  Co  Co126  1  0.84159037  0.56885726  0.11931427  1
  Co  Co127  1  0.73312852  0.77797988  0.03713960  1
  Co  Co128  1  0.21212600  -0.08170208  0.75978030  1
  Co  Co129  1  -0.01043771  0.64526469  -0.10323014  1
  Co  Co130  1  0.07541293  0.13654612  0.48115817  1
  Co  Co131  1  0.01704118  0.76118944  0.37017520  1
  Co  Co132  1  0.09462543  0.12662896  0.67883702  1
  Co  Co133  1  0.32894443  0.06698370  0.55186586  1
  Co  Co134  1  0.32775421  0.22848494  0.51194705  1
  Co  Co135  1  0.59694615  0.35445687  0.01059686  1
  Co  Co136  1  0.47961419  0.62075714  0.58481801  1
  Co  Co137  1  0.62214037  0.82256982  0.14998753  1
  Co  Co138  1  0.10767088  0.19334330  -0.01124256  1
  Co  Co139  1  -0.01114932  0.53463085  0.17020630  1
  Co  Co140  1  0.00694191  0.02739868  -0.07037085  1
  Co  Co141  1  0.72625840  0.73242302  0.74218047  1
  Co  Co142  1  0.84404579  0.23764995  0.02193779  1
  Co  Co143  1  0.43119021  0.01791864  0.67897237  1
  Co  Co144  1  -0.05274490  0.91160042  0.40324503  1
  Co  Co145  1  0.13021764  0.24747715  0.29735221  1
  Co  Co146  1  0.31806011  0.49012043  0.19996064  1
  Co  Co147  1  0.82469366  0.18449020  0.34080736  1
  Co  Co148  1  0.87207942  0.42885778  0.21613923  1
  Co  Co149  1  0.06284429  0.19995404  0.15934796  1
  Co  Co150  1  -0.08206759  0.31724395  0.34715994  1
  Co  Co151  1  0.43533260  0.60826794  0.24498591  1
  Co  Co152  1  -0.02264031  0.19708393  0.89867620  1
  Co  Co153  1  0.24845439  0.30620990  0.40183938  1
  Co  Co154  1  0.76576556  0.84164480  0.60972779  1
  Co  Co155  1  0.50722345  0.35514616  0.65588016  1
  Co  Co156  1  0.41206908  0.38863741  0.12282967  1
  Co  Co157  1  0.34124765  0.31422420  0.65722430  1
  Co  Co158  1  0.02676914  0.78075981  0.09522398  1
  Co  Co159  1  0.44745683  0.61469698  0.92725711  1
  Co  Co160  1  0.73337923  0.44562712  0.04903788  1
  Co  Co161  1  0.08782098  0.44162047  0.05790946  1
  Ni  Ni162  1  0.44037942  0.35607594  0.50403756  1
  Ni  Ni163  1  0.13921330  0.84612016  0.62399375  1
  Ni  Ni164  1  0.31857875  0.75121654  0.25900558  1
  Ni  Ni165  1  0.29505070  0.34849238  -0.03987986  1
  Ni  Ni166  1  0.74079941  0.06549585  0.70224457  1
  Ni  Ni167  1  0.84831611  -0.03806641  0.81985904  1
  Ni  Ni168  1  0.08032920  0.00864566  0.37760343  1
  Ni  Ni169  1  0.19247409  0.79933608  0.06050633  1
  Ni  Ni170  1  0.22526904  0.38594871  0.55900719  1
  Ni  Ni171  1  0.02945509  0.53872901  0.50660988  1
  Ni  Ni172  1  0.56528186  -0.03180954  0.24017000  1
  Ni  Ni173  1  0.36691546  0.91464749  0.18782862  1
  Ni  Ni174  1  0.71511476  0.50644602  0.20482404  1
  Ni  Ni175  1  0.60093713  -0.05159884  0.41650217  1
  Ni  Ni176  1  0.70223143  0.12139250  0.01208409  1
  Ni  Ni177  1  0.65864266  0.12744304  0.17217722  1
  Ni  Ni178  1  0.27791880  0.79232950  0.88597930  1
  Ni  Ni179  1  0.01216487  0.74821335  0.65931919  1
  Ni  Ni180  1  0.44306832  -0.05732010  0.53281613  1
  Ni  Ni181  1  0.07331733  0.80561200  0.79632938  1
  Ni  Ni182  1  0.26808593  0.03451394  0.87657714  1
  Ni  Ni183  1  0.64501038  0.19422208  0.42948186  1
  Ni  Ni184  1  0.22809598  0.60219967  0.47497050  1
  Ni  Ni185  1  -0.00159486  0.47578894  0.91399033  1
  Ni  Ni186  1  0.90909822  0.37904256  0.51468619  1
  Ni  Ni187  1  0.14829313  0.53030317  0.21215967  1
  Ni  Ni188  1  0.68058685  0.24276731  0.28061447  1
  Ni  Ni189  1  0.31621849  0.45851371  0.44519759  1
  Ni  Ni190  1  0.54726646  0.52368869  0.70192661  1
  Ni  Ni191  1  0.54694648  0.49159477  0.31905302  1
  Ni  Ni192  1  0.55711671  0.13819791  0.30481880  1
  Ni  Ni193  1  0.67984040  0.80957331  0.47628034  1
  Ni  Ni194  1  0.21293196  0.38431439  0.25859151  1
  Ni  Ni195  1  0.41318457  0.44103593  0.76874408  1
  Ni  Ni196  1  0.81456841  0.57943925  0.47755784  1
  Ni  Ni197  1  0.27870314  0.64507186  -0.02308740  1
  Ni  Ni198  1  0.17670397  0.72698450  0.37056890  1
  Ni  Ni199  1  0.74280025  0.42384405  0.48302174  1
  Ni  Ni200  1  0.31735703  0.65819166  0.61223225  1
  Ni  Ni201  1  0.60281593  0.84524483  -0.02352558  1
  Ni  Ni202  1  0.28768455  0.09807586  0.15108197  1
  Ni  Ni203  1  0.26068955  0.63741267  0.14201751  1
  Ni  Ni204  1  0.32498265  0.50492895  0.89366386  1
  Ni  Ni205  1  0.48979404  0.86484248  0.70405447  1
  Ni  Ni206  1  0.68880997  0.11670965  0.84701703  1
  Ni  Ni207  1  0.81418833  0.48128984  0.61878582  1
  Ni  Ni208  1  0.85793753  0.81993824  0.30349480  1
  Ni  Ni209  1  0.42731057  0.09690459  0.83458911  1
  Ni  Ni210  1  0.74868468  0.70028579  0.36384006  1
  Ni  Ni211  1  -0.11289039  0.33610379  0.67781410  1
  Ni  Ni212  1  0.69635284  0.48871273  0.89752222  1
  Ni  Ni213  1  0.84232000  0.12507671  0.58817001  1
  Ni  Ni214  1  0.59353229  0.81328647  0.82269706  1
