# generated using pymatgen
data_Ti108Co54Ni53
_symmetry_space_group_name_H-M   'P 1'
_cell_length_a   14.67564220
_cell_length_b   14.63115112
_cell_length_c   14.57323822
_cell_angle_alpha   90.16271808
_cell_angle_beta   89.70718118
_cell_angle_gamma   89.58406856
_symmetry_Int_Tables_number   1
_chemical_formula_structural   Ti108Co54Ni53
_chemical_formula_sum   'Ti108 Co54 Ni53'
_cell_volume   3129.05187083
_cell_formula_units_Z   1
loop_
 _symmetry_equiv_pos_site_id
 _symmetry_equiv_pos_as_xyz
  1  'x, y, z'
loop_
 _atom_site_type_symbol
 _atom_site_label
 _atom_site_symmetry_multiplicity
 _atom_site_fract_x
 _atom_site_fract_y
 _atom_site_fract_z
 _atom_site_occupancy
  Ti  Ti0  1  0.04904216  0.09545715  0.19476277  1
  Ti  Ti1  1  0.11178521  0.09889607  0.52886665  1
  Ti  Ti2  1  0.05887677  0.09333811  0.99759966  1
  Ti  Ti3  1  0.06830047  0.43274067  0.19798291  1
  Ti  Ti4  1  0.15614887  0.42356161  0.52868786  1
  Ti  Ti5  1  0.11268363  0.43099270  0.87420447  1
  Ti  Ti6  1  0.04819197  0.63035144  0.28331699  1
  Ti  Ti7  1  0.04301812  0.71379456  0.60958300  1
  Ti  Ti8  1  0.11559422  0.78485928  0.90614409  1
  Ti  Ti9  1  0.35032905  0.06966522  0.17277629  1
  Ti  Ti10  1  0.40372376  0.06448996  0.51615167  1
  Ti  Ti11  1  0.39376783  0.01991781  0.97618893  1
  Ti  Ti12  1  0.40512649  0.32671644  0.20277585  1
  Ti  Ti13  1  0.35793126  0.40428601  0.55519532  1
  Ti  Ti14  1  0.44083070  0.41478602  0.94828422  1
  Ti  Ti15  1  0.34981302  0.75001685  0.24955121  1
  Ti  Ti16  1  0.42694553  0.83434580  0.57942930  1
  Ti  Ti17  1  0.41533140  0.70783372  0.92154219  1
  Ti  Ti18  1  0.68894808  0.06947124  0.25785769  1
  Ti  Ti19  1  0.72081478  0.17613770  0.58304822  1
  Ti  Ti20  1  0.74570737  0.07242227  0.97315686  1
  Ti  Ti21  1  0.77244206  0.45173015  0.24241458  1
  Ti  Ti22  1  0.77512778  0.35757923  0.66861233  1
  Ti  Ti23  1  0.74372627  0.41586533  0.87285634  1
  Ti  Ti24  1  0.79652065  0.84251092  0.23039592  1
  Ti  Ti25  1  0.71985532  0.74586622  0.56079410  1
  Ti  Ti26  1  0.80250064  0.78457918  0.88424996  1
  Ti  Ti27  1  0.14381751  0.26226839  0.08668369  1
  Ti  Ti28  1  0.07282207  0.34163584  0.35681729  1
  Ti  Ti29  1  0.02123746  0.27776432  0.76940009  1
  Ti  Ti30  1  0.05280492  0.59439657  0.07585927  1
  Ti  Ti31  1  0.12636092  0.59951747  0.45167460  1
  Ti  Ti32  1  0.10538445  0.62404561  0.77636520  1
  Ti  Ti33  1  0.13423016  0.90915205  0.15038022  1
  Ti  Ti34  1  0.06027673  0.91780171  0.47876351  1
  Ti  Ti35  1  0.10355960  0.95576993  0.78121537  1
  Ti  Ti36  1  0.41562670  0.21045809  -0.01947688  1
  Ti  Ti37  1  0.44779869  0.23968607  0.41805221  1
  Ti  Ti38  1  0.46104758  0.21789926  0.78094793  1
  Ti  Ti39  1  0.41278684  0.63368951  0.10971382  1
  Ti  Ti40  1  0.40507703  0.59777820  0.46137907  1
  Ti  Ti41  1  0.44686487  0.56894950  0.69486516  1
  Ti  Ti42  1  0.41586239  0.86110132  0.09422215  1
  Ti  Ti43  1  0.35044700  0.91515755  0.39993126  1
  Ti  Ti44  1  0.36053720  0.94034179  0.76853144  1
  Ti  Ti45  1  0.72131202  0.32280203  0.07719745  1
  Ti  Ti46  1  0.77337414  0.18708380  0.39095015  1
  Ti  Ti47  1  0.78584843  0.17617339  0.78157533  1
  Ti  Ti48  1  0.85395637  0.53185216  0.02402106  1
  Ti  Ti49  1  0.76699455  0.59534628  0.44526178  1
  Ti  Ti50  1  0.77629019  0.54077707  0.72537486  1
  Ti  Ti51  1  0.72799694  0.86503595  0.03887839  1
  Ti  Ti52  1  0.73556184  0.88609844  0.40157872  1
  Ti  Ti53  1  0.72011943  0.88864239  0.71885340  1
  Ti  Ti54  1  0.23694383  0.12414218  -0.02163965  1
  Ti  Ti55  1  0.26959057  0.14387838  0.42800488  1
  Ti  Ti56  1  0.24470452  0.09548578  0.68701319  1
  Ti  Ti57  1  0.19212846  0.43636648  0.05358583  1
  Ti  Ti58  1  0.28381681  0.35384499  0.37680151  1
  Ti  Ti59  1  0.29163863  0.42063088  0.73357579  1
  Ti  Ti60  1  0.23692432  0.74867167  0.07026919  1
  Ti  Ti61  1  0.20760785  0.79364437  0.36764061  1
  Ti  Ti62  1  0.29480546  0.70288129  0.75714922  1
  Ti  Ti63  1  0.53307133  0.12792328  0.12371132  1
  Ti  Ti64  1  0.60351434  0.06353029  0.45585528  1
  Ti  Ti65  1  0.62339875  0.08700324  0.79117772  1
  Ti  Ti66  1  0.53071009  0.44636991  0.12975704  1
  Ti  Ti67  1  0.59728349  0.35875767  0.49952280  1
  Ti  Ti68  1  0.59778836  0.41566819  0.69929279  1
  Ti  Ti69  1  0.56982551  0.75814072  0.01136761  1
  Ti  Ti70  1  0.57534776  0.77296288  0.43686621  1
  Ti  Ti71  1  0.56689812  0.76366931  0.69263967  1
  Ti  Ti72  1  0.87685265  0.14711106  0.11749657  1
  Ti  Ti73  1  0.92697381  0.08245515  0.48705875  1
  Ti  Ti74  1  0.93455199  0.05650977  0.76114887  1
  Ti  Ti75  1  0.90856860  0.35945102  0.11224568  1
  Ti  Ti76  1  0.88625828  0.37159046  0.44660147  1
  Ti  Ti77  1  0.94964341  0.45432696  0.74967480  1
  Ti  Ti78  1  0.88914886  0.71005585  0.10029482  1
  Ti  Ti79  1  0.92077950  0.78851406  0.39370926  1
  Ti  Ti80  1  0.85530276  0.73135343  0.70406592  1
  Ti  Ti81  1  0.19470624  0.21538542  0.25996417  1
  Ti  Ti82  1  0.16690085  0.27308380  0.63764872  1
  Ti  Ti83  1  0.27598833  0.30825000  0.89329662  1
  Ti  Ti84  1  0.22843077  0.57691506  0.19179349  1
  Ti  Ti85  1  0.23338056  0.57520352  0.62076217  1
  Ti  Ti86  1  0.30556146  0.54637173  0.98151132  1
  Ti  Ti87  1  0.18462293  1.00732228  0.32303781  1
  Ti  Ti88  1  0.22104185  0.82449794  0.57366728  1
  Ti  Ti89  1  0.28440763  0.86134696  0.91465867  1
  Ti  Ti90  1  0.62008582  0.26915202  0.24512593  1
  Ti  Ti91  1  0.53262117  0.17831127  0.59347532  1
  Ti  Ti92  1  0.59525839  0.28956575  0.87642902  1
  Ti  Ti93  1  0.61060678  0.61053139  0.12187207  1
  Ti  Ti94  1  0.63440681  0.58980484  0.62669537  1
  Ti  Ti95  1  0.65914511  0.59524640  0.91245619  1
  Ti  Ti96  1  0.59841911  0.88223506  0.19160456  1
  Ti  Ti97  1  0.52851878  0.98020679  0.63736316  1
  Ti  Ti98  1  0.57878265  0.96271663  0.94619499  1
  Ti  Ti99  1  0.94485418  0.20226930  0.32389695  1
  Ti  Ti100  1  0.91206809  0.22772327  0.62365078  1
  Ti  Ti101  1  0.92481200  0.23988989  0.94303562  1
  Ti  Ti102  1  0.85281771  0.65718703  0.28859844  1
  Ti  Ti103  1  0.89667510  0.54381937  0.57223739  1
  Ti  Ti104  1  0.96295095  0.69149137  0.91718783  1
  Ti  Ti105  1  0.94637120  0.93291086  0.21718591  1
  Ti  Ti106  1  0.87093539  0.89502689  0.57376483  1
  Ti  Ti107  1  0.95438257  0.91329756  0.91203877  1
  Co  Co108  1  0.32364303  0.26235878  0.70887859  1
  Co  Co109  1  0.89561007  0.51253460  0.35344025  1
  Co  Co110  1  0.05432469  0.54722474  0.61232837  1
  Co  Co111  1  0.94934780  0.61411632  0.74695827  1
  Co  Co112  1  0.01613364  0.26028221  0.18938299  1
  Co  Co113  1  0.87695806  0.71847154  0.54116670  1
  Co  Co114  1  0.35754984  0.20111631  0.28225423  1
  Co  Co115  1  0.19266537  0.07437137  0.13129199  1
  Co  Co116  1  0.51094927  0.74377107  0.17666839  1
  Co  Co117  1  -0.02067168  0.76559621  0.21791728  1
  Co  Co118  1  0.22041346  -0.02423900  0.48602717  1
  Co  Co119  1  0.89056990  0.89296084  0.75396949  1
  Co  Co120  1  0.26378836  0.63542572  0.33912568  1
  Co  Co121  1  0.30065529  0.21621413  0.12132269  1
  Co  Co122  1  0.86387445  0.31409185  0.79664719  1
  Co  Co123  1  0.13184342  0.58497424  -0.05387000  1
  Co  Co124  1  0.33466544  0.35329484  0.05214753  1
  Co  Co125  1  0.09426403  0.15693991  0.37324087  1
  Co  Co126  1  0.72272274  0.47117454  0.55882677  1
  Co  Co127  1  0.42607726  0.78632299  0.76779083  1
  Co  Co128  1  0.71818445  0.34676817  0.35154656  1
  Co  Co129  1  0.40070467  0.55105236  0.84294485  1
  Co  Co130  1  0.88931861  0.94345512  0.40586875  1
  Co  Co131  1  0.61696595  0.22066118  0.41378288  1
  Co  Co132  1  0.52229013  0.67469711  0.55145815  1
  Co  Co133  1  0.71102775  0.48497871  0.07489290  1
  Co  Co134  1  0.32560125  0.13801291  0.83507518  1
  Co  Co135  1  0.27137977  -0.05822443  0.06083978  1
  Co  Co136  1  0.53741679  0.65896119  0.82401417  1
  Co  Co137  1  0.68933272  0.74786398  0.16379919  1
  Co  Co138  1  0.27463600  0.50926845  0.45206030  1
  Co  Co139  1  0.24901437  0.68630193  0.49710390  1
  Co  Co140  1  0.50307942  0.57212645  -0.01610207  1
  Co  Co141  1  0.07710375  0.75791346  0.45802681  1
  Co  Co142  1  0.23602889  0.37322654  0.20587787  1
  Co  Co143  1  0.35662390  0.48306762  0.14139943  1
  Co  Co144  1  -0.01492133  0.53354309  0.90347743  1
  Co  Co145  1  0.03543376  0.39520180  0.02077122  1
  Co  Co146  1  0.50246473  -0.07338933  0.46308384  1
  Co  Co147  1  0.22928236  0.00836270  0.86314432  1
  Co  Co148  1  0.38370505  0.06029743  0.34762144  1
  Co  Co149  1  0.67635009  0.03780255  0.64448987  1
  Co  Co150  1  0.70993420  0.16044742  0.11727620  1
  Co  Co151  1  0.71944173  0.73119921  0.34795134  1
  Co  Co152  1  -0.03978206  0.63166333  0.43859336  1
  Co  Co153  1  0.56208534  0.14007591  -0.04621481  1
  Co  Co154  1  0.04811332  0.13059622  0.84967580  1
  Co  Co155  1  0.89753125  0.08191524  -0.07809334  1
  Co  Co156  1  0.33411626  0.23987911  0.54707506  1
  Co  Co157  1  0.45463101  0.86730898  -0.08633132  1
  Co  Co158  1  0.88474079  0.85293587  0.04877456  1
  Co  Co159  1  -0.08147181  0.36970103  0.27743491  1
  Co  Co160  1  0.60102516  -0.05327273  0.34074375  1
  Co  Co161  1  0.38274722  0.75685481  0.43734647  1
  Ni  Ni162  1  0.73103625  0.23020227  0.94069813  1
  Ni  Ni163  1  0.85152721  0.05742235  0.29288057  1
  Ni  Ni164  1  0.77111847  0.60516484  0.16210575  1
  Ni  Ni165  1  0.17085692  0.48318590  0.32738062  1
  Ni  Ni166  1  0.32103442  -0.03982193  0.60954120  1
  Ni  Ni167  1  0.06591761  0.86369435  0.31529760  1
  Ni  Ni168  1  0.01388266  0.02359404  0.34609869  1
  Ni  Ni169  1  0.15465195  0.74369061  0.21381928  1
  Ni  Ni170  1  0.89636462  0.40173002  -0.07175642  1
  Ni  Ni171  1  0.64244207  0.01003785  0.09334961  1
  Ni  Ni172  1  0.10150153  0.26728981  -0.07041459  1
  Ni  Ni173  1  0.16763881  0.80493396  0.73396364  1
  Ni  Ni174  1  0.51340110  0.49260018  0.55384908  1
  Ni  Ni175  1  0.46777657  -0.02725307  0.24014480  1
  Ni  Ni176  1  -0.00222216  0.37875601  0.59679797  1
  Ni  Ni177  1  -0.07278915  0.53024708  0.18484436  1
  Ni  Ni178  1  0.40845552  0.09246517  0.68565369  1
  Ni  Ni179  1  0.65147048  0.89922896  0.54968294  1
  Ni  Ni180  1  0.77967984  0.00196777  0.82037955  1
  Ni  Ni181  1  0.24715806  0.68652726  -0.08776133  1
  Ni  Ni182  1  0.44225953  0.38672216  0.78046592  1
  Ni  Ni183  1  0.07335482  0.12782689  0.68684438  1
  Ni  Ni184  1  0.46944623  0.05377071  0.83586738  1
  Ni  Ni185  1  0.12402231  0.42992211  0.70375220  1
  Ni  Ni186  1  0.76528034  0.02801414  0.49061712  1
  Ni  Ni187  1  0.00854565  0.78183544  0.77329847  1
  Ni  Ni188  1  0.60518721  0.42269564  -0.02179872  1
  Ni  Ni189  1  0.01392189  -0.02803895  0.63125391  1
  Ni  Ni190  1  0.83810480  0.05948636  0.63466626  1
  Ni  Ni191  1  0.74293466  0.68451371  0.01614286  1
  Ni  Ni192  1  0.17376131  0.26527736  0.47230144  1
  Ni  Ni193  1  0.82720795  0.60524914  0.86964613  1
  Ni  Ni194  1  0.23860181  0.54360756  0.82062180  1
  Ni  Ni195  1  0.75419350  0.31287538  0.50766192  1
  Ni  Ni196  1  0.00917546  0.24504436  0.48997268  1
  Ni  Ni197  1  0.63706993  0.80877910  0.87248885  1
  Ni  Ni198  1  0.79631375  0.25455709  0.22887652  1
  Ni  Ni199  1  0.52394935  0.12882175  0.29748403  1
  Ni  Ni200  1  0.53395726  0.29243838  0.06947713  1
  Ni  Ni201  1  0.48037644  0.82837862  0.31678846  1
  Ni  Ni202  1  0.12533665  0.93691238  -0.02018447  1
  Ni  Ni203  1  0.01566674  0.47561515  0.45644388  1
  Ni  Ni204  1  0.47645634  0.32531698  0.62929644  1
  Ni  Ni205  1  0.04717028  0.79200061  0.06148517  1
  Ni  Ni206  1  -0.04929012  -0.00368913  0.06304251  1
  Ni  Ni207  1  0.54474915  0.91222193  0.78209362  1
  Ni  Ni208  1  0.18154989  0.20963824  0.79670740  1
  Ni  Ni209  1  0.55916128  0.48605953  0.84025394  1
  Ni  Ni210  1  0.70252442  0.69434347  0.76515646  1
  Ni  Ni211  1  0.79916501  -0.00462113  0.13737235  1
  Ni  Ni212  1  0.36570749  0.68934749  0.60698032  1
  Ni  Ni213  1  0.29604817  0.91348504  0.22965352  1
  Ni  Ni214  1  0.63375800  0.24953444  0.71097114  1
