# generated using pymatgen
data_Ti108Co54Ni53
_symmetry_space_group_name_H-M   'P 1'
_cell_length_a   14.64527925
_cell_length_b   14.63491894
_cell_length_c   14.64145439
_cell_angle_alpha   90.04128337
_cell_angle_beta   90.21417533
_cell_angle_gamma   90.13799505
_symmetry_Int_Tables_number   1
_chemical_formula_structural   Ti108Co54Ni53
_chemical_formula_sum   'Ti108 Co54 Ni53'
_cell_volume   3138.10729040
_cell_formula_units_Z   1
loop_
 _symmetry_equiv_pos_site_id
 _symmetry_equiv_pos_as_xyz
  1  'x, y, z'
loop_
 _atom_site_type_symbol
 _atom_site_label
 _atom_site_symmetry_multiplicity
 _atom_site_fract_x
 _atom_site_fract_y
 _atom_site_fract_z
 _atom_site_occupancy
  Ti  Ti0  1  0.08169459  0.05388115  0.24730861  1
  Ti  Ti1  1  0.12960046  0.05279655  0.58204522  1
  Ti  Ti2  1  0.12176018  0.09634447  0.91325523  1
  Ti  Ti3  1  0.05011277  0.40243415  0.32260595  1
  Ti  Ti4  1  0.07395052  0.35835103  0.61555257  1
  Ti  Ti5  1  0.07563652  0.36935607  0.83238539  1
  Ti  Ti6  1  0.11265260  0.72360378  0.21531684  1
  Ti  Ti7  1  0.05663152  0.73269772  0.52772952  1
  Ti  Ti8  1  0.13905146  0.74043709  0.86928307  1
  Ti  Ti9  1  0.41073397  0.01654234  0.28771029  1
  Ti  Ti10  1  0.33725789  0.06776004  0.57515485  1
  Ti  Ti11  1  0.39968937  0.12435841  0.89870622  1
  Ti  Ti12  1  0.46306912  0.28476268  0.24404834  1
  Ti  Ti13  1  0.43398693  0.47157654  0.58683451  1
  Ti  Ti14  1  0.37101314  0.48037991  0.97273601  1
  Ti  Ti15  1  0.47510788  0.69452118  0.33551488  1
  Ti  Ti16  1  0.40822252  0.78406545  0.53625966  1
  Ti  Ti17  1  0.42952181  0.69741301  0.90704178  1
  Ti  Ti18  1  0.81807645  0.14274310  0.19805131  1
  Ti  Ti19  1  0.75350338  0.09668159  0.64875948  1
  Ti  Ti20  1  0.78716777  0.03460825  1.00840262  1
  Ti  Ti21  1  0.76714317  0.40062958  0.31245859  1
  Ti  Ti22  1  0.78732873  0.47824403  0.58709946  1
  Ti  Ti23  1  0.79602178  0.43888744  0.85824213  1
  Ti  Ti24  1  0.74799224  0.71391457  0.25692834  1
  Ti  Ti25  1  0.73684569  0.77632432  0.61014838  1
  Ti  Ti26  1  0.73696430  0.77139825  0.96055568  1
  Ti  Ti27  1  0.04214362  0.29623762  0.10888372  1
  Ti  Ti28  1  0.08246388  0.14869073  0.41537383  1
  Ti  Ti29  1  0.09542953  0.18717910  0.73375813  1
  Ti  Ti30  1  0.06160470  0.56376616  0.08539305  1
  Ti  Ti31  1  0.16299743  0.59826947  0.42821032  1
  Ti  Ti32  1  0.04881800  0.57740032  0.78128754  1
  Ti  Ti33  1  0.17586357  0.97613338  0.06670454  1
  Ti  Ti34  1  0.03224394  0.84358372  0.35326616  1
  Ti  Ti35  1  0.09338815  0.86229303  0.67263109  1
  Ti  Ti36  1  0.35548220  0.32153318  0.10639788  1
  Ti  Ti37  1  0.40026257  0.30629810  0.42604143  1
  Ti  Ti38  1  0.35922104  0.26435546  0.75780600  1
  Ti  Ti39  1  0.37459338  0.64477468  0.09987227  1
  Ti  Ti40  1  0.44718476  0.51918549  0.39118559  1
  Ti  Ti41  1  0.39706709  0.54506131  0.78534783  1
  Ti  Ti42  1  0.38575150  1.00579481  0.09354511  1
  Ti  Ti43  1  0.51338339  0.88292270  0.37372313  1
  Ti  Ti44  1  0.39556953  0.93976950  0.79559372  1
  Ti  Ti45  1  0.72502339  0.25563162  0.00571340  1
  Ti  Ti46  1  0.78118167  0.18482207  0.39262654  1
  Ti  Ti47  1  0.80498190  0.22844738  0.81397892  1
  Ti  Ti48  1  0.71344417  0.56763459  0.04397365  1
  Ti  Ti49  1  0.78380968  0.57545503  0.40946302  1
  Ti  Ti50  1  0.69931651  0.61043513  0.71184722  1
  Ti  Ti51  1  0.68434784  0.89020272  0.09369828  1
  Ti  Ti52  1  0.73063911  0.89160598  0.34361461  1
  Ti  Ti53  1  0.85319940  0.91485590  0.71229441  1
  Ti  Ti54  1  0.26621788  0.15813000  0.02427258  1
  Ti  Ti55  1  0.26234195  0.05844851  0.38433534  1
  Ti  Ti56  1  0.26068601  0.08862862  0.76374430  1
  Ti  Ti57  1  0.18349585  0.42903506  0.17736135  1
  Ti  Ti58  1  0.22131907  0.39493052  0.37710957  1
  Ti  Ti59  1  0.20552828  0.49685586  0.72930054  1
  Ti  Ti60  1  0.24471171  0.80718282  0.06541006  1
  Ti  Ti61  1  0.32574685  0.81736039  0.35725526  1
  Ti  Ti62  1  0.29457857  0.78101989  0.71453396  1
  Ti  Ti63  1  0.55865753  0.06727978  0.02559463  1
  Ti  Ti64  1  0.60335928  0.08240862  0.41478152  1
  Ti  Ti65  1  0.64335426  0.00048881  0.77343623  1
  Ti  Ti66  1  0.52664700  0.43088329  0.10111869  1
  Ti  Ti67  1  0.57293972  0.42010099  0.30192561  1
  Ti  Ti68  1  0.61305417  0.41980213  0.77611300  1
  Ti  Ti69  1  0.59007946  0.73599289  0.09271684  1
  Ti  Ti70  1  0.63437444  0.74186560  0.45100192  1
  Ti  Ti71  1  0.63281898  0.79175494  0.78760104  1
  Ti  Ti72  1  0.98404578  -0.01017621  0.05471519  1
  Ti  Ti73  1  0.90678150  0.09317746  0.51431900  1
  Ti  Ti74  1  0.95394504  0.02819583  0.83783610  1
  Ti  Ti75  1  0.86542282  0.41187481  0.04782383  1
  Ti  Ti76  1  0.92922281  0.39156813  0.47546232  1
  Ti  Ti77  1  0.93161949  0.45796320  0.69688370  1
  Ti  Ti78  1  0.95542656  0.74730528  0.07443020  1
  Ti  Ti79  1  0.86941076  0.74225297  0.42299865  1
  Ti  Ti80  1  0.94850533  0.74161507  0.75751599  1
  Ti  Ti81  1  0.25735412  0.23348565  0.29853607  1
  Ti  Ti82  1  0.25687833  0.36034131  0.56434790  1
  Ti  Ti83  1  0.20351474  0.34940832  0.99487868  1
  Ti  Ti84  1  0.28945751  0.59157432  0.27751470  1
  Ti  Ti85  1  0.28687874  0.60672767  0.59974743  1
  Ti  Ti86  1  0.17758894  0.53756209  0.93353050  1
  Ti  Ti87  1  0.20360781  0.90588682  0.25114565  1
  Ti  Ti88  1  0.22632514  0.89427629  0.52027602  1
  Ti  Ti89  1  0.18421926  0.91826422  0.85452020  1
  Ti  Ti90  1  0.64079577  0.22410918  0.25431723  1
  Ti  Ti91  1  0.63671823  0.34681282  0.58237984  1
  Ti  Ti92  1  0.53726176  0.28398600  0.93590595  1
  Ti  Ti93  1  0.59857969  0.59383324  0.20980889  1
  Ti  Ti94  1  0.61574153  0.56494162  0.53815969  1
  Ti  Ti95  1  0.55408962  0.51911144  0.91671121  1
  Ti  Ti96  1  0.60417874  1.00206579  0.23586064  1
  Ti  Ti97  1  0.55216914  0.88044471  0.62905718  1
  Ti  Ti98  1  0.52863742  0.86965086  0.94172770  1
  Ti  Ti99  1  0.91633944  0.29393700  0.26132581  1
  Ti  Ti100  1  0.84151121  0.26335407  0.60107863  1
  Ti  Ti101  1  0.93234511  0.16336886  0.98538550  1
  Ti  Ti102  1  0.92096215  0.60863261  0.23662727  1
  Ti  Ti103  1  0.96725825  0.57030623  0.48111205  1
  Ti  Ti104  1  0.86089171  0.63293092  0.91432003  1
  Ti  Ti105  1  0.91717624  0.95195169  0.23509853  1
  Ti  Ti106  1  0.84857784  0.91435419  0.50389425  1
  Ti  Ti107  1  0.90160185  0.85479197  0.92650928  1
  Co  Co108  1  -0.02584592  0.18778688  0.83418917  1
  Co  Co109  1  0.32388042  0.48311973  0.12546150  1
  Co  Co110  1  0.10754459  0.12950136  0.07013055  1
  Co  Co111  1  0.51947380  0.12715222  0.18964995  1
  Co  Co112  1  0.26115093  0.64237255  0.79884953  1
  Co  Co113  1  0.11872226  0.71950438  0.03828795  1
  Co  Co114  1  -0.04493712  0.49116929  0.88739541  1
  Co  Co115  1  0.07252435  -0.12677403  -0.01832041  1
  Co  Co116  1  0.90713026  0.47788854  0.32644339  1
  Co  Co117  1  0.44824067  0.54450632  0.21908117  1
  Co  Co118  1  0.22630642  0.22751526  0.86334600  1
  Co  Co119  1  0.79294232  0.73849715  0.79846686  1
  Co  Co120  1  0.08102242  0.23807125  0.27474170  1
  Co  Co121  1  0.54647288  0.64737736  0.78970098  1
  Co  Co122  1  0.84991138  0.87595180  0.09024571  1
  Co  Co123  1  0.32268591  0.66402619  0.42687309  1
  Co  Co124  1  0.57280723  0.71175912  0.63114463  1
  Co  Co125  1  0.10507149  0.29745842  0.45646445  1
  Co  Co126  1  0.36494908  -0.05216906  0.44798551  1
  Co  Co127  1  0.54680387  0.53398119  0.68107983  1
  Co  Co128  1  -0.03321212  0.63110293  0.64153040  1
  Co  Co129  1  -0.01670932  0.45129842  0.16913407  1
  Co  Co130  1  0.51483413  0.59125414  0.05522969  1
  Co  Co131  1  0.07818830  0.25128272  -0.05407121  1
  Co  Co132  1  0.22062204  0.73937356  0.54053209  1
  Co  Co133  1  0.79281771  0.70880577  0.10417951  1
  Co  Co134  1  0.80891204  0.02949137  0.34805607  1
  Co  Co135  1  0.66103352  -0.03602248  -0.06557975  1
  Co  Co136  1  0.71143786  -0.06449096  0.62922649  1
  Co  Co137  1  0.94126433  0.13227661  0.31726419  1
  Co  Co138  1  -0.06292121  0.24404001  0.43523427  1
  Co  Co139  1  0.04912049  0.42069752  0.00159201  1
  Co  Co140  1  0.52174099  0.39675239  0.47575709  1
  Co  Co141  1  0.52007486  0.02477399  0.86969071  1
  Co  Co142  1  0.90297965  0.13204235  0.69717647  1
  Co  Co143  1  0.46133924  0.74115001  0.19101465  1
  Co  Co144  1  0.02087534  0.88213474  0.81906736  1
  Co  Co145  1  0.85359921  0.58203360  0.75728391  1
  Co  Co146  1  0.87580731  0.25872847  0.08922021  1
  Co  Co147  1  0.06373771  0.87127778  0.15902548  1
  Co  Co148  1  0.38758686  0.91876591  0.62638198  1
  Co  Co149  1  0.23876271  -0.04943916  0.68157444  1
  Co  Co150  1  0.70795645  0.58193464  0.86688384  1
  Co  Co151  1  0.31970814  0.81883357  0.89439092  1
  Co  Co152  1  0.45857630  0.79416538  0.76128473  1
  Co  Co153  1  0.74034620  0.03751808  0.49299270  1
  Co  Co154  1  0.34407240  0.41317814  0.70046388  1
  Co  Co155  1  0.43873416  0.18264042  0.04970838  1
  Co  Co156  1  0.69034601  0.19163305  0.52983955  1
  Co  Co157  1  0.21268593  0.61388222  0.12531275  1
  Co  Co158  1  0.09986304  0.01822187  0.74916120  1
  Co  Co159  1  0.01479568  0.67825729  0.35837449  1
  Co  Co160  1  0.41982060  0.66004810  0.67642299  1
  Co  Co161  1  0.67082856  0.41155201  -0.03543527  1
  Ni  Ni162  1  -0.05120233  0.29484376  0.72116194  1
  Ni  Ni163  1  -0.03512554  -0.00622867  0.39585559  1
  Ni  Ni164  1  0.27089327  0.66798160  -0.03500027  1
  Ni  Ni165  1  0.76572817  -0.01037478  0.18829622  1
  Ni  Ni166  1  0.64114043  0.90759685  0.48407771  1
  Ni  Ni167  1  0.62318236  0.59590690  0.36947290  1
  Ni  Ni168  1  0.75977134  0.36170086  0.71218296  1
  Ni  Ni169  1  0.10114180  0.45446444  0.48409593  1
  Ni  Ni170  1  0.23099854  0.19673212  0.62482911  1
  Ni  Ni171  1  0.10957169  0.55865792  0.26214603  1
  Ni  Ni172  1  0.66949847  0.44663795  0.44021086  1
  Ni  Ni173  1  0.27460636  0.40267232  0.85372767  1
  Ni  Ni174  1  0.46827375  0.16399234  0.35308838  1
  Ni  Ni175  1  0.68193859  0.44906113  0.16073731  1
  Ni  Ni176  1  0.91552053  0.78099827  0.23878304  1
  Ni  Ni177  1  0.49796634  -0.00368170  0.51606832  1
  Ni  Ni178  1  0.76432072  0.89438380  0.84082434  1
  Ni  Ni179  1  0.02098293  0.63824070  -0.06331674  1
  Ni  Ni180  1  0.17427751  0.75545864  0.37529563  1
  Ni  Ni181  1  0.60808333  0.80633949  0.25284388  1
  Ni  Ni182  1  0.59821180  0.68497448  -0.06256607  1
  Ni  Ni183  1  0.20072582  0.24720172  0.14837174  1
  Ni  Ni184  1  0.65592672  0.13620224  0.90078483  1
  Ni  Ni185  1  0.44924003  0.38984302  0.83552771  1
  Ni  Ni186  1  0.60985170  0.27719704  0.40663082  1
  Ni  Ni187  1  0.67557857  0.11998875  0.11947324  1
  Ni  Ni188  1  0.25719603  0.21103762  0.46645625  1
  Ni  Ni189  1  0.75301359  0.30638451  0.17428101  1
  Ni  Ni190  1  0.40758921  0.81632898  0.04147935  1
  Ni  Ni191  1  0.77002483  0.32877569  0.47054074  1
  Ni  Ni192  1  0.57465041  0.26471208  0.10080932  1
  Ni  Ni193  1  0.82179230  0.64237464  0.56343529  1
  Ni  Ni194  1  0.23706421  0.06574149  0.19666503  1
  Ni  Ni195  1  0.30506052  0.50014328  0.46691122  1
  Ni  Ni196  1  0.12544733  -0.02467066  0.40887037  1
  Ni  Ni197  1  0.89048333  0.57277065  0.07158992  1
  Ni  Ni198  1  0.30017909  -0.01007700  -0.05333620  1
  Ni  Ni199  1  0.02178022  0.20072330  0.57989436  1
  Ni  Ni200  1  0.20367932  0.32414717  0.72520211  1
  Ni  Ni201  1  0.14093296  0.69625302  0.68717297  1
  Ni  Ni202  1  0.51635177  0.89868595  0.13366640  1
  Ni  Ni203  1  0.10319622  0.55487146  0.60704380  1
  Ni  Ni204  1  0.36403026  0.28913403  -0.06044649  1
  Ni  Ni205  1  0.02543981  0.90188908  0.52006767  1
  Ni  Ni206  1  0.35676958  0.41436692  0.28104257  1
  Ni  Ni207  1  0.92355539  0.32717221  0.90458915  1
  Ni  Ni208  1  0.36165467  0.15755621  0.19327891  1
  Ni  Ni209  1  -0.02755319  -0.00309720  0.64195166  1
  Ni  Ni210  1  0.46788388  0.63555665  0.51545770  1
  Ni  Ni211  1  0.36174882  0.86943393  0.19797856  1
  Ni  Ni212  1  -0.02544408  0.14094094  0.15694568  1
  Ni  Ni213  1  0.79211809  0.06235113  0.83348101  1
  Ni  Ni214  1  0.91867010  0.79203870  0.59982399  1
