# generated using pymatgen
data_Ti108Co54Ni53
_symmetry_space_group_name_H-M   'P 1'
_cell_length_a   14.64535166
_cell_length_b   14.65203787
_cell_length_c   14.61950200
_cell_angle_alpha   89.93338449
_cell_angle_beta   90.08634896
_cell_angle_gamma   90.17693896
_symmetry_Int_Tables_number   1
_chemical_formula_structural   Ti108Co54Ni53
_chemical_formula_sum   'Ti108 Co54 Ni53'
_cell_volume   3137.09420238
_cell_formula_units_Z   1
loop_
 _symmetry_equiv_pos_site_id
 _symmetry_equiv_pos_as_xyz
  1  'x, y, z'
loop_
 _atom_site_type_symbol
 _atom_site_label
 _atom_site_symmetry_multiplicity
 _atom_site_fract_x
 _atom_site_fract_y
 _atom_site_fract_z
 _atom_site_occupancy
  Ti  Ti0  1  0.10710707  0.10983158  0.28193009  1
  Ti  Ti1  1  0.13218847  0.03295262  0.56548221  1
  Ti  Ti2  1  0.15259315  0.03013435  0.96908991  1
  Ti  Ti3  1  0.01472389  0.40461239  0.26705501  1
  Ti  Ti4  1  0.03723927  0.41691493  0.63264624  1
  Ti  Ti5  1  0.04910000  0.47483946  0.81081343  1
  Ti  Ti6  1  0.15591219  0.75448610  0.26548137  1
  Ti  Ti7  1  0.10864465  0.71864493  0.61188583  1
  Ti  Ti8  1  0.01659832  0.77509875  0.94856197  1
  Ti  Ti9  1  0.44769879  0.07976105  0.29131306  1
  Ti  Ti10  1  0.45571319  0.06966727  0.59290928  1
  Ti  Ti11  1  0.44045862  0.16868131  0.88171785  1
  Ti  Ti12  1  0.48033354  0.50253578  0.22142431  1
  Ti  Ti13  1  0.36113185  0.39581870  0.61030679  1
  Ti  Ti14  1  0.34715657  0.46635153  0.94847843  1
  Ti  Ti15  1  0.34857596  0.76701981  0.25212316  1
  Ti  Ti16  1  0.42719513  0.72004025  0.59601069  1
  Ti  Ti17  1  0.37613616  0.70631034  0.91740047  1
  Ti  Ti18  1  0.73838646  0.06913349  0.26998088  1
  Ti  Ti19  1  0.75001621  0.02667882  0.45787363  1
  Ti  Ti20  1  0.61962132  0.07115675  0.92233982  1
  Ti  Ti21  1  0.72620426  0.46805631  0.27361110  1
  Ti  Ti22  1  0.71180447  0.44259759  0.64259208  1
  Ti  Ti23  1  0.78765880  0.44497742  0.89512027  1
  Ti  Ti24  1  0.74937455  0.67200577  0.28444590  1
  Ti  Ti25  1  0.75560097  0.77249146  0.56857092  1
  Ti  Ti26  1  0.80951065  0.77213386  0.93348652  1
  Ti  Ti27  1  0.11458302  0.30444098  -0.01325236  1
  Ti  Ti28  1  0.13846604  0.31340615  0.37960814  1
  Ti  Ti29  1  0.12619889  0.28859266  0.78959163  1
  Ti  Ti30  1  0.10135847  0.58936833  -0.01231900  1
  Ti  Ti31  1  0.09707181  0.55326326  0.35792691  1
  Ti  Ti32  1  0.05520536  0.66244971  0.79823814  1
  Ti  Ti33  1  0.08326691  0.92540545  0.12943695  1
  Ti  Ti34  1  0.04680035  0.86922249  0.45849352  1
  Ti  Ti35  1  0.06663146  1.01520094  0.76626728  1
  Ti  Ti36  1  0.40994507  0.27745805  0.04945468  1
  Ti  Ti37  1  0.39098953  0.21781255  0.42793318  1
  Ti  Ti38  1  0.45504248  0.29500135  0.73948243  1
  Ti  Ti39  1  0.41334124  0.61687667  0.08294676  1
  Ti  Ti40  1  0.37858962  0.64013470  0.40057424  1
  Ti  Ti41  1  0.42443832  0.58285883  0.73694850  1
  Ti  Ti42  1  0.47951024  0.93102114  0.01199560  1
  Ti  Ti43  1  0.42508112  0.88880551  0.51063794  1
  Ti  Ti44  1  0.37679227  0.93915546  0.74091238  1
  Ti  Ti45  1  0.78558733  0.28685771  0.02324883  1
  Ti  Ti46  1  0.73649556  0.23552140  0.55052402  1
  Ti  Ti47  1  0.70825845  0.16064898  0.73390603  1
  Ti  Ti48  1  0.77296655  0.64550527  0.07937958  1
  Ti  Ti49  1  0.75184802  0.51637825  0.46771221  1
  Ti  Ti50  1  0.73310527  0.61655451  0.81702680  1
  Ti  Ti51  1  0.70522796  0.83994082  0.10783984  1
  Ti  Ti52  1  0.69664718  0.85260367  0.38563580  1
  Ti  Ti53  1  0.75690622  0.97655057  0.82189497  1
  Ti  Ti54  1  0.31790621  0.11755464  0.09260953  1
  Ti  Ti55  1  0.31251712  0.04071753  0.45795830  1
  Ti  Ti56  1  0.24816217  0.10308995  0.80295221  1
  Ti  Ti57  1  0.31456074  0.43014299  0.14957361  1
  Ti  Ti58  1  0.29454623  0.42877114  0.42625222  1
  Ti  Ti59  1  0.23806187  0.43313899  0.73315920  1
  Ti  Ti60  1  0.24539241  0.74384102  0.07754241  1
  Ti  Ti61  1  0.25463460  0.85326273  0.39829972  1
  Ti  Ti62  1  0.23622353  0.77281498  0.76631391  1
  Ti  Ti63  1  0.61742822  0.02915375  0.11646019  1
  Ti  Ti64  1  0.60404173  0.15792319  0.40430332  1
  Ti  Ti65  1  0.57473570  0.01885859  0.73402914  1
  Ti  Ti66  1  0.63190563  0.39804933  0.12240881  1
  Ti  Ti67  1  0.56148048  0.37404018  0.35716740  1
  Ti  Ti68  1  0.59816893  0.41352530  0.81161421  1
  Ti  Ti69  1  0.58164501  0.69178417  0.11469150  1
  Ti  Ti70  1  0.51660098  0.78338593  0.38684058  1
  Ti  Ti71  1  0.61084487  0.73969898  0.71159318  1
  Ti  Ti72  1  0.81431130  0.06925748  0.03442929  1
  Ti  Ti73  1  0.94570201  0.07402075  0.43398031  1
  Ti  Ti74  1  0.89098691  0.10477575  0.73913144  1
  Ti  Ti75  1  0.95670729  0.36095649  0.08634668  1
  Ti  Ti76  1  0.96059302  0.45988555  0.46065907  1
  Ti  Ti77  1  0.86107507  0.34669448  0.72651045  1
  Ti  Ti78  1  0.90668828  0.84567576  0.10152639  1
  Ti  Ti79  1  0.97708660  0.70433125  0.35571980  1
  Ti  Ti80  1  0.87691474  0.70876199  0.73009717  1
  Ti  Ti81  1  0.28864967  0.24666803  0.24815288  1
  Ti  Ti82  1  0.22210593  0.22790208  0.55779515  1
  Ti  Ti83  1  0.29671830  0.29847365  0.87869981  1
  Ti  Ti84  1  0.17770109  0.57532266  0.17496317  1
  Ti  Ti85  1  0.23939322  0.57097073  0.53700841  1
  Ti  Ti86  1  0.24130713  0.58658387  0.83443414  1
  Ti  Ti87  1  0.28941955  0.92899044  0.14450991  1
  Ti  Ti88  1  0.25075712  0.88107569  0.59755241  1
  Ti  Ti89  1  0.30522468  0.88692026  0.92094996  1
  Ti  Ti90  1  0.66924066  0.25818832  0.24792049  1
  Ti  Ti91  1  0.55785536  0.28263898  0.56134446  1
  Ti  Ti92  1  0.59278261  0.23279494  1.02280183  1
  Ti  Ti93  1  0.59345056  0.58419303  0.34541315  1
  Ti  Ti94  1  0.60468588  0.59366555  0.59242067  1
  Ti  Ti95  1  0.60721912  0.54885539  0.97272203  1
  Ti  Ti96  1  0.51147272  0.87976001  0.20767276  1
  Ti  Ti97  1  0.61338324  0.93811300  0.55036200  1
  Ti  Ti98  1  0.56705582  0.85276401  0.84758848  1
  Ti  Ti99  1  0.87830922  0.24015139  0.26311278  1
  Ti  Ti100  1  0.94905438  0.25276561  0.55555885  1
  Ti  Ti101  1  0.92505513  0.23008637  0.89382077  1
  Ti  Ti102  1  0.89792376  0.54415835  0.20518981  1
  Ti  Ti103  1  0.91024027  0.64273049  0.53122078  1
  Ti  Ti104  1  0.91780238  0.52739608  0.99809323  1
  Ti  Ti105  1  0.86885199  0.89647901  0.31255353  1
  Ti  Ti106  1  0.93462588  0.96384673  0.60831588  1
  Ti  Ti107  1  0.92185752  0.88913108  0.81087790  1
  Co  Co108  1  0.02962851  0.65005900  0.20495955  1
  Co  Co109  1  0.22452882  0.17891169  -0.04435858  1
  Co  Co110  1  0.49623729  0.03672293  0.44466385  1
  Co  Co111  1  0.86276474  0.57851167  0.36419863  1
  Co  Co112  1  0.39169948  0.22101849  0.59368996  1
  Co  Co113  1  0.29086382  0.65326787  0.67002952  1
  Co  Co114  1  0.77059382  0.61179811  0.63354800  1
  Co  Co115  1  0.39692932  0.12198338  0.73698213  1
  Co  Co116  1  -0.05861551  0.67633498  0.06378666  1
  Co  Co117  1  0.65164670  0.30756587  0.69986507  1
  Co  Co118  1  0.79178467  -0.03857083  0.16150273  1
  Co  Co119  1  0.09339734  0.88769554  0.63475879  1
  Co  Co120  1  0.41340393  0.54457790  0.55755170  1
  Co  Co121  1  0.85114279  -0.09809217  0.48501084  1
  Co  Co122  1  0.20755069  -0.06539912  0.76359050  1
  Co  Co123  1  0.33120704  0.59715586  0.22537277  1
  Co  Co124  1  0.62309810  0.10558570  0.56573388  1
  Co  Co125  1  0.05958632  0.81875014  0.76917539  1
  Co  Co126  1  0.87353436  0.48406157  0.61322458  1
  Co  Co127  1  0.19225216  0.71662718  0.92110287  1
  Co  Co128  1  0.93080042  0.05215491  0.88847565  1
  Co  Co129  1  0.21908637  0.45851326  0.29038981  1
  Co  Co130  1  0.58807506  0.45718448  0.50007672  1
  Co  Co131  1  0.48003871  0.09820908  0.01742638  1
  Co  Co132  1  0.26628672  0.58874484  0.02010787  1
  Co  Co133  1  0.22962194  0.16701679  0.38913808  1
  Co  Co134  1  0.17930691  0.42992224  0.89410277  1
  Co  Co135  1  0.03770197  0.50334674  0.12354478  1
  Co  Co136  1  0.23306257  0.63804633  0.35216410  1
  Co  Co137  1  0.54858620  0.17489177  0.69386660  1
  Co  Co138  1  0.18378964  0.44331655  0.05295424  1
  Co  Co139  1  0.16980502  0.92096857  0.26737045  1
  Co  Co140  1  0.28350044  0.26134703  0.71153834  1
  Co  Co141  1  0.58456404  0.77860779  0.53765465  1
  Co  Co142  1  0.43835921  0.01493475  0.14887323  1
  Co  Co143  1  0.64977643  0.55806956  0.16183631  1
  Co  Co144  1  0.44332260  0.35993667  0.47913796  1
  Co  Co145  1  0.48749100  0.23639791  0.29888210  1
  Co  Co146  1  0.32951526  0.04274374  -0.05380653  1
  Co  Co147  1  0.83504384  0.75555067  0.41184048  1
  Co  Co148  1  0.64751181  0.37720145  -0.03859521  1
  Co  Co149  1  0.73751730  0.79627069  0.79555391  1
  Co  Co150  1  0.45653174  0.49851931  0.40217709  1
  Co  Co151  1  0.69499683  0.67434510  0.45008328  1
  Co  Co152  1  0.39656204  0.43855833  0.78972284  1
  Co  Co153  1  0.25359406  0.28660134  0.07580159  1
  Co  Co154  1  0.51858428  0.16999157  0.15604221  1
  Co  Co155  1  0.52335094  0.63796765  0.47374468  1
  Co  Co156  1  0.08554436  0.75304134  0.09882098  1
  Co  Co157  1  0.00510263  0.11333688  0.61066333  1
  Co  Co158  1  -0.01227904  0.58340259  0.66180165  1
  Co  Co159  1  0.07536322  0.55909142  0.52590811  1
  Co  Co160  1  0.17652682  0.05855489  0.14608086  1
  Co  Co161  1  0.14031101  0.15737181  0.69037304  1
  Ni  Ni162  1  -0.04631924  0.79736795  0.61542536  1
  Ni  Ni163  1  0.80257354  0.17876215  0.40011903  1
  Ni  Ni164  1  0.60228983  -0.01645884  0.33411927  1
  Ni  Ni165  1  -0.11164097  0.52084470  0.78342313  1
  Ni  Ni166  1  0.48772970  0.33706255  0.17750739  1
  Ni  Ni167  1  0.59261669  0.56338434  0.75281784  1
  Ni  Ni168  1  -0.04596311  0.38865826  -0.09220069  1
  Ni  Ni169  1  0.71314931  0.32613133  0.40221814  1
  Ni  Ni170  1  0.00919987  0.82699168  0.24138543  1
  Ni  Ni171  1  0.66153314  0.71402920  -0.04606435  1
  Ni  Ni172  1  0.83937031  0.92643789  -0.03162158  1
  Ni  Ni173  1  0.81531580  0.36741035  0.17851677  1
  Ni  Ni174  1  0.38871229  0.37135839  0.30580191  1
  Ni  Ni175  1  -0.03031229  0.28714290  0.39523077  1
  Ni  Ni176  1  0.14621119  0.56413431  0.68307030  1
  Ni  Ni177  1  0.27833378  0.04954651  0.27872749  1
  Ni  Ni178  1  0.76670412  0.47773252  0.06360589  1
  Ni  Ni179  1  0.81196300  0.87883628  0.68103431  1
  Ni  Ni180  1  0.41517126  0.76433770  0.76339412  1
  Ni  Ni181  1  0.50784301  0.86942407  0.66503530  1
  Ni  Ni182  1  0.71299119  0.16901781  0.12155840  1
  Ni  Ni183  1  0.73945723  0.01758405  0.64785988  1
  Ni  Ni184  1  0.75056592  0.29377485  0.84467614  1
  Ni  Ni185  1  0.62464549  0.77166705  0.25697652  1
  Ni  Ni186  1  0.87924723  0.72763321  0.21369337  1
  Ni  Ni187  1  0.18504937  0.39589083  0.55783834  1
  Ni  Ni188  1  0.48335799  0.67600279  0.24513252  1
  Ni  Ni189  1  0.52131005  0.44110708  0.65484444  1
  Ni  Ni190  1  0.82802341  0.36709220  0.51327906  1
  Ni  Ni191  1  0.78171538  0.13571191  -0.12015896  1
  Ni  Ni192  1  0.07788057  0.17162315  0.45970589  1
  Ni  Ni193  1  0.40359955  0.79923152  0.09414094  1
  Ni  Ni194  1  -0.01059581  0.23920178  0.72283493  1
  Ni  Ni195  1  0.51513465  0.77188274  -0.01400192  1
  Ni  Ni196  1  0.66707257  -0.08496122  -0.03326450  1
  Ni  Ni197  1  0.85745895  0.40205050  0.34176732  1
  Ni  Ni198  1  0.02018152  -0.03082586  0.32052863  1
  Ni  Ni199  1  0.84362950  0.11643704  0.56787474  1
  Ni  Ni200  1  0.27527265  0.73588131  0.51665578  1
  Ni  Ni201  1  0.15623018  0.86223015  -0.01250210  1
  Ni  Ni202  1  0.12229858  0.71193825  0.44727259  1
  Ni  Ni203  1  0.40546040  0.91921954  0.34153586  1
  Ni  Ni204  1  0.90891020  0.64952920  0.89390133  1
  Ni  Ni205  1  0.48207267  0.45111713  0.04977064  1
  Ni  Ni206  1  0.15064626  0.35016042  0.18771346  1
  Ni  Ni207  1  0.00306426  -0.06212469  -0.02464092  1
  Ni  Ni208  1  0.47579325  0.34688102  0.91148199  1
  Ni  Ni209  1  0.28214371  0.05232782  0.63686945  1
  Ni  Ni210  1  0.46789066  0.00275291  0.86363989  1
  Ni  Ni211  1  0.53192401  0.67290558  0.85521552  1
  Ni  Ni212  1  0.59555222  0.23855441  0.84783234  1
  Ni  Ni213  1  0.07328695  0.15023528  0.86891310  1
  Ni  Ni214  1  0.15595703  0.00703885  0.40678012  1
