# generated using pymatgen
data_Ti108Co54Ni53
_symmetry_space_group_name_H-M   'P 1'
_cell_length_a   14.62634666
_cell_length_b   14.65685361
_cell_length_c   14.63424433
_cell_angle_alpha   90.11996334
_cell_angle_beta   90.11353047
_cell_angle_gamma   90.01437831
_symmetry_Int_Tables_number   1
_chemical_formula_structural   Ti108Co54Ni53
_chemical_formula_sum   'Ti108 Co54 Ni53'
_cell_volume   3137.22087124
_cell_formula_units_Z   1
loop_
 _symmetry_equiv_pos_site_id
 _symmetry_equiv_pos_as_xyz
  1  'x, y, z'
loop_
 _atom_site_type_symbol
 _atom_site_label
 _atom_site_symmetry_multiplicity
 _atom_site_fract_x
 _atom_site_fract_y
 _atom_site_fract_z
 _atom_site_occupancy
  Ti  Ti0  1  0.09691383  0.02329088  0.22445051  1
  Ti  Ti1  1  0.06676066  0.07808106  0.61818465  1
  Ti  Ti2  1  0.12384632  0.09086579  0.81520463  1
  Ti  Ti3  1  0.12732592  0.35642720  0.22745196  1
  Ti  Ti4  1  0.06667155  0.41603120  0.53974298  1
  Ti  Ti5  1  0.06319480  0.38898645  0.86961959  1
  Ti  Ti6  1  0.10064837  0.71286317  0.22055086  1
  Ti  Ti7  1  0.09369367  0.75387036  0.66417080  1
  Ti  Ti8  1  0.17927785  0.74706597  0.85228232  1
  Ti  Ti9  1  0.43232963  0.10914314  0.29216107  1
  Ti  Ti10  1  0.41336998  0.09555074  0.58056108  1
  Ti  Ti11  1  0.43094964  0.05682252  0.96783354  1
  Ti  Ti12  1  0.48567400  0.46840416  0.23398128  1
  Ti  Ti13  1  0.38158258  0.45059663  0.58296781  1
  Ti  Ti14  1  0.44582224  0.41253787  0.91458421  1
  Ti  Ti15  1  0.38764623  0.78723510  0.34505007  1
  Ti  Ti16  1  0.47708025  0.70369627  0.64178927  1
  Ti  Ti17  1  0.45300001  0.74683323  0.97407755  1
  Ti  Ti18  1  0.74569541  0.05487881  0.27887086  1
  Ti  Ti19  1  0.74750090  0.09225410  0.61220806  1
  Ti  Ti20  1  0.73292633  0.12540937  0.95799829  1
  Ti  Ti21  1  0.79607932  0.38390103  0.24675412  1
  Ti  Ti22  1  0.80068024  0.39701751  0.62283017  1
  Ti  Ti23  1  0.76023334  0.37035317  0.84642474  1
  Ti  Ti24  1  0.62188781  0.77604656  0.26865110  1
  Ti  Ti25  1  0.64832543  0.77245940  0.58798359  1
  Ti  Ti26  1  0.76650276  0.76388009  0.89398469  1
  Ti  Ti27  1  0.04145473  0.19743899  0.13500656  1
  Ti  Ti28  1  0.12825728  0.27556943  0.42988730  1
  Ti  Ti29  1  0.06261377  0.26533115  0.69737604  1
  Ti  Ti30  1  0.16634760  0.48155634  0.07738001  1
  Ti  Ti31  1  0.08168793  0.60843697  0.47319118  1
  Ti  Ti32  1  0.04134591  0.60090795  0.78667166  1
  Ti  Ti33  1  0.12858553  0.95348098  0.06401285  1
  Ti  Ti34  1  0.06080539  0.97052312  0.43935350  1
  Ti  Ti35  1  0.03829221  0.91353103  0.77475760  1
  Ti  Ti36  1  0.39297275  0.24312109  0.00444646  1
  Ti  Ti37  1  0.43688129  0.28156804  0.38288441  1
  Ti  Ti38  1  0.34982302  0.19833052  0.73982728  1
  Ti  Ti39  1  0.41633005  0.56587324  0.06002632  1
  Ti  Ti40  1  0.38837639  0.58330184  0.35265283  1
  Ti  Ti41  1  0.35655736  0.61653538  0.82315299  1
  Ti  Ti42  1  0.43110550  0.84061571  0.15239305  1
  Ti  Ti43  1  0.38426781  0.97459690  0.44099445  1
  Ti  Ti44  1  0.42776716  0.90032151  0.81376640  1
  Ti  Ti45  1  0.75103359  0.31711939  0.06154050  1
  Ti  Ti46  1  0.77487440  0.31844806  0.42568226  1
  Ti  Ti47  1  0.71197884  0.22177781  0.74317737  1
  Ti  Ti48  1  0.73501055  0.56743725  -0.08394667  1
  Ti  Ti49  1  0.74771549  0.51882003  0.45248465  1
  Ti  Ti50  1  0.69999119  0.53019279  0.73085289  1
  Ti  Ti51  1  0.77525026  0.91073958  0.01485620  1
  Ti  Ti52  1  0.76453109  0.95363876  0.47604086  1
  Ti  Ti53  1  0.72568070  0.88446219  0.75081256  1
  Ti  Ti54  1  0.24944772  0.09839387  0.06455802  1
  Ti  Ti55  1  0.22426217  0.05872990  0.36763546  1
  Ti  Ti56  1  0.28309025  0.01563044  0.71757413  1
  Ti  Ti57  1  0.33387309  0.38635368  0.11675768  1
  Ti  Ti58  1  0.25736042  0.41726642  0.44034736  1
  Ti  Ti59  1  0.24545488  0.44367272  0.78624874  1
  Ti  Ti60  1  0.22285246  0.78338514  0.05415411  1
  Ti  Ti61  1  0.20733837  0.72447891  0.39975454  1
  Ti  Ti62  1  0.30968249  0.77676905  0.69575958  1
  Ti  Ti63  1  0.53951133  0.16486573  0.13861322  1
  Ti  Ti64  1  0.58267939  0.02249253  0.40569874  1
  Ti  Ti65  1  0.57842503  0.02347156  0.71532659  1
  Ti  Ti66  1  0.53584493  0.37161476  0.07767810  1
  Ti  Ti67  1  0.52567641  0.43251309  0.44341728  1
  Ti  Ti68  1  0.49247491  0.34968681  0.73131808  1
  Ti  Ti69  1  0.61458877  0.82254742  0.06475850  1
  Ti  Ti70  1  0.54157468  0.71122520  0.43855808  1
  Ti  Ti71  1  0.61866258  0.69679651  0.78175432  1
  Ti  Ti72  1  0.94048048  0.01999161  0.06329302  1
  Ti  Ti73  1  0.86566806  0.11693099  0.43064501  1
  Ti  Ti74  1  0.91568565  0.13075987  0.77024513  1
  Ti  Ti75  1  0.95506347  0.43015676  0.10371768  1
  Ti  Ti76  1  0.92247426  0.44017340  0.43244277  1
  Ti  Ti77  1  0.90041296  0.47755298  0.79940088  1
  Ti  Ti78  1  0.97614264  0.80578008  0.05706098  1
  Ti  Ti79  1  0.86424742  0.78337311  0.42078004  1
  Ti  Ti80  1  0.89895917  0.78364731  0.73521884  1
  Ti  Ti81  1  0.27359361  0.23690985  0.27924417  1
  Ti  Ti82  1  0.26454976  0.23592413  0.55192728  1
  Ti  Ti83  1  0.19355898  0.22739505  0.94088236  1
  Ti  Ti84  1  0.19644592  0.54849607  0.30137212  1
  Ti  Ti85  1  0.18699611  0.54256794  0.61539658  1
  Ti  Ti86  1  0.17120535  0.56845169  0.91186438  1
  Ti  Ti87  1  0.24317849  0.87639051  0.23039300  1
  Ti  Ti88  1  0.22960525  0.87546146  0.50543661  1
  Ti  Ti89  1  0.23446668  0.96147328  0.90631221  1
  Ti  Ti90  1  0.61507885  0.31236027  0.25117026  1
  Ti  Ti91  1  0.58450727  0.24692013  0.55713597  1
  Ti  Ti92  1  0.60383403  0.28711713  0.91119183  1
  Ti  Ti93  1  0.64263909  0.58161865  0.22617568  1
  Ti  Ti94  1  0.61618455  0.57344188  0.56850727  1
  Ti  Ti95  1  0.53277654  0.57551317  0.89101867  1
  Ti  Ti96  1  0.57351133  0.97274653  0.21184294  1
  Ti  Ti97  1  0.49638281  0.89379609  0.56323640  1
  Ti  Ti98  1  0.61468360  0.97650418  0.90313299  1
  Ti  Ti99  1  0.95945823  0.25285913  0.32265776  1
  Ti  Ti100  1  0.94593328  0.25901084  0.52779908  1
  Ti  Ti101  1  0.92022169  0.28502490  0.97084724  1
  Ti  Ti102  1  0.96747549  0.58268164  0.30646743  1
  Ti  Ti103  1  0.96569616  0.56213134  0.62123076  1
  Ti  Ti104  1  0.92090718  0.64505960  0.94875931  1
  Ti  Ti105  1  0.88823654  0.93204022  0.22974173  1
  Ti  Ti106  1  0.95644406  0.90400954  0.57534074  1
  Ti  Ti107  1  0.86405854  0.98154652  0.87153800  1
  Co  Co108  1  0.56337676  0.15036960  -0.01188243  1
  Co  Co109  1  0.08926502  0.45869103  0.72197305  1
  Co  Co110  1  0.32175346  0.80919196  0.89340410  1
  Co  Co111  1  0.20843054  -0.11660952  0.76188805  1
  Co  Co112  1  0.60570098  0.15238051  0.29570757  1
  Co  Co113  1  0.90000009  0.28259134  0.16759985  1
  Co  Co114  1  0.87152496  0.23504450  0.66302595  1
  Co  Co115  1  0.22010328  0.27575774  0.10447018  1
  Co  Co116  1  0.70524943  -0.09075791  0.32818438  1
  Co  Co117  1  0.29987541  0.12150096  0.87787243  1
  Co  Co118  1  0.09098007  0.67927325  0.00150460  1
  Co  Co119  1  0.89884740  0.94631887  0.39034078  1
  Co  Co120  1  0.12763006  0.92993700  0.62157165  1
  Co  Co121  1  0.00985598  0.74015806  0.84830532  1
  Co  Co122  1  0.19518401  0.27612359  0.78208596  1
  Co  Co123  1  0.65291919  0.36003641  0.68830967  1
  Co  Co124  1  0.74648410  0.24829362  0.56403461  1
  Co  Co125  1  0.61771257  0.28558133  0.40540657  1
  Co  Co126  1  0.21690226  0.70498896  0.57355483  1
  Co  Co127  1  0.27846405  0.03530739  0.20928041  1
  Co  Co128  1  0.60351123  0.13502876  0.83489272  1
  Co  Co129  1  0.69204233  0.80019002  0.43723150  1
  Co  Co130  1  0.44712996  0.30086454  0.21094145  1
  Co  Co131  1  0.07298097  0.33064697  0.03607459  1
  Co  Co132  1  0.34629822  -0.08155318  0.61285272  1
  Co  Co133  1  0.80536533  0.83761908  0.59237306  1
  Co  Co134  1  0.62353061  0.00955878  0.06215324  1
  Co  Co135  1  0.58716657  0.82134080  0.88802235  1
  Co  Co136  1  0.27245949  0.69794902  0.25611056  1
  Co  Co137  1  0.48412280  0.90999708  0.00689461  1
  Co  Co138  1  0.34551391  0.14950552  0.43503574  1
  Co  Co139  1  -0.10294364  0.10892532  0.20594603  1
  Co  Co140  1  0.33301833  0.35002034  0.69784696  1
  Co  Co141  1  0.46584020  0.21905871  0.86332241  1
  Co  Co142  1  0.81137189  0.56145593  0.61873180  1
  Co  Co143  1  0.19869134  0.15091440  0.67194637  1
  Co  Co144  1  0.91324607  0.84407065  -0.08229312  1
  Co  Co145  1  0.29380590  0.66151573  -0.02410062  1
  Co  Co146  1  0.56326479  0.56520126  0.37305897  1
  Co  Co147  1  0.43390800  0.02434317  0.13224958  1
  Co  Co148  1  0.07275911  0.52514666  0.20098429  1
  Co  Co149  1  0.33586145  0.31199234  -0.13861431  1
  Co  Co150  1  0.08209448  0.80145652  0.50925633  1
  Co  Co151  1  0.65943128  0.39896175  0.52964059  1
  Co  Co152  1  0.20389942  0.63105845  0.12084515  1
  Co  Co153  1  0.35743985  0.70140926  0.12764141  1
  Co  Co154  1  0.08878525  0.11213656  0.00977362  1
  Co  Co155  1  0.45961992  0.73915237  0.80426641  1
  Co  Co156  1  0.32081777  0.49947837  0.95066061  1
  Co  Co157  1  0.13489802  0.86500493  0.34395187  1
  Co  Co158  1  0.77550354  0.03475885  0.11795695  1
  Co  Co159  1  0.04734212  0.14172633  0.46336489  1
  Co  Co160  1  0.57413577  0.54641407  0.06235397  1
  Co  Co161  1  0.21076971  0.62811494  0.74468137  1
  Ni  Ni162  1  0.36077962  0.17650071  0.15293930  1
  Ni  Ni163  1  0.62853961  0.68292230  -0.02353527  1
  Ni  Ni164  1  0.52082716  0.18442607  0.69880773  1
  Ni  Ni165  1  0.28048208  0.58349333  0.48009639  1
  Ni  Ni166  1  0.60021097  0.43965266  0.82599529  1
  Ni  Ni167  1  -0.04503948  0.38763979  0.66122758  1
  Ni  Ni168  1  0.19858740  0.37088307  0.61867386  1
  Ni  Ni169  1  0.57764023  0.07670860  0.55840333  1
  Ni  Ni170  1  0.56031540  0.84987804  0.71967866  1
  Ni  Ni171  1  -0.03633890  0.41109376  0.26687058  1
  Ni  Ni172  1  0.75778041  0.70507356  0.68942196  1
  Ni  Ni173  1  0.70453152  0.65520838  0.36881282  1
  Ni  Ni174  1  0.69942219  0.13993325  0.44139580  1
  Ni  Ni175  1  0.32538846  0.54123728  0.19802837  1
  Ni  Ni176  1  0.44117197  0.06594885  0.79660721  1
  Ni  Ni177  1  0.45097002  0.58885987  0.51311385  1
  Ni  Ni178  1  0.09001704  0.84543176  -0.05794294  1
  Ni  Ni179  1  0.36831793  0.76595406  0.51367163  1
  Ni  Ni180  1  0.66989606  0.44171308  0.14835059  1
  Ni  Ni181  1  0.78776674  0.21527130  0.29626685  1
  Ni  Ni182  1  0.21665406  0.38364850  -0.04637278  1
  Ni  Ni183  1  0.72668716  0.88710217  0.17319595  1
  Ni  Ni184  1  0.65818261  -0.06473463  0.60035338  1
  Ni  Ni185  1  0.91257233  0.30435263  0.80265115  1
  Ni  Ni186  1  0.11400852  0.17963280  0.29506382  1
  Ni  Ni187  1  0.02962314  -0.00645138  -0.08027885  1
  Ni  Ni188  1  0.33244346  0.40435203  0.29436780  1
  Ni  Ni189  1  0.01561133  0.51373395  0.96826164  1
  Ni  Ni190  1  0.84956250  0.63048363  0.79339192  1
  Ni  Ni191  1  0.85206734  0.45296742  -0.03170703  1
  Ni  Ni192  1  -0.06047819  0.72806152  0.57233248  1
  Ni  Ni193  1  0.53432697  0.87094141  0.37350152  1
  Ni  Ni194  1  0.80949431  0.53415756  0.29997361  1
  Ni  Ni195  1  0.04820183  0.86925192  0.19241779  1
  Ni  Ni196  1  0.53142532  0.68947565  0.13823914  1
  Ni  Ni197  1  0.85545201  0.16718165  0.06158130  1
  Ni  Ni198  1  0.24220773  0.04497146  0.54111278  1
  Ni  Ni199  1  0.66416805  0.43616578  -0.02030176  1
  Ni  Ni200  1  0.50765946  0.54156821  0.70500690  1
  Ni  Ni201  1  0.74325984  0.05836910  0.78628365  1
  Ni  Ni202  1  0.02194341  0.73057512  0.37639677  1
  Ni  Ni203  1  -0.01333235  0.07478399  0.32729232  1
  Ni  Ni204  1  0.40427340  -0.05489203  0.28118313  1
  Ni  Ni205  1  0.90932890  0.08180681  0.58397987  1
  Ni  Ni206  1  0.08504114  0.44513554  0.37216109  1
  Ni  Ni207  1  0.77099543  0.68193986  0.52317230  1
  Ni  Ni208  1  -0.09513056  0.60843478  0.46274863  1
  Ni  Ni209  1  0.42437337  0.27910335  0.57628544  1
  Ni  Ni210  1  0.70917663  0.18148324  0.15321109  1
  Ni  Ni211  1  0.34459129  0.60263718  0.64568095  1
  Ni  Ni212  1  0.03684289  0.21771803  0.87274003  1
  Ni  Ni213  1  0.31423598  -0.06814663  0.05488152  1
  Ni  Ni214  1  -0.13273104  -0.03183924  0.70195972  1
