# generated using pymatgen
data_Ti108Co54Ni53
_symmetry_space_group_name_H-M   'P 1'
_cell_length_a   14.54312047
_cell_length_b   14.64248195
_cell_length_c   14.60209135
_cell_angle_alpha   89.96213015
_cell_angle_beta   89.92518259
_cell_angle_gamma   89.89772083
_symmetry_Int_Tables_number   1
_chemical_formula_structural   Ti108Co54Ni53
_chemical_formula_sum   'Ti108 Co54 Ni53'
_cell_volume   3109.46879868
_cell_formula_units_Z   1
loop_
 _symmetry_equiv_pos_site_id
 _symmetry_equiv_pos_as_xyz
  1  'x, y, z'
loop_
 _atom_site_type_symbol
 _atom_site_label
 _atom_site_symmetry_multiplicity
 _atom_site_fract_x
 _atom_site_fract_y
 _atom_site_fract_z
 _atom_site_occupancy
  Ti  Ti0  1  0.12490495  0.10784416  0.16520707  1
  Ti  Ti1  1  0.10554306  0.04749111  0.56508090  1
  Ti  Ti2  1  0.06735687  0.09358032  0.85903436  1
  Ti  Ti3  1  0.06227735  0.36425676  0.25487116  1
  Ti  Ti4  1  0.09219149  0.45397651  0.57468566  1
  Ti  Ti5  1  0.07168369  0.45093190  0.91309200  1
  Ti  Ti6  1  0.06835309  0.81192485  0.21753840  1
  Ti  Ti7  1  0.00055576  0.64728296  0.53554119  1
  Ti  Ti8  1  0.07474641  0.72910736  0.91317080  1
  Ti  Ti9  1  0.40784196  0.02493761  0.24932303  1
  Ti  Ti10  1  0.50768303  0.07357522  0.56117763  1
  Ti  Ti11  1  0.39141244  0.12303432  0.92584775  1
  Ti  Ti12  1  0.40336946  0.37323404  0.28540908  1
  Ti  Ti13  1  0.38981849  0.46822789  0.63019079  1
  Ti  Ti14  1  0.41562697  0.44057872  0.92791180  1
  Ti  Ti15  1  0.38196494  0.68633565  0.24256912  1
  Ti  Ti16  1  0.39489338  0.82975198  0.53849255  1
  Ti  Ti17  1  0.40086328  0.79051040  0.86229348  1
  Ti  Ti18  1  0.73718894  0.15201178  0.20314238  1
  Ti  Ti19  1  0.68105256  0.10726721  0.66632474  1
  Ti  Ti20  1  0.71542314  0.10751406  0.87084220  1
  Ti  Ti21  1  0.83486223  0.36401045  0.21829097  1
  Ti  Ti22  1  0.81732815  0.35378085  0.55863568  1
  Ti  Ti23  1  0.71466437  0.46892937  0.91811730  1
  Ti  Ti24  1  0.72747879  0.68623214  0.20137093  1
  Ti  Ti25  1  0.75483713  0.75614546  0.65815253  1
  Ti  Ti26  1  0.82052008  0.81288752  0.90339809  1
  Ti  Ti27  1  0.10638583  0.32309737  0.07711953  1
  Ti  Ti28  1  0.13050314  0.32411024  0.43483798  1
  Ti  Ti29  1  0.11284733  0.27185072  0.85462583  1
  Ti  Ti30  1  0.09114612  0.55020745  0.12892806  1
  Ti  Ti31  1  0.03773164  0.52879602  0.39697552  1
  Ti  Ti32  1  0.06410621  0.63648337  0.70316236  1
  Ti  Ti33  1  0.12019423  0.99668899  0.01863506  1
  Ti  Ti34  1  0.09347726  0.89904889  0.40016779  1
  Ti  Ti35  1  0.13326598  0.91650287  0.79854836  1
  Ti  Ti36  1  0.41659469  0.19480622  0.12955179  1
  Ti  Ti37  1  0.49988051  0.25657753  0.44995165  1
  Ti  Ti38  1  0.41840539  0.27823318  0.76692350  1
  Ti  Ti39  1  0.42373734  0.53218172  0.10948432  1
  Ti  Ti40  1  0.43793783  0.55350214  0.36689068  1
  Ti  Ti41  1  0.42705043  0.61151923  0.76386804  1
  Ti  Ti42  1  0.40854143  0.87019462  0.07187904  1
  Ti  Ti43  1  0.43725541  0.85498367  0.34824297  1
  Ti  Ti44  1  0.39258586  0.97255868  0.65864410  1
  Ti  Ti45  1  0.72139686  0.23338938  0.01238755  1
  Ti  Ti46  1  0.72360899  0.25359433  0.40398874  1
  Ti  Ti47  1  0.81929344  0.26343764  0.73549016  1
  Ti  Ti48  1  0.77071907  0.53781047  0.08753585  1
  Ti  Ti49  1  0.75780590  0.57985121  0.50294821  1
  Ti  Ti50  1  0.69633117  0.58446842  0.74613655  1
  Ti  Ti51  1  0.68673723  0.85048080  0.07989995  1
  Ti  Ti52  1  0.66837793  0.85577401  0.39667278  1
  Ti  Ti53  1  0.68933437  0.92103132  0.78491496  1
  Ti  Ti54  1  0.29701231  0.03444938  0.08001052  1
  Ti  Ti55  1  0.25683535  0.12742254  0.39273832  1
  Ti  Ti56  1  0.23581606  0.06844386  0.73003341  1
  Ti  Ti57  1  0.23891074  0.45893902  0.00407476  1
  Ti  Ti58  1  0.25390370  0.45414930  0.38909645  1
  Ti  Ti59  1  0.23721810  0.35448129  0.71503846  1
  Ti  Ti60  1  0.21810484  0.73546583  0.11507889  1
  Ti  Ti61  1  0.19054958  0.73808116  0.51961728  1
  Ti  Ti62  1  0.21442816  0.74659482  0.77336994  1
  Ti  Ti63  1  0.63705912  0.05450538  0.06756526  1
  Ti  Ti64  1  0.54562937  0.07363858  0.37858967  1
  Ti  Ti65  1  0.52689210  0.10941967  0.79792649  1
  Ti  Ti66  1  0.65787035  0.37917863  0.11203458  1
  Ti  Ti67  1  0.57922303  0.41624176  0.39599531  1
  Ti  Ti68  1  0.63702331  0.39463543  0.75126553  1
  Ti  Ti69  1  0.53152557  0.73321586  0.13533230  1
  Ti  Ti70  1  0.52855228  0.72156019  0.45582671  1
  Ti  Ti71  1  0.58420747  0.73117362  0.80578368  1
  Ti  Ti72  1  0.92024325  0.06499746  0.15865343  1
  Ti  Ti73  1  0.97417861  0.09766665  0.35080256  1
  Ti  Ti74  1  0.87297421  0.06277719  0.72815253  1
  Ti  Ti75  1  0.94669019  0.44664140  0.08548722  1
  Ti  Ti76  1  0.90435903  0.37795851  0.39239949  1
  Ti  Ti77  1  0.96022875  0.45482859  0.71647357  1
  Ti  Ti78  1  0.89995943  0.79416195  0.09710968  1
  Ti  Ti79  1  0.96460824  0.74214156  0.38214808  1
  Ti  Ti80  1  0.88804074  0.66831206  0.80202716  1
  Ti  Ti81  1  0.25469140  0.28230482  0.23121222  1
  Ti  Ti82  1  0.22792253  0.21827938  0.57085814  1
  Ti  Ti83  1  0.24091361  0.21550636  1.00692415  1
  Ti  Ti84  1  0.20890925  0.64970219  0.34105372  1
  Ti  Ti85  1  0.24658149  0.58540324  0.64662198  1
  Ti  Ti86  1  0.29607377  0.63605991  0.94273582  1
  Ti  Ti87  1  0.23869113  0.95892980  0.28622835  1
  Ti  Ti88  1  0.21809988  0.89956085  0.61489421  1
  Ti  Ti89  1  0.24014718  0.84833163  0.95150151  1
  Ti  Ti90  1  0.56095760  0.25084856  0.26518316  1
  Ti  Ti91  1  0.53835113  0.36375489  0.59373595  1
  Ti  Ti92  1  0.56817203  0.32244950  0.92249440  1
  Ti  Ti93  1  0.64169646  0.59539141  0.35219639  1
  Ti  Ti94  1  0.55373992  0.55246509  0.53045752  1
  Ti  Ti95  1  0.61874724  0.63677719  0.98536739  1
  Ti  Ti96  1  0.56834906  0.91660359  0.21271617  1
  Ti  Ti97  1  0.60089757  0.85670524  0.59853793  1
  Ti  Ti98  1  0.53957996  0.93389692  0.94199377  1
  Ti  Ti99  1  0.89339912  0.23651385  0.08990697  1
  Ti  Ti100  1  0.98890781  0.24499126  0.57229749  1
  Ti  Ti101  1  0.89816964  0.18308256  0.89875730  1
  Ti  Ti102  1  0.85428666  0.58028095  0.32937651  1
  Ti  Ti103  1  0.86116821  0.58887075  0.64355943  1
  Ti  Ti104  1  0.92672137  0.61407463  0.98597615  1
  Ti  Ti105  1  0.88821998  0.90756916  0.27701473  1
  Ti  Ti106  1  0.97475949  0.91242176  0.65026431  1
  Ti  Ti107  1  0.98105439  0.90914379  0.91465507  1
  Co  Co108  1  0.04855652  0.04270538  0.71189226  1
  Co  Co109  1  0.55115400  0.52846717  0.68744235  1
  Co  Co110  1  0.03670071  0.69881381  0.09006773  1
  Co  Co111  1  -0.00399214  0.25773016  0.36830663  1
  Co  Co112  1  0.81889516  0.17749505  0.59847683  1
  Co  Co113  1  0.38160813  0.70531506  0.06112472  1
  Co  Co114  1  0.13056026  0.59940587  -0.01590604  1
  Co  Co115  1  0.57198418  0.53187129  0.85408373  1
  Co  Co116  1  -0.07615559  0.74933310  0.64945582  1
  Co  Co117  1  0.76713480  0.72409428  0.36761407  1
  Co  Co118  1  0.22433073  0.79350603  0.27959395  1
  Co  Co119  1  0.73276421  0.51007676  0.24103575  1
  Co  Co120  1  0.63465432  0.17525649  0.51257128  1
  Co  Co121  1  0.32316797  0.33954680  0.07942733  1
  Co  Co122  1  0.32070219  0.55711195  0.49582110  1
  Co  Co123  1  0.09571423  0.83464252  0.03459683  1
  Co  Co124  1  0.76681678  0.62324566  0.90197362  1
  Co  Co125  1  -0.01145184  0.92965576  0.10907806  1
  Co  Co126  1  0.07252254  0.33123306  0.68524688  1
  Co  Co127  1  0.86967554  0.20617500  0.44972840  1
  Co  Co128  1  0.47158043  0.42164539  0.77794095  1
  Co  Co129  1  0.13464328  0.18874028  0.70287699  1
  Co  Co130  1  0.29637285  0.89897565  0.77992618  1
  Co  Co131  1  0.86036568  0.21089927  0.28190207  1
  Co  Co132  1  0.02841463  0.64788716  0.26062073  1
  Co  Co133  1  0.27812908  0.12469605  0.21929689  1
  Co  Co134  1  0.67892670  0.72087365  0.50863794  1
  Co  Co135  1  0.81109167  0.38114106  0.02885299  1
  Co  Co136  1  0.79946345  0.09280680  0.03707732  1
  Co  Co137  1  0.16177438  0.58019823  0.49736569  1
  Co  Co138  1  0.29114400  0.06556217  0.57345078  1
  Co  Co139  1  0.47003991  0.02987167  0.07116371  1
  Co  Co140  1  0.84660212  0.00410719  0.87178807  1
  Co  Co141  1  0.21613525  -0.01591623  0.46079026  1
  Co  Co142  1  0.42196403  0.41602107  0.46928589  1
  Co  Co143  1  0.01682236  0.57570282  0.84481156  1
  Co  Co144  1  0.26388007  0.58434362  0.11011242  1
  Co  Co145  1  0.90303863  0.61436406  0.14876491  1
  Co  Co146  1  0.87995143  0.74721725  0.24902803  1
  Co  Co147  1  0.36065953  0.84617711  0.21025139  1
  Co  Co148  1  0.84552394  0.72419176  0.51117592  1
  Co  Co149  1  0.36031126  -0.04123411  -0.05490696  1
  Co  Co150  1  0.73029133  0.83961128  0.24822012  1
  Co  Co151  1  -0.02457234  0.19014008  0.73483255  1
  Co  Co152  1  0.59294321  0.21983623  0.11128433  1
  Co  Co153  1  0.45934330  0.61834395  0.93551521  1
  Co  Co154  1  0.27231194  0.84521040  0.42441140  1
  Co  Co155  1  0.12652338  0.47382456  0.74203495  1
  Co  Co156  1  0.38895829  0.15138287  0.48173556  1
  Co  Co157  1  0.38301803  -0.00838325  0.43977819  1
  Co  Co158  1  -0.03739187  0.49059406  0.24908209  1
  Co  Co159  1  0.66526604  0.79796217  0.92222720  1
  Co  Co160  1  0.51588410  0.76811601  -0.02447836  1
  Co  Co161  1  0.21561664  -0.09747648  0.13455717  1
  Ni  Ni162  1  0.68070047  0.36314464  0.27786839  1
  Ni  Ni163  1  0.13350526  0.19912791  0.30507662  1
  Ni  Ni164  1  0.57896100  0.74214016  0.29359170  1
  Ni  Ni165  1  0.77006387  0.70617742  0.03857195  1
  Ni  Ni166  1  0.33638699  0.75499474  0.67640073  1
  Ni  Ni167  1  0.42140576  0.65018849  0.58162993  1
  Ni  Ni168  1  0.68447678  0.27695099  0.62978799  1
  Ni  Ni169  1  0.09579926  0.79166433  0.65620052  1
  Ni  Ni170  1  0.01366129  0.82227066  0.51921168  1
  Ni  Ni171  1  0.14300694  0.51426457  0.27630342  1
  Ni  Ni172  1  0.31013402  0.29351127  0.42251486  1
  Ni  Ni173  1  0.30988045  0.48995123  0.79688888  1
  Ni  Ni174  1  0.48438222  0.33964509  0.07117811  1
  Ni  Ni175  1  -0.07435963  0.48252610  0.52580664  1
  Ni  Ni176  1  0.95961719  0.33052212  0.81358127  1
  Ni  Ni177  1  0.88346832  0.47228269  -0.11696519  1
  Ni  Ni178  1  0.18445824  0.59382579  0.82652305  1
  Ni  Ni179  1  0.53423668  0.43032668  0.21120557  1
  Ni  Ni180  1  0.56166954  -0.02093463  0.70115320  1
  Ni  Ni181  1  0.44402764  -0.03474942  0.81534535  1
  Ni  Ni182  1  0.56074356  0.48015529  0.01747191  1
  Ni  Ni183  1  0.38376445  0.28738851  0.59100413  1
  Ni  Ni184  1  -0.00629779  0.80315216  0.78656587  1
  Ni  Ni185  1  0.76651173  0.31950212  -0.12122023  1
  Ni  Ni186  1  -0.04385272  0.05664006  -0.00846601  1
  Ni  Ni187  1  0.77094873  -0.02034714  0.16956050  1
  Ni  Ni188  1  0.53221508  0.21141659  0.65580655  1
  Ni  Ni189  1  0.55795838  0.08963016  0.21075602  1
  Ni  Ni190  1  0.08668285  0.16216267  0.45952764  1
  Ni  Ni191  1  0.27377143  0.20034117  0.82309741  1
  Ni  Ni192  1  0.79322280  0.44548114  0.71993497  1
  Ni  Ni193  1  0.68163939  0.44772276  0.58588956  1
  Ni  Ni194  1  0.84565598  0.93475266  0.02517206  1
  Ni  Ni195  1  0.40471417  0.19362487  0.31280814  1
  Ni  Ni196  1  0.05642213  -0.02065717  0.25029391  1
  Ni  Ni197  1  0.64251714  0.23258072  0.79131257  1
  Ni  Ni198  1  0.26774930  0.34895514  0.88529790  1
  Ni  Ni199  1  0.47793089  0.82878943  0.71255191  1
  Ni  Ni200  1  0.54808448  0.16064453  -0.03438320  1
  Ni  Ni201  1  0.35869107  0.70416589  0.42502736  1
  Ni  Ni202  1  0.74793481  0.44079111  0.40996129  1
  Ni  Ni203  1  0.53102793  -0.07452020  0.46884339  1
  Ni  Ni204  1  0.05928089  0.18134735  0.01138994  1
  Ni  Ni205  1  -0.03480775  0.32621672  -0.02943776  1
  Ni  Ni206  1  0.70683701  -0.04194801  -0.05386509  1
  Ni  Ni207  1  0.57655626  0.68912677  0.64046599  1
  Ni  Ni208  1  0.23273258  0.05097977  0.90079680  1
  Ni  Ni209  1  0.00615804  0.21621779  0.20251253  1
  Ni  Ni210  1  0.57159659  0.58591204  0.19913434  1
  Ni  Ni211  1  0.84482091  0.87245901  0.74836603  1
  Ni  Ni212  1  0.21390360  0.42442876  0.16513481  1
  Ni  Ni213  1  0.31601146  0.52483267  0.25117243  1
  Ni  Ni214  1  0.25874439  0.39956679  0.54732125  1
