# generated using pymatgen
data_Ti108Co54Ni53
_symmetry_space_group_name_H-M   'P 1'
_cell_length_a   14.68850674
_cell_length_b   14.63914414
_cell_length_c   14.63959414
_cell_angle_alpha   89.71503819
_cell_angle_beta   89.81347666
_cell_angle_gamma   90.13675097
_symmetry_Int_Tables_number   1
_chemical_formula_structural   Ti108Co54Ni53
_chemical_formula_sum   'Ti108 Co54 Ni53'
_cell_volume   3147.84575669
_cell_formula_units_Z   1
loop_
 _symmetry_equiv_pos_site_id
 _symmetry_equiv_pos_as_xyz
  1  'x, y, z'
loop_
 _atom_site_type_symbol
 _atom_site_label
 _atom_site_symmetry_multiplicity
 _atom_site_fract_x
 _atom_site_fract_y
 _atom_site_fract_z
 _atom_site_occupancy
  Ti  Ti0  1  0.05843695  0.05380950  0.34029400  1
  Ti  Ti1  1  0.13233160  0.08561835  0.55010282  1
  Ti  Ti2  1  0.12037436  0.12095609  0.92000807  1
  Ti  Ti3  1  0.06885806  0.41592311  0.22352641  1
  Ti  Ti4  1  0.15061400  0.41534947  0.50505183  1
  Ti  Ti5  1  0.07972118  0.40081333  0.88378804  1
  Ti  Ti6  1  0.02869729  0.80160281  0.23881152  1
  Ti  Ti7  1  0.08764992  0.73144708  0.55537873  1
  Ti  Ti8  1  0.16878307  0.68962528  0.97367821  1
  Ti  Ti9  1  0.41905060  0.12010668  0.23242347  1
  Ti  Ti10  1  0.39363026  0.14321540  0.56592334  1
  Ti  Ti11  1  0.44801131  0.12293503  0.89045941  1
  Ti  Ti12  1  0.42325491  0.41624473  0.30869669  1
  Ti  Ti13  1  0.44329863  0.45031754  0.53573748  1
  Ti  Ti14  1  0.43239581  0.42186815  0.88507224  1
  Ti  Ti15  1  0.45686445  0.80082764  0.37322215  1
  Ti  Ti16  1  0.40648212  0.72031630  0.53839904  1
  Ti  Ti17  1  0.33088982  0.72098553  0.86749788  1
  Ti  Ti18  1  0.70187473  0.05346167  0.18919643  1
  Ti  Ti19  1  0.71006217  0.16770190  0.58919377  1
  Ti  Ti20  1  0.68749857  0.02295159  0.99271508  1
  Ti  Ti21  1  0.75448767  0.43111633  0.24575756  1
  Ti  Ti22  1  0.76151082  0.34679424  0.69519396  1
  Ti  Ti23  1  0.73146932  0.40806365  0.93767966  1
  Ti  Ti24  1  0.73569215  0.70251915  0.29544120  1
  Ti  Ti25  1  0.73882275  0.69252712  0.62580929  1
  Ti  Ti26  1  0.74809119  0.73839500  0.81535602  1
  Ti  Ti27  1  0.04329509  0.26561608  0.08604740  1
  Ti  Ti28  1  0.00416663  0.29500897  0.39930444  1
  Ti  Ti29  1  0.12113665  0.29116806  0.71363574  1
  Ti  Ti30  1  0.06500431  0.59153770  0.11509343  1
  Ti  Ti31  1  0.00964312  0.48850478  0.38404024  1
  Ti  Ti32  1  0.14557059  0.56907351  0.79167622  1
  Ti  Ti33  1  0.05183107  0.94244237  0.09559782  1
  Ti  Ti34  1  0.14391147  0.90535026  0.45663409  1
  Ti  Ti35  1  0.13501248  0.86793752  0.90752581  1
  Ti  Ti36  1  0.34365502  0.21086582  0.08384381  1
  Ti  Ti37  1  0.35619253  0.23665514  0.38338081  1
  Ti  Ti38  1  0.32287327  0.24462486  0.79108642  1
  Ti  Ti39  1  0.43190234  0.55584116  0.06581695  1
  Ti  Ti40  1  0.38839861  0.58670895  0.39368498  1
  Ti  Ti41  1  0.46712922  0.66708858  0.72102214  1
  Ti  Ti42  1  0.40568639  0.90177139  0.09820658  1
  Ti  Ti43  1  0.44416822  0.97169481  0.48414088  1
  Ti  Ti44  1  0.39453541  0.84853793  0.72705522  1
  Ti  Ti45  1  0.71012245  0.28401582  0.10362744  1
  Ti  Ti46  1  0.77563638  0.26007718  0.36440477  1
  Ti  Ti47  1  0.63739059  0.21177287  0.75087855  1
  Ti  Ti48  1  0.72470507  0.62667293  0.01355123  1
  Ti  Ti49  1  0.77429374  0.60296361  0.46235153  1
  Ti  Ti50  1  0.79899041  0.54139866  0.73301655  1
  Ti  Ti51  1  0.78843988  0.85369157  -0.00330814  1
  Ti  Ti52  1  0.72157352  0.90080229  0.32247931  1
  Ti  Ti53  1  0.76595755  0.94665605  0.78738888  1
  Ti  Ti54  1  0.24117451  0.01262427  0.04714007  1
  Ti  Ti55  1  0.27008990  0.04792000  0.37317148  1
  Ti  Ti56  1  0.30919410  0.04140925  0.73362005  1
  Ti  Ti57  1  0.24031325  0.47217263  0.12576864  1
  Ti  Ti58  1  0.20707830  0.34375333  0.32978162  1
  Ti  Ti59  1  0.24809368  0.47004339  0.66245111  1
  Ti  Ti60  1  0.31366165  0.70065923  0.11693158  1
  Ti  Ti61  1  0.26224992  0.74610065  0.41496408  1
  Ti  Ti62  1  0.25456261  0.69127052  0.67165462  1
  Ti  Ti63  1  0.54820234  0.17032911  0.09939904  1
  Ti  Ti64  1  0.64990079  0.09674676  0.40731089  1
  Ti  Ti65  1  0.59530364  0.03061341  0.72654899  1
  Ti  Ti66  1  0.60860847  0.45872553  0.10947759  1
  Ti  Ti67  1  0.63895870  0.40408373  0.43193497  1
  Ti  Ti68  1  0.60691437  0.42007811  0.78784740  1
  Ti  Ti69  1  0.57582328  0.80262562  0.03426126  1
  Ti  Ti70  1  0.59870167  0.70110930  0.43014455  1
  Ti  Ti71  1  0.59608175  0.83170822  0.73240679  1
  Ti  Ti72  1  0.95343648  0.09853310  0.03454230  1
  Ti  Ti73  1  0.85195459  0.09267989  0.48283322  1
  Ti  Ti74  1  0.90778575  0.12476832  0.83785957  1
  Ti  Ti75  1  0.93695947  0.44904746  0.02329084  1
  Ti  Ti76  1  0.85060084  0.42059842  0.45996507  1
  Ti  Ti77  1  0.92531567  0.31907755  0.78327502  1
  Ti  Ti78  1  0.98170633  0.76932324  0.03921411  1
  Ti  Ti79  1  0.95503816  0.69638645  0.40200752  1
  Ti  Ti80  1  0.94324254  0.76139357  0.69248868  1
  Ti  Ti81  1  0.21243494  0.17014766  0.23867904  1
  Ti  Ti82  1  0.29953189  0.31093774  0.57642200  1
  Ti  Ti83  1  0.23428106  0.31831729  0.97366840  1
  Ti  Ti84  1  0.19953015  0.64537730  0.26469863  1
  Ti  Ti85  1  0.24840921  0.57784780  0.50544460  1
  Ti  Ti86  1  0.28288477  0.52275618  0.93402838  1
  Ti  Ti87  1  0.20575357  0.86974621  0.25099149  1
  Ti  Ti88  1  0.27075069  0.86911177  0.58853699  1
  Ti  Ti89  1  0.34101793  0.91888357  0.90858956  1
  Ti  Ti90  1  0.55318668  0.25990600  0.30412351  1
  Ti  Ti91  1  0.50318513  0.27876166  0.63346896  1
  Ti  Ti92  1  0.62542963  0.21555174  0.93346854  1
  Ti  Ti93  1  0.54452022  0.61202606  0.24416298  1
  Ti  Ti94  1  0.60120865  0.55408731  0.57500621  1
  Ti  Ti95  1  0.56829509  0.67655067  0.88658825  1
  Ti  Ti96  1  0.55229809  0.87948620  0.22345044  1
  Ti  Ti97  1  0.63365655  0.89664377  0.54515815  1
  Ti  Ti98  1  0.52683905  0.96278827  0.94726752  1
  Ti  Ti99  1  0.86957545  0.18264015  0.19075930  1
  Ti  Ti100  1  0.92067305  0.26378631  0.59334900  1
  Ti  Ti101  1  0.88249279  0.27869195  0.97653019  1
  Ti  Ti102  1  0.90191330  0.66783209  0.21362237  1
  Ti  Ti103  1  0.95056724  0.56134794  0.56629935  1
  Ti  Ti104  1  0.99333490  0.60282245  0.92150303  1
  Ti  Ti105  1  0.90009726  0.97646727  0.28020857  1
  Ti  Ti106  1  0.88298307  0.88367868  0.51289969  1
  Ti  Ti107  1  0.92399903  0.85936156  0.85803619  1
  Co  Co108  1  0.28260988  0.02118091  0.54117283  1
  Co  Co109  1  0.82011213  0.18344355  0.71279835  1
  Co  Co110  1  0.40929389  0.26861414  -0.04983277  1
  Co  Co111  1  0.88316832  0.65978497  0.80399332  1
  Co  Co112  1  0.73937406  0.58475547  0.17621604  1
  Co  Co113  1  0.56426723  0.06650875  0.27275469  1
  Co  Co114  1  0.13508218  0.52955819  -0.02738646  1
  Co  Co115  1  0.46595673  0.30663193  0.46765534  1
  Co  Co116  1  0.68435621  0.20198893  0.24271186  1
  Co  Co117  1  0.42198829  0.74032298  0.00053931  1
  Co  Co118  1  0.11293410  0.56300634  0.60168229  1
  Co  Co119  1  0.47928296  0.84721320  0.58656514  1
  Co  Co120  1  0.11272435  0.26186393  0.55652625  1
  Co  Co121  1  0.60938281  0.24235397  0.47650248  1
  Co  Co122  1  0.46723545  0.13738165  0.72266444  1
  Co  Co123  1  0.46275703  -0.02235067  0.79986121  1
  Co  Co124  1  0.86221923  0.71318877  -0.04954671  1
  Co  Co125  1  0.40638343  0.06283222  0.04965132  1
  Co  Co126  1  0.31215195  0.89674199  0.41357818  1
  Co  Co127  1  0.19550083  0.31321443  0.15036822  1
  Co  Co128  1  0.00130812  0.39750549  0.54282140  1
  Co  Co129  1  0.83367961  0.54085977  -0.07674936  1
  Co  Co130  1  0.11129481  0.75886421  0.37131757  1
  Co  Co131  1  0.06506162  0.43820717  0.70399324  1
  Co  Co132  1  0.55119656  0.00059856  0.11014640  1
  Co  Co133  1  0.48982461  0.82060949  0.86355198  1
  Co  Co134  1  -0.10851783  0.60340530  0.06566410  1
  Co  Co135  1  0.79918027  0.73666900  0.11082211  1
  Co  Co136  1  0.37965180  0.57769765  0.61009524  1
  Co  Co137  1  0.68455740  0.55087811  0.33412717  1
  Co  Co138  1  0.11374503  0.81369242  0.68731775  1
  Co  Co139  1  0.21323302  0.00783419  0.86267954  1
  Co  Co140  1  0.24875589  0.18420718  0.48868806  1
  Co  Co141  1  0.47513813  0.73836034  0.15923016  1
  Co  Co142  1  0.62360576  0.62618191  0.72687206  1
  Co  Co143  1  0.24032600  0.87389408  0.76703125  1
  Co  Co144  1  0.02729452  0.74000730  0.85020419  1
  Co  Co145  1  0.89861377  0.43378050  0.65819134  1
  Co  Co146  1  0.55812803  0.09962191  0.57454829  1
  Co  Co147  1  0.75409388  -0.03071108  0.45735572  1
  Co  Co148  1  0.37390198  0.68948367  0.27637711  1
  Co  Co149  1  0.31440913  0.00469408  0.19546543  1
  Co  Co150  1  0.43511684  0.59425701  -0.09548440  1
  Co  Co151  1  0.50230452  0.31736098  0.15972866  1
  Co  Co152  1  0.09999354  0.41234868  0.06281440  1
  Co  Co153  1  0.58059616  0.43063641  0.26757088  1
  Co  Co154  1  0.19525968  0.50268529  0.34108807  1
  Co  Co155  1  0.75583327  0.48672387  0.57689960  1
  Co  Co156  1  0.31335016  0.41946620  0.44255782  1
  Co  Co157  1  0.04525130  0.60367917  0.27774248  1
  Co  Co158  1  0.17757606  0.72862463  0.80883844  1
  Co  Co159  1  0.56977986  0.62805685  0.07203542  1
  Co  Co160  1  0.43793887  -0.00739711  0.64259606  1
  Co  Co161  1  0.28835838  0.14783804  0.93679920  1
  Ni  Ni162  1  0.24519750  0.39894737  0.81363489  1
  Ni  Ni163  1  0.57563454  0.93630064  0.38463370  1
  Ni  Ni164  1  0.49880356  0.50001270  0.70016851  1
  Ni  Ni165  1  0.13331810  0.19160941  0.38776930  1
  Ni  Ni166  1  0.00276175  0.60047983  0.71901596  1
  Ni  Ni167  1  -0.00102070  0.87666144  0.38609929  1
  Ni  Ni168  1  0.49810781  0.28232157  0.81310004  1
  Ni  Ni169  1  0.37722863  0.39088649  0.06181961  1
  Ni  Ni170  1  0.75297437  0.31232872  0.52535765  1
  Ni  Ni171  1  0.54079700  0.53671883  0.40636102  1
  Ni  Ni172  1  0.58064770  0.72429624  0.59599187  1
  Ni  Ni173  1  0.10533622  0.61005728  0.43617647  1
  Ni  Ni174  1  0.15354941  0.01792860  0.20352260  1
  Ni  Ni175  1  0.74945338  0.78662647  0.46498375  1
  Ni  Ni176  1  0.88295964  0.71939280  0.54572117  1
  Ni  Ni177  1  0.73759564  0.00514766  0.62345572  1
  Ni  Ni178  1  0.78790924  0.14996748  0.01363067  1
  Ni  Ni179  1  0.64674417  0.73694044  0.16677346  1
  Ni  Ni180  1  0.78479002  0.84523820  0.65532250  1
  Ni  Ni181  1  0.57239879  0.50475009  -0.04989217  1
  Ni  Ni182  1  -0.05783743  0.48090396  0.81699188  1
  Ni  Ni183  1  0.55022162  0.34665286  -0.00381369  1
  Ni  Ni184  1  0.01519660  -0.01614989  -0.07117415  1
  Ni  Ni185  1  0.77188124  0.26182555  0.85319394  1
  Ni  Ni186  1  0.34261461  0.54082275  0.23009428  1
  Ni  Ni187  1  0.13944452  0.76138276  0.12271230  1
  Ni  Ni188  1  0.86268907  0.81134824  0.32346899  1
  Ni  Ni189  1  -0.00203193  -0.00094364  0.49133522  1
  Ni  Ni190  1  0.65441902  0.85972865  0.89150668  1
  Ni  Ni191  1  0.34473725  0.55022910  0.77303084  1
  Ni  Ni192  1  0.02767147  0.24590030  0.89328344  1
  Ni  Ni193  1  0.73087480  0.10065509  0.84433195  1
  Ni  Ni194  1  -0.07273651  0.49810192  0.19033544  1
  Ni  Ni195  1  0.83045495  0.00121179  0.09895248  1
  Ni  Ni196  1  0.23276868  0.17187516  0.65480054  1
  Ni  Ni197  1  0.79664142  0.09462181  0.32506831  1
  Ni  Ni198  1  0.25588214  0.83426643  0.02993541  1
  Ni  Ni199  1  -0.09582556  0.37065317  0.29547497  1
  Ni  Ni200  1  0.42986348  -0.02749744  0.31253266  1
  Ni  Ni201  1  0.84931093  0.00198378  0.93140151  1
  Ni  Ni202  1  0.85603735  0.54766304  0.32915443  1
  Ni  Ni203  1  0.48405079  0.13081729  0.41526602  1
  Ni  Ni204  1  0.38795275  0.38370084  0.71749821  1
  Ni  Ni205  1  0.86845044  0.34472242  0.13689947  1
  Ni  Ni206  1  0.69055328  0.55790122  0.85398505  1
  Ni  Ni207  1  0.62147695  0.38104063  0.60179258  1
  Ni  Ni208  1  0.02879822  0.11659831  0.18267253  1
  Ni  Ni209  1  0.17351247  0.16237175  0.07435632  1
  Ni  Ni210  1  0.69428692  -0.10315372  0.12871827  1
  Ni  Ni211  1  -0.10654438  0.86070457  0.15809168  1
  Ni  Ni212  1  -0.00148869  0.15972696  0.48560823  1
  Ni  Ni213  1  0.34337438  0.29870361  0.22293228  1
  Ni  Ni214  1  0.36161269  0.84285341  0.24398678  1
