# generated using pymatgen
data_Ti108Co54Ni53
_symmetry_space_group_name_H-M   'P 1'
_cell_length_a   14.67621644
_cell_length_b   14.64836586
_cell_length_c   14.60469325
_cell_angle_alpha   89.82512243
_cell_angle_beta   89.56799552
_cell_angle_gamma   89.84812800
_symmetry_Int_Tables_number   1
_chemical_formula_structural   Ti108Co54Ni53
_chemical_formula_sum   'Ti108 Co54 Ni53'
_cell_volume   3139.64003812
_cell_formula_units_Z   1
loop_
 _symmetry_equiv_pos_site_id
 _symmetry_equiv_pos_as_xyz
  1  'x, y, z'
loop_
 _atom_site_type_symbol
 _atom_site_label
 _atom_site_symmetry_multiplicity
 _atom_site_fract_x
 _atom_site_fract_y
 _atom_site_fract_z
 _atom_site_occupancy
  Ti  Ti0  1  0.08865426  0.14300961  0.29116801  1
  Ti  Ti1  1  0.11132601  0.11763035  0.53840460  1
  Ti  Ti2  1  0.06251552  0.02583258  0.92864903  1
  Ti  Ti3  1  0.04061034  0.46976929  0.24571193  1
  Ti  Ti4  1  0.05064036  0.41382953  0.57366165  1
  Ti  Ti5  1  0.11434400  0.35058372  0.96173419  1
  Ti  Ti6  1  0.07162510  0.76686319  0.30894620  1
  Ti  Ti7  1  0.09797842  0.78150221  0.51129982  1
  Ti  Ti8  1  0.05789888  0.80711164  0.95389165  1
  Ti  Ti9  1  0.40418773  0.12180533  0.24900309  1
  Ti  Ti10  1  0.47173032  0.06771790  0.52035899  1
  Ti  Ti11  1  0.44845185  0.08775613  0.82386496  1
  Ti  Ti12  1  0.41311913  0.46180761  0.30847098  1
  Ti  Ti13  1  0.43945069  0.45137633  0.58583305  1
  Ti  Ti14  1  0.39104108  0.39803222  0.92856290  1
  Ti  Ti15  1  0.45508314  0.78759579  0.20693921  1
  Ti  Ti16  1  0.40466762  0.79110866  0.57003138  1
  Ti  Ti17  1  0.43432473  0.76033671  0.95588033  1
  Ti  Ti18  1  0.82177227  0.10333954  0.19468016  1
  Ti  Ti19  1  0.74437640  0.07724479  0.64976687  1
  Ti  Ti20  1  0.72605564  0.09916958  1.01723427  1
  Ti  Ti21  1  0.72222954  0.38754045  0.31670788  1
  Ti  Ti22  1  0.69927234  0.24593477  0.58402884  1
  Ti  Ti23  1  0.68908916  0.47569270  0.92440433  1
  Ti  Ti24  1  0.74110151  0.70537126  0.31833848  1
  Ti  Ti25  1  0.72836315  0.78357024  0.54384763  1
  Ti  Ti26  1  0.63706023  0.70052301  0.94527354  1
  Ti  Ti27  1  0.13339649  0.20934003  0.08242288  1
  Ti  Ti28  1  0.10322772  0.34681999  0.38782074  1
  Ti  Ti29  1  0.12305232  0.20665208  0.83604320  1
  Ti  Ti30  1  0.05245776  0.62087406  0.04238084  1
  Ti  Ti31  1  0.14010372  0.56389017  0.38509082  1
  Ti  Ti32  1  0.17318177  0.54611653  0.76111330  1
  Ti  Ti33  1  0.01919577  0.92479954  0.10437081  1
  Ti  Ti34  1  0.02882752  0.96482427  0.43240053  1
  Ti  Ti35  1  0.09914038  0.89523245  0.68778731  1
  Ti  Ti36  1  0.44960966  0.27379051  0.07764967  1
  Ti  Ti37  1  0.34770204  0.30443570  0.43340789  1
  Ti  Ti38  1  0.44637301  0.30859417  0.76577588  1
  Ti  Ti39  1  0.40963627  0.50091969  0.08909446  1
  Ti  Ti40  1  0.40020816  0.65760815  0.37643852  1
  Ti  Ti41  1  0.38098007  0.65802672  0.72235338  1
  Ti  Ti42  1  0.45397484  0.95425168  0.10172250  1
  Ti  Ti43  1  0.34383011  0.84986144  0.36719523  1
  Ti  Ti44  1  0.38251657  0.85620099  0.77572990  1
  Ti  Ti45  1  0.79692193  0.28991765  0.04837637  1
  Ti  Ti46  1  0.76982424  0.20211894  0.38060458  1
  Ti  Ti47  1  0.78699257  0.23994586  0.75834338  1
  Ti  Ti48  1  0.80428163  0.59517379  0.05157557  1
  Ti  Ti49  1  0.63776324  0.55727998  0.37095844  1
  Ti  Ti50  1  0.79847309  0.53998038  0.75670642  1
  Ti  Ti51  1  0.70325939  0.91062166  0.05912042  1
  Ti  Ti52  1  0.78159604  0.99354910  0.34951063  1
  Ti  Ti53  1  0.69619073  0.91922281  0.72600779  1
  Ti  Ti54  1  0.25827862  0.05566529  0.12914183  1
  Ti  Ti55  1  0.23942262  0.03339649  0.35158377  1
  Ti  Ti56  1  0.25298133  0.04481136  0.75856918  1
  Ti  Ti57  1  0.21591914  0.51341681  0.03176731  1
  Ti  Ti58  1  0.22988521  0.43314712  0.52730862  1
  Ti  Ti59  1  0.21773724  0.34615051  0.71873778  1
  Ti  Ti60  1  0.20190716  0.73254968  0.04887168  1
  Ti  Ti61  1  0.25908277  0.70949635  0.22733796  1
  Ti  Ti62  1  0.19082199  0.76808080  0.79934445  1
  Ti  Ti63  1  0.56745671  0.10993799  0.12757234  1
  Ti  Ti64  1  0.59513139  0.07098889  0.35346196  1
  Ti  Ti65  1  0.64696857  0.09135018  0.83504892  1
  Ti  Ti66  1  0.67370152  0.41157385  0.12663781  1
  Ti  Ti67  1  0.64144564  0.43578453  0.52157373  1
  Ti  Ti68  1  0.62881830  0.39770313  0.72361175  1
  Ti  Ti69  1  0.66679506  0.72988893  0.13669292  1
  Ti  Ti70  1  0.57019142  0.74663437  0.43614278  1
  Ti  Ti71  1  0.68041562  0.70610829  0.72474838  1
  Ti  Ti72  1  0.92871323  0.12524071  0.02286526  1
  Ti  Ti73  1  0.90979206  0.11731315  0.49343866  1
  Ti  Ti74  1  0.89705175  -0.03935499  0.74509210  1
  Ti  Ti75  1  0.97550512  0.44619100  0.07212082  1
  Ti  Ti76  1  0.91559938  0.37355175  0.40467904  1
  Ti  Ti77  1  0.93848498  0.40065923  0.73375077  1
  Ti  Ti78  1  0.88418463  0.77972653  0.11106842  1
  Ti  Ti79  1  0.89055881  0.66548959  0.45306863  1
  Ti  Ti80  1  0.89734941  0.76352560  0.82144780  1
  Ti  Ti81  1  0.22760171  0.28316462  0.24926346  1
  Ti  Ti82  1  0.30107207  0.15603502  0.58982259  1
  Ti  Ti83  1  0.31313622  0.20708007  0.93051306  1
  Ti  Ti84  1  0.24706221  0.51813169  0.21794283  1
  Ti  Ti85  1  0.24263284  0.63929950  0.52446153  1
  Ti  Ti86  1  0.31089997  0.61158088  0.89466137  1
  Ti  Ti87  1  0.19511683  0.88451055  0.19717408  1
  Ti  Ti88  1  0.31317506  0.96836005  0.52364787  1
  Ti  Ti89  1  0.34071419  0.97091486  0.94429940  1
  Ti  Ti90  1  0.57251441  0.25602833  0.26741548  1
  Ti  Ti91  1  0.50959933  0.26685677  0.55470647  1
  Ti  Ti92  1  0.62990249  0.29078872  0.90379340  1
  Ti  Ti93  1  0.55216482  0.55372427  0.20080324  1
  Ti  Ti94  1  0.56358286  0.63903407  0.58753007  1
  Ti  Ti95  1  0.49951475  0.56536373  0.93122651  1
  Ti  Ti96  1  0.62518933  0.86901138  0.29635659  1
  Ti  Ti97  1  0.56020729  0.91393962  0.59337302  1
  Ti  Ti98  1  0.57555848  0.87527121  0.88234411  1
  Ti  Ti99  1  0.88531473  0.30783818  0.21676062  1
  Ti  Ti100  1  0.89710137  0.27664688  0.59037163  1
  Ti  Ti101  1  0.93475698  0.30818570  0.90073263  1
  Ti  Ti102  1  0.85841157  0.54451677  0.28829460  1
  Ti  Ti103  1  0.85455308  0.50392733  0.56666572  1
  Ti  Ti104  1  0.93013470  0.52303520  0.89195583  1
  Ti  Ti105  1  0.92615271  0.89813224  0.27517705  1
  Ti  Ti106  1  0.85599254  0.92950093  0.54760220  1
  Ti  Ti107  1  0.87793603  0.93464592  0.94930235  1
  Co  Co108  1  0.54835696  0.41279078  0.01989304  1
  Co  Co109  1  0.16602012  0.16747257  0.68542227  1
  Co  Co110  1  0.32864132  0.38360319  0.16474653  1
  Co  Co111  1  0.24468147  0.42280245  0.34937189  1
  Co  Co112  1  0.24191878  0.72465098  0.65800664  1
  Co  Co113  1  0.72636333  -0.03946968  0.89806142  1
  Co  Co114  1  0.83491944  0.45119407  0.16092099  1
  Co  Co115  1  0.50368826  0.37200219  0.40769729  1
  Co  Co116  1  0.05105023  0.27950201  0.67181592  1
  Co  Co117  1  0.01913514  0.89565101  0.83184266  1
  Co  Co118  1  0.05074508  0.30012439  0.22644496  1
  Co  Co119  1  0.63879775  0.56915846  0.80798941  1
  Co  Co120  1  0.06610378  0.76669495  0.14499682  1
  Co  Co121  1  0.52465982  -0.04668203  0.76296117  1
  Co  Co122  1  0.50838676  0.67544186  0.08778644  1
  Co  Co123  1  0.25434502  0.81535788  0.51771018  1
  Co  Co124  1  0.77544722  0.34770119  0.48061728  1
  Co  Co125  1  0.61377172  0.13685654  0.50469314  1
  Co  Co126  1  0.51186480  -0.02843822  0.25119081  1
  Co  Co127  1  0.62111214  0.25599929  0.06992036  1
  Co  Co128  1  0.12054199  0.61729500  0.19609877  1
  Co  Co129  1  0.02797408  0.25292940  0.49627935  1
  Co  Co130  1  0.30563452  0.21177204  0.76924071  1
  Co  Co131  1  0.56713266  0.69541719  0.27980337  1
  Co  Co132  1  0.30729730  0.21178387  0.12815806  1
  Co  Co133  1  0.09953106  0.05725080  0.10885584  1
  Co  Co134  1  0.81858131  0.81848878  0.68114210  1
  Co  Co135  1  0.26732531  0.88966340  0.66745315  1
  Co  Co136  1  0.78251265  0.78063731  -0.01274132  1
  Co  Co137  1  0.79484437  0.37849538  0.84129024  1
  Co  Co138  1  0.79001374  0.20878342  -0.08400068  1
  Co  Co139  1  0.41004706  0.01240273  0.37008839  1
  Co  Co140  1  0.53263167  0.43029508  0.85002216  1
  Co  Co141  1  0.68221180  0.54438584  0.64398117  1
  Co  Co142  1  0.85439985  -0.03142095  0.11091046  1
  Co  Co143  1  0.48869092  0.19685511  0.40062497  1
  Co  Co144  1  0.40134702  0.62175990  0.21527192  1
  Co  Co145  1  0.08106048  0.38425518  0.80111337  1
  Co  Co146  1  0.22131096  0.72589196  0.38333575  1
  Co  Co147  1  -0.02692552  0.15955727  0.18023484  1
  Co  Co148  1  0.33864376  0.51141251  0.44709168  1
  Co  Co149  1  0.34104946  0.13732492  0.43447164  1
  Co  Co150  1  0.89343584  0.73959715  0.28440720  1
  Co  Co151  1  0.34621734  -0.05720277  0.22988397  1
  Co  Co152  1  0.14881011  0.39286964  0.13286785  1
  Co  Co153  1  0.71628741  0.63054030  0.49639224  1
  Co  Co154  1  0.81703142  0.65682719  0.62511676  1
  Co  Co155  1  0.00053875  0.62107264  0.32102364  1
  Co  Co156  1  0.83155780  0.43741509  -0.00630686  1
  Co  Co157  1  0.63292902  0.28007168  0.42405149  1
  Co  Co158  1  0.40405509  0.28676728  0.27543855  1
  Co  Co159  1  0.78916179  0.50442250  0.42315417  1
  Co  Co160  1  0.17530346  0.88485744  0.38767326  1
  Co  Co161  1  -0.01666162  0.51167230  0.43688197  1
  Ni  Ni162  1  -0.05688146  0.62455663  0.16378366  1
  Ni  Ni163  1  0.39718665  -0.00174899  0.66948879  1
  Ni  Ni164  1  -0.00327543  0.00897009  0.60555355  1
  Ni  Ni165  1  0.73875964  0.80701852  0.83833227  1
  Ni  Ni166  1  0.18563308  -0.06877869  0.85329906  1
  Ni  Ni167  1  0.26801123  0.33957391  0.02337215  1
  Ni  Ni168  1  -0.06500830  0.06270668  0.32513385  1
  Ni  Ni169  1  0.34705699  0.65506948  0.05942748  1
  Ni  Ni170  1  0.18125698  0.27987901  0.55878690  1
  Ni  Ni171  1  0.77255742  0.86582120  0.21690509  1
  Ni  Ni172  1  0.71732513  0.57458178  0.20032354  1
  Ni  Ni173  1  0.81617049  0.07879927  0.82521879  1
  Ni  Ni174  1  0.40486153  0.62092143  0.55190884  1
  Ni  Ni175  1  0.49500437  0.89676943  0.43781996  1
  Ni  Ni176  1  0.33174233  0.83537603  0.09121025  1
  Ni  Ni177  1  0.51586359  0.68620115  0.81745391  1
  Ni  Ni178  1  0.62843326  0.56798554  0.05328433  1
  Ni  Ni179  1  0.52713505  0.79029161  0.69693108  1
  Ni  Ni180  1  0.67734160  0.00856891  0.20388282  1
  Ni  Ni181  1  0.56079055  0.01355267  -0.02317839  1
  Ni  Ni182  1  -0.05283346  0.82120316  0.44137801  1
  Ni  Ni183  1  0.43863033  0.16708665  0.67671140  1
  Ni  Ni184  1  0.28096152  0.81621108  0.92819661  1
  Ni  Ni185  1  0.74935847  0.06715606  0.48756276  1
  Ni  Ni186  1  0.14907223  0.65288531  0.90488879  1
  Ni  Ni187  1  0.19518473  0.20149756  0.41109842  1
  Ni  Ni188  1  0.79518579  0.83742597  0.39409544  1
  Ni  Ni189  1  0.77776815  0.38958257  0.65662318  1
  Ni  Ni190  1  0.29217332  0.52875169  0.64524250  1
  Ni  Ni191  1  0.57448044  0.07336558  0.66812416  1
  Ni  Ni192  1  0.50936365  0.38496785  0.18667443  1
  Ni  Ni193  1  0.59760780  0.22596561  0.73071229  1
  Ni  Ni194  1  0.50165965  0.53432195  0.45121718  1
  Ni  Ni195  1  0.23734092  0.43177979  0.87053795  1
  Ni  Ni196  1  0.06683649  0.04913046  0.75744267  1
  Ni  Ni197  1  0.78064880  0.64389853  0.88513340  1
  Ni  Ni198  1  0.18750184  0.92168751  0.02501165  1
  Ni  Ni199  1  0.09071615  0.50468254  -0.08705543  1
  Ni  Ni200  1  0.72375729  0.23952720  0.20229988  1
  Ni  Ni201  1  -0.07907881  0.68606302  -0.03293977  1
  Ni  Ni202  1  0.51426584  0.53348173  0.71334792  1
  Ni  Ni203  1  0.08202181  -0.02166884  0.26875149  1
  Ni  Ni204  1  0.90302865  0.12941720  0.68210203  1
  Ni  Ni205  1  0.52449415  0.17534620  -0.05113301  1
  Ni  Ni206  1  0.94949683  0.22135967  0.34801620  1
  Ni  Ni207  1  0.21147492  0.08035619  -0.04123812  1
  Ni  Ni208  1  0.55503316  0.83160342  0.05227884  1
  Ni  Ni209  1  -0.01582209  0.28207561  0.06813940  1
  Ni  Ni210  1  0.34905784  0.31241616  0.61918762  1
  Ni  Ni211  1  0.66221264  0.92149239  0.45777666  1
  Ni  Ni212  1  0.40674454  0.10317847  0.03820909  1
  Ni  Ni213  1  0.37142950  0.48815518  0.78335628  1
  Ni  Ni214  1  0.15184549  -0.05040124  0.54266832  1
