# generated using pymatgen
data_Ti108Co54Ni53
_symmetry_space_group_name_H-M   'P 1'
_cell_length_a   14.62893045
_cell_length_b   14.63213833
_cell_length_c   14.64612178
_cell_angle_alpha   89.98504626
_cell_angle_beta   89.73320316
_cell_angle_gamma   89.94223347
_symmetry_Int_Tables_number   1
_chemical_formula_structural   Ti108Co54Ni53
_chemical_formula_sum   'Ti108 Co54 Ni53'
_cell_volume   3135.00379696
_cell_formula_units_Z   1
loop_
 _symmetry_equiv_pos_site_id
 _symmetry_equiv_pos_as_xyz
  1  'x, y, z'
loop_
 _atom_site_type_symbol
 _atom_site_label
 _atom_site_symmetry_multiplicity
 _atom_site_fract_x
 _atom_site_fract_y
 _atom_site_fract_z
 _atom_site_occupancy
  Ti  Ti0  1  0.03634267  0.04041489  0.25820194  1
  Ti  Ti1  1  0.06519478  0.08202221  0.52951694  1
  Ti  Ti2  1  0.03495348  0.15777354  0.94843569  1
  Ti  Ti3  1  0.02715990  0.39131584  0.25521139  1
  Ti  Ti4  1  0.16061108  0.39854988  0.54641752  1
  Ti  Ti5  1  0.10686055  0.48503147  0.92941271  1
  Ti  Ti6  1  0.15832515  0.70410818  0.28762092  1
  Ti  Ti7  1  0.09208614  0.78576161  0.64604570  1
  Ti  Ti8  1  0.10471420  0.72802003  0.94842426  1
  Ti  Ti9  1  0.45058047  0.14123455  0.25281687  1
  Ti  Ti10  1  0.37641408  0.05940584  0.57952850  1
  Ti  Ti11  1  0.44198077  0.14053596  0.89667980  1
  Ti  Ti12  1  0.43088494  0.46251286  0.23979233  1
  Ti  Ti13  1  0.40985701  0.27666794  0.55542739  1
  Ti  Ti14  1  0.42200027  0.39268569  0.95139139  1
  Ti  Ti15  1  0.39563198  0.69819392  0.25108074  1
  Ti  Ti16  1  0.43101558  0.76693048  0.57321723  1
  Ti  Ti17  1  0.41419438  0.80764547  0.91839548  1
  Ti  Ti18  1  0.75446868  0.12492984  0.21608237  1
  Ti  Ti19  1  0.74116626  0.11886148  0.60677471  1
  Ti  Ti20  1  0.70375639  0.04122822  0.86008717  1
  Ti  Ti21  1  0.81884168  0.47438754  0.20108091  1
  Ti  Ti22  1  0.81649687  0.42536955  0.59778344  1
  Ti  Ti23  1  0.76786411  0.42230792  1.00007462  1
  Ti  Ti24  1  0.72130575  0.77223004  0.28065942  1
  Ti  Ti25  1  0.77834473  0.82850482  0.60077085  1
  Ti  Ti26  1  0.77308848  0.77790125  0.97369778  1
  Ti  Ti27  1  0.12353544  0.31496657  0.02511791  1
  Ti  Ti28  1  0.10667581  0.23920644  0.36698129  1
  Ti  Ti29  1  0.08559323  0.25158223  0.69757945  1
  Ti  Ti30  1  0.10412549  0.61954325  0.11119822  1
  Ti  Ti31  1  0.05928590  0.60661836  0.43189780  1
  Ti  Ti32  1  0.07302556  0.60729517  0.78128587  1
  Ti  Ti33  1  0.05603606  0.91688823  0.09174704  1
  Ti  Ti34  1  0.07627505  0.89660891  0.45407801  1
  Ti  Ti35  1  0.10928958  0.93574690  0.81527759  1
  Ti  Ti36  1  0.38460626  0.23090735  0.10985568  1
  Ti  Ti37  1  0.50571465  0.17347645  0.43538264  1
  Ti  Ti38  1  0.38887788  0.19096011  0.72621607  1
  Ti  Ti39  1  0.45792545  0.63959334  0.06152971  1
  Ti  Ti40  1  0.38931033  0.50792865  0.42537403  1
  Ti  Ti41  1  0.39671547  0.66380984  0.78751852  1
  Ti  Ti42  1  0.38350371  0.94812977  0.08794171  1
  Ti  Ti43  1  0.38524418  1.00146961  0.37929440  1
  Ti  Ti44  1  0.43723616  0.87347651  0.73506076  1
  Ti  Ti45  1  0.73605420  0.19876381  0.01668564  1
  Ti  Ti46  1  0.75132288  0.16280429  0.40369597  1
  Ti  Ti47  1  0.78613827  0.19232695  0.80002309  1
  Ti  Ti48  1  0.69411922  0.60546015  0.04027197  1
  Ti  Ti49  1  0.75560651  0.59494601  0.36144067  1
  Ti  Ti50  1  0.74888970  0.60042150  0.67254628  1
  Ti  Ti51  1  0.74962354  0.98165404  0.06309258  1
  Ti  Ti52  1  0.67772028  0.87805923  0.43764107  1
  Ti  Ti53  1  0.78086194  0.84912279  0.79359714  1
  Ti  Ti54  1  0.26870884  0.10308619  0.00649768  1
  Ti  Ti55  1  0.20071995  0.03581247  0.36632925  1
  Ti  Ti56  1  0.21161932  0.09010867  0.69404536  1
  Ti  Ti57  1  0.27412801  0.37944036  0.12529274  1
  Ti  Ti58  1  0.23129725  0.40521122  0.33311093  1
  Ti  Ti59  1  0.19013507  0.41511079  0.75774973  1
  Ti  Ti60  1  0.28861433  0.69660544  -0.03698768  1
  Ti  Ti61  1  0.25996604  0.81891643  0.41166684  1
  Ti  Ti62  1  0.22741639  0.74962086  0.78459971  1
  Ti  Ti63  1  0.59373810  0.07593912  0.14545631  1
  Ti  Ti64  1  0.59767069  0.00258714  0.33449068  1
  Ti  Ti65  1  0.58908385  0.15704966  0.73327866  1
  Ti  Ti66  1  0.64143905  0.41074415  0.14150462  1
  Ti  Ti67  1  0.70242065  0.39259143  0.41838138  1
  Ti  Ti68  1  0.61519675  0.35361040  0.76119250  1
  Ti  Ti69  1  0.57811144  0.77339178  0.01367351  1
  Ti  Ti70  1  0.49184364  0.82892421  0.39991268  1
  Ti  Ti71  1  0.59271039  0.78546878  0.81938595  1
  Ti  Ti72  1  0.91457037  0.13750925  0.10696388  1
  Ti  Ti73  1  0.93922454  0.17676280  0.43069609  1
  Ti  Ti74  1  0.90785594  0.02732470  0.79198424  1
  Ti  Ti75  1  0.94514198  0.35344778  0.10050509  1
  Ti  Ti76  1  0.92606802  0.37174103  0.45240814  1
  Ti  Ti77  1  0.88984544  0.35834669  0.77268091  1
  Ti  Ti78  1  0.92672235  0.71193578  0.07447695  1
  Ti  Ti79  1  0.85873576  0.79411700  0.42028392  1
  Ti  Ti80  1  0.90354969  0.71327995  0.70795833  1
  Ti  Ti81  1  0.29600937  0.23328692  0.28835605  1
  Ti  Ti82  1  0.21413631  0.19165197  0.53368795  1
  Ti  Ti83  1  0.22083368  0.23504740  0.84692699  1
  Ti  Ti84  1  0.26158167  0.54990671  0.23277361  1
  Ti  Ti85  1  0.19455817  0.59860481  0.58782546  1
  Ti  Ti86  1  0.25279196  0.53091105  1.02140173  1
  Ti  Ti87  1  0.24094672  0.86440836  0.20736514  1
  Ti  Ti88  1  0.25966069  0.90095994  0.65424846  1
  Ti  Ti89  1  0.23332572  0.89019603  0.97455584  1
  Ti  Ti90  1  0.53459907  0.30708174  0.27885420  1
  Ti  Ti91  1  0.62167685  0.26371487  0.56100457  1
  Ti  Ti92  1  0.54711796  0.23841958  1.02651762  1
  Ti  Ti93  1  0.55109401  0.62093560  0.31493346  1
  Ti  Ti94  1  0.58673036  0.62334524  0.54404491  1
  Ti  Ti95  1  0.62814922  0.52655658  0.86743792  1
  Ti  Ti96  1  0.54974740  0.83607593  0.20627913  1
  Ti  Ti97  1  0.61156481  0.94875913  0.61663454  1
  Ti  Ti98  1  0.51643792  0.95970224  0.90442599  1
  Ti  Ti99  1  0.87290665  0.28095985  0.27698610  1
  Ti  Ti100  1  0.91226407  0.22892567  0.62878772  1
  Ti  Ti101  1  0.89224168  0.28076464  0.94373417  1
  Ti  Ti102  1  0.93755453  0.65468377  0.27279908  1
  Ti  Ti103  1  0.87959508  0.60200838  0.51097983  1
  Ti  Ti104  1  0.85617018  0.53988525  0.85618635  1
  Ti  Ti105  1  0.92826729  0.86965887  0.26372612  1
  Ti  Ti106  1  0.93736922  0.92494748  0.58616986  1
  Ti  Ti107  1  0.95177670  0.84905488  0.91378377  1
  Co  Co108  1  0.68955469  0.73668978  0.69702215  1
  Co  Co109  1  0.05512078  0.26774029  0.52154320  1
  Co  Co110  1  0.16829558  0.13436607  0.24122737  1
  Co  Co111  1  0.89401260  0.87530559  0.07554803  1
  Co  Co112  1  0.95377199  0.87999480  0.73542023  1
  Co  Co113  1  -0.00403219  0.49342075  0.53388229  1
  Co  Co114  1  0.02784166  0.63743825  0.61035564  1
  Co  Co115  1  0.01285247  0.08825061  0.68427244  1
  Co  Co116  1  0.29209162  0.27763078  -0.01812294  1
  Co  Co117  1  0.09938015  0.10249776  0.81459744  1
  Co  Co118  1  0.91436558  0.53098934  0.68818531  1
  Co  Co119  1  0.38612232  0.03135707  0.75533470  1
  Co  Co120  1  0.70670461  0.67377833  -0.13988722  1
  Co  Co121  1  0.45259638  0.67377351  0.43703758  1
  Co  Co122  1  0.20946996  0.20821238  0.11002355  1
  Co  Co123  1  0.39434649  0.55347224  -0.08165115  1
  Co  Co124  1  0.85404999  0.56209667  0.03814186  1
  Co  Co125  1  -0.03736310  0.76436366  0.53487590  1
  Co  Co126  1  0.79645127  0.94611307  0.33994593  1
  Co  Co127  1  0.45201238  0.08727635  0.05539303  1
  Co  Co128  1  0.20906538  0.53583847  0.42196621  1
  Co  Co129  1  0.69262399  -0.06067881  0.21987721  1
  Co  Co130  1  0.72068821  0.52925372  0.50966859  1
  Co  Co131  1  0.08805590  0.49710348  0.66271778  1
  Co  Co132  1  0.52441208  0.12136395  0.59472673  1
  Co  Co133  1  0.11055984  0.88861988  0.29587775  1
  Co  Co134  1  0.13227481  0.73882662  0.49382269  1
  Co  Co135  1  0.36760304  -0.01039773  -0.07039720  1
  Co  Co136  1  0.11943633  0.45234912  0.12136397  1
  Co  Co137  1  0.74634013  0.34329401  0.86404082  1
  Co  Co138  1  0.89626673  0.11209419  0.29356678  1
  Co  Co139  1  0.82634841  -0.05285564  0.92802959  1
  Co  Co140  1  0.25733788  0.07198985  0.84567942  1
  Co  Co141  1  0.01332765  0.45252942  0.79802475  1
  Co  Co142  1  0.74274311  0.69824184  0.51399141  1
  Co  Co143  1  0.26426450  0.41582777  0.90248932  1
  Co  Co144  1  0.56348491  0.93215076  0.07267515  1
  Co  Co145  1  0.38985030  0.50369605  0.09112198  1
  Co  Co146  1  0.85693588  0.11471292  -0.05733673  1
  Co  Co147  1  0.52859045  0.65033641  0.90648469  1
  Co  Co148  1  -0.04723134  0.18981282  0.80218508  1
  Co  Co149  1  0.79214636  0.30459250  0.12608511  1
  Co  Co150  1  0.13435617  0.01889671  0.95949891  1
  Co  Co151  1  0.60533116  0.79032481  0.56621119  1
  Co  Co152  1  0.61894439  0.72292545  0.41488559  1
  Co  Co153  1  -0.00969166  0.37486345  0.63684968  1
  Co  Co154  1  0.40878233  0.34764636  0.36883825  1
  Co  Co155  1  0.01888089  0.21502300  0.20697287  1
  Co  Co156  1  0.54460937  0.50912874  0.01212836  1
  Co  Co157  1  0.07736595  0.10156752  0.09567926  1
  Co  Co158  1  0.55037820  0.00488715  0.75293267  1
  Co  Co159  1  0.63309402  0.23620912  0.15815504  1
  Co  Co160  1  0.02427381  0.76586263  0.36760418  1
  Co  Co161  1  0.15554827  0.30702616  0.21686060  1
  Ni  Ni162  1  0.61913304  0.16758070  0.30877628  1
  Ni  Ni163  1  0.28923445  0.90445355  0.81729981  1
  Ni  Ni164  1  -0.06047339  -0.00090505  0.41590087  1
  Ni  Ni165  1  0.09477238  0.54283045  0.27252833  1
  Ni  Ni166  1  0.72233213  0.81064763  0.12284260  1
  Ni  Ni167  1  0.67192893  0.55451626  0.21940801  1
  Ni  Ni168  1  0.09671219  0.95373421  0.64451936  1
  Ni  Ni169  1  -0.03052937  0.52852801  0.15367938  1
  Ni  Ni170  1  0.17001835  0.77922832  0.08931592  1
  Ni  Ni171  1  0.56376932  0.46024626  0.34753304  1
  Ni  Ni172  1  0.28081339  0.67156930  0.13091670  1
  Ni  Ni173  1  0.50582112  -0.02655520  0.49268861  1
  Ni  Ni174  1  0.35486014  0.90332841  0.51367958  1
  Ni  Ni175  1  0.03935134  0.77217712  0.18833044  1
  Ni  Ni176  1  0.74311604  -0.00502597  0.70927665  1
  Ni  Ni177  1  0.19896302  0.00086219  0.12274339  1
  Ni  Ni178  1  0.63646599  0.07232098  0.48683812  1
  Ni  Ni179  1  0.60171639  0.08008124  -0.02004049  1
  Ni  Ni180  1  0.74378060  0.28534007  0.67370130  1
  Ni  Ni181  1  0.53076185  0.36154620  0.47058142  1
  Ni  Ni182  1  0.79720859  0.65855025  0.17245649  1
  Ni  Ni183  1  0.48710450  0.37353442  0.10817513  1
  Ni  Ni184  1  0.31549311  0.03496093  0.22974225  1
  Ni  Ni185  1  0.04391270  0.76533026  0.80513984  1
  Ni  Ni186  1  0.74840682  0.45709020  0.75058062  1
  Ni  Ni187  1  0.92307906  0.50465940  0.34253686  1
  Ni  Ni188  1  -0.00721942  0.60483759  -0.04452015  1
  Ni  Ni189  1  0.38834877  0.86327890  0.27189574  1
  Ni  Ni190  1  0.21435151  0.00266488  0.52894787  1
  Ni  Ni191  1  0.07639321  0.43360538  0.40417700  1
  Ni  Ni192  1  0.86026746  -0.00593195  0.18662650  1
  Ni  Ni193  1  0.79331703  0.27469742  0.51309340  1
  Ni  Ni194  1  0.52780262  0.70245619  0.69099964  1
  Ni  Ni195  1  0.25708744  0.27880773  0.67060683  1
  Ni  Ni196  1  0.48628075  0.28629460  0.83631723  1
  Ni  Ni197  1  0.47410200  -0.01464761  0.21864371  1
  Ni  Ni198  1  0.71358324  0.31544535  0.27431662  1
  Ni  Ni199  1  0.88093422  0.69848388  0.87936181  1
  Ni  Ni200  1  0.23567411  0.57970280  0.84354221  1
  Ni  Ni201  1  0.89588131  0.08223963  0.56149466  1
  Ni  Ni202  1  0.60557702  0.37198467  -0.05339371  1
  Ni  Ni203  1  0.30249639  0.65534159  0.37938074  1
  Ni  Ni204  1  0.26708906  0.74720184  0.59788569  1
  Ni  Ni205  1  0.05815533  0.31116309  0.86448550  1
  Ni  Ni206  1  0.28165079  0.32033718  0.46138273  1
  Ni  Ni207  1  -0.02846190  0.00278652  -0.02163028  1
  Ni  Ni208  1  0.34091189  0.16240950  0.42851978  1
  Ni  Ni209  1  0.59687285  0.68480005  0.16040208  1
  Ni  Ni210  1  -0.04920371  0.44003026  -0.04193926  1
  Ni  Ni211  1  0.63323234  0.21918099  0.88146735  1
  Ni  Ni212  1  0.66583122  0.89974603  0.93889019  1
  Ni  Ni213  1  0.38724424  0.78976717  0.09553018  1
  Ni  Ni214  1  0.78631047  -0.02057841  0.50635167  1
