# generated using pymatgen
data_Ti108Co54Ni53
_symmetry_space_group_name_H-M   'P 1'
_cell_length_a   14.63416849
_cell_length_b   14.62090822
_cell_length_c   14.71327168
_cell_angle_alpha   90.14949714
_cell_angle_beta   90.17215846
_cell_angle_gamma   90.21549953
_symmetry_Int_Tables_number   1
_chemical_formula_structural   Ti108Co54Ni53
_chemical_formula_sum   'Ti108 Co54 Ni53'
_cell_volume   3148.07544984
_cell_formula_units_Z   1
loop_
 _symmetry_equiv_pos_site_id
 _symmetry_equiv_pos_as_xyz
  1  'x, y, z'
loop_
 _atom_site_type_symbol
 _atom_site_label
 _atom_site_symmetry_multiplicity
 _atom_site_fract_x
 _atom_site_fract_y
 _atom_site_fract_z
 _atom_site_occupancy
  Ti  Ti0  1  0.13790342  0.09804449  0.31257501  1
  Ti  Ti1  1  0.12685097  0.09492923  0.55138004  1
  Ti  Ti2  1  0.08070687  0.04523445  0.89428068  1
  Ti  Ti3  1  0.06364755  0.43808897  0.20167558  1
  Ti  Ti4  1  0.03354470  0.39410573  0.53275679  1
  Ti  Ti5  1  -0.03761097  0.45329569  0.95958135  1
  Ti  Ti6  1  0.05221748  0.78326875  0.31105841  1
  Ti  Ti7  1  0.07083820  0.80022818  0.59546051  1
  Ti  Ti8  1  0.08902994  0.72252592  0.87932880  1
  Ti  Ti9  1  0.47783190  0.05863424  0.25310224  1
  Ti  Ti10  1  0.38712785  0.04789708  0.49400912  1
  Ti  Ti11  1  0.44806549  -0.03950245  0.88049959  1
  Ti  Ti12  1  0.43024347  0.35932290  0.17608127  1
  Ti  Ti13  1  0.45339012  0.36872567  0.58376015  1
  Ti  Ti14  1  0.39999594  0.41224757  0.86901272  1
  Ti  Ti15  1  0.38579448  0.76143516  0.21811975  1
  Ti  Ti16  1  0.42950786  0.77576592  0.63131593  1
  Ti  Ti17  1  0.45253176  0.72459852  0.91970459  1
  Ti  Ti18  1  0.71484177  0.10942179  0.20463918  1
  Ti  Ti19  1  0.79590943  0.02906877  0.59313868  1
  Ti  Ti20  1  0.78498494  0.09546160  0.81719002  1
  Ti  Ti21  1  0.73791203  0.34985968  0.23267204  1
  Ti  Ti22  1  0.73899565  0.38266303  0.54333216  1
  Ti  Ti23  1  0.73489458  0.50383714  0.92083037  1
  Ti  Ti24  1  0.75546608  0.75429015  0.25602584  1
  Ti  Ti25  1  0.77802562  0.69352584  0.60462720  1
  Ti  Ti26  1  0.74930961  0.72479175  1.01353979  1
  Ti  Ti27  1  0.12972150  0.27672960  0.09163054  1
  Ti  Ti28  1  0.03690946  0.21575631  0.41669198  1
  Ti  Ti29  1  0.01700848  0.23751386  0.67966345  1
  Ti  Ti30  1  0.09896469  0.65270137  0.13356469  1
  Ti  Ti31  1  0.20638776  0.57765284  0.44048263  1
  Ti  Ti32  1  0.08208341  0.61488667  0.68212088  1
  Ti  Ti33  1  0.09680211  0.99480679  0.07973243  1
  Ti  Ti34  1  0.01343501  0.96307172  0.39799839  1
  Ti  Ti35  1  0.14750044  0.95508002  0.70329573  1
  Ti  Ti36  1  0.49002220  0.18686755  0.10512684  1
  Ti  Ti37  1  0.42690717  0.32048598  0.39480232  1
  Ti  Ti38  1  0.41510294  0.18662102  0.69720268  1
  Ti  Ti39  1  0.42759136  0.61108213  0.09639519  1
  Ti  Ti40  1  0.39444807  0.64051822  0.47365777  1
  Ti  Ti41  1  0.47434140  0.63929149  0.76536362  1
  Ti  Ti42  1  0.40253411  1.02023205  0.06283344  1
  Ti  Ti43  1  0.39113066  0.91285080  0.33473192  1
  Ti  Ti44  1  0.40976978  0.97881687  0.68947346  1
  Ti  Ti45  1  0.70362176  0.15413223  0.01203485  1
  Ti  Ti46  1  0.72254594  0.23681957  0.38878873  1
  Ti  Ti47  1  0.79284317  0.24356763  0.70834910  1
  Ti  Ti48  1  0.71203600  0.53331641  0.13075422  1
  Ti  Ti49  1  0.72876638  0.59319742  0.42579875  1
  Ti  Ti50  1  0.64224603  0.54117306  0.74630396  1
  Ti  Ti51  1  0.77261925  0.95919570  0.05684390  1
  Ti  Ti52  1  0.70394410  0.91931282  0.42132359  1
  Ti  Ti53  1  0.74524168  0.91052403  0.74186355  1
  Ti  Ti54  1  0.24845959  0.07198300  0.15536247  1
  Ti  Ti55  1  0.25792017  0.19243831  0.41793783  1
  Ti  Ti56  1  0.26447153  0.06148891  0.80459459  1
  Ti  Ti57  1  0.28941419  0.42929390  0.03034275  1
  Ti  Ti58  1  0.22266702  0.38457961  0.46130174  1
  Ti  Ti59  1  0.28031690  0.50488597  0.71933905  1
  Ti  Ti60  1  0.18929747  0.81363437  0.10930475  1
  Ti  Ti61  1  0.25558391  0.76937814  0.40488517  1
  Ti  Ti62  1  0.28851194  0.69678254  0.78903211  1
  Ti  Ti63  1  0.59574317  -0.00883387  0.09354514  1
  Ti  Ti64  1  0.58568081  0.10982947  0.46773138  1
  Ti  Ti65  1  0.58247690  0.11263464  0.79059797  1
  Ti  Ti66  1  0.58378837  0.38365345  0.04805311  1
  Ti  Ti67  1  0.55750459  0.46288170  0.43645997  1
  Ti  Ti68  1  0.54329848  0.34027634  0.75746608  1
  Ti  Ti69  1  0.55535976  0.76868548  0.06819093  1
  Ti  Ti70  1  0.57599035  0.78361598  0.49021826  1
  Ti  Ti71  1  0.61706459  0.77101100  0.74694360  1
  Ti  Ti72  1  0.91242802  0.10577538  0.12100918  1
  Ti  Ti73  1  0.82617545  0.06195773  0.38076753  1
  Ti  Ti74  1  0.92399685  -0.02783906  0.78762803  1
  Ti  Ti75  1  0.86976363  0.42868698  0.13363508  1
  Ti  Ti76  1  0.88815528  0.45864311  0.37148975  1
  Ti  Ti77  1  0.90484210  0.43525548  0.76838298  1
  Ti  Ti78  1  0.95575928  0.71170715  0.03470479  1
  Ti  Ti79  1  0.91145953  0.67877060  0.40976941  1
  Ti  Ti80  1  0.93884358  0.75417355  0.74067000  1
  Ti  Ti81  1  0.33460420  0.21281957  0.24861290  1
  Ti  Ti82  1  0.28842845  0.24968978  0.58697765  1
  Ti  Ti83  1  0.32679406  0.15575587  0.96492328  1
  Ti  Ti84  1  0.24605826  0.56026551  0.19340744  1
  Ti  Ti85  1  0.23026139  0.69628062  0.58896661  1
  Ti  Ti86  1  0.24247164  0.63040597  0.99139696  1
  Ti  Ti87  1  0.20309906  0.91062669  0.28691198  1
  Ti  Ti88  1  0.26415338  0.89089797  0.56860570  1
  Ti  Ti89  1  0.29074002  0.84307845  0.93145525  1
  Ti  Ti90  1  0.56195768  0.23183502  0.28227880  1
  Ti  Ti91  1  0.60865113  0.23632907  0.61857766  1
  Ti  Ti92  1  0.51870214  0.23593936  0.92061629  1
  Ti  Ti93  1  0.50680546  0.59069605  0.30161995  1
  Ti  Ti94  1  0.50596752  0.55494556  0.59976537  1
  Ti  Ti95  1  0.53770920  0.53573829  0.91219613  1
  Ti  Ti96  1  0.58587397  0.86289610  0.28186787  1
  Ti  Ti97  1  0.58750478  0.93777452  0.60590272  1
  Ti  Ti98  1  0.62512865  0.87353281  0.92270611  1
  Ti  Ti99  1  0.97443375  0.26736510  0.23326655  1
  Ti  Ti100  1  0.88137260  0.23169396  0.53091026  1
  Ti  Ti101  1  0.87028707  0.24118199  0.94996900  1
  Ti  Ti102  1  0.95288071  0.59311388  0.25128446  1
  Ti  Ti103  1  0.90177289  0.53541661  0.54995634  1
  Ti  Ti104  1  0.88689594  0.62369682  0.86919887  1
  Ti  Ti105  1  0.90543511  0.92919222  0.21260014  1
  Ti  Ti106  1  0.98503064  0.96496366  0.60466677  1
  Ti  Ti107  1  0.94917093  0.91766786  0.99258946  1
  Co  Co108  1  0.03246468  0.86917500  0.82328531  1
  Co  Co109  1  0.66912723  0.02858946  -0.08722515  1
  Co  Co110  1  0.13348746  0.85952296  0.45833621  1
  Co  Co111  1  0.29479267  0.35613740  0.31434438  1
  Co  Co112  1  0.86474019  0.85099752  0.33993318  1
  Co  Co113  1  0.41058807  0.31136610  0.00873841  1
  Co  Co114  1  0.05637176  0.08277359  0.73057441  1
  Co  Co115  1  0.35866663  0.56783004  0.89938261  1
  Co  Co116  1  0.46246412  0.74639895  0.36327658  1
  Co  Co117  1  0.60396227  0.68562149  0.62076966  1
  Co  Co118  1  0.87654144  0.84879009  0.63147665  1
  Co  Co119  1  -0.01737690  0.54467754  0.09736633  1
  Co  Co120  1  0.51479235  0.08343966  0.61458829  1
  Co  Co121  1  0.87610908  0.06387612  -0.04591414  1
  Co  Co122  1  0.52579601  0.08063291  -0.02799622  1
  Co  Co123  1  0.42222990  0.11132530  0.83758600  1
  Co  Co124  1  0.42792282  0.15270631  0.37533969  1
  Co  Co125  1  0.58308969  -0.04974740  0.76763940  1
  Co  Co126  1  0.23335785  0.38836549  0.17536699  1
  Co  Co127  1  0.08396351  0.69114048  0.46179488  1
  Co  Co128  1  -0.03247219  0.08858746  0.29057013  1
  Co  Co129  1  0.36166405  0.62401607  0.64439271  1
  Co  Co130  1  0.38755724  0.49596264  0.22207070  1
  Co  Co131  1  0.01194835  0.14875341  0.00548094  1
  Co  Co132  1  -0.05163561  0.14685579  0.83316072  1
  Co  Co133  1  0.61973419  0.68171705  0.89245820  1
  Co  Co134  1  0.71927062  0.84710830  0.58577403  1
  Co  Co135  1  0.68470079  0.84091567  0.12710838  1
  Co  Co136  1  0.73154947  0.17451186  0.53716329  1
  Co  Co137  1  0.44834473  0.87388756  0.01441560  1
  Co  Co138  1  0.63189874  0.71726907  0.35408961  1
  Co  Co139  1  0.17233870  0.13682941  0.01674295  1
  Co  Co140  1  0.90678033  0.11371239  0.67623950  1
  Co  Co141  1  0.79786809  -0.07313144  0.89996934  1
  Co  Co142  1  0.24630795  -0.00918457  -0.00817884  1
  Co  Co143  1  0.07947516  0.13884599  0.16690663  1
  Co  Co144  1  0.67109558  0.07961077  0.66646899  1
  Co  Co145  1  0.21597480  0.73419995  0.24744010  1
  Co  Co146  1  0.12794187  0.25962723  0.55029377  1
  Co  Co147  1  0.06372955  -0.03324227  0.23078936  1
  Co  Co148  1  0.09749392  0.85073670  -0.01885581  1
  Co  Co149  1  0.45329234  0.21161573  0.52588717  1
  Co  Co150  1  0.56565272  0.62347542  0.46423606  1
  Co  Co151  1  -0.02765972  0.81777584  0.46596060  1
  Co  Co152  1  0.01988060  0.55609458  0.81459011  1
  Co  Co153  1  0.44411542  0.47205223  0.03265543  1
  Co  Co154  1  0.30800736  0.05512546  0.31515051  1
  Co  Co155  1  0.17926179  -0.08762773  0.85487405  1
  Co  Co156  1  0.90756415  0.79576003  -0.10215845  1
  Co  Co157  1  0.56567295  0.70916083  0.20920936  1
  Co  Co158  1  0.74303582  0.35328794  0.02144409  1
  Co  Co159  1  0.46125931  0.48054579  0.73678953  1
  Co  Co160  1  0.06571011  0.58896603  -0.03406963  1
  Co  Co161  1  0.35501608  0.35564406  0.70645295  1
  Ni  Ni162  1  0.17397136  0.46395592  0.32058645  1
  Ni  Ni163  1  0.03988451  0.37389130  0.36135388  1
  Ni  Ni164  1  0.71402419  0.42174777  0.37951927  1
  Ni  Ni165  1  0.74095177  -0.05636562  0.24983274  1
  Ni  Ni166  1  0.83734741  0.19126267  0.27453336  1
  Ni  Ni167  1  0.53015852  -0.05028112  0.42979311  1
  Ni  Ni168  1  0.34478895  0.75050256  0.05927942  1
  Ni  Ni169  1  0.03522315  0.53119441  0.42009690  1
  Ni  Ni170  1  -0.04639122  0.08657958  0.50004027  1
  Ni  Ni171  1  0.84354409  0.56708958  0.02146909  1
  Ni  Ni172  1  0.27738697  0.06152246  0.62260820  1
  Ni  Ni173  1  0.29443138  0.24663438  0.09747910  1
  Ni  Ni174  1  0.15667247  0.78214083  0.73567221  1
  Ni  Ni175  1  0.63314238  0.38044920  0.88505738  1
  Ni  Ni176  1  0.75410496  0.77777971  0.85834025  1
  Ni  Ni177  1  0.36565485  0.48781521  0.39100455  1
  Ni  Ni178  1  0.68796647  0.22885160  0.86455699  1
  Ni  Ni179  1  0.59089988  0.30312302  0.46228440  1
  Ni  Ni180  1  0.67639812  0.53594486  0.57360567  1
  Ni  Ni181  1  0.56977642  0.39982297  0.28213962  1
  Ni  Ni182  1  -0.02991132  0.31341035  0.06557513  1
  Ni  Ni183  1  0.47710690  -0.09620644  0.17364297  1
  Ni  Ni184  1  0.75681727  0.64961036  0.76855010  1
  Ni  Ni185  1  0.45910243  0.82741326  0.78346676  1
  Ni  Ni186  1  0.64537807  0.25496969  0.13154860  1
  Ni  Ni187  1  0.16235840  0.50620056  0.58541466  1
  Ni  Ni188  1  0.82083736  0.24803767  0.12021867  1
  Ni  Ni189  1  0.22187359  0.00040803  0.44402086  1
  Ni  Ni190  1  0.33518255  0.63500917  0.31586776  1
  Ni  Ni191  1  0.14894179  0.27282217  0.27464772  1
  Ni  Ni192  1  0.33005874  0.48524659  0.55274471  1
  Ni  Ni193  1  -0.04918034  0.68945699  0.57692568  1
  Ni  Ni194  1  0.76737378  0.76569861  0.44686638  1
  Ni  Ni195  1  0.79731958  0.35498225  0.86016306  1
  Ni  Ni196  1  0.18613419  0.57196712  0.84415301  1
  Ni  Ni197  1  0.60282452  0.61255488  0.04043634  1
  Ni  Ni198  1  0.31689042  0.90606560  0.14520648  1
  Ni  Ni199  1  0.63156704  0.04484883  0.32534885  1
  Ni  Ni200  1  0.40492376  0.84919911  0.48822879  1
  Ni  Ni201  1  0.88229833  0.30207189  0.38362864  1
  Ni  Ni202  1  0.54699738  0.50964418  0.15934362  1
  Ni  Ni203  1  0.18477041  0.17532937  0.69868462  1
  Ni  Ni204  1  0.13736529  0.48270450  0.06394557  1
  Ni  Ni205  1  0.78886119  0.54891416  0.27585908  1
  Ni  Ni206  1  0.80238146  0.52080427  0.67775819  1
  Ni  Ni207  1  0.35367575  0.25871713  0.83850983  1
  Ni  Ni208  1  0.85953895  -0.07377807  0.48378723  1
  Ni  Ni209  1  0.11287208  0.62142696  0.30425350  1
  Ni  Ni210  1  0.71011339  0.38859727  0.71728589  1
  Ni  Ni211  1  0.29947852  0.86933586  0.74798569  1
  Ni  Ni212  1  0.02163808  0.82733378  0.13775576  1
  Ni  Ni213  1  0.83918124  0.65535029  0.15384340  1
  Ni  Ni214  1  -0.11048572  0.37465554  0.62043995  1
