# generated using pymatgen
data_Ti108Co54Ni53
_symmetry_space_group_name_H-M   'P 1'
_cell_length_a   14.59662371
_cell_length_b   14.58533695
_cell_length_c   14.56577399
_cell_angle_alpha   89.63774618
_cell_angle_beta   89.84827244
_cell_angle_gamma   90.01238030
_symmetry_Int_Tables_number   1
_chemical_formula_structural   Ti108Co54Ni53
_chemical_formula_sum   'Ti108 Co54 Ni53'
_cell_volume   3100.93191478
_cell_formula_units_Z   1
loop_
 _symmetry_equiv_pos_site_id
 _symmetry_equiv_pos_as_xyz
  1  'x, y, z'
loop_
 _atom_site_type_symbol
 _atom_site_label
 _atom_site_symmetry_multiplicity
 _atom_site_fract_x
 _atom_site_fract_y
 _atom_site_fract_z
 _atom_site_occupancy
  Ti  Ti0  1  0.06282511  -0.00810535  0.28061507  1
  Ti  Ti1  1  0.10784963  0.10102409  0.57288921  1
  Ti  Ti2  1  0.04881712  0.05373884  0.84327971  1
  Ti  Ti3  1  0.09008927  0.46093003  0.28871134  1
  Ti  Ti4  1  0.05564351  0.41094279  0.61883728  1
  Ti  Ti5  1  0.07255568  0.37422239  0.89165169  1
  Ti  Ti6  1  0.10079631  0.80013074  0.27811553  1
  Ti  Ti7  1  0.05230771  0.75647564  0.52159532  1
  Ti  Ti8  1  0.05287625  0.65707407  0.86059846  1
  Ti  Ti9  1  0.48868562  0.13819470  0.15601394  1
  Ti  Ti10  1  0.42191746  0.12288539  0.56488389  1
  Ti  Ti11  1  0.39425150  0.17437864  0.95679309  1
  Ti  Ti12  1  0.44524266  0.40879974  0.38002293  1
  Ti  Ti13  1  0.42730271  0.40186989  0.56490225  1
  Ti  Ti14  1  0.43669085  0.40340747  0.91879402  1
  Ti  Ti15  1  0.48799230  0.78049850  0.23469369  1
  Ti  Ti16  1  0.37164040  0.70152612  0.56800748  1
  Ti  Ti17  1  0.43089420  0.84215583  0.94813410  1
  Ti  Ti18  1  0.69730004  0.14495360  0.24556193  1
  Ti  Ti19  1  0.76397306  0.06641151  0.58323381  1
  Ti  Ti20  1  0.70591823  0.09433703  0.87789135  1
  Ti  Ti21  1  0.74351393  0.46206809  0.19545707  1
  Ti  Ti22  1  0.77749332  0.35491866  0.56592612  1
  Ti  Ti23  1  0.67397610  0.37637467  0.90079258  1
  Ti  Ti24  1  0.72988558  0.81160347  0.27470763  1
  Ti  Ti25  1  0.79836515  0.73167532  0.61652952  1
  Ti  Ti26  1  0.71606220  0.72283567  0.82956681  1
  Ti  Ti27  1  0.09989484  0.23149527  0.07700987  1
  Ti  Ti28  1  0.11758885  0.25870366  0.36734367  1
  Ti  Ti29  1  0.14951500  0.22191889  0.74489258  1
  Ti  Ti30  1  0.05053327  0.58177323  0.11662401  1
  Ti  Ti31  1  0.05420078  0.62769314  0.38099775  1
  Ti  Ti32  1  0.11051516  0.63008689  0.68534817  1
  Ti  Ti33  1  0.11858028  0.91907003  0.08955462  1
  Ti  Ti34  1  0.06599887  0.94190546  0.49974605  1
  Ti  Ti35  1  0.07089318  0.85389490  0.78462020  1
  Ti  Ti36  1  0.44154494  0.33394681  0.07954786  1
  Ti  Ti37  1  0.43721493  0.21103599  0.34655640  1
  Ti  Ti38  1  0.37179446  0.25064357  0.69128083  1
  Ti  Ti39  1  0.37185617  0.65007589  0.10848976  1
  Ti  Ti40  1  0.51104197  0.56667435  0.45901673  1
  Ti  Ti41  1  0.48266674  0.55267884  0.66339311  1
  Ti  Ti42  1  0.42331551  0.99647815  0.05801409  1
  Ti  Ti43  1  0.37270187  0.94264760  0.37613150  1
  Ti  Ti44  1  0.40048379  0.89578722  0.75622273  1
  Ti  Ti45  1  0.77316251  0.27321023  0.03628181  1
  Ti  Ti46  1  0.81672242  0.26591602  0.38535739  1
  Ti  Ti47  1  0.83778240  0.26440424  0.83625956  1
  Ti  Ti48  1  0.86815782  0.56503689  0.09069376  1
  Ti  Ti49  1  0.72583488  0.60997453  0.35729627  1
  Ti  Ti50  1  0.69260622  0.50483972  0.67194423  1
  Ti  Ti51  1  0.77100046  0.92372668  0.09119814  1
  Ti  Ti52  1  0.73064944  0.88806275  0.45240545  1
  Ti  Ti53  1  0.76261553  0.91479463  0.78322771  1
  Ti  Ti54  1  0.24766388  0.08660712  0.03839141  1
  Ti  Ti55  1  0.28386354  0.12789175  0.42422264  1
  Ti  Ti56  1  0.22347521  0.02637170  0.75581107  1
  Ti  Ti57  1  0.24199703  0.36842751  0.16146213  1
  Ti  Ti58  1  0.26113206  0.39708665  0.44270135  1
  Ti  Ti59  1  0.33237042  0.44914523  0.75711726  1
  Ti  Ti60  1  0.21111521  0.75799362  0.12027694  1
  Ti  Ti61  1  0.24244514  0.70644933  0.37239842  1
  Ti  Ti62  1  0.23431311  0.78852017  0.67098822  1
  Ti  Ti63  1  0.64367904  0.06501796  0.05644011  1
  Ti  Ti64  1  0.62545916  0.10541381  0.42402691  1
  Ti  Ti65  1  0.51595641  0.10205020  0.78530247  1
  Ti  Ti66  1  0.55321302  0.50554523  0.14496316  1
  Ti  Ti67  1  0.62271920  0.32877586  0.42148520  1
  Ti  Ti68  1  0.53622840  0.40088984  0.76355634  1
  Ti  Ti69  1  0.61211422  0.75162500  -0.01394857  1
  Ti  Ti70  1  0.56285806  0.75224371  0.41682674  1
  Ti  Ti71  1  0.50900996  0.72228499  0.77444206  1
  Ti  Ti72  1  0.95540329  0.02940649  0.11701420  1
  Ti  Ti73  1  0.96715123  0.11444437  0.42127415  1
  Ti  Ti74  1  0.86037449  0.08301156  0.76683884  1
  Ti  Ti75  1  0.93910383  0.38805211  0.08357087  1
  Ti  Ti76  1  0.92636628  0.44050384  0.44455953  1
  Ti  Ti77  1  0.86123804  0.42227535  0.73706654  1
  Ti  Ti78  1  0.81033680  0.74540851  0.06399555  1
  Ti  Ti79  1  0.89444562  0.75296742  0.36238809  1
  Ti  Ti80  1  0.89929061  0.75874058  0.80791164  1
  Ti  Ti81  1  0.22546704  0.17193999  0.23318894  1
  Ti  Ti82  1  0.17457270  0.26317773  0.55456512  1
  Ti  Ti83  1  0.27079198  0.31487307  0.87492960  1
  Ti  Ti84  1  0.28027588  0.52190645  0.28907563  1
  Ti  Ti85  1  0.23960452  0.52416781  0.60099425  1
  Ti  Ti86  1  0.30741006  0.58561361  0.91160313  1
  Ti  Ti87  1  0.26815128  0.94764615  0.20679405  1
  Ti  Ti88  1  0.35607637  0.94571884  0.58333218  1
  Ti  Ti89  1  0.25058054  0.86295987  0.86727375  1
  Ti  Ti90  1  0.54703726  0.32173273  0.23106993  1
  Ti  Ti91  1  0.60275857  0.24394632  0.66432783  1
  Ti  Ti92  1  0.57156502  0.22239327  0.96902556  1
  Ti  Ti93  1  0.45465258  0.58421601  0.27790952  1
  Ti  Ti94  1  0.67515539  0.62998389  0.53471204  1
  Ti  Ti95  1  0.59381241  0.56611635  0.89646355  1
  Ti  Ti96  1  0.60662397  0.94955480  0.19802818  1
  Ti  Ti97  1  0.57912202  0.94230699  0.59481631  1
  Ti  Ti98  1  0.56989806  0.91632511  0.82752234  1
  Ti  Ti99  1  0.89663597  0.16364129  0.23583087  1
  Ti  Ti100  1  0.95743291  0.21577057  0.66108771  1
  Ti  Ti101  1  0.90780549  0.13442488  0.96845283  1
  Ti  Ti102  1  0.89986754  0.56093166  0.29662819  1
  Ti  Ti103  1  0.92553710  0.56885775  0.64361860  1
  Ti  Ti104  1  0.88871061  0.55625957  0.88654041  1
  Ti  Ti105  1  0.92497502  0.85865983  0.20063403  1
  Ti  Ti106  1  0.92609115  0.90786217  0.64925243  1
  Ti  Ti107  1  0.97275641  0.87893465  0.97087828  1
  Co  Co108  1  0.80543715  0.52526625  0.53698200  1
  Co  Co109  1  0.30882025  0.15987264  0.81357870  1
  Co  Co110  1  0.00144854  0.67829763  0.23297273  1
  Co  Co111  1  0.45916850  0.68251562  0.94225907  1
  Co  Co112  1  0.38209277  0.05535694  0.71539152  1
  Co  Co113  1  0.36461134  0.23715118  0.18181526  1
  Co  Co114  1  0.55734863  0.89762290  0.04816047  1
  Co  Co115  1  0.70657172  0.35662008  0.73287670  1
  Co  Co116  1  0.13996053  -0.04492710  0.92991229  1
  Co  Co117  1  0.26342902  0.12619063  0.62367250  1
  Co  Co118  1  0.44570228  0.55825428  0.82565444  1
  Co  Co119  1  0.52873110  0.68462689  0.58773802  1
  Co  Co120  1  0.27596886  -0.08746118  0.02215142  1
  Co  Co121  1  0.86404346  0.40038349  0.92710609  1
  Co  Co122  1  0.53038378  0.66530989  0.10368678  1
  Co  Co123  1  0.36138431  0.08172967  0.25788336  1
  Co  Co124  1  0.73704107  0.50775343  0.83691493  1
  Co  Co125  1  -0.06966883  0.42608776  0.23791965  1
  Co  Co126  1  -0.03150285  0.27731879  -0.02519931  1
  Co  Co127  1  -0.00123235  0.34501081  0.75398751  1
  Co  Co128  1  0.36006361  0.73880820  0.82209485  1
  Co  Co129  1  0.60206440  0.48377815  0.31439073  1
  Co  Co130  1  0.16413370  0.39076858  0.73990786  1
  Co  Co131  1  0.53073697  0.03753551  -0.06175101  1
  Co  Co132  1  0.69701228  0.21431800  0.52302304  1
  Co  Co133  1  0.80575101  0.61811469  0.74026275  1
  Co  Co134  1  0.18509610  0.53304741  0.80451002  1
  Co  Co135  1  0.63449667  0.22787585  0.12409347  1
  Co  Co136  1  0.77831912  0.21540934  0.68176610  1
  Co  Co137  1  -0.03437218  0.30658006  0.33634901  1
  Co  Co138  1  0.28937129  0.30694513  0.31871619  1
  Co  Co139  1  0.75210170  0.46852851  0.01832795  1
  Co  Co140  1  0.07246991  0.32079992  0.20856599  1
  Co  Co141  1  0.02467837  0.50913228  0.78222414  1
  Co  Co142  1  0.00159662  0.20533592  0.83158212  1
  Co  Co143  1  0.69420832  -0.01562884  0.32656764  1
  Co  Co144  1  0.04973663  0.15894287  0.25669214  1
  Co  Co145  1  0.23206297  -0.00541665  0.50640378  1
  Co  Co146  1  0.67050256  0.03398666  0.72039418  1
  Co  Co147  1  0.13102361  0.06844585  0.15224646  1
  Co  Co148  1  0.64745417  0.23203340  0.82069056  1
  Co  Co149  1  0.64423409  0.78948018  0.55358040  1
  Co  Co150  1  -0.07766685  0.93830667  0.82128517  1
  Co  Co151  1  0.88724645  -0.01480694  0.50397117  1
  Co  Co152  1  0.64019762  0.64953937  0.70601870  1
  Co  Co153  1  0.47945165  0.82493834  0.63602533  1
  Co  Co154  1  0.85547105  0.92433829  0.35546336  1
  Co  Co155  1  0.27134388  0.26226070  0.03434896  1
  Co  Co156  1  0.34665716  0.26442049  0.49536778  1
  Co  Co157  1  -0.10621965  0.82444650  0.51151242  1
  Co  Co158  1  0.79694774  0.11570159  0.09358110  1
  Co  Co159  1  0.39860460  0.39667028  0.23437869  1
  Co  Co160  1  0.29506254  0.73860166  -0.01990678  1
  Co  Co161  1  0.00140787  -0.12638019  0.38100488  1
  Ni  Ni162  1  0.36132605  0.00768112  0.89025030  1
  Ni  Ni163  1  0.38219241  0.82630162  0.11244184  1
  Ni  Ni164  1  0.14379694  0.92548279  0.64772479  1
  Ni  Ni165  1  0.44162668  -0.05730867  0.21932159  1
  Ni  Ni166  1  0.16949910  0.63230503  0.22974424  1
  Ni  Ni167  1  0.48801722  0.01349515  0.46733608  1
  Ni  Ni168  1  0.80054387  0.09193295  0.39102172  1
  Ni  Ni169  1  0.83388518  0.69137363  0.21655449  1
  Ni  Ni170  1  0.90394165  0.64332695  0.48392816  1
  Ni  Ni171  1  0.81887496  0.00965491  0.22559596  1
  Ni  Ni172  1  0.03241835  0.77077335  0.10363002  1
  Ni  Ni173  1  0.12515920  0.78379170  -0.03639101  1
  Ni  Ni174  1  0.40381796  0.71129751  0.38287913  1
  Ni  Ni175  1  0.58627044  0.39540890  0.59484539  1
  Ni  Ni176  1  0.08959647  0.40391465  0.45243658  1
  Ni  Ni177  1  0.35515106  0.48832674  0.11344123  1
  Ni  Ni178  1  0.81249791  0.83434444  -0.07118137  1
  Ni  Ni179  1  0.18308055  0.54393366  0.43476592  1
  Ni  Ni180  1  0.83162290  0.30397764  0.19208739  1
  Ni  Ni181  1  0.69828460  0.32303360  0.27737290  1
  Ni  Ni182  1  0.01468920  0.03559424  0.68880432  1
  Ni  Ni183  1  0.66063737  0.47676692  0.47664936  1
  Ni  Ni184  1  0.19909924  0.67697332  0.53603230  1
  Ni  Ni185  1  0.46485139  0.53714378  0.00574217  1
  Ni  Ni186  1  0.83055776  -0.00323648  0.95226683  1
  Ni  Ni187  1  0.16722369  0.18563711  -0.08646382  1
  Ni  Ni188  1  -0.03218233  0.73446291  0.66127916  1
  Ni  Ni189  1  0.77651076  0.44344850  0.36540735  1
  Ni  Ni190  1  0.52535022  0.06030205  0.30238925  1
  Ni  Ni191  1  0.00077818  0.26984198  0.50345792  1
  Ni  Ni192  1  0.63913837  0.81930446  0.70843600  1
  Ni  Ni193  1  0.55214893  0.90340226  0.35747106  1
  Ni  Ni194  1  0.06783989  0.08111066  0.00488178  1
  Ni  Ni195  1  -0.04844503  0.68727757  -0.01275042  1
  Ni  Ni196  1  0.20342130  0.70373415  0.82339580  1
  Ni  Ni197  1  0.31235916  0.61639444  0.72297262  1
  Ni  Ni198  1  0.34380268  0.56306880  0.45656472  1
  Ni  Ni199  1  0.13155763  0.08142675  0.39623093  1
  Ni  Ni200  1  0.75718868  0.90048467  0.61539975  1
  Ni  Ni201  1  0.46437410  0.26262244  0.82618709  1
  Ni  Ni202  1  0.63937154  0.78522867  0.14565910  1
  Ni  Ni203  1  0.67851831  -0.06965771  -0.05470141  1
  Ni  Ni204  1  0.61677741  0.37590731  0.06126423  1
  Ni  Ni205  1  0.85810298  0.18981166  0.52861291  1
  Ni  Ni206  1  0.28983581  0.82577296  0.48451382  1
  Ni  Ni207  1  0.74580974  0.62562676  -0.03662060  1
  Ni  Ni208  1  0.60690834  0.65377967  0.25660463  1
  Ni  Ni209  1  0.51425821  0.25153917  0.51274472  1
  Ni  Ni210  1  0.05268979  0.55999690  0.53407304  1
  Ni  Ni211  1  0.27311348  0.36456800  0.62126618  1
  Ni  Ni212  1  0.58610171  0.10446579  0.58819008  1
  Ni  Ni213  1  0.19840590  0.90835865  0.36781148  1
  Ni  Ni214  1  0.69952095  0.61708121  0.12197059  1
