# generated using pymatgen
data_Ti108Co54Ni53
_symmetry_space_group_name_H-M   'P 1'
_cell_length_a   14.63723483
_cell_length_b   14.65695898
_cell_length_c   14.66795408
_cell_angle_alpha   89.81687781
_cell_angle_beta   89.81534736
_cell_angle_gamma   89.98848071
_symmetry_Int_Tables_number   1
_chemical_formula_structural   Ti108Co54Ni53
_chemical_formula_sum   'Ti108 Co54 Ni53'
_cell_volume   3146.79153340
_cell_formula_units_Z   1
loop_
 _symmetry_equiv_pos_site_id
 _symmetry_equiv_pos_as_xyz
  1  'x, y, z'
loop_
 _atom_site_type_symbol
 _atom_site_label
 _atom_site_symmetry_multiplicity
 _atom_site_fract_x
 _atom_site_fract_y
 _atom_site_fract_z
 _atom_site_occupancy
  Ti  Ti0  1  0.04516709  0.05479790  0.23222665  1
  Ti  Ti1  1  0.07950643  0.06207444  0.55088728  1
  Ti  Ti2  1  0.09383631  -0.00526241  0.94253014  1
  Ti  Ti3  1  0.11355873  0.44193698  0.16439829  1
  Ti  Ti4  1  0.13585280  0.45296263  0.56821340  1
  Ti  Ti5  1  0.10146243  0.33281980  0.90224432  1
  Ti  Ti6  1  0.07982983  0.82160135  0.28334186  1
  Ti  Ti7  1  0.15740053  0.70969005  0.54965987  1
  Ti  Ti8  1  0.04391930  0.79400443  0.93485668  1
  Ti  Ti9  1  0.40743367  0.06497441  0.25556191  1
  Ti  Ti10  1  0.51847553  0.10912208  0.56577621  1
  Ti  Ti11  1  0.38878387  0.05199361  0.92550503  1
  Ti  Ti12  1  0.32611479  0.45110872  0.19588115  1
  Ti  Ti13  1  0.43461571  0.34712265  0.53372140  1
  Ti  Ti14  1  0.46582803  0.39172631  0.83994843  1
  Ti  Ti15  1  0.44822577  0.73065106  0.29245754  1
  Ti  Ti16  1  0.47092948  0.73101955  0.56034636  1
  Ti  Ti17  1  0.38181232  0.81866154  0.97083485  1
  Ti  Ti18  1  0.71038862  0.11889397  0.28876650  1
  Ti  Ti19  1  0.77871181  0.14805434  0.57074658  1
  Ti  Ti20  1  0.68259923  0.08718825  0.93330172  1
  Ti  Ti21  1  0.76206035  0.49396843  0.28267810  1
  Ti  Ti22  1  0.80043507  0.38519632  0.55893129  1
  Ti  Ti23  1  0.70473121  0.42501310  0.98716438  1
  Ti  Ti24  1  0.71206712  0.79165628  0.24664398  1
  Ti  Ti25  1  0.74687551  0.80112012  0.63018777  1
  Ti  Ti26  1  0.72288707  0.76008735  1.02575795  1
  Ti  Ti27  1  0.11214467  0.25446123  0.11050066  1
  Ti  Ti28  1  0.06358220  0.25251388  0.45227411  1
  Ti  Ti29  1  0.04963857  0.17475479  0.76804456  1
  Ti  Ti30  1  0.07397532  0.63651618  0.09474783  1
  Ti  Ti31  1  0.06471138  0.58475719  0.42515006  1
  Ti  Ti32  1  0.05055365  0.55418473  0.70556860  1
  Ti  Ti33  1  0.14365042  0.93060388  0.13641525  1
  Ti  Ti34  1  0.04687710  0.86917806  0.50270723  1
  Ti  Ti35  1  0.11350424  0.99901004  0.73394730  1
  Ti  Ti36  1  0.46493552  0.25465558  0.06474521  1
  Ti  Ti37  1  0.39816724  0.22476587  0.38008888  1
  Ti  Ti38  1  0.42921463  0.23528154  0.70673012  1
  Ti  Ti39  1  0.39971221  0.59320507  0.03676431  1
  Ti  Ti40  1  0.38788760  0.53916457  0.43645363  1
  Ti  Ti41  1  0.41045279  0.55790990  0.75347684  1
  Ti  Ti42  1  0.33917219  0.92402361  0.13519971  1
  Ti  Ti43  1  0.42639734  0.90707502  0.50835668  1
  Ti  Ti44  1  0.37366645  0.99605108  0.74147008  1
  Ti  Ti45  1  0.76797415  0.22176117  0.10017780  1
  Ti  Ti46  1  0.72858545  0.30864251  0.38158414  1
  Ti  Ti47  1  0.75438712  0.28621105  0.74607271  1
  Ti  Ti48  1  0.81280919  0.57563567  0.04022187  1
  Ti  Ti49  1  0.72271627  0.54297971  0.45093967  1
  Ti  Ti50  1  0.73723473  0.58109582  0.63695001  1
  Ti  Ti51  1  0.73284952  1.02473470  0.11692219  1
  Ti  Ti52  1  0.79011018  0.84625235  0.43172065  1
  Ti  Ti53  1  0.71396665  0.91197613  0.79596424  1
  Ti  Ti54  1  0.22583291  0.10082491  0.07734635  1
  Ti  Ti55  1  0.24368931  0.10597152  0.44390856  1
  Ti  Ti56  1  0.24020814  0.11998996  0.66149464  1
  Ti  Ti57  1  0.23397575  0.41195116  0.01661513  1
  Ti  Ti58  1  0.19469031  0.42670586  0.36740736  1
  Ti  Ti59  1  0.27429263  0.38594080  0.81134170  1
  Ti  Ti60  1  0.24620905  0.72357117  0.09386354  1
  Ti  Ti61  1  0.32365127  0.73953140  0.42781290  1
  Ti  Ti62  1  0.21166318  0.69613512  0.74116318  1
  Ti  Ti63  1  0.52712682  0.00062689  0.06322009  1
  Ti  Ti64  1  0.57665714  -0.01022944  0.40646703  1
  Ti  Ti65  1  0.67523799  0.09072371  0.73677105  1
  Ti  Ti66  1  0.53596424  0.44322482  0.14065396  1
  Ti  Ti67  1  0.55149552  0.45107281  0.41364356  1
  Ti  Ti68  1  0.56012320  0.39152816  0.68816764  1
  Ti  Ti69  1  0.56391228  0.72593180  0.11966040  1
  Ti  Ti70  1  0.64810413  0.71537287  0.47105828  1
  Ti  Ti71  1  0.52600535  0.74475662  0.77765318  1
  Ti  Ti72  1  0.92721798  0.01391236  0.08027148  1
  Ti  Ti73  1  0.96034790  0.08374155  0.39482269  1
  Ti  Ti74  1  0.88882100  0.04108965  0.73075648  1
  Ti  Ti75  1  0.87777137  0.39168597  0.13477603  1
  Ti  Ti76  1  0.90336783  0.41075001  0.36012032  1
  Ti  Ti77  1  0.94947633  0.35760265  0.78692345  1
  Ti  Ti78  1  0.91143519  0.75061585  0.12167299  1
  Ti  Ti79  1  0.94444120  0.73106960  0.41516563  1
  Ti  Ti80  1  1.00563683  0.77178315  0.72535250  1
  Ti  Ti81  1  0.24095723  0.25415762  0.26523045  1
  Ti  Ti82  1  0.25711296  0.31264171  0.63180152  1
  Ti  Ti83  1  0.27560246  0.22591743  0.94160189  1
  Ti  Ti84  1  0.18228272  0.61448184  0.26480981  1
  Ti  Ti85  1  0.30363047  0.59090268  0.59803081  1
  Ti  Ti86  1  0.23401109  0.58028447  0.91119589  1
  Ti  Ti87  1  0.25917105  0.93603218  0.31939164  1
  Ti  Ti88  1  0.23033815  0.93015293  0.55431782  1
  Ti  Ti89  1  0.21982771  0.88511396  0.82928043  1
  Ti  Ti90  1  0.58680132  0.25457851  0.22323870  1
  Ti  Ti91  1  0.62956307  0.27643508  0.54980695  1
  Ti  Ti92  1  0.60249401  0.25973473  0.86457582  1
  Ti  Ti93  1  0.60843988  0.60048496  0.27445168  1
  Ti  Ti94  1  0.52466556  0.55614909  0.58476768  1
  Ti  Ti95  1  0.55177344  0.58754918  0.90403078  1
  Ti  Ti96  1  0.51827337  0.89018440  0.22879469  1
  Ti  Ti97  1  0.57474989  0.93829634  0.65544741  1
  Ti  Ti98  1  0.53179396  0.93601022  0.85563313  1
  Ti  Ti99  1  0.91525653  0.24553957  0.27603285  1
  Ti  Ti100  1  0.97437665  0.33424572  0.60546928  1
  Ti  Ti101  1  0.93184686  0.23127861  0.93995194  1
  Ti  Ti102  1  0.91058474  0.58238588  0.21991626  1
  Ti  Ti103  1  0.92558341  0.53315294  0.55222861  1
  Ti  Ti104  1  0.96167214  0.51652921  0.89698889  1
  Ti  Ti105  1  0.84464127  0.95592164  0.26961315  1
  Ti  Ti106  1  0.88153405  0.97401566  0.54138160  1
  Ti  Ti107  1  0.84731972  0.94455113  0.92159339  1
  Co  Co108  1  0.45983619  0.48415821  0.28534786  1
  Co  Co109  1  0.02790986  0.67012179  0.27092938  1
  Co  Co110  1  0.37300043  0.83315272  0.81715748  1
  Co  Co111  1  0.51151383  0.63824125  0.41437648  1
  Co  Co112  1  0.28759917  0.43413117  0.51980154  1
  Co  Co113  1  0.21336317  0.06383593  0.84668990  1
  Co  Co114  1  0.87776569  0.39639402  -0.03112230  1
  Co  Co115  1  0.68250557  -0.05562439  0.29241161  1
  Co  Co116  1  0.64076514  0.88528546  0.51880857  1
  Co  Co117  1  -0.09856332  0.80899079  0.57608930  1
  Co  Co118  1  0.30057501  0.78698077  0.58267700  1
  Co  Co119  1  0.76374207  0.27154546  0.92692022  1
  Co  Co120  1  0.88383355  0.78508294  0.27454998  1
  Co  Co121  1  -0.02570780  0.89275901  0.18226626  1
  Co  Co122  1  0.74297467  -0.02123049  0.62600760  1
  Co  Co123  1  0.51196619  0.09339530  0.79489266  1
  Co  Co124  1  0.59036282  0.21610299  0.69211847  1
  Co  Co125  1  0.71390497  0.44218879  0.69993685  1
  Co  Co126  1  0.22586535  0.49983430  0.70293357  1
  Co  Co127  1  0.37984878  0.50942864  0.90811506  1
  Co  Co128  1  0.02191926  0.36555621  0.03606806  1
  Co  Co129  1  0.40931966  -0.09342451  0.34302437  1
  Co  Co130  1  0.85748205  0.87851891  0.72337090  1
  Co  Co131  1  0.58459112  0.56003414  0.74126491  1
  Co  Co132  1  0.15127531  0.83727444  0.67072584  1
  Co  Co133  1  0.10461776  0.51161311  -0.00660126  1
  Co  Co134  1  0.89134634  0.28321970  0.46148552  1
  Co  Co135  1  -0.03621706  0.07413846  0.89020570  1
  Co  Co136  1  0.80513029  0.13660392  0.83291095  1
  Co  Co137  1  0.62776101  0.43707202  0.83958421  1
  Co  Co138  1  0.83343216  0.11340144  -0.00843422  1
  Co  Co139  1  0.57753973  0.04014612  0.21667597  1
  Co  Co140  1  0.65127689  0.15187032  0.45088607  1
  Co  Co141  1  0.11466847  0.17103859  -0.07321568  1
  Co  Co142  1  0.38274129  0.42126004  0.66874178  1
  Co  Co143  1  0.33740345  0.14936005  0.80173965  1
  Co  Co144  1  0.10917831  0.36468633  0.71717902  1
  Co  Co145  1  0.43194065  0.24066593  0.88601533  1
  Co  Co146  1  -0.03745986  0.51700648  0.06918372  1
  Co  Co147  1  0.39080458  0.67246628  0.87434016  1
  Co  Co148  1  0.61877660  0.41231098  0.27824099  1
  Co  Co149  1  0.03674590  0.49739609  0.29126852  1
  Co  Co150  1  0.75100808  0.32939808  0.22273344  1
  Co  Co151  1  0.70787276  0.48183464  0.14212799  1
  Co  Co152  1  0.23397331  0.55803566  0.09799810  1
  Co  Co153  1  -0.03803171  -0.08635266  0.36980379  1
  Co  Co154  1  0.68458809  -0.07277673  -0.03347999  1
  Co  Co155  1  0.61616429  0.14390815  0.10373620  1
  Co  Co156  1  0.86731566  0.10714464  0.21783024  1
  Co  Co157  1  0.19834344  0.23348310  0.78482038  1
  Co  Co158  1  0.35832243  0.03320443  0.58654151  1
  Co  Co159  1  0.53304407  0.44239441  -0.01905930  1
  Co  Co160  1  0.81675695  0.87692002  0.09604554  1
  Co  Co161  1  0.88093510  0.46542612  0.69143451  1
  Ni  Ni162  1  -0.05059843  0.15883346  0.55972637  1
  Ni  Ni163  1  0.18369366  0.82140085  0.41440576  1
  Ni  Ni164  1  0.12305475  0.48274087  0.83315963  1
  Ni  Ni165  1  0.17909836  0.84317025  0.00695854  1
  Ni  Ni166  1  0.38429734  0.36992380  -0.01132804  1
  Ni  Ni167  1  0.40767435  0.05834305  0.42992146  1
  Ni  Ni168  1  0.46231549  0.60315639  0.18111506  1
  Ni  Ni169  1  0.07178246  0.32418264  0.28601013  1
  Ni  Ni170  1  0.55432221  0.28812779  0.39342610  1
  Ni  Ni171  1  -0.04898248  0.66173873  -0.02332769  1
  Ni  Ni172  1  0.74341707  0.00925714  0.44410524  1
  Ni  Ni173  1  0.61276569  0.69413044  0.64703313  1
  Ni  Ni174  1  0.74579647  0.64489070  0.17692223  1
  Ni  Ni175  1  0.64430964  0.78786968  0.88259476  1
  Ni  Ni176  1  0.22867120  0.58357696  0.44236644  1
  Ni  Ni177  1  -0.00135864  -0.07565155  0.65163684  1
  Ni  Ni178  1  -0.05781110  0.21379411  0.10961748  1
  Ni  Ni179  1  0.77360893  0.67921697  0.35134754  1
  Ni  Ni180  1  0.33820935  0.60710013  0.29704578  1
  Ni  Ni181  1  0.54327965  0.84175090  0.00328782  1
  Ni  Ni182  1  0.03544119  0.41378856  0.44270606  1
  Ni  Ni183  1  0.26708503  -0.03025108  -0.01443955  1
  Ni  Ni184  1  0.29972482  0.28037748  0.11131177  1
  Ni  Ni185  1  0.81580499  0.15352937  0.40695366  1
  Ni  Ni186  1  -0.00033543  0.67841834  0.58127536  1
  Ni  Ni187  1  0.52818960  0.13441536  -0.03833245  1
  Ni  Ni188  1  0.11193785  0.22778803  0.61117045  1
  Ni  Ni189  1  0.38772464  0.10759513  0.09189417  1
  Ni  Ni190  1  0.11743325  -0.00890877  0.39117972  1
  Ni  Ni191  1  0.53382633  0.13780684  0.33987573  1
  Ni  Ni192  1  0.26986598  0.77922195  0.25311910  1
  Ni  Ni193  1  0.53214650  0.81482545  0.40914106  1
  Ni  Ni194  1  0.37363525  0.71069724  0.70558146  1
  Ni  Ni195  1  0.05809393  0.10412983  0.06259337  1
  Ni  Ni196  1  0.35687979  0.38257293  0.37088270  1
  Ni  Ni197  1  0.88694847  0.57073033  0.39415053  1
  Ni  Ni198  1  0.11758634  0.15973589  0.33446537  1
  Ni  Ni199  1  0.40219678  0.76555735  0.13290331  1
  Ni  Ni200  1  0.64914146  0.88625883  0.12366923  1
  Ni  Ni201  1  0.79531062  0.42473973  0.83704208  1
  Ni  Ni202  1  -0.01221726  0.91633897  0.82572822  1
  Ni  Ni203  1  0.36184886  0.19082814  0.54590312  1
  Ni  Ni204  1  0.89601499  0.21442398  0.70707700  1
  Ni  Ni205  1  0.60790751  0.58022242  0.06357883  1
  Ni  Ni206  1  0.43510062  0.85773257  0.67166330  1
  Ni  Ni207  1  0.08083683  0.65012666  0.85527649  1
  Ni  Ni208  1  0.42030934  0.31279342  0.23017473  1
  Ni  Ni209  1  0.62512113  0.29140048  0.03776169  1
  Ni  Ni210  1  0.64200376  0.44160292  0.55156072  1
  Ni  Ni211  1  0.24329287  0.27911280  0.45799690  1
  Ni  Ni212  1  0.23782733  0.73967112  -0.09737521  1
  Ni  Ni213  1  0.22628050  0.07820356  0.24041750  1
  Ni  Ni214  1  0.81448525  0.67849135  0.51417809  1
