# generated using pymatgen
data_Ti108Co54Ni53
_symmetry_space_group_name_H-M   'P 1'
_cell_length_a   14.62288754
_cell_length_b   14.56307951
_cell_length_c   14.64221506
_cell_angle_alpha   89.83220519
_cell_angle_beta   89.79838616
_cell_angle_gamma   90.15392094
_symmetry_Int_Tables_number   1
_chemical_formula_structural   Ti108Co54Ni53
_chemical_formula_sum   'Ti108 Co54 Ni53'
_cell_volume   3118.07826010
_cell_formula_units_Z   1
loop_
 _symmetry_equiv_pos_site_id
 _symmetry_equiv_pos_as_xyz
  1  'x, y, z'
loop_
 _atom_site_type_symbol
 _atom_site_label
 _atom_site_symmetry_multiplicity
 _atom_site_fract_x
 _atom_site_fract_y
 _atom_site_fract_z
 _atom_site_occupancy
  Ti  Ti0  1  0.18794835  0.08118437  0.27514662  1
  Ti  Ti1  1  0.09670164  0.14140335  0.52229320  1
  Ti  Ti2  1  0.05992313  0.08581217  0.95355930  1
  Ti  Ti3  1  0.00992820  0.36626387  0.23666734  1
  Ti  Ti4  1  0.12995795  0.44551300  0.55572193  1
  Ti  Ti5  1  0.13854696  0.42246099  0.94633884  1
  Ti  Ti6  1  0.12327899  0.79175606  0.23359661  1
  Ti  Ti7  1  0.06625590  0.82536903  0.56229745  1
  Ti  Ti8  1  0.02071141  0.75492685  0.89990530  1
  Ti  Ti9  1  0.40955485  0.06881205  0.29705256  1
  Ti  Ti10  1  0.40349207  0.04377269  0.59839721  1
  Ti  Ti11  1  0.42085210  0.03816917  0.99835895  1
  Ti  Ti12  1  0.45623962  0.48907410  0.21155624  1
  Ti  Ti13  1  0.34211746  0.37271052  0.59448540  1
  Ti  Ti14  1  0.40060037  0.40387442  0.96463029  1
  Ti  Ti15  1  0.49152916  0.75633834  0.31664952  1
  Ti  Ti16  1  0.43584657  0.75708484  0.52726929  1
  Ti  Ti17  1  0.42607357  0.84243841  0.94360081  1
  Ti  Ti18  1  0.73623898  0.05193894  0.21712522  1
  Ti  Ti19  1  0.72424515  -0.03023093  0.58937659  1
  Ti  Ti20  1  0.70810962  0.14559630  0.90506564  1
  Ti  Ti21  1  0.85277494  0.45755430  0.20054056  1
  Ti  Ti22  1  0.80137522  0.44382290  0.53843231  1
  Ti  Ti23  1  0.77773763  0.42784952  0.98383735  1
  Ti  Ti24  1  0.79465885  0.74127219  0.17041307  1
  Ti  Ti25  1  0.77505586  0.76232501  0.58382383  1
  Ti  Ti26  1  0.77343408  0.80109534  0.88568060  1
  Ti  Ti27  1  0.12969866  0.24572201  0.09925998  1
  Ti  Ti28  1  0.01195734  0.28951568  0.41454040  1
  Ti  Ti29  1  0.09173538  0.16527387  0.75454096  1
  Ti  Ti30  1  0.12426832  0.60926985  -0.00168305  1
  Ti  Ti31  1  0.10146985  0.58110518  0.43725428  1
  Ti  Ti32  1  0.03058796  0.53255410  0.71731919  1
  Ti  Ti33  1  0.03092194  0.90852671  0.08639703  1
  Ti  Ti34  1  0.03151769  0.89366196  0.38621050  1
  Ti  Ti35  1  0.08422520  0.88288788  0.75317373  1
  Ti  Ti36  1  0.33958600  0.22372777  0.02943771  1
  Ti  Ti37  1  0.42210635  0.28418519  0.42761110  1
  Ti  Ti38  1  0.42435757  0.28231353  0.77886091  1
  Ti  Ti39  1  0.44609738  0.58260238  0.03263497  1
  Ti  Ti40  1  0.36305357  0.61566331  0.35740826  1
  Ti  Ti41  1  0.40036540  0.61425865  0.73460266  1
  Ti  Ti42  1  0.41781055  0.83734456  0.13523151  1
  Ti  Ti43  1  0.45325863  0.93638566  0.43651692  1
  Ti  Ti44  1  0.41442979  0.97924996  0.79808183  1
  Ti  Ti45  1  0.71302099  0.22581781  0.10865427  1
  Ti  Ti46  1  0.78191099  0.24736638  0.46171957  1
  Ti  Ti47  1  0.74466384  0.27648380  0.68407077  1
  Ti  Ti48  1  0.74657095  0.64580415  0.00519982  1
  Ti  Ti49  1  0.73361619  0.56006158  0.37500250  1
  Ti  Ti50  1  0.70183587  0.50268658  0.69616898  1
  Ti  Ti51  1  0.71255707  0.88697273  0.06340378  1
  Ti  Ti52  1  0.85694281  0.94089454  0.44854289  1
  Ti  Ti53  1  0.78238396  0.96715515  0.77303940  1
  Ti  Ti54  1  0.27522619  -0.00096022  0.12589376  1
  Ti  Ti55  1  0.28244236  0.16891822  0.45374102  1
  Ti  Ti56  1  0.28064637  0.11541211  0.73511904  1
  Ti  Ti57  1  0.27917019  0.40233532  0.12745691  1
  Ti  Ti58  1  0.27184946  0.43818406  0.38866334  1
  Ti  Ti59  1  0.20971559  0.46021262  0.73860459  1
  Ti  Ti60  1  0.28030750  0.71068041  0.09907722  1
  Ti  Ti61  1  0.23446770  0.71148240  0.50678821  1
  Ti  Ti62  1  0.20164448  0.73419614  0.83342832  1
  Ti  Ti63  1  0.60163643  0.05592070  0.05711302  1
  Ti  Ti64  1  0.62433827  0.09045700  0.41246615  1
  Ti  Ti65  1  0.63623501  0.09860285  0.72366746  1
  Ti  Ti66  1  0.56888903  0.38673296  0.06064702  1
  Ti  Ti67  1  0.59801305  0.49568575  0.50456408  1
  Ti  Ti68  1  0.55323573  0.40265905  0.71249055  1
  Ti  Ti69  1  0.57168635  0.72519114  0.01335316  1
  Ti  Ti70  1  0.61876270  0.69532076  0.45493980  1
  Ti  Ti71  1  0.51696522  0.78474686  0.74912388  1
  Ti  Ti72  1  0.92479039  0.11078630  0.11398299  1
  Ti  Ti73  1  1.01356801  0.08662738  0.35866295  1
  Ti  Ti74  1  0.96127591  0.03758877  0.77464886  1
  Ti  Ti75  1  0.97646237  0.39420430  0.04799646  1
  Ti  Ti76  1  0.93994562  0.47707604  0.39089858  1
  Ti  Ti77  1  0.87429635  0.40860310  0.74269996  1
  Ti  Ti78  1  0.97049745  0.68863314  0.08734269  1
  Ti  Ti79  1  0.85900989  0.76550326  0.34657205  1
  Ti  Ti80  1  0.88945277  0.71643247  0.75491366  1
  Ti  Ti81  1  0.30364228  0.22659833  0.23673962  1
  Ti  Ti82  1  0.16815465  0.26810343  0.62578568  1
  Ti  Ti83  1  0.21517584  0.21452075  0.89135922  1
  Ti  Ti84  1  0.15218410  0.50910135  0.24666244  1
  Ti  Ti85  1  0.30755714  0.55617253  0.56518787  1
  Ti  Ti86  1  0.29171740  0.56223530  0.88362303  1
  Ti  Ti87  1  0.27374739  0.90606627  0.30243765  1
  Ti  Ti88  1  0.26667543  0.89795063  0.55476667  1
  Ti  Ti89  1  0.23253191  0.89504144  0.94702687  1
  Ti  Ti90  1  0.51307018  0.25610432  0.25061862  1
  Ti  Ti91  1  0.52140088  0.21262899  0.59526202  1
  Ti  Ti92  1  0.52032394  0.21696632  0.93733108  1
  Ti  Ti93  1  0.60826939  0.61803423  0.19503797  1
  Ti  Ti94  1  0.57771684  0.64355766  0.63742747  1
  Ti  Ti95  1  0.61696425  0.54274048  0.88889810  1
  Ti  Ti96  1  0.57969394  0.93221253  0.24132664  1
  Ti  Ti97  1  0.58764218  0.85571538  0.57540190  1
  Ti  Ti98  1  0.60288020  0.90292043  0.87856388  1
  Ti  Ti99  1  0.87097947  0.22255877  0.26697742  1
  Ti  Ti100  1  0.93411182  0.20886913  0.64320601  1
  Ti  Ti101  1  0.88333180  0.23963463  0.97760379  1
  Ti  Ti102  1  0.99666648  0.63087750  0.27146501  1
  Ti  Ti103  1  0.95911244  0.65833605  0.58436491  1
  Ti  Ti104  1  0.95110729  0.54220955  0.89495434  1
  Ti  Ti105  1  0.90146669  0.96702066  0.26246346  1
  Ti  Ti106  1  0.95922262  1.01074909  0.58125388  1
  Ti  Ti107  1  0.89739183  0.95482538  0.95475827  1
  Co  Co108  1  -0.11495952  0.68375001  -0.06695174  1
  Co  Co109  1  0.70329836  0.40907171  0.82548037  1
  Co  Co110  1  0.55029074  0.21486757  0.08863657  1
  Co  Co111  1  0.56751072  -0.04546838  0.71475065  1
  Co  Co112  1  0.22665038  0.62263914  0.71206871  1
  Co  Co113  1  0.79240644  0.08085078  0.50315250  1
  Co  Co114  1  0.73810341  0.87445804  0.24967953  1
  Co  Co115  1  0.10561384  0.42032047  0.38057812  1
  Co  Co116  1  0.24043734  0.07596707  0.58383740  1
  Co  Co117  1  0.27391869  0.37004114  -0.11268701  1
  Co  Co118  1  0.84001500  0.61239047  0.27886240  1
  Co  Co119  1  0.34227387  0.80221775  0.40843803  1
  Co  Co120  1  0.67278992  0.29844163  -0.03983342  1
  Co  Co121  1  0.88680345  0.54833055  0.04606485  1
  Co  Co122  1  0.47330076  0.12718273  0.73062699  1
  Co  Co123  1  0.68445568  0.71640806  0.30675005  1
  Co  Co124  1  0.75542588  0.57173890  0.14967809  1
  Co  Co125  1  0.42586623  0.32444017  0.12844645  1
  Co  Co126  1  0.45087491  -0.00768282  0.15612420  1
  Co  Co127  1  -0.08304481  0.79605465  0.49988595  1
  Co  Co128  1  0.87412619  0.80821365  0.03523383  1
  Co  Co129  1  0.91371321  0.33099252  0.53651315  1
  Co  Co130  1  0.36907248  0.44121399  0.75353038  1
  Co  Co131  1  0.69173260  0.83688006  0.71840713  1
  Co  Co132  1  0.73899866  0.82388427  0.44066586  1
  Co  Co133  1  0.85117801  -0.05727263  0.12093496  1
  Co  Co134  1  0.05749855  0.70308382  0.73004084  1
  Co  Co135  1  0.77938041  0.08416596  0.04815094  1
  Co  Co136  1  0.17692428  0.82762075  0.41138704  1
  Co  Co137  1  0.11973849  0.58269894  0.84218972  1
  Co  Co138  1  0.62310710  0.53786831  0.05462136  1
  Co  Co139  1  0.86896213  0.10224127  0.89438958  1
  Co  Co140  1  0.12188252  0.61956181  0.59370856  1
  Co  Co141  1  0.31594665  0.71643842  -0.05140163  1
  Co  Co142  1  0.54990608  0.05637811  0.87015251  1
  Co  Co143  1  0.54659847  0.89791019  0.05229974  1
  Co  Co144  1  -0.07092949  0.87490950  0.81236916  1
  Co  Co145  1  0.71911265  -0.02672795  0.37326689  1
  Co  Co146  1  0.85492572  0.56526328  0.68352966  1
  Co  Co147  1  0.82949847  0.09463704  0.35136944  1
  Co  Co148  1  0.80944432  0.10317943  0.66914316  1
  Co  Co149  1  0.14401806  0.02451980  0.82188952  1
  Co  Co150  1  0.07087579  -0.08951737  -0.08152999  1
  Co  Co151  1  0.85772286  0.30425898  0.12640050  1
  Co  Co152  1  0.54428115  0.37953630  0.88128808  1
  Co  Co153  1  0.56157691  0.03352413  0.56073367  1
  Co  Co154  1  0.54520562  0.58412518  0.34445081  1
  Co  Co155  1  0.21746940  0.11819254  0.04448111  1
  Co  Co156  1  0.73040664  -0.01349544  -0.07331548  1
  Co  Co157  1  0.35200295  0.21174498  0.60894225  1
  Co  Co158  1  0.39122367  0.14801106  0.86977656  1
  Co  Co159  1  -0.04255414  0.81570112  0.21137476  1
  Co  Co160  1  -0.14969131  0.35707958  0.36071276  1
  Co  Co161  1  0.41700746  0.14637423  0.14924756  1
  Ni  Ni162  1  0.88269289  0.87760790  0.64976471  1
  Ni  Ni163  1  0.72507787  0.67168859  0.72098062  1
  Ni  Ni164  1  0.08808604  0.07250193  0.13089365  1
  Ni  Ni165  1  0.03850606  0.19796141  0.23404835  1
  Ni  Ni166  1  0.63515044  0.71438200  -0.14839840  1
  Ni  Ni167  1  0.10948969  0.33344600  0.80143861  1
  Ni  Ni168  1  0.57423516  0.10481650  0.22048940  1
  Ni  Ni169  1  0.03902136  0.72832664  0.40056547  1
  Ni  Ni170  1  0.18870914  0.78111564  0.66528244  1
  Ni  Ni171  1  0.46755007  0.68601243  0.88276074  1
  Ni  Ni172  1  0.13465001  0.78117471  0.03209213  1
  Ni  Ni173  1  -0.03670466  0.49052234  0.56453931  1
  Ni  Ni174  1  0.17646967  0.33928499  0.24763595  1
  Ni  Ni175  1  0.46016376  0.50827541  0.61885209  1
  Ni  Ni176  1  0.29945377  0.01024513  0.43112351  1
  Ni  Ni177  1  0.45938286  0.11910601  0.45272188  1
  Ni  Ni178  1  0.46849480  0.60739800  0.49054417  1
  Ni  Ni179  1  0.19946347  0.31486806  0.47300794  1
  Ni  Ni180  1  0.02481929  0.35979496  0.66056342  1
  Ni  Ni181  1  0.78454522  0.57517305  0.84554828  1
  Ni  Ni182  1  0.34076142  0.74247090  0.65428582  1
  Ni  Ni183  1  0.46024907  0.52103299  -0.13789805  1
  Ni  Ni184  1  0.13644332  0.64784561  0.15764550  1
  Ni  Ni185  1  0.27660890  0.04501301  -0.09232514  1
  Ni  Ni186  1  0.30391941  0.57157820  0.20643117  1
  Ni  Ni187  1  0.66315960  0.34073666  0.55900068  1
  Ni  Ni188  1  0.32057486  0.75238878  0.25567952  1
  Ni  Ni189  1  0.89058878  0.62729686  0.44193542  1
  Ni  Ni190  1  0.05692030  0.25903320  -0.05515373  1
  Ni  Ni191  1  0.43220038  0.46314918  0.42329632  1
  Ni  Ni192  1  0.38065534  0.36787456  0.28583616  1
  Ni  Ni193  1  -0.07212165  0.15924835  0.48068200  1
  Ni  Ni194  1  0.61123500  0.25794011  0.79200136  1
  Ni  Ni195  1  0.26918955  0.29647940  0.74424473  1
  Ni  Ni196  1  0.67670348  0.16293909  0.57104611  1
  Ni  Ni197  1  0.15161959  0.21752265  0.35512246  1
  Ni  Ni198  1  0.42497909  0.88629530  0.64462708  1
  Ni  Ni199  1  0.08411544  -0.04647021  0.24186634  1
  Ni  Ni200  1  0.59461093  0.86355496  0.39459813  1
  Ni  Ni201  1  0.27203385  0.54137242  0.04401441  1
  Ni  Ni202  1  0.50335086  0.36774609  0.54490538  1
  Ni  Ni203  1  0.19412497  0.66540369  0.32406236  1
  Ni  Ni204  1  0.73534159  0.60150370  0.55441852  1
  Ni  Ni205  1  0.02462535  0.52433259  0.13492632  1
  Ni  Ni206  1  0.34553876  0.81463323  0.80127158  1
  Ni  Ni207  1  0.44313136  0.66777498  0.18120767  1
  Ni  Ni208  1  0.10852277  0.01870447  0.65614994  1
  Ni  Ni209  1  -0.03762540  0.37707311  0.88088435  1
  Ni  Ni210  1  0.26015011  -0.05922490  0.71788023  1
  Ni  Ni211  1  -0.04941647  0.23103364  0.81082641  1
  Ni  Ni212  1  0.60758255  0.78484652  0.16714284  1
  Ni  Ni213  1  0.79783491  0.28333535  0.84596879  1
  Ni  Ni214  1  0.13266694  -0.01937784  0.48670608  1
