# generated using pymatgen
data_Ti108Co54Ni53
_symmetry_space_group_name_H-M   'P 1'
_cell_length_a   14.74683656
_cell_length_b   14.72640426
_cell_length_c   14.73472794
_cell_angle_alpha   89.91968224
_cell_angle_beta   90.23398926
_cell_angle_gamma   90.11622905
_symmetry_Int_Tables_number   1
_chemical_formula_structural   Ti108Co54Ni53
_chemical_formula_sum   'Ti108 Co54 Ni53'
_cell_volume   3199.87320595
_cell_formula_units_Z   1
loop_
 _symmetry_equiv_pos_site_id
 _symmetry_equiv_pos_as_xyz
  1  'x, y, z'
loop_
 _atom_site_type_symbol
 _atom_site_label
 _atom_site_symmetry_multiplicity
 _atom_site_fract_x
 _atom_site_fract_y
 _atom_site_fract_z
 _atom_site_occupancy
  Ti  Ti0  1  0.08571917  0.08988217  0.27049679  1
  Ti  Ti1  1  0.11919630  0.09614697  0.56452197  1
  Ti  Ti2  1  0.18552041  0.13733469  0.90156752  1
  Ti  Ti3  1  0.02716003  0.32276134  0.30520200  1
  Ti  Ti4  1  0.07588742  0.36123513  0.49906862  1
  Ti  Ti5  1  0.02288401  0.43489896  0.89669536  1
  Ti  Ti6  1  0.18060285  0.76932345  0.27546205  1
  Ti  Ti7  1  0.11203706  0.79050468  0.62438376  1
  Ti  Ti8  1  0.10046012  0.93435102  0.92220705  1
  Ti  Ti9  1  0.44104491  0.00783573  0.23912447  1
  Ti  Ti10  1  0.41257893  0.10192511  0.57229496  1
  Ti  Ti11  1  0.43637764  0.07050686  0.89099649  1
  Ti  Ti12  1  0.39159786  0.41108665  0.28191337  1
  Ti  Ti13  1  0.35022636  0.44278902  0.61107269  1
  Ti  Ti14  1  0.42498445  0.50029902  0.98445589  1
  Ti  Ti15  1  0.39452467  0.71218920  0.22622842  1
  Ti  Ti16  1  0.44938958  0.75036396  0.56690694  1
  Ti  Ti17  1  0.40189051  0.78095279  0.86518231  1
  Ti  Ti18  1  0.77999029  0.08157544  0.25154763  1
  Ti  Ti19  1  0.76033203  0.14781728  0.66604651  1
  Ti  Ti20  1  0.73246346  0.02336162  0.95227173  1
  Ti  Ti21  1  0.74012432  0.42014984  0.27778088  1
  Ti  Ti22  1  0.71703175  0.32789039  0.57764038  1
  Ti  Ti23  1  0.67451606  0.38077384  0.96081590  1
  Ti  Ti24  1  0.72035892  0.75693267  0.28293502  1
  Ti  Ti25  1  0.76063088  0.74068005  0.48848837  1
  Ti  Ti26  1  0.68623406  0.76886873  0.95748696  1
  Ti  Ti27  1  0.10390082  0.24969996  0.03186896  1
  Ti  Ti28  1  0.15644415  0.21625936  0.41575505  1
  Ti  Ti29  1  0.04606862  0.24719090  0.81913034  1
  Ti  Ti30  1  0.11442789  0.54111079  0.12254559  1
  Ti  Ti31  1  0.09781727  0.57615420  0.43012720  1
  Ti  Ti32  1  0.06470433  0.60285001  0.72132956  1
  Ti  Ti33  1  0.09302773  0.93138745  0.13914550  1
  Ti  Ti34  1  0.07682058  0.89678004  0.38250206  1
  Ti  Ti35  1  0.08256344  0.95226118  0.71955900  1
  Ti  Ti36  1  0.44600141  0.23437792  0.20061421  1
  Ti  Ti37  1  0.44494393  0.23902133  0.40511911  1
  Ti  Ti38  1  0.38198990  0.31668816  0.76532592  1
  Ti  Ti39  1  0.33619911  0.54489128  0.13590909  1
  Ti  Ti40  1  0.43435523  0.55858977  0.45170493  1
  Ti  Ti41  1  0.42477849  0.61518567  0.75216503  1
  Ti  Ti42  1  0.39120750  0.88779001  0.04467795  1
  Ti  Ti43  1  0.39343874  0.87137221  0.38823946  1
  Ti  Ti44  1  0.33354185  0.93747643  0.83498846  1
  Ti  Ti45  1  0.79595937  0.24158852  0.00385471  1
  Ti  Ti46  1  0.74519672  0.24452107  0.39567320  1
  Ti  Ti47  1  0.75059873  0.31879088  0.80059996  1
  Ti  Ti48  1  0.74830048  0.53278837  0.07764456  1
  Ti  Ti49  1  0.75356377  0.57927745  0.40450140  1
  Ti  Ti50  1  0.71156459  0.64636822  0.63734645  1
  Ti  Ti51  1  0.69227681  0.90026849  0.11120913  1
  Ti  Ti52  1  0.75901960  0.93635735  0.41207991  1
  Ti  Ti53  1  0.75156668  0.86052175  0.68810189  1
  Ti  Ti54  1  0.31418052  0.18110150  0.05872893  1
  Ti  Ti55  1  0.26171958  0.00734795  0.46480878  1
  Ti  Ti56  1  0.30334772  0.13369865  0.72767086  1
  Ti  Ti57  1  0.29062656  0.37182955  0.09087692  1
  Ti  Ti58  1  0.19379002  0.41188591  0.36673000  1
  Ti  Ti59  1  0.18715278  0.43960384  0.75475800  1
  Ti  Ti60  1  0.32177167  0.71103790  0.02839243  1
  Ti  Ti61  1  0.29405884  0.70107361  0.45721714  1
  Ti  Ti62  1  0.28077354  0.74716505  0.70935109  1
  Ti  Ti63  1  0.58306733  0.08058464  0.12508057  1
  Ti  Ti64  1  0.56225264  0.03971314  0.46028995  1
  Ti  Ti65  1  0.60983759  0.04948472  0.78624558  1
  Ti  Ti66  1  0.50337531  0.35617883  0.08345694  1
  Ti  Ti67  1  0.58843553  0.47350785  0.39806083  1
  Ti  Ti68  1  0.60160496  0.39904251  0.70852702  1
  Ti  Ti69  1  0.58636185  0.74077509  0.14814642  1
  Ti  Ti70  1  0.58386992  0.81702915  0.43427176  1
  Ti  Ti71  1  0.57199005  0.76518623  0.74439487  1
  Ti  Ti72  1  0.94915386  0.11085141  0.11143496  1
  Ti  Ti73  1  0.84342843  0.09272950  0.44257921  1
  Ti  Ti74  1  0.95186188  0.08217372  0.71149979  1
  Ti  Ti75  1  0.96533187  0.39015084  0.09540720  1
  Ti  Ti76  1  0.92780704  0.47903742  0.40352799  1
  Ti  Ti77  1  1.01689501  0.38466630  0.68893516  1
  Ti  Ti78  1  0.88155230  0.83090748  0.12709338  1
  Ti  Ti79  1  0.89194070  0.79379989  0.35140888  1
  Ti  Ti80  1  0.90875661  0.73522555  0.63675223  1
  Ti  Ti81  1  0.21134021  0.24748040  0.21757741  1
  Ti  Ti82  1  0.21062124  0.27334870  0.61859938  1
  Ti  Ti83  1  0.23318027  0.34298674  0.91170387  1
  Ti  Ti84  1  0.28263095  0.58829739  0.31793838  1
  Ti  Ti85  1  0.19772779  0.60311248  0.59918740  1
  Ti  Ti86  1  0.22926472  0.54218574  0.94049950  1
  Ti  Ti87  1  0.24743590  0.95729292  0.25672964  1
  Ti  Ti88  1  0.27042425  0.95688724  0.65849295  1
  Ti  Ti89  1  0.25270367  0.99881011  1.01767028  1
  Ti  Ti90  1  0.64182000  0.23818335  0.23014338  1
  Ti  Ti91  1  0.54210472  0.24825088  0.58172300  1
  Ti  Ti92  1  0.54644244  0.24413531  0.86602439  1
  Ti  Ti93  1  0.58517970  0.52990935  0.19454746  1
  Ti  Ti94  1  0.53995850  0.57401660  0.61452939  1
  Ti  Ti95  1  0.58734757  0.54678098  0.86023003  1
  Ti  Ti96  1  0.61877341  0.95629839  0.28311534  1
  Ti  Ti97  1  0.54278821  0.92226516  0.63199477  1
  Ti  Ti98  1  0.55997415  0.91685000  0.95668698  1
  Ti  Ti99  1  0.84701368  0.26218343  0.20433245  1
  Ti  Ti100  1  0.89382058  0.32699348  0.53940490  1
  Ti  Ti101  1  0.86192585  0.16700489  0.84275987  1
  Ti  Ti102  1  0.94153734  0.61090323  0.26347365  1
  Ti  Ti103  1  0.86318994  0.54227600  0.58435263  1
  Ti  Ti104  1  0.81410907  0.50439500  0.86282783  1
  Ti  Ti105  1  0.93590798  0.97607143  0.27734900  1
  Ti  Ti106  1  0.97152398  0.96127807  0.54325018  1
  Ti  Ti107  1  0.90342630  0.95436093  0.86003156  1
  Co  Co108  1  0.80168855  0.38025181  0.10887546  1
  Co  Co109  1  0.41649351  -0.06069515  0.53376795  1
  Co  Co110  1  0.45315408  0.56165931  0.28355612  1
  Co  Co111  1  0.34379964  0.13162712  0.23332055  1
  Co  Co112  1  0.70076429  0.17186104  0.86552243  1
  Co  Co113  1  0.18928498  0.84824243  0.78975806  1
  Co  Co114  1  0.68433776  0.16169171  0.52214893  1
  Co  Co115  1  0.01760315  0.08975013  0.88167017  1
  Co  Co116  1  0.61891198  0.76761311  0.58956794  1
  Co  Co117  1  0.90479121  0.64370176  0.44161905  1
  Co  Co118  1  0.23789233  0.10539541  0.33893679  1
  Co  Co119  1  0.87885078  0.08062197  -0.02191880  1
  Co  Co120  1  0.23175592  0.85758751  0.40459836  1
  Co  Co121  1  0.67655240  0.09824124  0.36869140  1
  Co  Co122  1  0.12870008  0.60975901  0.27295270  1
  Co  Co123  1  0.13329522  0.42484614  0.00890889  1
  Co  Co124  1  0.62174885  0.63668460  0.02327455  1
  Co  Co125  1  0.20130135  0.00909452  0.81653933  1
  Co  Co126  1  0.03016306  0.65580077  0.56389368  1
  Co  Co127  1  0.37197893  0.86476590  0.20930879  1
  Co  Co128  1  0.90890775  0.35050463  0.82016321  1
  Co  Co129  1  0.54897532  0.37201902  0.27103885  1
  Co  Co130  1  0.04781129  0.47660531  0.26763045  1
  Co  Co131  1  0.80641772  0.88555425  -0.01672929  1
  Co  Co132  1  0.13599685  -0.07273965  0.53932201  1
  Co  Co133  1  0.30714863  0.27417093  0.33903454  1
  Co  Co134  1  0.29531848  0.17926316  0.48857975  1
  Co  Co135  1  0.76581983  0.41623829  0.44493199  1
  Co  Co136  1  0.58205397  0.48837358  0.02745452  1
  Co  Co137  1  0.78417733  0.01542076  0.76770774  1
  Co  Co138  1  0.53514195  0.12762147  0.29944356  1
  Co  Co139  1  0.49654931  0.76738695  0.01857175  1
  Co  Co140  1  0.03529946  0.71477798  0.35618412  1
  Co  Co141  1  0.14175669  0.74309940  0.47299970  1
  Co  Co142  1  0.27310598  0.34432284  0.48607772  1
  Co  Co143  1  0.63169915  0.22571398  0.71796520  1
  Co  Co144  1  0.52888006  -0.09108149  0.13274781  1
  Co  Co145  1  0.20788434  0.26066745  0.77973162  1
  Co  Co146  1  0.24908225  0.84704363  0.94612183  1
  Co  Co147  1  0.65211586  0.37985702  0.13797946  1
  Co  Co148  1  0.45282432  0.70820219  0.38758403  1
  Co  Co149  1  0.46586384  0.46120005  0.72508234  1
  Co  Co150  1  0.40558537  0.85054735  0.69249364  1
  Co  Co151  1  0.36072140  0.61289057  0.59927026  1
  Co  Co152  1  0.51590048  -0.09200684  0.80369166  1
  Co  Co153  1  0.38211053  0.26990611  0.59686577  1
  Co  Co154  1  0.17562382  0.44270291  0.59090408  1
  Co  Co155  1  0.89048431  0.45328600  0.23098232  1
  Co  Co156  1  0.81541245  0.01249304  0.59945836  1
  Co  Co157  1  0.46816356  0.18061729  0.73175290  1
  Co  Co158  1  0.37760942  0.62405035  -0.09765821  1
  Co  Co159  1  0.43505024  0.02053705  0.71459221  1
  Co  Co160  1  -0.04060830  0.25114421  -0.03796227  1
  Co  Co161  1  0.85730564  0.38909063  -0.03636787  1
  Ni  Ni162  1  0.11695509  0.36766108  0.15878965  1
  Ni  Ni163  1  0.75045925  0.71341377  0.11192729  1
  Ni  Ni164  1  0.78715056  0.90652312  0.25261771  1
  Ni  Ni165  1  0.70292104  0.52171173  0.74320691  1
  Ni  Ni166  1  0.22406365  0.46280658  0.22196122  1
  Ni  Ni167  1  0.93267401  0.15760843  0.30514728  1
  Ni  Ni168  1  0.34476306  0.46657993  0.83743917  1
  Ni  Ni169  1  0.59158539  0.65585069  0.31116689  1
  Ni  Ni170  1  0.27269956  0.51845122  0.47494245  1
  Ni  Ni171  1  0.60472816  0.64527859  0.47538646  1
  Ni  Ni172  1  0.34193508  0.19981049  0.88384799  1
  Ni  Ni173  1  0.25305935  0.59214179  0.77159155  1
  Ni  Ni174  1  -0.12120669  0.32592053  0.36122908  1
  Ni  Ni175  1  0.63011900  0.23421844  0.05054066  1
  Ni  Ni176  1  0.01352809  0.82026876  0.23413579  1
  Ni  Ni177  1  0.57864444  0.08963551  0.62946322  1
  Ni  Ni178  1  0.43095477  0.04983006  0.06547519  1
  Ni  Ni179  1  0.09218651  0.06670142  0.03373660  1
  Ni  Ni180  1  0.83507593  -0.00929153  0.11624438  1
  Ni  Ni181  1  0.23829438  0.84156801  0.11811892  1
  Ni  Ni182  1  0.60163964  0.31230201  0.42541381  1
  Ni  Ni183  1  0.12142568  0.12218208  0.73049127  1
  Ni  Ni184  1  0.28599012  0.83383863  0.55597843  1
  Ni  Ni185  1  -0.01160648  0.22380938  0.44709910  1
  Ni  Ni186  1  0.68950959  0.89325808  0.83819638  1
  Ni  Ni187  1  0.51288515  0.40321370  0.87617551  1
  Ni  Ni188  1  0.04374324  0.23352164  0.62336381  1
  Ni  Ni189  1  0.58444681  0.10023511  -0.04232821  1
  Ni  Ni190  1  -0.08652449  0.90661190  0.69462192  1
  Ni  Ni191  1  0.82014106  0.41434720  0.68431067  1
  Ni  Ni192  1  0.74433908  0.12371415  0.10059145  1
  Ni  Ni193  1  0.39096730  0.33296741  -0.04199629  1
  Ni  Ni194  1  0.74696546  0.59586226  0.23514760  1
  Ni  Ni195  1  0.01812362  0.49850853  0.56907023  1
  Ni  Ni196  1  0.47231767  0.20109834  0.01773145  1
  Ni  Ni197  1  0.02309977  0.06532620  0.42166786  1
  Ni  Ni198  1  0.67537405  0.49439327  0.55853180  1
  Ni  Ni199  1  0.88938545  0.25449521  0.69060913  1
  Ni  Ni200  1  -0.06041394  0.50903418  0.75599038  1
  Ni  Ni201  1  0.03212362  0.22871042  0.17726133  1
  Ni  Ni202  1  0.22582735  0.66936502  0.15425996  1
  Ni  Ni203  1  0.83554696  0.63067783  0.74191952  1
  Ni  Ni204  1  0.40400143  0.07004173  0.39677096  1
  Ni  Ni205  1  0.51380965  0.41251636  0.54636606  1
  Ni  Ni206  1  0.54409327  0.69725580  0.88614649  1
  Ni  Ni207  1  0.47680972  0.62040442  0.10032238  1
  Ni  Ni208  1  0.68175786  0.91619963  0.54798461  1
  Ni  Ni209  1  -0.01781497  0.79426411  0.49261993  1
  Ni  Ni210  1  -0.03539492  -0.05419640  0.02676622  1
  Ni  Ni211  1  -0.07267973  0.13918654  0.56710797  1
  Ni  Ni212  1  0.20463008  0.08789157  0.15598741  1
  Ni  Ni213  1  0.84330032  0.86535308  0.54097105  1
  Ni  Ni214  1  0.52117420  0.82192284  0.27990811  1
