# generated using pymatgen
data_Ti108Co54Ni53
_symmetry_space_group_name_H-M   'P 1'
_cell_length_a   14.65188205
_cell_length_b   14.65627234
_cell_length_c   14.66615747
_cell_angle_alpha   89.92921301
_cell_angle_beta   90.24518286
_cell_angle_gamma   89.87932734
_symmetry_Int_Tables_number   1
_chemical_formula_structural   Ti108Co54Ni53
_chemical_formula_sum   'Ti108 Co54 Ni53'
_cell_volume   3149.40134011
_cell_formula_units_Z   1
loop_
 _symmetry_equiv_pos_site_id
 _symmetry_equiv_pos_as_xyz
  1  'x, y, z'
loop_
 _atom_site_type_symbol
 _atom_site_label
 _atom_site_symmetry_multiplicity
 _atom_site_fract_x
 _atom_site_fract_y
 _atom_site_fract_z
 _atom_site_occupancy
  Ti  Ti0  1  0.05216865  0.04304607  0.17666527  1
  Ti  Ti1  1  0.13465563  0.07570538  0.60966925  1
  Ti  Ti2  1  0.01492751  0.02051560  0.93229943  1
  Ti  Ti3  1  0.09459044  0.45791946  0.22601580  1
  Ti  Ti4  1  0.17778607  0.41920057  0.51103205  1
  Ti  Ti5  1  0.08534386  0.45749346  0.92473876  1
  Ti  Ti6  1  0.13895950  0.77862890  0.25184142  1
  Ti  Ti7  1  0.11536936  0.66511629  0.62491160  1
  Ti  Ti8  1  0.00085995  0.83576154  0.97496744  1
  Ti  Ti9  1  0.36790175  0.11995011  0.24898064  1
  Ti  Ti10  1  0.43127516  0.11200532  0.62793677  1
  Ti  Ti11  1  0.37138148  0.03289583  0.93894393  1
  Ti  Ti12  1  0.47352361  0.44008851  0.28756816  1
  Ti  Ti13  1  0.42117201  0.50669248  0.56668919  1
  Ti  Ti14  1  0.39228388  0.35288695  0.89693016  1
  Ti  Ti15  1  0.41897157  0.75756495  0.23301129  1
  Ti  Ti16  1  0.47036035  0.70822152  0.52113237  1
  Ti  Ti17  1  0.30716671  0.80429328  0.93490875  1
  Ti  Ti18  1  0.75839712  0.10296944  0.35247168  1
  Ti  Ti19  1  0.70757546  0.02899649  0.52174503  1
  Ti  Ti20  1  0.71024668  0.06940700  0.89808478  1
  Ti  Ti21  1  0.80871360  0.41478802  0.27430736  1
  Ti  Ti22  1  0.72362261  0.38019439  0.53059086  1
  Ti  Ti23  1  0.70060412  0.44973195  0.96459931  1
  Ti  Ti24  1  0.77172839  0.72661158  0.27199871  1
  Ti  Ti25  1  0.78031390  0.70144450  0.53429847  1
  Ti  Ti26  1  0.80019728  0.76763489  0.84813561  1
  Ti  Ti27  1  0.09321013  0.26208244  0.07162273  1
  Ti  Ti28  1  0.07738661  0.22292908  0.38357347  1
  Ti  Ti29  1  0.11752694  0.25620091  0.83115514  1
  Ti  Ti30  1  0.04121575  0.56458830  0.07768171  1
  Ti  Ti31  1  0.07973334  0.62902188  0.37802152  1
  Ti  Ti32  1  0.03580597  0.70198965  0.81055328  1
  Ti  Ti33  1  0.14010302  0.89926499  0.08812326  1
  Ti  Ti34  1  0.06693181  0.98753882  0.44560098  1
  Ti  Ti35  1  0.06469209  0.92204740  0.74358197  1
  Ti  Ti36  1  0.44502646  0.18666023  0.06914043  1
  Ti  Ti37  1  0.42170146  0.17139656  0.45227941  1
  Ti  Ti38  1  0.36320514  0.25497928  0.73582418  1
  Ti  Ti39  1  0.42069028  0.55286651  0.03303236  1
  Ti  Ti40  1  0.49697262  0.59690252  0.37568390  1
  Ti  Ti41  1  0.39949279  0.60592170  0.73859754  1
  Ti  Ti42  1  0.43302134  0.90080071  0.08974744  1
  Ti  Ti43  1  0.39283224  0.98040648  0.45429424  1
  Ti  Ti44  1  0.41903631  0.89461265  0.78445403  1
  Ti  Ti45  1  0.76087954  0.31977403  0.10096360  1
  Ti  Ti46  1  0.71034025  0.28890417  0.35814524  1
  Ti  Ti47  1  0.71271039  0.21114810  0.74963252  1
  Ti  Ti48  1  0.73062923  0.64181969  0.01564027  1
  Ti  Ti49  1  0.74522814  0.54774711  0.41852154  1
  Ti  Ti50  1  0.72706851  0.65982756  0.71744632  1
  Ti  Ti51  1  0.75898227  0.95300657  0.10719768  1
  Ti  Ti52  1  0.72303132  0.91691318  0.34343449  1
  Ti  Ti53  1  0.75355024  0.87039619  0.67377872  1
  Ti  Ti54  1  0.23382942  0.08560944  0.09055277  1
  Ti  Ti55  1  0.23578362  0.07878141  0.38811213  1
  Ti  Ti56  1  0.28250041  0.04449937  0.72940691  1
  Ti  Ti57  1  0.24084651  0.39078733  0.07893565  1
  Ti  Ti58  1  0.35165066  0.38651854  0.44595294  1
  Ti  Ti59  1  0.26515135  0.44243922  0.76546049  1
  Ti  Ti60  1  0.21601749  0.70867073  0.07975090  1
  Ti  Ti61  1  0.21644667  0.73186129  0.45298821  1
  Ti  Ti62  1  0.21666233  0.63908793  0.79702596  1
  Ti  Ti63  1  0.62486321  0.09174661  0.07710081  1
  Ti  Ti64  1  0.54622774  0.02272895  0.35031908  1
  Ti  Ti65  1  0.61678705  0.03445032  0.70696370  1
  Ti  Ti66  1  0.55618177  0.44905901  0.10846703  1
  Ti  Ti67  1  0.53800904  0.33565182  0.44791143  1
  Ti  Ti68  1  0.59942815  0.38671951  0.68534621  1
  Ti  Ti69  1  0.55009610  0.70623375  0.07691941  1
  Ti  Ti70  1  0.62968591  0.75297367  0.40905460  1
  Ti  Ti71  1  0.56034029  0.74786055  0.80121657  1
  Ti  Ti72  1  0.92537942  0.15408502  0.05240217  1
  Ti  Ti73  1  0.94673420  0.08256497  0.35129484  1
  Ti  Ti74  1  0.94131965  0.10455964  0.71440719  1
  Ti  Ti75  1  0.88971482  0.46073664  0.02410182  1
  Ti  Ti76  1  0.95546797  0.49201357  0.37479201  1
  Ti  Ti77  1  0.85274455  0.50095021  0.73557726  1
  Ti  Ti78  1  0.86567575  0.78490140  0.11019664  1
  Ti  Ti79  1  0.98482726  0.76078061  0.50427061  1
  Ti  Ti80  1  0.90943680  0.69052166  0.68162172  1
  Ti  Ti81  1  0.29253229  0.36079557  0.26987537  1
  Ti  Ti82  1  0.26783612  0.22937415  0.55237505  1
  Ti  Ti83  1  0.27752561  0.22792302  0.98004655  1
  Ti  Ti84  1  0.29569757  0.59064256  0.26230334  1
  Ti  Ti85  1  0.30427486  0.68342679  0.60484622  1
  Ti  Ti86  1  0.26757948  0.54435332  0.94064442  1
  Ti  Ti87  1  0.27444824  0.87853521  0.33692365  1
  Ti  Ti88  1  0.26502910  0.88230265  0.62482689  1
  Ti  Ti89  1  0.18965243  0.99399390  0.90622459  1
  Ti  Ti90  1  0.56478962  0.19422761  0.25076603  1
  Ti  Ti91  1  0.61322420  0.20513277  0.57577813  1
  Ti  Ti92  1  0.62046048  0.25458172  0.95256616  1
  Ti  Ti93  1  0.64681007  0.56996335  0.23945503  1
  Ti  Ti94  1  0.56669329  0.59243117  0.66609581  1
  Ti  Ti95  1  0.57294281  0.58002810  0.89242302  1
  Ti  Ti96  1  0.58323006  0.87731546  0.21974966  1
  Ti  Ti97  1  0.55265535  0.88991143  0.54066859  1
  Ti  Ti98  1  0.56520205  0.93953248  0.90434205  1
  Ti  Ti99  1  0.86717116  0.22613953  0.24435844  1
  Ti  Ti100  1  0.88117004  0.25167294  0.58298925  1
  Ti  Ti101  1  0.83042185  0.26393309  0.90617919  1
  Ti  Ti102  1  0.96501310  0.65981858  0.23210693  1
  Ti  Ti103  1  0.87766738  0.51736302  0.55337047  1
  Ti  Ti104  1  0.92250349  0.66626268  0.96340718  1
  Ti  Ti105  1  0.90074269  0.91599804  0.27631820  1
  Ti  Ti106  1  0.87599962  0.92785500  0.49323048  1
  Ti  Ti107  1  0.84925744  0.94928650  0.91660827  1
  Co  Co108  1  0.10466879  0.82991283  0.41147845  1
  Co  Co109  1  0.57716116  -0.11976484  0.71293580  1
  Co  Co110  1  0.63567019  0.75725808  -0.05652153  1
  Co  Co111  1  0.71664749  0.18966154  0.19142034  1
  Co  Co112  1  0.60102650  -0.11063887  0.05417563  1
  Co  Co113  1  0.28501335  -0.06655095  0.03828870  1
  Co  Co114  1  0.86195835  0.61165506  0.11202821  1
  Co  Co115  1  0.58886686  0.28649679  0.10565976  1
  Co  Co116  1  0.52006648  0.08690111  -0.03923231  1
  Co  Co117  1  0.72157731  0.52849430  0.61317311  1
  Co  Co118  1  0.32943904  0.75523564  0.76270924  1
  Co  Co119  1  0.01469986  0.15438443  0.52653791  1
  Co  Co120  1  0.00750627  0.59381673  0.52773999  1
  Co  Co121  1  0.89694753  0.22585885  0.41262630  1
  Co  Co122  1  0.89586903  0.64412841  0.40621691  1
  Co  Co123  1  0.21570334  -0.06426199  0.48129808  1
  Co  Co124  1  0.13629624  0.62017501  0.21688673  1
  Co  Co125  1  0.76280593  0.83194666  -0.00682896  1
  Co  Co126  1  0.61685330  0.46460094  0.38106432  1
  Co  Co127  1  0.20530124  0.19943608  0.69887426  1
  Co  Co128  1  0.71636690  0.86074056  0.50574299  1
  Co  Co129  1  0.87468774  0.08829234  0.51373282  1
  Co  Co130  1  0.93765868  0.32306655  0.12618965  1
  Co  Co131  1  0.69614951  0.35312468  0.83510051  1
  Co  Co132  1  0.43160854  -0.04996513  0.63357225  1
  Co  Co133  1  0.23797205  -0.01044576  0.21932838  1
  Co  Co134  1  0.58344698  0.14016887  0.83236205  1
  Co  Co135  1  -0.02306664  0.78483554  0.33306270  1
  Co  Co136  1  0.29059143  0.83492148  0.16703996  1
  Co  Co137  1  0.36573006  0.47545783  0.16317528  1
  Co  Co138  1  0.05204863  0.72536757  0.08655393  1
  Co  Co139  1  -0.05664504  0.83748234  0.81790043  1
  Co  Co140  1  0.10328297  0.09316241  0.78868656  1
  Co  Co141  1  0.57750368  0.46616294  0.54095147  1
  Co  Co142  1  0.82404636  0.57440344  0.26843558  1
  Co  Co143  1  0.60279984  0.16815252  0.41269786  1
  Co  Co144  1  0.53779111  0.42098522  -0.04783438  1
  Co  Co145  1  0.69932738  0.89854442  0.83138945  1
  Co  Co146  1  0.77754994  0.11610424  0.63958563  1
  Co  Co147  1  0.61540990  0.61799585  0.50488507  1
  Co  Co148  1  0.42400816  0.27099824  0.34160089  1
  Co  Co149  1  0.83946394  0.42314507  -0.12556061  1
  Co  Co150  1  0.17346320  0.57585227  0.50152485  1
  Co  Co151  1  0.29196955  0.06426109  0.55854479  1
  Co  Co152  1  0.38258931  0.71226485  0.06828537  1
  Co  Co153  1  0.44991862  0.29790044  0.58485413  1
  Co  Co154  1  0.24927716  0.53646936  0.63864233  1
  Co  Co155  1  0.09848405  0.86416060  0.57887224  1
  Co  Co156  1  0.85325190  0.37728278  0.43640292  1
  Co  Co157  1  0.09136287  -0.06071806  0.28966398  1
  Co  Co158  1  0.58257792  0.71719627  0.25831633  1
  Co  Co159  1  0.45836544  0.77265765  0.66506372  1
  Co  Co160  1  0.53038488  0.21133843  0.70572497  1
  Co  Co161  1  -0.06573595  0.47727358  0.19144347  1
  Ni  Ni162  1  0.48118911  0.84132728  0.37997883  1
  Ni  Ni163  1  -0.01901720  0.32396139  -0.04167708  1
  Ni  Ni164  1  0.16512736  0.78501969  0.72082263  1
  Ni  Ni165  1  0.63968107  0.38104876  0.23643582  1
  Ni  Ni166  1  0.14306757  0.30433085  0.23135000  1
  Ni  Ni167  1  0.54216917  0.05368688  0.52118269  1
  Ni  Ni168  1  0.77700246  0.35910192  0.68943963  1
  Ni  Ni169  1  0.24355383  0.25336875  0.38684236  1
  Ni  Ni170  1  0.18693873  0.14936484  0.24530753  1
  Ni  Ni171  1  0.68275174  0.50731040  0.78047566  1
  Ni  Ni172  1  0.66426681  0.03349903  0.23037961  1
  Ni  Ni173  1  0.26419364  0.14999886  0.84615409  1
  Ni  Ni174  1  0.35630930  0.82721735  0.49629158  1
  Ni  Ni175  1  0.12431636  0.14190446  -0.04302261  1
  Ni  Ni176  1  0.22045254  0.36819658  0.91075850  1
  Ni  Ni177  1  -0.02492054  0.17306288  0.87517677  1
  Ni  Ni178  1  0.25040345  0.89570126  0.79746269  1
  Ni  Ni179  1  -0.03386661  0.54595599  0.85947042  1
  Ni  Ni180  1  0.53446852  0.31211794  0.82267396  1
  Ni  Ni181  1  0.42153850  0.50725907  0.86397877  1
  Ni  Ni182  1  -0.07057993  -0.02918074  0.07929462  1
  Ni  Ni183  1  0.40937570  0.35840524  0.05377541  1
  Ni  Ni184  1  0.47614508  0.59667213  0.19388245  1
  Ni  Ni185  1  0.40668234  -0.05357996  0.26341989  1
  Ni  Ni186  1  0.31077128  0.38063862  0.61640539  1
  Ni  Ni187  1  0.84867980  0.06379195  0.20053952  1
  Ni  Ni188  1  0.62464466  0.75252619  0.61327464  1
  Ni  Ni189  1  0.44549132  0.07165189  0.79310581  1
  Ni  Ni190  1  0.74215785  0.49263677  0.12806820  1
  Ni  Ni191  1  -0.01090429  -0.00526853  0.59810295  1
  Ni  Ni192  1  0.92982159  0.85207482  0.64970371  1
  Ni  Ni193  1  0.36477801  0.71322379  0.37777210  1
  Ni  Ni194  1  0.44689590  0.30251814  0.19289951  1
  Ni  Ni195  1  0.14190268  0.80799936  -0.11130181  1
  Ni  Ni196  1  0.40195706  0.66777056  0.89749314  1
  Ni  Ni197  1  0.79667367  0.01576888  0.76373400  1
  Ni  Ni198  1  0.32763329  0.56465003  0.43837035  1
  Ni  Ni199  1  0.11835650  0.64198366  0.94779898  1
  Ni  Ni200  1  0.00606174  0.85135142  0.17231724  1
  Ni  Ni201  1  0.82956153  0.79682318  0.40474362  1
  Ni  Ni202  1  0.02348049  0.19801130  0.21251351  1
  Ni  Ni203  1  0.75337843  0.19791782  0.49356330  1
  Ni  Ni204  1  -0.02092593  0.34164011  0.29729734  1
  Ni  Ni205  1  0.28865147  0.24036241  0.14680419  1
  Ni  Ni206  1  0.79990824  0.59406091  0.86690870  1
  Ni  Ni207  1  0.20849177  0.54414349  0.09565724  1
  Ni  Ni208  1  0.19814397  0.49020718  0.35834703  1
  Ni  Ni209  1  0.49829743  0.04236196  0.16591883  1
  Ni  Ni210  1  0.76451980  0.16395513  0.02885395  1
  Ni  Ni211  1  0.69363844  0.77485546  0.13314038  1
  Ni  Ni212  1  0.01209753  0.55784777  0.69815532  1
  Ni  Ni213  1  0.47757863  0.80212374  -0.04590144  1
  Ni  Ni214  1  0.43584932  0.41679648  0.72189486  1
