# generated using pymatgen
data_Ti108Co54Ni53
_symmetry_space_group_name_H-M   'P 1'
_cell_length_a   14.64729515
_cell_length_b   14.77263176
_cell_length_c   14.59644345
_cell_angle_alpha   90.20127239
_cell_angle_beta   89.91675601
_cell_angle_gamma   89.90107050
_symmetry_Int_Tables_number   1
_chemical_formula_structural   Ti108Co54Ni53
_chemical_formula_sum   'Ti108 Co54 Ni53'
_cell_volume   3158.33770511
_cell_formula_units_Z   1
loop_
 _symmetry_equiv_pos_site_id
 _symmetry_equiv_pos_as_xyz
  1  'x, y, z'
loop_
 _atom_site_type_symbol
 _atom_site_label
 _atom_site_symmetry_multiplicity
 _atom_site_fract_x
 _atom_site_fract_y
 _atom_site_fract_z
 _atom_site_occupancy
  Ti  Ti0  1  0.05817381  0.08992207  0.19551954  1
  Ti  Ti1  1  0.13780863  0.04135412  0.52816150  1
  Ti  Ti2  1  0.01308989  0.06127368  0.89681750  1
  Ti  Ti3  1  0.08793413  0.41416819  0.22950181  1
  Ti  Ti4  1  0.02022370  0.46348052  0.60054210  1
  Ti  Ti5  1  0.03348813  0.37135478  0.93401153  1
  Ti  Ti6  1  0.10478891  0.75047119  0.26724894  1
  Ti  Ti7  1  0.04924070  0.75184384  0.58664765  1
  Ti  Ti8  1  0.10310823  0.76463639  0.96775075  1
  Ti  Ti9  1  0.39930027  0.05471528  0.23008327  1
  Ti  Ti10  1  0.37339344  0.04630920  0.62331177  1
  Ti  Ti11  1  0.39358981  0.13527666  0.94818638  1
  Ti  Ti12  1  0.45816743  0.47751122  0.08038703  1
  Ti  Ti13  1  0.41135535  0.40665900  0.60013690  1
  Ti  Ti14  1  0.44438898  0.43800687  0.87101137  1
  Ti  Ti15  1  0.44718461  0.73100710  0.24743664  1
  Ti  Ti16  1  0.38027777  0.71353075  0.52884605  1
  Ti  Ti17  1  0.44964469  0.74002287  0.86895063  1
  Ti  Ti18  1  0.76905295  0.02022069  0.31471073  1
  Ti  Ti19  1  0.79176173  0.03761573  0.65723888  1
  Ti  Ti20  1  0.76478042  0.05840084  0.95545221  1
  Ti  Ti21  1  0.73300020  0.43390974  0.20674889  1
  Ti  Ti22  1  0.70588231  0.35618891  0.58340484  1
  Ti  Ti23  1  0.75723192  0.48204140  0.86904401  1
  Ti  Ti24  1  0.79068155  0.76302387  0.22001414  1
  Ti  Ti25  1  0.71413940  0.72939624  0.55457552  1
  Ti  Ti26  1  0.76521820  0.77153584  0.91974809  1
  Ti  Ti27  1  0.04601075  0.25844280  0.08710354  1
  Ti  Ti28  1  0.12039822  0.22199527  0.44299831  1
  Ti  Ti29  1  0.04733272  0.31752149  0.72937136  1
  Ti  Ti30  1  0.13494922  0.56612030  0.06460621  1
  Ti  Ti31  1  0.02498893  0.64192119  0.40790254  1
  Ti  Ti32  1  0.13572404  0.51305353  0.75277902  1
  Ti  Ti33  1  0.06871135  0.95984839  0.03654094  1
  Ti  Ti34  1  0.03671066  0.94551928  0.36205739  1
  Ti  Ti35  1  0.13025272  1.03988986  0.72810493  1
  Ti  Ti36  1  0.51623525  0.21599876  0.08900525  1
  Ti  Ti37  1  0.46422824  0.24957621  0.50684506  1
  Ti  Ti38  1  0.48385958  0.22203893  0.80361040  1
  Ti  Ti39  1  0.39360727  0.67054548  0.05603182  1
  Ti  Ti40  1  0.46209347  0.51787009  0.43484259  1
  Ti  Ti41  1  0.35412643  0.55923741  0.72255580  1
  Ti  Ti42  1  0.35964487  0.87879997  0.14601730  1
  Ti  Ti43  1  0.44819933  0.96182619  0.43308276  1
  Ti  Ti44  1  0.42849824  0.89502723  0.75004719  1
  Ti  Ti45  1  0.73461392  0.24514265  0.11919596  1
  Ti  Ti46  1  0.77033332  0.21239988  0.42155189  1
  Ti  Ti47  1  0.78778798  0.24582594  0.74643707  1
  Ti  Ti48  1  0.65662680  0.56645408  0.03958766  1
  Ti  Ti49  1  0.66521351  0.56159964  0.46965385  1
  Ti  Ti50  1  0.68691082  0.55100790  0.67976808  1
  Ti  Ti51  1  0.73158792  0.89513771  0.09869983  1
  Ti  Ti52  1  0.74719693  0.90442333  0.48377344  1
  Ti  Ti53  1  0.78488018  0.89156055  0.77436935  1
  Ti  Ti54  1  0.26023851  0.04102789  0.05776436  1
  Ti  Ti55  1  0.26553685  0.02069074  0.37509800  1
  Ti  Ti56  1  0.26783679  0.17914337  0.77690477  1
  Ti  Ti57  1  0.27980919  0.42815091  0.00201698  1
  Ti  Ti58  1  0.18637339  0.40990772  0.44824896  1
  Ti  Ti59  1  0.25496767  0.35750864  0.70056739  1
  Ti  Ti60  1  0.23135775  0.72393822  0.12083291  1
  Ti  Ti61  1  0.21108475  0.73634504  0.44170209  1
  Ti  Ti62  1  0.13883042  0.75810941  0.76736887  1
  Ti  Ti63  1  0.60265071  0.04333700  0.08160878  1
  Ti  Ti64  1  0.61966399  0.03932077  0.41516098  1
  Ti  Ti65  1  0.62795257  0.00709379  0.78393077  1
  Ti  Ti66  1  0.61130698  0.38365671  0.02116635  1
  Ti  Ti67  1  0.62000362  0.39612754  0.36804482  1
  Ti  Ti68  1  0.63351787  0.35112868  0.79436042  1
  Ti  Ti69  1  0.58817433  0.76147895  0.02108322  1
  Ti  Ti70  1  0.61420384  0.74129590  0.36001754  1
  Ti  Ti71  1  0.56300423  0.75871855  0.67581376  1
  Ti  Ti72  1  0.90131634  0.13041536  0.09148080  1
  Ti  Ti73  1  0.95305844  0.13456663  0.37497594  1
  Ti  Ti74  1  0.95741006  0.14530924  0.70706827  1
  Ti  Ti75  1  0.92110463  0.42107485  0.13265225  1
  Ti  Ti76  1  0.93438571  0.47246020  0.43811113  1
  Ti  Ti77  1  0.93397702  0.50210409  0.77260330  1
  Ti  Ti78  1  0.97142701  0.69810230  0.11668138  1
  Ti  Ti79  1  0.89034509  0.78367882  0.46318286  1
  Ti  Ti80  1  0.94314751  0.77138232  0.76084950  1
  Ti  Ti81  1  0.22669717  0.25511477  0.15829300  1
  Ti  Ti82  1  0.25716717  0.21178976  0.57191156  1
  Ti  Ti83  1  0.22075235  0.23772211  0.96992459  1
  Ti  Ti84  1  0.23222130  0.58742731  0.27491703  1
  Ti  Ti85  1  0.22490078  0.65620017  0.63091716  1
  Ti  Ti86  1  0.26651838  0.62424885  0.90344276  1
  Ti  Ti87  1  0.18489143  0.93416434  0.21306957  1
  Ti  Ti88  1  0.25874982  0.86955266  0.64566965  1
  Ti  Ti89  1  0.20594105  0.90983319  0.87097165  1
  Ti  Ti90  1  0.62087279  0.16517410  0.25850166  1
  Ti  Ti91  1  0.65051994  0.16593190  0.58617296  1
  Ti  Ti92  1  0.65744075  0.21310731  0.93510027  1
  Ti  Ti93  1  0.67758745  0.60683175  0.24157504  1
  Ti  Ti94  1  0.51366865  0.58123032  0.61134673  1
  Ti  Ti95  1  0.64959310  0.65390318  0.84479993  1
  Ti  Ti96  1  0.54352756  0.91715792  0.25299381  1
  Ti  Ti97  1  0.57246256  0.96824239  0.60357031  1
  Ti  Ti98  1  0.52775890  0.93231543  0.92360274  1
  Ti  Ti99  1  0.92628268  0.26593180  0.24477817  1
  Ti  Ti100  1  0.95779330  0.28281187  0.52396077  1
  Ti  Ti101  1  0.90569997  0.21203144  0.89899386  1
  Ti  Ti102  1  0.89773333  0.57940075  0.26895713  1
  Ti  Ti103  1  0.87418794  0.63639182  0.63511898  1
  Ti  Ti104  1  0.85185931  0.61351359  0.97668157  1
  Ti  Ti105  1  0.95482514  0.88522104  0.18818646  1
  Ti  Ti106  1  0.96801732  0.93683290  0.57801428  1
  Ti  Ti107  1  0.89506786  0.90878965  0.92811710  1
  Co  Co108  1  0.29720132  0.77071498  -0.03981104  1
  Co  Co109  1  0.34132834  0.29926654  0.86708702  1
  Co  Co110  1  0.13477122  0.39042541  0.06547988  1
  Co  Co111  1  0.69229013  -0.12333299  0.64587536  1
  Co  Co112  1  -0.10666422  0.34545183  0.65220507  1
  Co  Co113  1  0.59993436  0.31944175  0.19117556  1
  Co  Co114  1  0.40530382  0.72019299  0.69253505  1
  Co  Co115  1  0.09606209  0.23377040  0.26841491  1
  Co  Co116  1  0.83532798  0.07292203  0.81189184  1
  Co  Co117  1  0.77565338  0.42429189  0.72224567  1
  Co  Co118  1  0.04826203  0.80264654  0.42715258  1
  Co  Co119  1  0.50894011  0.09922349  0.51549967  1
  Co  Co120  1  0.56931636  0.43135048  0.54438889  1
  Co  Co121  1  0.90049521  0.34815387  0.81313667  1
  Co  Co122  1  0.80644218  0.16423220  0.25389643  1
  Co  Co123  1  0.73772431  0.73401029  0.71909822  1
  Co  Co124  1  -0.02166364  0.54281625  0.07379462  1
  Co  Co125  1  0.87106902  0.80480239  0.05238881  1
  Co  Co126  1  -0.10823160  -0.02222572  0.07190605  1
  Co  Co127  1  0.08798107  0.89256264  0.68747850  1
  Co  Co128  1  0.35907723  -0.10178442  0.30742009  1
  Co  Co129  1  0.11881475  0.12199056  0.04449393  1
  Co  Co130  1  0.18842212  0.87688227  0.36475290  1
  Co  Co131  1  0.12920822  0.33421214  0.58268515  1
  Co  Co132  1  0.10605833  0.64033342  0.86151056  1
  Co  Co133  1  0.77280771  0.70192787  0.36818178  1
  Co  Co134  1  -0.09861230  -0.01357671  0.43501276  1
  Co  Co135  1  -0.04800331  0.73195190  -0.08294926  1
  Co  Co136  1  0.90997946  0.03087326  0.24132083  1
  Co  Co137  1  0.09475970  0.50880582  0.36240328  1
  Co  Co138  1  0.14332593  -0.11462556  0.52833578  1
  Co  Co139  1  0.58738127  0.86481844  0.47341681  1
  Co  Co140  1  0.76946448  0.51812936  0.35897955  1
  Co  Co141  1  0.50037416  0.29787546  0.94344058  1
  Co  Co142  1  0.73306725  0.70871752  0.07685520  1
  Co  Co143  1  0.55989944  0.09469226  -0.06819982  1
  Co  Co144  1  0.61870636  0.77646500  0.18573005  1
  Co  Co145  1  0.09053993  0.82058376  0.12199111  1
  Co  Co146  1  0.09577075  0.17596649  0.62198213  1
  Co  Co147  1  0.73470491  0.30047002  0.29242353  1
  Co  Co148  1  0.23137416  0.10644294  0.21742622  1
  Co  Co149  1  -0.00800341  0.55679437  0.91205738  1
  Co  Co150  1  0.88147196  0.40694969  0.29876761  1
  Co  Co151  1  0.03826466  0.63124262  0.69691294  1
  Co  Co152  1  0.85548488  0.82321166  0.62597796  1
  Co  Co153  1  0.57454703  0.47646932  0.19348933  1
  Co  Co154  1  0.36842556  0.64283483  0.37636856  1
  Co  Co155  1  -0.05529685  0.74157794  0.29913173  1
  Co  Co156  1  0.68963371  -0.08057914  -0.06083713  1
  Co  Co157  1  0.44731297  0.79743718  0.39974432  1
  Co  Co158  1  0.06201964  0.59072883  0.22056569  1
  Co  Co159  1  0.68580772  -0.12174170  0.31284502  1
  Co  Co160  1  0.35748852  0.15905712  0.11371453  1
  Co  Co161  1  0.35074694  0.55437133  0.55024794  1
  Ni  Ni162  1  0.30750165  0.87774868  0.48175752  1
  Ni  Ni163  1  0.09869016  0.59000162  0.54095859  1
  Ni  Ni164  1  0.12284562  0.08917129  0.34750891  1
  Ni  Ni165  1  0.82277623  0.48337019  0.57245202  1
  Ni  Ni166  1  0.29861339  0.55159344  0.11893799  1
  Ni  Ni167  1  0.28343538  0.45857905  0.83225658  1
  Ni  Ni168  1  0.54654990  0.70268476  0.50415689  1
  Ni  Ni169  1  0.17472558  0.33841376  0.84710599  1
  Ni  Ni170  1  0.85127817  0.61501978  0.47334366  1
  Ni  Ni171  1  0.43846412  0.01850469  0.06191492  1
  Ni  Ni172  1  0.50366679  0.60453813  0.78392170  1
  Ni  Ni173  1  0.53740366  0.63014835  0.13543671  1
  Ni  Ni174  1  0.43800419  0.83552221  0.01729883  1
  Ni  Ni175  1  0.77288531  0.32449422  -0.07935150  1
  Ni  Ni176  1  0.82479305  0.20072123  0.58973202  1
  Ni  Ni177  1  0.77856824  0.06951684  0.49639264  1
  Ni  Ni178  1  0.54916979  0.28984648  0.65820286  1
  Ni  Ni179  1  -0.03772406  0.10704908  0.53909820  1
  Ni  Ni180  1  0.22227027  0.88119312  0.04499133  1
  Ni  Ni181  1  0.75631413  0.05779419  0.14408705  1
  Ni  Ni182  1  0.21478981  0.48249667  0.59961616  1
  Ni  Ni183  1  0.51558632  0.12016953  0.67443314  1
  Ni  Ni184  1  0.23104570  0.57249292  0.44582551  1
  Ni  Ni185  1  0.85397561  0.87627766  0.32737603  1
  Ni  Ni186  1  0.61845288  0.82422712  0.81831421  1
  Ni  Ni187  1  0.79171082  0.37668755  0.44001435  1
  Ni  Ni188  1  0.81246858  0.57311136  0.13068895  1
  Ni  Ni189  1  0.48036228  0.12435224  0.35766690  1
  Ni  Ni190  1  0.02887275  0.34587080  0.37627840  1
  Ni  Ni191  1  0.60326882  0.22863145  0.41550039  1
  Ni  Ni192  1  0.45172391  0.04884479  0.81087767  1
  Ni  Ni193  1  0.28081921  0.75683107  0.28236928  1
  Ni  Ni194  1  0.59530987  0.49646360  0.87549267  1
  Ni  Ni195  1  0.52812851  0.45147899  0.71778195  1
  Ni  Ni196  1  0.35502571  -0.04886686  -0.07276107  1
  Ni  Ni197  1  0.38867963  0.24631643  0.66590720  1
  Ni  Ni198  1  -0.05439509  -0.03065306  0.74645005  1
  Ni  Ni199  1  0.34864302  0.11686294  0.47394453  1
  Ni  Ni200  1  0.29571331  0.00982225  0.77226265  1
  Ni  Ni201  1  0.87817898  0.29108087  0.04326615  1
  Ni  Ni202  1  0.20057754  0.07810259  0.89815604  1
  Ni  Ni203  1  0.44094384  0.86345516  0.58223557  1
  Ni  Ni204  1  0.14685029  0.48911896  -0.08110506  1
  Ni  Ni205  1  0.29960160  0.77826191  0.79538811  1
  Ni  Ni206  1  0.82304113  0.63217784  0.80750961  1
  Ni  Ni207  1  0.37418338  0.30264180  0.04226815  1
  Ni  Ni208  1  -0.10751710  0.44092710  -0.04353978  1
  Ni  Ni209  1  0.52297874  0.59096979  0.30274836  1
  Ni  Ni210  1  0.09396248  0.18992128  0.82549469  1
  Ni  Ni211  1  0.50738105  0.60237905  -0.03949208  1
  Ni  Ni212  1  0.64788511  0.16450031  0.76901737  1
  Ni  Ni213  1  0.04280411  0.88671275  0.85514120  1
  Ni  Ni214  1  0.76576175  0.42925862  0.04838436  1
