# generated using pymatgen
data_Ti108Co54Ni53
_symmetry_space_group_name_H-M   'P 1'
_cell_length_a   14.67340609
_cell_length_b   14.63666005
_cell_length_c   14.61621679
_cell_angle_alpha   89.83738107
_cell_angle_beta   90.42326850
_cell_angle_gamma   89.66093291
_symmetry_Int_Tables_number   1
_chemical_formula_structural   Ti108Co54Ni53
_chemical_formula_sum   'Ti108 Co54 Ni53'
_cell_volume   3138.96620270
_cell_formula_units_Z   1
loop_
 _symmetry_equiv_pos_site_id
 _symmetry_equiv_pos_as_xyz
  1  'x, y, z'
loop_
 _atom_site_type_symbol
 _atom_site_label
 _atom_site_symmetry_multiplicity
 _atom_site_fract_x
 _atom_site_fract_y
 _atom_site_fract_z
 _atom_site_occupancy
  Ti  Ti0  1  0.13826147  0.00639284  0.23903699  1
  Ti  Ti1  1  0.09972627  0.10953352  0.54214208  1
  Ti  Ti2  1  0.00079558  0.15735640  0.96820661  1
  Ti  Ti3  1  0.08423821  0.41697591  0.33791552  1
  Ti  Ti4  1  0.10079894  0.42889505  0.53404491  1
  Ti  Ti5  1  0.09842504  0.36959891  0.88304632  1
  Ti  Ti6  1  0.01965882  0.73281906  0.22980665  1
  Ti  Ti7  1  0.07262484  0.73965525  0.64669043  1
  Ti  Ti8  1  0.12955219  0.72176852  0.94121845  1
  Ti  Ti9  1  0.44890442  0.09563111  0.30476261  1
  Ti  Ti10  1  0.48463269  0.16278617  0.48878600  1
  Ti  Ti11  1  0.41281228  0.04643742  0.87341017  1
  Ti  Ti12  1  0.40794200  0.45274646  0.22158951  1
  Ti  Ti13  1  0.46298310  0.40883516  0.56680251  1
  Ti  Ti14  1  0.42284084  0.40344088  0.95145616  1
  Ti  Ti15  1  0.33577168  0.75414923  0.28463532  1
  Ti  Ti16  1  0.47841961  0.71273499  0.56582601  1
  Ti  Ti17  1  0.33304451  0.73187905  0.94725203  1
  Ti  Ti18  1  0.79021775  0.06836201  0.28937543  1
  Ti  Ti19  1  0.70428409  0.11807788  0.57129087  1
  Ti  Ti20  1  0.72848070  0.07970214  0.85610068  1
  Ti  Ti21  1  0.76116834  0.42038437  0.26653183  1
  Ti  Ti22  1  0.79677702  0.45488589  0.58023304  1
  Ti  Ti23  1  0.73084643  0.40515451  0.91720963  1
  Ti  Ti24  1  0.72298202  0.76014351  0.28087608  1
  Ti  Ti25  1  0.75207705  0.77735357  0.62266608  1
  Ti  Ti26  1  0.72522369  0.69534897  0.92660454  1
  Ti  Ti27  1  0.03125369  0.30260401  0.11841334  1
  Ti  Ti28  1  0.10782741  0.17196104  0.34664874  1
  Ti  Ti29  1  0.05225011  0.33051492  0.69245763  1
  Ti  Ti30  1  0.06293378  0.59327160  0.08799002  1
  Ti  Ti31  1  0.03813979  0.62622116  0.42832846  1
  Ti  Ti32  1  0.09842579  0.51699940  0.73702259  1
  Ti  Ti33  1  0.09692372  1.01486587  0.04109260  1
  Ti  Ti34  1  0.05834695  0.89563941  0.36060058  1
  Ti  Ti35  1  0.11643316  0.86820947  0.78894830  1
  Ti  Ti36  1  0.42109038  0.18945808  0.02271212  1
  Ti  Ti37  1  0.41637247  0.31147042  0.36990250  1
  Ti  Ti38  1  0.45879527  0.26478315  0.80970381  1
  Ti  Ti39  1  0.45401237  0.56506952  0.06176620  1
  Ti  Ti40  1  0.33953325  0.64422826  0.43849477  1
  Ti  Ti41  1  0.39450423  0.55302566  0.73607353  1
  Ti  Ti42  1  0.40793052  0.96475592  0.04452809  1
  Ti  Ti43  1  0.46886384  0.84623028  0.39695630  1
  Ti  Ti44  1  0.48256908  0.90517015  0.73393146  1
  Ti  Ti45  1  0.76355577  0.21825693  0.02703288  1
  Ti  Ti46  1  0.70635584  0.24620160  0.38874253  1
  Ti  Ti47  1  0.65251441  0.26085971  0.78706604  1
  Ti  Ti48  1  0.74316574  0.58125764  0.12216550  1
  Ti  Ti49  1  0.79067702  0.66333143  0.45674071  1
  Ti  Ti50  1  0.78639973  0.54945529  0.78576824  1
  Ti  Ti51  1  0.77872263  0.83735022  0.08778695  1
  Ti  Ti52  1  0.66291886  0.90051624  0.38487764  1
  Ti  Ti53  1  0.73368733  0.87976669  0.79616834  1
  Ti  Ti54  1  0.20136095  0.17140089  0.10676143  1
  Ti  Ti55  1  0.28240773  0.16033060  0.44091055  1
  Ti  Ti56  1  0.19636153  0.10135313  0.82231590  1
  Ti  Ti57  1  0.19548485  0.42829547  0.15233262  1
  Ti  Ti58  1  0.27897276  0.41755749  0.48512306  1
  Ti  Ti59  1  0.28467674  0.39493057  0.80640138  1
  Ti  Ti60  1  0.23131055  0.81631506  0.08983573  1
  Ti  Ti61  1  0.17106169  0.73778673  0.36922693  1
  Ti  Ti62  1  0.26004931  0.69552551  0.77344374  1
  Ti  Ti63  1  0.62688091  0.03315344  0.03329673  1
  Ti  Ti64  1  0.63057967  0.07763136  0.40085828  1
  Ti  Ti65  1  0.55511087  0.10599870  0.74491864  1
  Ti  Ti66  1  0.52559867  0.35516095  0.11543715  1
  Ti  Ti67  1  0.56600380  0.45398297  0.36487449  1
  Ti  Ti68  1  0.61730493  0.45607778  0.71981131  1
  Ti  Ti69  1  0.47782904  0.76140286  0.06317724  1
  Ti  Ti70  1  0.57988756  0.66430549  0.38102140  1
  Ti  Ti71  1  0.62407885  0.65874518  0.74597185  1
  Ti  Ti72  1  0.90499109  0.12015694  0.13081592  1
  Ti  Ti73  1  0.95739161  0.05003227  0.41298238  1
  Ti  Ti74  1  0.96239188  0.10189279  0.77961406  1
  Ti  Ti75  1  0.88236473  0.43576959  0.08191256  1
  Ti  Ti76  1  0.87654412  0.34535678  0.41740658  1
  Ti  Ti77  1  0.92464394  0.43599298  0.85996586  1
  Ti  Ti78  1  0.96177340  0.77662912  0.04625829  1
  Ti  Ti79  1  0.91072477  0.76909265  0.38188268  1
  Ti  Ti80  1  0.91749554  0.83114670  0.71781933  1
  Ti  Ti81  1  0.30415627  0.25325852  0.23684799  1
  Ti  Ti82  1  0.22105489  0.27581359  0.61615585  1
  Ti  Ti83  1  0.24683140  0.33296587  0.99146874  1
  Ti  Ti84  1  0.26525629  0.57089772  0.26012117  1
  Ti  Ti85  1  0.19349199  0.59728004  0.57882944  1
  Ti  Ti86  1  0.20868588  0.54031555  0.91809241  1
  Ti  Ti87  1  0.33131318  0.95633680  0.26262018  1
  Ti  Ti88  1  0.15282501  0.91160641  0.54228347  1
  Ti  Ti89  1  0.24841818  0.92500569  0.92604322  1
  Ti  Ti90  1  0.66739378  0.25202076  0.20115333  1
  Ti  Ti91  1  0.66703762  0.30287978  0.60479319  1
  Ti  Ti92  1  0.59846433  0.28678266  0.96243444  1
  Ti  Ti93  1  0.57241191  0.61866468  0.19786986  1
  Ti  Ti94  1  0.65431862  0.61271289  0.56727366  1
  Ti  Ti95  1  0.50295512  0.66365903  0.88759336  1
  Ti  Ti96  1  0.55386036  0.91889876  0.20615003  1
  Ti  Ti97  1  0.62517787  0.92577020  0.56924269  1
  Ti  Ti98  1  0.61334708  0.84969663  0.97908443  1
  Ti  Ti99  1  0.93370530  0.22159002  0.29114836  1
  Ti  Ti100  1  0.90255078  0.11832590  0.59259593  1
  Ti  Ti101  1  0.84237628  0.24804868  0.85291824  1
  Ti  Ti102  1  0.90991118  0.56461336  0.26653418  1
  Ti  Ti103  1  0.96484171  0.57095291  0.58796869  1
  Ti  Ti104  1  0.92089483  0.63635653  0.91964462  1
  Ti  Ti105  1  0.90564160  0.90644311  0.21668305  1
  Ti  Ti106  1  0.93956582  0.91720006  0.54457911  1
  Ti  Ti107  1  0.92744962  0.93957160  0.88762453  1
  Co  Co108  1  0.64497439  0.55530601  0.87867495  1
  Co  Co109  1  0.18747414  0.26737229  0.78973276  1
  Co  Co110  1  0.01078056  0.24893722  0.82907297  1
  Co  Co111  1  0.05008131  0.54681574  0.89523516  1
  Co  Co112  1  0.92201026  0.46401605  0.70270831  1
  Co  Co113  1  0.10339865  0.66824484  0.79174973  1
  Co  Co114  1  0.75496455  -0.05683250  -0.04405073  1
  Co  Co115  1  0.78043900  0.01242194  0.47062298  1
  Co  Co116  1  -0.01574965  0.77362176  0.85398965  1
  Co  Co117  1  0.91010959  0.73500518  0.55953022  1
  Co  Co118  1  0.24254866  -0.02362413  0.10691452  1
  Co  Co119  1  0.79452657  0.54012137  -0.03082035  1
  Co  Co120  1  0.72472250  0.59525163  0.28880377  1
  Co  Co121  1  0.72055105  0.38307015  0.08941334  1
  Co  Co122  1  0.85714316  -0.00728529  0.73265557  1
  Co  Co123  1  0.83525001  0.15921962  0.43332637  1
  Co  Co124  1  0.52001573  0.24345846  0.64051975  1
  Co  Co125  1  0.35843517  0.67657790  0.13980389  1
  Co  Co126  1  0.34177671  0.09933323  0.14844745  1
  Co  Co127  1  0.71505261  -0.07503732  0.22600338  1
  Co  Co128  1  0.38597929  0.48201673  0.38212447  1
  Co  Co129  1  0.16661594  0.02702511  0.41372281  1
  Co  Co130  1  0.13655031  0.29360792  0.24367929  1
  Co  Co131  1  -0.10004316  0.61266230  0.08582762  1
  Co  Co132  1  0.23460445  0.88154742  0.37652450  1
  Co  Co133  1  0.55080282  0.22343415  0.32840527  1
  Co  Co134  1  0.33888215  0.80594568  0.47811606  1
  Co  Co135  1  -0.02205642  0.04334191  0.25961038  1
  Co  Co136  1  0.03502132  0.46119274  0.18113086  1
  Co  Co137  1  0.35961627  0.33582096  0.10697636  1
  Co  Co138  1  0.58107785  0.79051337  0.65795758  1
  Co  Co139  1  0.19851344  0.74839999  0.52660898  1
  Co  Co140  1  0.28403121  0.08251616  -0.01727955  1
  Co  Co141  1  0.56144320  0.13618591  0.90994215  1
  Co  Co142  1  0.78990152  0.93530825  0.60749597  1
  Co  Co143  1  0.59138221  0.18144709  0.08142661  1
  Co  Co144  1  0.71450627  0.38861711  0.44201315  1
  Co  Co145  1  0.17935489  0.29081474  0.43721953  1
  Co  Co146  1  -0.07725266  0.38677232  0.25669245  1
  Co  Co147  1  0.46593449  0.22216943  0.19091772  1
  Co  Co148  1  0.43583261  0.61022791  0.28992437  1
  Co  Co149  1  0.05911705  0.15102959  0.17493130  1
  Co  Co150  1  0.51696523  0.55863013  0.63462119  1
  Co  Co151  1  0.68412474  0.01310603  0.70830208  1
  Co  Co152  1  0.19288093  0.54611036  0.40926374  1
  Co  Co153  1  0.81474199  0.26631405  0.55261474  1
  Co  Co154  1  0.07606585  0.87053141  -0.02946901  1
  Co  Co155  1  0.08059082  0.00546536  0.87138070  1
  Co  Co156  1  0.80758857  0.71970123  0.78455547  1
  Co  Co157  1  0.44554022  0.73195384  0.74938200  1
  Co  Co158  1  0.55105226  0.06378022  0.59555614  1
  Co  Co159  1  0.49579239  0.56036112  0.46628255  1
  Co  Co160  1  0.84032210  0.80737973  -0.07447363  1
  Co  Co161  1  0.26362624  0.10154279  0.29188567  1
  Ni  Ni162  1  0.09486451  0.58453336  0.27233924  1
  Ni  Ni163  1  0.61589492  0.45816352  0.54176842  1
  Ni  Ni164  1  -0.05364910  0.37497550  0.56573448  1
  Ni  Ni165  1  0.80951460  0.51186888  0.40603468  1
  Ni  Ni166  1  0.63364044  0.77690692  0.13785562  1
  Ni  Ni167  1  0.50107229  -0.00798166  0.45238468  1
  Ni  Ni168  1  -0.07278623  -0.05059296  0.05372748  1
  Ni  Ni169  1  0.32637782  0.70190634  0.62181074  1
  Ni  Ni170  1  0.15553843  0.20381517  -0.05524014  1
  Ni  Ni171  1  0.63061928  0.77089426  0.49375715  1
  Ni  Ni172  1  0.07629377  0.87017467  0.14420864  1
  Ni  Ni173  1  -0.01063288  0.22362106  0.47667828  1
  Ni  Ni174  1  0.89708170  0.27965369  0.69742926  1
  Ni  Ni175  1  0.09535460  0.16375664  0.69544583  1
  Ni  Ni176  1  -0.06418962  0.31397809  -0.02315832  1
  Ni  Ni177  1  0.61660251  0.46194436  0.19820456  1
  Ni  Ni178  1  0.77323885  0.37858583  0.74307689  1
  Ni  Ni179  1  0.55661180  0.41274951  0.86092994  1
  Ni  Ni180  1  0.03319941  -0.01040850  0.66903110  1
  Ni  Ni181  1  0.85183170  0.08139232  -0.03160832  1
  Ni  Ni182  1  0.63380336  0.08047634  0.22713151  1
  Ni  Ni183  1  0.04441633  0.78702615  0.48628892  1
  Ni  Ni184  1  0.50871652  0.76294612  0.25297217  1
  Ni  Ni185  1  0.18181145  0.70532794  0.19695790  1
  Ni  Ni186  1  0.32616552  0.85021337  0.80075049  1
  Ni  Ni187  1  0.25507430  0.39768859  0.31662389  1
  Ni  Ni188  1  0.58605592  -0.02830306  0.86073137  1
  Ni  Ni189  1  0.56374921  0.31026550  0.47044829  1
  Ni  Ni190  1  0.37318561  0.33502455  0.68398191  1
  Ni  Ni191  1  0.36344719  0.54559555  0.56862681  1
  Ni  Ni192  1  0.31792071  0.21655958  0.88408069  1
  Ni  Ni193  1  -0.03660522  0.48407987  0.43906840  1
  Ni  Ni194  1  0.38983408  0.84665810  0.16121127  1
  Ni  Ni195  1  0.22943242  0.82944988  0.66695460  1
  Ni  Ni196  1  0.31036339  0.49075384  0.05389033  1
  Ni  Ni197  1  0.22635280  0.63238724  0.05694392  1
  Ni  Ni198  1  0.60551840  0.64994104  0.02890562  1
  Ni  Ni199  1  0.44922345  0.86433101  -0.09157189  1
  Ni  Ni200  1  0.24650425  0.45261117  0.65442602  1
  Ni  Ni201  1  0.83042090  0.90807196  0.36127437  1
  Ni  Ni202  1  0.58228275  0.80355233  0.82264161  1
  Ni  Ni203  1  0.49632526  0.06379138  0.14094086  1
  Ni  Ni204  1  0.36891962  0.55672935  0.90203103  1
  Ni  Ni205  1  0.85657135  0.71616525  0.20208475  1
  Ni  Ni206  1  0.60428850  0.47946145  0.02138522  1
  Ni  Ni207  1  0.77867794  0.01672039  0.10936218  1
  Ni  Ni208  1  0.07390532  0.43828377  0.02480302  1
  Ni  Ni209  1  0.33733132  -0.00629450  0.42883243  1
  Ni  Ni210  1  0.37028863  0.26961602  0.53641551  1
  Ni  Ni211  1  0.81323626  0.62117095  0.64003862  1
  Ni  Ni212  1  -0.05115913  0.63209608  0.74861256  1
  Ni  Ni213  1  0.83650582  0.28244520  0.16392944  1
  Ni  Ni214  1  0.78510120  0.15753880  0.71437958  1
