# generated using pymatgen
data_Ti108Co54Ni53
_symmetry_space_group_name_H-M   'P 1'
_cell_length_a   14.56023513
_cell_length_b   14.53777408
_cell_length_c   14.52312850
_cell_angle_alpha   90.05560845
_cell_angle_beta   89.66618122
_cell_angle_gamma   89.91736903
_symmetry_Int_Tables_number   1
_chemical_formula_structural   Ti108Co54Ni53
_chemical_formula_sum   'Ti108 Co54 Ni53'
_cell_volume   3074.10327093
_cell_formula_units_Z   1
loop_
 _symmetry_equiv_pos_site_id
 _symmetry_equiv_pos_as_xyz
  1  'x, y, z'
loop_
 _atom_site_type_symbol
 _atom_site_label
 _atom_site_symmetry_multiplicity
 _atom_site_fract_x
 _atom_site_fract_y
 _atom_site_fract_z
 _atom_site_occupancy
  Ti  Ti0  1  0.04737181  0.09119704  0.27445532  1
  Ti  Ti1  1  0.11758592  0.06539657  0.61387936  1
  Ti  Ti2  1  0.10302097  0.04181443  0.91817922  1
  Ti  Ti3  1  0.04799660  0.42512620  0.32472013  1
  Ti  Ti4  1  0.07017034  0.50967755  0.59159249  1
  Ti  Ti5  1  0.08621748  0.30716530  0.95467835  1
  Ti  Ti6  1  0.12816688  0.79200823  0.24788914  1
  Ti  Ti7  1  0.02850745  0.72348926  0.60094556  1
  Ti  Ti8  1  0.01119865  0.75205465  0.93449460  1
  Ti  Ti9  1  0.35845755  0.06714190  0.24544567  1
  Ti  Ti10  1  0.43843150  0.06843199  0.55961451  1
  Ti  Ti11  1  0.44886257  0.13505076  0.88748086  1
  Ti  Ti12  1  0.39487616  0.45205688  0.18076185  1
  Ti  Ti13  1  0.41243172  0.38999247  0.59240727  1
  Ti  Ti14  1  0.46161334  0.52448710  0.87037204  1
  Ti  Ti15  1  0.35676524  0.75986411  0.29436732  1
  Ti  Ti16  1  0.35520817  0.73950213  0.53892374  1
  Ti  Ti17  1  0.49945278  0.75391923  0.81964828  1
  Ti  Ti18  1  0.73449100  0.04121965  0.19031909  1
  Ti  Ti19  1  0.75498703  0.15903897  0.64076970  1
  Ti  Ti20  1  0.80451255  0.05758581  0.93059158  1
  Ti  Ti21  1  0.79681704  0.49511147  0.21659489  1
  Ti  Ti22  1  0.76835545  0.43563546  0.57809522  1
  Ti  Ti23  1  0.73723893  0.44770831  0.90037561  1
  Ti  Ti24  1  0.76088892  0.80814795  0.16927871  1
  Ti  Ti25  1  0.77711561  0.73747096  0.59478224  1
  Ti  Ti26  1  0.68345940  0.76413530  0.95635204  1
  Ti  Ti27  1  0.13009079  0.21978180  0.13529892  1
  Ti  Ti28  1  0.01932998  0.24323800  0.44019664  1
  Ti  Ti29  1  0.00036967  0.26625915  0.75738637  1
  Ti  Ti30  1  0.09737534  0.64302883  0.07603499  1
  Ti  Ti31  1  0.05894520  0.61369608  0.39876942  1
  Ti  Ti32  1  0.16265063  0.56680147  0.75704271  1
  Ti  Ti33  1  0.12283745  0.89074593  0.07253064  1
  Ti  Ti34  1  0.04439250  0.92687043  0.36576977  1
  Ti  Ti35  1  0.07243577  0.88873204  0.71497524  1
  Ti  Ti36  1  0.43449336  0.29513152  0.06212833  1
  Ti  Ti37  1  0.34492801  0.18148794  0.41199242  1
  Ti  Ti38  1  0.44286789  0.21687994  0.70683152  1
  Ti  Ti39  1  0.41310286  0.58896996  0.05506740  1
  Ti  Ti40  1  0.39951601  0.53134530  0.42759792  1
  Ti  Ti41  1  0.33861624  0.63720306  0.80353869  1
  Ti  Ti42  1  0.44182143  0.90029355  0.17252597  1
  Ti  Ti43  1  0.46018233  0.87754706  0.41257489  1
  Ti  Ti44  1  0.42061911  0.96059747  0.80728441  1
  Ti  Ti45  1  0.78538716  0.31216374  0.13395738  1
  Ti  Ti46  1  0.73279533  0.25931999  0.44824512  1
  Ti  Ti47  1  0.72880219  0.28314840  0.80685236  1
  Ti  Ti48  1  0.77610204  0.62818502  0.05665323  1
  Ti  Ti49  1  0.70984883  0.56539781  0.37954410  1
  Ti  Ti50  1  0.83041795  0.58699046  0.71467562  1
  Ti  Ti51  1  0.72050625  0.92765700  0.02065683  1
  Ti  Ti52  1  0.84055268  0.89685657  0.48704462  1
  Ti  Ti53  1  0.71129862  0.91234802  0.65455587  1
  Ti  Ti54  1  0.27354525  0.02623030  0.06667523  1
  Ti  Ti55  1  0.16575320  0.10919411  0.41822052  1
  Ti  Ti56  1  0.18527712  0.16208215  0.77948487  1
  Ti  Ti57  1  0.24237214  0.37152248  0.05652986  1
  Ti  Ti58  1  0.21432263  0.31368112  0.38215030  1
  Ti  Ti59  1  0.29292133  0.43983442  0.78003983  1
  Ti  Ti60  1  0.26926182  0.70056261  0.13033099  1
  Ti  Ti61  1  0.24494952  0.66718143  0.40031868  1
  Ti  Ti62  1  0.22468640  0.74109732  0.69992114  1
  Ti  Ti63  1  0.48491246  0.07672938  0.08463184  1
  Ti  Ti64  1  0.63589943  0.13283012  0.33999671  1
  Ti  Ti65  1  0.64556404  0.06628394  0.77789979  1
  Ti  Ti66  1  0.60425858  0.43454971  0.16383958  1
  Ti  Ti67  1  0.55433065  0.33671047  0.40460705  1
  Ti  Ti68  1  0.58565513  0.44444933  0.72347137  1
  Ti  Ti69  1  0.59393157  0.75435797  0.12928717  1
  Ti  Ti70  1  0.61759676  0.75066693  0.46098368  1
  Ti  Ti71  1  0.69848906  0.74477037  0.77322722  1
  Ti  Ti72  1  0.94257369  0.09529287  0.07104019  1
  Ti  Ti73  1  0.86378038  0.10714816  0.39236389  1
  Ti  Ti74  1  0.86822186  0.15090762  0.78997689  1
  Ti  Ti75  1  0.93577525  0.46300233  0.04473871  1
  Ti  Ti76  1  0.84594284  0.39146005  0.36010500  1
  Ti  Ti77  1  1.02370109  0.44373153  0.81685934  1
  Ti  Ti78  1  0.95887255  0.79411542  0.12905216  1
  Ti  Ti79  1  0.93958721  0.75750297  0.43909557  1
  Ti  Ti80  1  0.93276108  0.73777718  0.76344746  1
  Ti  Ti81  1  0.34161881  0.27931239  0.23757075  1
  Ti  Ti82  1  0.25784740  0.24459391  0.57277770  1
  Ti  Ti83  1  0.30669288  0.26401284  0.89013639  1
  Ti  Ti84  1  0.24833811  0.49042339  0.31392996  1
  Ti  Ti85  1  0.29224432  0.55531287  0.59963734  1
  Ti  Ti86  1  0.24309070  0.57551823  0.96091322  1
  Ti  Ti87  1  0.24974776  0.91347755  0.33901237  1
  Ti  Ti88  1  0.28819644  0.93354009  0.65809362  1
  Ti  Ti89  1  0.26659136  0.88458728  0.90621165  1
  Ti  Ti90  1  0.61132360  0.21790005  0.16522852  1
  Ti  Ti91  1  0.58496855  0.20036672  0.58398524  1
  Ti  Ti92  1  0.54780521  0.33190542  0.89593018  1
  Ti  Ti93  1  0.52421727  0.61513172  0.25503575  1
  Ti  Ti94  1  0.52122451  0.60064325  0.57500400  1
  Ti  Ti95  1  0.61587611  0.59367025  0.92555250  1
  Ti  Ti96  1  0.62938681  0.90540694  0.30062065  1
  Ti  Ti97  1  0.49699097  0.88285451  0.61151779  1
  Ti  Ti98  1  0.52080762  0.87263421  0.97862791  1
  Ti  Ti99  1  0.93285972  0.24449258  0.24374900  1
  Ti  Ti100  1  0.93857710  0.17787181  0.59188779  1
  Ti  Ti101  1  0.88169840  0.31676984  0.92520495  1
  Ti  Ti102  1  0.98229988  0.57760171  0.20488776  1
  Ti  Ti103  1  0.88844956  0.58581344  0.52634008  1
  Ti  Ti104  1  0.89823556  0.56677619  0.89063297  1
  Ti  Ti105  1  0.88427972  0.92107137  0.27980496  1
  Ti  Ti106  1  0.93319586  1.00509466  0.64428862  1
  Ti  Ti107  1  0.86518604  0.88158965  0.86007714  1
  Co  Co108  1  0.54827864  0.20522536  0.00303149  1
  Co  Co109  1  0.80868745  0.19731274  0.00445034  1
  Co  Co110  1  0.86067648  0.41188542  0.79626695  1
  Co  Co111  1  -0.11224328  0.07974425  0.22511662  1
  Co  Co112  1  0.69606593  0.91516705  0.85583772  1
  Co  Co113  1  0.57956379  0.58780860  0.07756083  1
  Co  Co114  1  0.18945387  -0.01100702  0.77576430  1
  Co  Co115  1  0.28468476  0.06819141  0.89090047  1
  Co  Co116  1  0.49500559  0.46982417  0.31526928  1
  Co  Co117  1  0.01528320  0.95273487  0.18285293  1
  Co  Co118  1  0.92769113  0.40001256  0.19829024  1
  Co  Co119  1  0.49739327  0.06042557  0.71283809  1
  Co  Co120  1  0.84737241  0.80392495  0.01415497  1
  Co  Co121  1  0.74518399  -0.00763660  0.37741008  1
  Co  Co122  1  0.60183364  0.93607038  0.12848133  1
  Co  Co123  1  0.18282741  0.43619181  0.89802085  1
  Co  Co124  1  0.85967366  -0.05063364  0.11121219  1
  Co  Co125  1  0.34649281  0.81298259  0.77853895  1
  Co  Co126  1  0.34536625  0.72125548  -0.05295098  1
  Co  Co127  1  0.32825260  0.09475604  0.72506424  1
  Co  Co128  1  0.91588543  0.46386886  0.65054740  1
  Co  Co129  1  0.16860463  0.51334798  0.45604063  1
  Co  Co130  1  0.57333766  -0.10242233  0.76002999  1
  Co  Co131  1  0.40442187  -0.01406823  -0.02605883  1
  Co  Co132  1  0.76769974  0.20381791  0.26955678  1
  Co  Co133  1  0.42896344  0.73743899  0.13819122  1
  Co  Co134  1  0.78285637  0.69630012  0.44059291  1
  Co  Co135  1  0.82037364  0.70468822  0.88334642  1
  Co  Co136  1  0.10413204  0.48098190  0.03024898  1
  Co  Co137  1  0.35193348  0.60017539  0.24721344  1
  Co  Co138  1  0.84450798  0.30225181  0.67562794  1
  Co  Co139  1  0.68120054  0.60329321  0.19322633  1
  Co  Co140  1  0.60719399  0.02389339  0.60544305  1
  Co  Co141  1  0.17487162  -0.00724385  0.22784593  1
  Co  Co142  1  0.18993836  0.76446556  0.00312187  1
  Co  Co143  1  0.55275203  0.62010365  0.74343454  1
  Co  Co144  1  0.06756417  0.37135882  0.13787383  1
  Co  Co145  1  0.09171526  0.26122645  0.29093868  1
  Co  Co146  1  -0.06528893  0.64746365  0.04282517  1
  Co  Co147  1  0.03389647  0.08596468  0.75926477  1
  Co  Co148  1  0.67404219  0.71347735  0.30211676  1
  Co  Co149  1  0.00492700  0.05126752  0.47207733  1
  Co  Co150  1  -0.03672461  0.44827520  0.47039733  1
  Co  Co151  1  0.28816339  0.41468767  0.49293737  1
  Co  Co152  1  0.68003915  0.10527657  0.48777557  1
  Co  Co153  1  0.18471538  0.71281769  0.85634216  1
  Co  Co154  1  0.10912346  0.22826016  0.62382401  1
  Co  Co155  1  0.29814919  0.28488975  0.71930197  1
  Co  Co156  1  0.68480663  0.34042279  0.28718805  1
  Co  Co157  1  0.20634065  0.37133236  0.21618720  1
  Co  Co158  1  0.50517189  0.70839894  -0.01669641  1
  Co  Co159  1  0.41977479  0.69827112  0.67284433  1
  Co  Co160  1  0.66153733  0.90139684  0.49562825  1
  Co  Co161  1  0.39413337  0.35262528  0.38081914  1
  Ni  Ni162  1  0.20146812  0.40498004  0.63756166  1
  Ni  Ni163  1  0.68690929  0.59559015  0.61039597  1
  Ni  Ni164  1  0.01665803  0.88707781  0.54050304  1
  Ni  Ni165  1  0.66959689  0.16885328  0.90679252  1
  Ni  Ni166  1  0.80613597  0.00082670  0.75717717  1
  Ni  Ni167  1  0.23375806  0.52564812  0.13799298  1
  Ni  Ni168  1  -0.00146440  0.34095300  0.60562586  1
  Ni  Ni169  1  0.43789167  0.36666762  0.77947914  1
  Ni  Ni170  1  0.66110805  0.09458383  0.05374040  1
  Ni  Ni171  1  -0.04652069  0.26976242  0.07127952  1
  Ni  Ni172  1  0.31428087  0.18216743  0.10298663  1
  Ni  Ni173  1  0.44345769  0.24890282  0.51927624  1
  Ni  Ni174  1  0.83315714  0.66868332  0.22753928  1
  Ni  Ni175  1  0.50545172  0.32463613  0.23947214  1
  Ni  Ni176  1  -0.02995928  -0.06585061  -0.00993201  1
  Ni  Ni177  1  0.16155065  -0.04244233  0.48645097  1
  Ni  Ni178  1  0.00272094  0.59213862  0.73054483  1
  Ni  Ni179  1  0.57419008  0.02318901  -0.07107393  1
  Ni  Ni180  1  0.42857602  0.52322138  0.69891964  1
  Ni  Ni181  1  0.51161422  0.44637599  0.02035712  1
  Ni  Ni182  1  0.09884634  0.87709774  0.88061644  1
  Ni  Ni183  1  0.55092027  0.01223436  0.43953304  1
  Ni  Ni184  1  0.19184636  0.17591538  -0.01781084  1
  Ni  Ni185  1  0.68417109  0.31343453  -0.00021416  1
  Ni  Ni186  1  0.10466838  0.06025755  0.08919135  1
  Ni  Ni187  1  0.67465011  0.31972990  0.65211811  1
  Ni  Ni188  1  0.36109400  0.41615249  -0.05174539  1
  Ni  Ni189  1  0.17271694  0.65920210  0.55122563  1
  Ni  Ni190  1  0.69314347  0.55689144  0.78245348  1
  Ni  Ni191  1  0.11906308  0.36429667  0.50249956  1
  Ni  Ni192  1  0.59327403  0.75139999  0.64127258  1
  Ni  Ni193  1  0.17534531  0.82623861  0.57515632  1
  Ni  Ni194  1  0.47846807  0.18719938  0.32120546  1
  Ni  Ni195  1  0.31536330  0.89334937  0.49891360  1
  Ni  Ni196  1  0.77302860  0.82748704  0.34942992  1
  Ni  Ni197  1  0.52173821  0.78098593  0.28593869  1
  Ni  Ni198  1  0.07139251  0.58829148  0.90409882  1
  Ni  Ni199  1  0.27509729  0.06796449  0.54694052  1
  Ni  Ni200  1  0.36578190  0.01793160  0.40752630  1
  Ni  Ni201  1  0.88771848  0.85144199  0.65770286  1
  Ni  Ni202  1  0.15231869  0.33073509  0.77721411  1
  Ni  Ni203  1  0.53180653  0.04110673  0.24432032  1
  Ni  Ni204  1  0.11943750  0.78673588  0.42739645  1
  Ni  Ni205  1  0.72893415  0.47017369  0.06053131  1
  Ni  Ni206  1  0.81129857  0.04378512  0.53842060  1
  Ni  Ni207  1  -0.01900916  0.16779991  0.91654430  1
  Ni  Ni208  1  -0.02569852  0.73855875  0.28459613  1
  Ni  Ni209  1  0.89238475  0.57829331  0.35769225  1
  Ni  Ni210  1  0.14879787  0.62350344  0.24717219  1
  Ni  Ni211  1  0.87282830  0.31082740  0.50744523  1
  Ni  Ni212  1  0.27517725  0.86982923  0.16214073  1
  Ni  Ni213  1  0.46427459  0.68851702  0.42095951  1
  Ni  Ni214  1  0.22239082  0.15697479  0.26456033  1
