# generated using pymatgen
data_Ti108Co54Ni53
_symmetry_space_group_name_H-M   'P 1'
_cell_length_a   14.66708912
_cell_length_b   14.57164130
_cell_length_c   14.68494640
_cell_angle_alpha   89.57328093
_cell_angle_beta   89.85945573
_cell_angle_gamma   90.03199156
_symmetry_Int_Tables_number   1
_chemical_formula_structural   Ti108Co54Ni53
_chemical_formula_sum   'Ti108 Co54 Ni53'
_cell_volume   3138.42203917
_cell_formula_units_Z   1
loop_
 _symmetry_equiv_pos_site_id
 _symmetry_equiv_pos_as_xyz
  1  'x, y, z'
loop_
 _atom_site_type_symbol
 _atom_site_label
 _atom_site_symmetry_multiplicity
 _atom_site_fract_x
 _atom_site_fract_y
 _atom_site_fract_z
 _atom_site_occupancy
  Ti  Ti0  1  0.09531201  0.04927967  0.32864269  1
  Ti  Ti1  1  0.00807077  0.06175003  0.59162672  1
  Ti  Ti2  1  0.07868221  0.15664089  0.89664734  1
  Ti  Ti3  1  0.13249545  0.34293573  0.24090680  1
  Ti  Ti4  1  0.12382096  0.43075515  0.50601412  1
  Ti  Ti5  1  0.13560051  0.34575038  0.89009031  1
  Ti  Ti6  1  0.10237667  0.71556414  0.23415770  1
  Ti  Ti7  1  0.07375673  0.67717039  0.57799889  1
  Ti  Ti8  1  0.02502299  0.80003021  0.92180427  1
  Ti  Ti9  1  0.40853869  0.02141644  0.27576527  1
  Ti  Ti10  1  0.39594046  0.07927920  0.60104895  1
  Ti  Ti11  1  0.44404066  0.13841165  0.92447336  1
  Ti  Ti12  1  0.33874888  0.40738808  0.21816503  1
  Ti  Ti13  1  0.40890740  0.38505720  0.62755699  1
  Ti  Ti14  1  0.39383731  0.48373631  0.96484654  1
  Ti  Ti15  1  0.45443966  0.67143548  0.21980619  1
  Ti  Ti16  1  0.34590605  0.78530856  0.61276633  1
  Ti  Ti17  1  0.35937866  0.78650208  0.95442201  1
  Ti  Ti18  1  0.72854305  0.06417071  0.17916776  1
  Ti  Ti19  1  0.71044441  0.14823187  0.63004904  1
  Ti  Ti20  1  0.75557093  0.15487860  0.99130675  1
  Ti  Ti21  1  0.79513893  0.37127305  0.25573704  1
  Ti  Ti22  1  0.77779800  0.33928131  0.56579384  1
  Ti  Ti23  1  0.69532933  0.42155600  0.90453385  1
  Ti  Ti24  1  0.73057963  0.80543396  0.24728622  1
  Ti  Ti25  1  0.72968156  0.76088274  0.52935424  1
  Ti  Ti26  1  0.76352160  0.65260934  0.93742803  1
  Ti  Ti27  1  0.06570599  0.25512928  0.06574853  1
  Ti  Ti28  1  0.04326313  0.20158331  0.46959671  1
  Ti  Ti29  1  0.06318333  0.23691402  0.70300722  1
  Ti  Ti30  1  0.10256347  0.61402931  -0.01440177  1
  Ti  Ti31  1  0.10684749  0.60171138  0.40924664  1
  Ti  Ti32  1  0.13347248  0.64502104  0.78034864  1
  Ti  Ti33  1  0.06900944  0.89980281  0.08631319  1
  Ti  Ti34  1  0.09174391  0.83515597  0.40401758  1
  Ti  Ti35  1  0.10958167  0.94153087  0.73558525  1
  Ti  Ti36  1  0.42745945  0.27804392  0.06436179  1
  Ti  Ti37  1  0.36843596  0.19799003  0.39847800  1
  Ti  Ti38  1  0.37948246  0.26060189  0.78325679  1
  Ti  Ti39  1  0.44346614  0.64223286  0.03331992  1
  Ti  Ti40  1  0.43064089  0.53184029  0.36564494  1
  Ti  Ti41  1  0.41555616  0.60556643  0.68416657  1
  Ti  Ti42  1  0.36236171  0.93089718  0.09967480  1
  Ti  Ti43  1  0.39851185  0.86656822  0.41787853  1
  Ti  Ti44  1  0.44468218  0.91561552  0.75272709  1
  Ti  Ti45  1  0.64674288  0.24653554  0.19229733  1
  Ti  Ti46  1  0.73621036  0.21722592  0.41802182  1
  Ti  Ti47  1  0.75811888  0.28944477  0.75887178  1
  Ti  Ti48  1  0.73492408  0.52025628  0.08459682  1
  Ti  Ti49  1  0.75898697  0.53411878  0.53020080  1
  Ti  Ti50  1  0.78702131  0.55138526  0.77230532  1
  Ti  Ti51  1  0.76353978  0.96923637  0.02358035  1
  Ti  Ti52  1  0.71703618  0.91670921  0.41871181  1
  Ti  Ti53  1  0.79040827  0.87295274  0.76777525  1
  Ti  Ti54  1  0.19624304  0.06609152  0.14495788  1
  Ti  Ti55  1  0.21770782  0.10241334  0.48938525  1
  Ti  Ti56  1  0.25362945  0.07175754  0.82653070  1
  Ti  Ti57  1  0.21766940  0.44976367  0.06036565  1
  Ti  Ti58  1  0.32111525  0.40119530  0.45178403  1
  Ti  Ti59  1  0.25467770  0.44093975  0.75918741  1
  Ti  Ti60  1  0.29395502  0.73910265  0.15025398  1
  Ti  Ti61  1  0.24632658  0.75658496  0.35312433  1
  Ti  Ti62  1  0.26168645  0.83011015  0.78665334  1
  Ti  Ti63  1  0.55549805  0.00836900  0.02577576  1
  Ti  Ti64  1  0.56120102  0.12546831  0.38733000  1
  Ti  Ti65  1  0.56900756  0.08296376  0.76695422  1
  Ti  Ti66  1  0.56601766  0.41843910  0.08938412  1
  Ti  Ti67  1  0.61092296  0.51549515  0.40423621  1
  Ti  Ti68  1  0.57082674  0.34330502  0.74286711  1
  Ti  Ti69  1  0.54732748  0.79945398  0.07269707  1
  Ti  Ti70  1  0.56291227  0.72149000  0.38161535  1
  Ti  Ti71  1  0.58924989  0.72099619  0.77625915  1
  Ti  Ti72  1  0.91856959  0.10152362  0.16436442  1
  Ti  Ti73  1  0.86844563  0.07283844  0.39844143  1
  Ti  Ti74  1  0.86663881  0.06990533  0.72358016  1
  Ti  Ti75  1  0.87034569  0.36048834  0.05594350  1
  Ti  Ti76  1  0.92735189  0.49515543  0.41232208  1
  Ti  Ti77  1  0.92790266  0.39676060  0.78815050  1
  Ti  Ti78  1  0.84591751  0.80332251  0.08111036  1
  Ti  Ti79  1  0.92824309  0.83343547  0.49792206  1
  Ti  Ti80  1  0.99433004  0.77546291  0.73033307  1
  Ti  Ti81  1  0.31396811  0.20061130  0.21352819  1
  Ti  Ti82  1  0.25956344  0.24386325  0.62715104  1
  Ti  Ti83  1  0.25851200  0.20764865  0.97561373  1
  Ti  Ti84  1  0.25947932  0.57971259  0.28571613  1
  Ti  Ti85  1  0.28147130  0.58800964  0.51273841  1
  Ti  Ti86  1  0.31026959  0.62110491  0.84651306  1
  Ti  Ti87  1  0.21100190  0.90224544  0.23530459  1
  Ti  Ti88  1  0.22392463  0.92620077  0.56832746  1
  Ti  Ti89  1  0.22488802  0.91224998  0.96552346  1
  Ti  Ti90  1  0.56687780  0.32586119  0.34738712  1
  Ti  Ti91  1  0.59253892  0.28243551  0.54751637  1
  Ti  Ti92  1  0.60948471  0.23703419  0.90193569  1
  Ti  Ti93  1  0.65527087  0.61000586  0.24375644  1
  Ti  Ti94  1  0.57627785  0.63779706  0.56424576  1
  Ti  Ti95  1  0.56330806  0.52925566  0.81320646  1
  Ti  Ti96  1  0.57443118  0.93119684  0.30964350  1
  Ti  Ti97  1  0.59884437  0.95037698  0.60264237  1
  Ti  Ti98  1  0.67967124  0.84000907  0.93018942  1
  Ti  Ti99  1  0.95952705  0.24086528  0.29701757  1
  Ti  Ti100  1  0.96037264  0.34599684  0.55488834  1
  Ti  Ti101  1  0.90657443  0.19213854  0.84983747  1
  Ti  Ti102  1  0.85555941  0.64569514  0.27197213  1
  Ti  Ti103  1  0.87927266  0.64357814  0.62596724  1
  Ti  Ti104  1  0.95308959  0.58857859  0.85746253  1
  Ti  Ti105  1  0.94990204  0.83084938  0.25022707  1
  Ti  Ti106  1  0.80590934  0.97123012  0.57535663  1
  Ti  Ti107  1  0.93717254  1.00586505  0.97153822  1
  Co  Co108  1  0.72759325  0.14524691  0.82132477  1
  Co  Co109  1  0.17642472  0.06274233  -0.01236836  1
  Co  Co110  1  0.62291206  0.44282592  0.54905025  1
  Co  Co111  1  0.46833931  0.64191061  0.87553070  1
  Co  Co112  1  0.06657728  0.86055300  0.57833142  1
  Co  Co113  1  0.85215105  0.80537710  0.63526597  1
  Co  Co114  1  0.15181533  0.54195538  0.63571732  1
  Co  Co115  1  0.81341602  0.00891137  0.86898216  1
  Co  Co116  1  0.64719655  0.43586095  0.24328623  1
  Co  Co117  1  0.87199093  0.33025223  0.41158678  1
  Co  Co118  1  0.71023994  0.38283179  0.41804123  1
  Co  Co119  1  0.70102296  0.06420251  0.33271372  1
  Co  Co120  1  0.80683895  0.30101828  0.91690282  1
  Co  Co121  1  0.87263128  0.46161666  0.64573826  1
  Co  Co122  1  0.26962014  0.62841024  0.00556819  1
  Co  Co123  1  0.81071075  0.23246566  0.13246112  1
  Co  Co124  1  -0.00071431  0.52635298  0.55350187  1
  Co  Co125  1  0.21746111  0.49935149  -0.09011317  1
  Co  Co126  1  0.21099567  0.23558308  0.79131576  1
  Co  Co127  1  0.02470267  0.07503012  0.76724853  1
  Co  Co128  1  0.16432359  0.78526684  0.67344370  1
  Co  Co129  1  0.27245735  0.31316805  0.32837925  1
  Co  Co130  1  0.84895326  0.83870847  -0.07493783  1
  Co  Co131  1  0.29676723  -0.02688550  0.70053803  1
  Co  Co132  1  0.80597307  0.18664112  0.27934210  1
  Co  Co133  1  0.50852090  -0.06808581  0.16274353  1
  Co  Co134  1  0.24833162  0.41123723  0.60252467  1
  Co  Co135  1  0.71058095  0.00959516  0.72718926  1
  Co  Co136  1  -0.05014026  0.92155682  0.82121407  1
  Co  Co137  1  0.40619295  0.08599589  0.77065387  1
  Co  Co138  1  -0.05301888  -0.06811295  0.66350762  1
  Co  Co139  1  0.51686549  0.78764440  0.64627603  1
  Co  Co140  1  0.69764135  0.06383372  0.49258649  1
  Co  Co141  1  0.19192208  0.45396596  0.35482768  1
  Co  Co142  1  0.41657017  0.44531385  0.78771510  1
  Co  Co143  1  0.39522543  0.84123118  0.25264369  1
  Co  Co144  1  0.02613684  -0.01734155  0.20740741  1
  Co  Co145  1  0.56943539  0.78683028  0.23173070  1
  Co  Co146  1  0.44522145  0.53202954  0.52514618  1
  Co  Co147  1  0.48476518  0.34585254  0.20920085  1
  Co  Co148  1  0.58131925  0.60906551  0.10828595  1
  Co  Co149  1  0.42283388  0.92299103  0.57768348  1
  Co  Co150  1  0.87122683  0.64540008  0.46631724  1
  Co  Co151  1  0.07929546  0.16818628  0.20215645  1
  Co  Co152  1  -0.02203064  0.32173628  -0.07064316  1
  Co  Co153  1  0.25994975  0.65413564  0.67516637  1
  Co  Co154  1  0.67017349  0.89452169  0.13063233  1
  Co  Co155  1  0.04520480  0.08557680  0.06428840  1
  Co  Co156  1  0.50976354  -0.00993742  0.45362566  1
  Co  Co157  1  0.65545487  0.58271818  0.68259945  1
  Co  Co158  1  0.77709576  0.51290844  0.33874058  1
  Co  Co159  1  0.33114424  0.06318952  0.00893350  1
  Co  Co160  1  0.92247011  0.18743005  0.01072033  1
  Co  Co161  1  -0.00208023  0.56763684  0.70780002  1
  Ni  Ni162  1  0.19950350  0.28023316  0.47707894  1
  Ni  Ni163  1  0.72975984  0.71917670  0.69258557  1
  Ni  Ni164  1  0.40952199  0.75211647  0.77436176  1
  Ni  Ni165  1  0.60707943  0.88934616  0.76952597  1
  Ni  Ni166  1  0.57151066  0.07703836  0.20834212  1
  Ni  Ni167  1  0.47525694  0.19574472  0.25948868  1
  Ni  Ni168  1  -0.01509991  0.70363732  0.36738655  1
  Ni  Ni169  1  0.08260353  -0.02781771  0.89930118  1
  Ni  Ni170  1  0.17140804  0.09723102  0.66745721  1
  Ni  Ni171  1  0.08289468  0.48776200  0.82419104  1
  Ni  Ni172  1  0.48361100  0.38478724  0.46884071  1
  Ni  Ni173  1  0.26369654  0.07458777  0.32367866  1
  Ni  Ni174  1  0.43691439  0.70153312  0.51319823  1
  Ni  Ni175  1  0.70597230  0.43248077  0.69209804  1
  Ni  Ni176  1  0.51177540  0.82145584  -0.10073241  1
  Ni  Ni177  1  -0.07930307  0.68488776  -0.01911386  1
  Ni  Ni178  1  0.60467987  0.68916049  -0.04262299  1
  Ni  Ni179  1  -0.13495515  0.16208328  0.53850470  1
  Ni  Ni180  1  0.43611579  0.10837649  0.11970717  1
  Ni  Ni181  1  -0.04055423  -0.05610872  0.36725561  1
  Ni  Ni182  1  0.23719537  0.93224958  0.40160716  1
  Ni  Ni183  1  0.08755628  -0.01006343  0.47724475  1
  Ni  Ni184  1  0.57941705  0.52788475  -0.02953935  1
  Ni  Ni185  1  0.55349717  0.11460607  0.55911165  1
  Ni  Ni186  1  0.69422699  0.31549515  0.04170751  1
  Ni  Ni187  1  0.52849845  0.48674067  0.66087303  1
  Ni  Ni188  1  0.50278437  0.20804907  0.68298128  1
  Ni  Ni189  1  0.20585835  0.75687455  0.51389634  1
  Ni  Ni190  1  0.71892568  0.65774153  0.39654692  1
  Ni  Ni191  1  0.38752526  0.69263418  0.36398050  1
  Ni  Ni192  1  0.89330239  0.24444568  0.67533374  1
  Ni  Ni193  1  0.15371879  0.20516634  0.34112288  1
  Ni  Ni194  1  0.65129572  0.00741601  -0.11024621  1
  Ni  Ni195  1  0.06722339  0.40908806  0.67938134  1
  Ni  Ni196  1  0.17332954  0.59923228  0.13939782  1
  Ni  Ni197  1  0.19067490  0.74376186  0.90879609  1
  Ni  Ni198  1  0.33822209  0.55478184  0.13627733  1
  Ni  Ni199  1  0.83248861  0.78346621  0.37582852  1
  Ni  Ni200  1  0.33198523  0.34516103  -0.08513974  1
  Ni  Ni201  1  0.85131135  -0.05598692  0.17576603  1
  Ni  Ni202  1  0.49425542  0.50880761  0.21330902  1
  Ni  Ni203  1  0.41287010  -0.03614304  0.91044419  1
  Ni  Ni204  1  0.00017092  0.73684911  0.10807852  1
  Ni  Ni205  1  0.84200614  0.48757983  -0.06203114  1
  Ni  Ni206  1  0.55626290  0.83463849  0.49500490  1
  Ni  Ni207  1  0.16016270  0.76040093  0.06428002  1
  Ni  Ni208  1  0.42628223  0.24090481  0.54080250  1
  Ni  Ni209  1  0.57871642  0.17655201  0.05577310  1
  Ni  Ni210  1  0.71323494  0.70238412  0.10028953  1
  Ni  Ni211  1  0.03775031  0.36355265  0.38022119  1
  Ni  Ni212  1  0.23288580  0.29387246  0.10997553  1
  Ni  Ni213  1  0.51169250  0.37265833  0.90911485  1
  Ni  Ni214  1  0.85448700  0.71690672  0.80462253  1
