# generated using pymatgen
data_Ti108Co54Ni53
_symmetry_space_group_name_H-M   'P 1'
_cell_length_a   14.53119937
_cell_length_b   14.55279213
_cell_length_c   14.55090300
_cell_angle_alpha   90.24137347
_cell_angle_beta   89.98897501
_cell_angle_gamma   90.32477445
_symmetry_Int_Tables_number   1
_chemical_formula_structural   Ti108Co54Ni53
_chemical_formula_sum   'Ti108 Co54 Ni53'
_cell_volume   3076.99574906
_cell_formula_units_Z   1
loop_
 _symmetry_equiv_pos_site_id
 _symmetry_equiv_pos_as_xyz
  1  'x, y, z'
loop_
 _atom_site_type_symbol
 _atom_site_label
 _atom_site_symmetry_multiplicity
 _atom_site_fract_x
 _atom_site_fract_y
 _atom_site_fract_z
 _atom_site_occupancy
  Ti  Ti0  1  0.12135398  0.11564220  0.20456536  1
  Ti  Ti1  1  0.08266865  0.05301680  0.55821254  1
  Ti  Ti2  1  0.12175796  0.11090458  0.84146143  1
  Ti  Ti3  1  0.14509181  0.34412814  0.29174957  1
  Ti  Ti4  1  0.13246965  0.46753274  0.50728783  1
  Ti  Ti5  1  0.04198896  0.37305328  0.81313950  1
  Ti  Ti6  1  0.17306828  0.72445040  0.27281094  1
  Ti  Ti7  1  0.10922947  0.65169440  0.62493585  1
  Ti  Ti8  1  0.06469585  0.71169020  0.81683882  1
  Ti  Ti9  1  0.38185453  0.08112532  0.27422505  1
  Ti  Ti10  1  0.42717030  0.07126834  0.59305879  1
  Ti  Ti11  1  0.49045078  0.07752095  0.93175345  1
  Ti  Ti12  1  0.43399218  0.40793098  0.20408447  1
  Ti  Ti13  1  0.43023945  0.47824842  0.54641894  1
  Ti  Ti14  1  0.36594279  0.38525346  0.86506206  1
  Ti  Ti15  1  0.48602262  0.72236972  0.21327135  1
  Ti  Ti16  1  0.41165554  0.82026705  0.63018788  1
  Ti  Ti17  1  0.38321738  0.72578666  0.92357732  1
  Ti  Ti18  1  0.77245502  0.01286965  0.24158357  1
  Ti  Ti19  1  0.76126122  0.05449830  0.63109657  1
  Ti  Ti20  1  0.81721820  0.11939632  0.89971270  1
  Ti  Ti21  1  0.72687561  0.35871994  0.22329821  1
  Ti  Ti22  1  0.75126625  0.51522064  0.56618399  1
  Ti  Ti23  1  0.73163460  0.35066550  0.86702238  1
  Ti  Ti24  1  0.69946196  0.81722717  0.28263544  1
  Ti  Ti25  1  0.81060819  0.69825935  0.54305245  1
  Ti  Ti26  1  0.81751147  0.74813760  1.00026753  1
  Ti  Ti27  1  0.06304411  0.30554918  0.11052580  1
  Ti  Ti28  1  0.10082615  0.25100026  0.48102020  1
  Ti  Ti29  1  0.01757946  0.22594932  0.70592813  1
  Ti  Ti30  1  0.04142922  0.60690866  0.13889358  1
  Ti  Ti31  1  0.17049329  0.66856120  0.45157423  1
  Ti  Ti32  1  0.05079997  0.54157681  0.89499198  1
  Ti  Ti33  1  0.10180888  0.99829634  0.04078471  1
  Ti  Ti34  1  0.08395209  0.93646810  0.35736095  1
  Ti  Ti35  1  0.08136783  0.90651104  0.81002375  1
  Ti  Ti36  1  0.37192723  0.23647546  0.04973734  1
  Ti  Ti37  1  0.45110896  0.26784628  0.36104900  1
  Ti  Ti38  1  0.46166759  0.24522735  0.68387046  1
  Ti  Ti39  1  0.42277382  0.54274416  -0.02969114  1
  Ti  Ti40  1  0.46825434  0.59946664  0.40350991  1
  Ti  Ti41  1  0.44695256  0.60243453  0.69028819  1
  Ti  Ti42  1  0.41487583  0.92616777  0.16811940  1
  Ti  Ti43  1  0.47937409  1.00620789  0.40903936  1
  Ti  Ti44  1  0.41656171  0.91749395  0.82762037  1
  Ti  Ti45  1  0.75013532  0.21979651  0.06456997  1
  Ti  Ti46  1  0.77743064  0.27547543  0.38915442  1
  Ti  Ti47  1  0.74771976  0.23869445  0.69550646  1
  Ti  Ti48  1  0.64761734  0.51069301  0.01315310  1
  Ti  Ti49  1  0.70564347  0.60136014  0.38998155  1
  Ti  Ti50  1  0.74639283  0.69609535  0.80035741  1
  Ti  Ti51  1  0.69293742  0.88200318  0.04545312  1
  Ti  Ti52  1  0.75984801  0.87969579  0.51403297  1
  Ti  Ti53  1  0.67424292  0.89740724  0.74579215  1
  Ti  Ti54  1  0.26530152  0.09948353  -0.02784407  1
  Ti  Ti55  1  0.26037419  0.01788347  0.43355078  1
  Ti  Ti56  1  0.28744038  0.12800040  0.74059267  1
  Ti  Ti57  1  0.18772318  0.45763798  0.12931852  1
  Ti  Ti58  1  0.28211266  0.37164674  0.45691788  1
  Ti  Ti59  1  0.21477433  0.46413365  0.79501781  1
  Ti  Ti60  1  0.19172069  0.75142160  0.07348071  1
  Ti  Ti61  1  0.34309733  0.73920050  0.39204139  1
  Ti  Ti62  1  0.25366198  0.81511689  0.77215296  1
  Ti  Ti63  1  0.63193303  0.06643029  0.07577483  1
  Ti  Ti64  1  0.65425185  0.11283353  0.38879450  1
  Ti  Ti65  1  0.61378069  0.09159269  0.77386091  1
  Ti  Ti66  1  0.49211096  0.38373480  0.02710073  1
  Ti  Ti67  1  0.61441321  0.42249185  0.40433911  1
  Ti  Ti68  1  0.53220944  0.43286915  0.72017309  1
  Ti  Ti69  1  0.55889102  0.70360145  0.02682525  1
  Ti  Ti70  1  0.50924063  0.81629901  0.45118752  1
  Ti  Ti71  1  0.56099019  0.75545249  0.75379684  1
  Ti  Ti72  1  0.90764072  0.02681373  0.10681668  1
  Ti  Ti73  1  0.81901774  0.04661495  0.42796508  1
  Ti  Ti74  1  0.95233375  0.02721619  0.75880296  1
  Ti  Ti75  1  0.88754527  0.44460589  0.14521258  1
  Ti  Ti76  1  0.91067093  0.40714035  0.47477379  1
  Ti  Ti77  1  0.88178786  0.39961839  0.68858395  1
  Ti  Ti78  1  0.97954492  0.82380068  0.08466405  1
  Ti  Ti79  1  0.97418114  0.73261858  0.44975916  1
  Ti  Ti80  1  0.92858047  0.74782345  0.68567837  1
  Ti  Ti81  1  0.24943897  0.19942761  0.32958503  1
  Ti  Ti82  1  0.29295056  0.25998378  0.59746872  1
  Ti  Ti83  1  0.19058120  0.27794137  0.95065168  1
  Ti  Ti84  1  0.27122975  0.51934051  0.31569260  1
  Ti  Ti85  1  0.26521879  0.53732287  0.62849610  1
  Ti  Ti86  1  0.23493288  0.58063416  0.97554764  1
  Ti  Ti87  1  0.19992763  0.90492973  0.18267159  1
  Ti  Ti88  1  0.20685377  0.92597025  0.61720571  1
  Ti  Ti89  1  0.25061743  0.90574899  0.95245582  1
  Ti  Ti90  1  0.56288246  0.25703339  0.17658279  1
  Ti  Ti91  1  0.61044917  0.30351026  0.55962405  1
  Ti  Ti92  1  0.51597012  0.26082719  0.87210827  1
  Ti  Ti93  1  0.56792083  0.53674029  0.25946022  1
  Ti  Ti94  1  0.57810882  0.65645663  0.55448861  1
  Ti  Ti95  1  0.56039223  0.59908896  0.85083223  1
  Ti  Ti96  1  0.58385148  0.99172427  0.23432520  1
  Ti  Ti97  1  0.60428532  0.99503819  0.54762566  1
  Ti  Ti98  1  0.51855837  0.89197986  0.98591477  1
  Ti  Ti99  1  0.95799656  0.28902578  0.30163492  1
  Ti  Ti100  1  0.90207628  0.21370248  0.55287717  1
  Ti  Ti101  1  0.93209719  0.34278506  0.97456250  1
  Ti  Ti102  1  0.92802268  0.54806331  0.30029499  1
  Ti  Ti103  1  0.94871703  0.56000542  0.59337748  1
  Ti  Ti104  1  0.87031242  0.56070929  0.98720312  1
  Ti  Ti105  1  0.91195066  0.86384303  0.28694378  1
  Ti  Ti106  1  0.94279916  0.91505748  0.48327379  1
  Ti  Ti107  1  0.85371932  0.87091207  0.83031918  1
  Co  Co108  1  0.22930687  0.28013988  0.15056509  1
  Co  Co109  1  0.34605160  -0.02738568  0.69099634  1
  Co  Co110  1  0.86701226  0.28778745  0.15290682  1
  Co  Co111  1  0.27496926  0.11677221  0.14170191  1
  Co  Co112  1  0.82113589  0.75495127  0.38403953  1
  Co  Co113  1  0.03005844  0.47248514  0.04443503  1
  Co  Co114  1  0.61773060  0.26884938  0.34629741  1
  Co  Co115  1  0.44688194  0.10115466  0.77378471  1
  Co  Co116  1  -0.04809338  0.78953780  0.91191538  1
  Co  Co117  1  0.87225042  0.15629316  0.73294407  1
  Co  Co118  1  0.03397644  0.94163262  0.18675401  1
  Co  Co119  1  0.21798791  0.84773901  0.38285209  1
  Co  Co120  1  0.40236812  0.73326806  0.77550506  1
  Co  Co121  1  0.66579680  0.76409119  0.46370025  1
  Co  Co122  1  0.03180554  0.43732131  0.21197995  1
  Co  Co123  1  0.16114535  0.42886706  -0.04705972  1
  Co  Co124  1  0.26071241  0.08353219  0.57819469  1
  Co  Co125  1  0.28591090  0.69690711  0.66349930  1
  Co  Co126  1  0.11793993  0.79549671  0.67205666  1
  Co  Co127  1  0.64505971  0.80265770  0.89347072  1
  Co  Co128  1  0.69777447  0.16899637  0.22418179  1
  Co  Co129  1  0.63926249  0.58609856  0.70132856  1
  Co  Co130  1  0.24571790  0.78144448  0.54092802  1
  Co  Co131  1  0.58293527  0.69479767  0.34286527  1
  Co  Co132  1  0.81714499  0.57185719  0.71085245  1
  Co  Co133  1  0.30013019  0.55311618  0.46597626  1
  Co  Co134  1  0.20776391  0.73487679  0.91115094  1
  Co  Co135  1  0.88848149  0.64913502  0.85539395  1
  Co  Co136  1  0.56894589  0.84492069  0.14096312  1
  Co  Co137  1  0.65229463  -0.05834435  0.39131934  1
  Co  Co138  1  0.52843532  0.85554840  0.30301148  1
  Co  Co139  1  0.53364179  0.13870479  0.27847834  1
  Co  Co140  1  0.35963722  0.63065350  0.25741525  1
  Co  Co141  1  0.18286670  0.36502829  0.64188619  1
  Co  Co142  1  0.22228979  0.61807550  0.15834491  1
  Co  Co143  1  0.60060090  0.42438433  0.14793595  1
  Co  Co144  1  0.69970447  0.65306885  -0.04677754  1
  Co  Co145  1  0.60792186  0.28410933  0.74504373  1
  Co  Co146  1  0.60446587  0.14752030  0.62349365  1
  Co  Co147  1  -0.11499417  0.46252363  0.84995060  1
  Co  Co148  1  0.77734019  0.01570509  0.78575180  1
  Co  Co149  1  0.66298627  0.18430295  0.90708930  1
  Co  Co150  1  0.78413220  0.44721253  0.36128856  1
  Co  Co151  1  0.23387799  0.01619565  0.27658961  1
  Co  Co152  1  0.38850448  0.23002565  0.20975487  1
  Co  Co153  1  0.72720366  0.52323075  0.84868530  1
  Co  Co154  1  -0.02551363  0.56989613  0.75026774  1
  Co  Co155  1  0.64566916  0.33004766  0.00799236  1
  Co  Co156  1  0.51062181  0.56304033  0.11136150  1
  Co  Co157  1  0.09140654  0.83654955  0.50787652  1
  Co  Co158  1  0.20702228  0.62835872  0.78704872  1
  Co  Co159  1  0.35687978  0.56265042  0.81665636  1
  Co  Co160  1  0.46065343  0.09605879  0.12106056  1
  Co  Co161  1  0.39765563  0.66984573  0.54226725  1
  Ni  Ni162  1  0.44074632  0.31724767  0.52473408  1
  Ni  Ni163  1  0.57332069  0.42600645  -0.12184263  1
  Ni  Ni164  1  0.19957993  0.27011208  0.78278341  1
  Ni  Ni165  1  0.05378261  0.68227878  -0.01043382  1
  Ni  Ni166  1  0.51730325  -0.03856775  0.69891567  1
  Ni  Ni167  1  0.77210936  0.34995311  0.54762691  1
  Ni  Ni168  1  0.37985078  -0.00964333  0.01880610  1
  Ni  Ni169  1  0.11312154  0.55589284  0.29453004  1
  Ni  Ni170  1  0.08552508  0.16041975  0.01746383  1
  Ni  Ni171  1  0.32013810  0.78350414  0.20804720  1
  Ni  Ni172  1  0.91886717  0.04549651  0.59081990  1
  Ni  Ni173  1  0.30995622  0.35382458  0.29119581  1
  Ni  Ni174  1  0.02712787  0.57854273  0.43904027  1
  Ni  Ni175  1  0.35624861  0.82804441  0.05117276  1
  Ni  Ni176  1  0.09282227  0.84499375  -0.03872492  1
  Ni  Ni177  1  0.84768805  0.16111696  0.28876434  1
  Ni  Ni178  1  0.35731791  0.40623226  0.69460117  1
  Ni  Ni179  1  0.03530313  0.42676152  0.37514828  1
  Ni  Ni180  1  0.02111113  0.35312095  0.59322685  1
  Ni  Ni181  1  0.34896409  0.21563626  0.87192921  1
  Ni  Ni182  1  0.70638371  0.74408476  0.64834753  1
  Ni  Ni183  1  0.36697888  -0.09785543  0.32902900  1
  Ni  Ni184  1  -0.04632448  0.03648552  0.29212169  1
  Ni  Ni185  1  0.15184163  0.18475013  0.64253845  1
  Ni  Ni186  1  0.31370215  0.39726161  0.02951910  1
  Ni  Ni187  1  0.78543801  0.41124993  0.01783200  1
  Ni  Ni188  1  0.52335734  0.17121308  0.48044251  1
  Ni  Ni189  1  0.70137241  0.41630758  0.69306456  1
  Ni  Ni190  1  0.23528378  -0.01252463  0.81127690  1
  Ni  Ni191  1  0.34929389  0.52001454  0.12947745  1
  Ni  Ni192  1  0.83978320  0.90010482  0.66261577  1
  Ni  Ni193  1  0.58631897  0.83795989  0.60217149  1
  Ni  Ni194  1  -0.02668453  0.16861018  0.17653418  1
  Ni  Ni195  1  0.37321241  0.67107854  0.08548311  1
  Ni  Ni196  1  0.73502512  0.18352203  0.52509120  1
  Ni  Ni197  1  0.59178408  0.48849103  0.56604740  1
  Ni  Ni198  1  0.88601696  0.29497020  0.81885719  1
  Ni  Ni199  1  0.86045397  0.57309397  0.44569462  1
  Ni  Ni200  1  0.84438322  0.92527825  -0.01312806  1
  Ni  Ni201  1  -0.02904000  0.10921681  0.44111859  1
  Ni  Ni202  1  0.08626411  0.48671567  0.67843891  1
  Ni  Ni203  1  0.43150238  0.43648224  0.37922407  1
  Ni  Ni204  1  0.66223255  0.00199953  -0.08172632  1
  Ni  Ni205  1  0.35686584  0.90592194  0.50122653  1
  Ni  Ni206  1  0.82301118  -0.13132381  0.14514373  1
  Ni  Ni207  1  -0.01626282  0.18124879  0.87927245  1
  Ni  Ni208  1  0.11885335  0.10602076  0.38066290  1
  Ni  Ni209  1  -0.02154662  0.00332241  -0.07384906  1
  Ni  Ni210  1  0.35741710  0.16376607  0.46149848  1
  Ni  Ni211  1  0.54646149  0.20451304  0.02466306  1
  Ni  Ni212  1  0.91713974  0.18097546  0.02597649  1
  Ni  Ni213  1  0.01024274  0.70225974  0.28735042  1
  Ni  Ni214  1  0.00643440  -0.09145739  0.64483744  1
