# generated using pymatgen
data_Ti108Co54Ni53
_symmetry_space_group_name_H-M   'P 1'
_cell_length_a   14.66275332
_cell_length_b   14.61570471
_cell_length_c   14.64376476
_cell_angle_alpha   89.93067488
_cell_angle_beta   89.74390289
_cell_angle_gamma   89.98348578
_symmetry_Int_Tables_number   1
_chemical_formula_structural   Ti108Co54Ni53
_chemical_formula_sum   'Ti108 Co54 Ni53'
_cell_volume   3138.21980387
_cell_formula_units_Z   1
loop_
 _symmetry_equiv_pos_site_id
 _symmetry_equiv_pos_as_xyz
  1  'x, y, z'
loop_
 _atom_site_type_symbol
 _atom_site_label
 _atom_site_symmetry_multiplicity
 _atom_site_fract_x
 _atom_site_fract_y
 _atom_site_fract_z
 _atom_site_occupancy
  Ti  Ti0  1  0.11076636  0.12858207  0.31515759  1
  Ti  Ti1  1  0.07344750  0.02864615  0.52552800  1
  Ti  Ti2  1  0.12231881  0.12083332  0.93362488  1
  Ti  Ti3  1  0.12359732  0.44482662  0.27411420  1
  Ti  Ti4  1  0.10367156  0.39827426  0.60860475  1
  Ti  Ti5  1  0.10724468  0.47040073  0.96447405  1
  Ti  Ti6  1  -0.01233683  0.74559350  0.25665522  1
  Ti  Ti7  1  0.02563448  0.75865597  0.51597024  1
  Ti  Ti8  1  0.04301069  0.81411665  0.89463859  1
  Ti  Ti9  1  0.41777089  0.06388314  0.14111540  1
  Ti  Ti10  1  0.36077791  0.12288910  0.62657064  1
  Ti  Ti11  1  0.44931663  0.13001658  0.95715945  1
  Ti  Ti12  1  0.46622086  0.43524660  0.19436497  1
  Ti  Ti13  1  0.40987529  0.44426742  0.66633942  1
  Ti  Ti14  1  0.46879045  0.52297891  0.93404976  1
  Ti  Ti15  1  0.36888849  0.77937191  0.30107647  1
  Ti  Ti16  1  0.44837346  0.81127207  0.60224661  1
  Ti  Ti17  1  0.38133880  0.72292977  0.88658220  1
  Ti  Ti18  1  0.74443085  0.06999989  0.21208981  1
  Ti  Ti19  1  0.79584867  0.03014267  0.63287685  1
  Ti  Ti20  1  0.78800561  0.08679152  0.95838963  1
  Ti  Ti21  1  0.78245942  0.39337662  0.29377537  1
  Ti  Ti22  1  0.73034019  0.42920331  0.57825828  1
  Ti  Ti23  1  0.76087035  0.38300467  0.89636504  1
  Ti  Ti24  1  0.69417688  0.72526633  0.30738854  1
  Ti  Ti25  1  0.71783636  0.68693534  0.54565207  1
  Ti  Ti26  1  0.77167704  0.74999063  0.96729336  1
  Ti  Ti27  1  0.07912861  0.28776599  0.03521846  1
  Ti  Ti28  1  0.05980474  0.29803166  0.41710245  1
  Ti  Ti29  1  0.03968217  0.24781892  0.80233770  1
  Ti  Ti30  1  0.05608057  0.57227677  0.12319177  1
  Ti  Ti31  1  0.14614840  0.60745949  0.42424232  1
  Ti  Ti32  1  0.08593995  0.62023415  0.83551526  1
  Ti  Ti33  1  0.09915090  0.86118216  0.09530439  1
  Ti  Ti34  1  0.06357336  0.92818584  0.28828331  1
  Ti  Ti35  1  0.09921479  0.92959873  0.74623334  1
  Ti  Ti36  1  0.33908762  0.26802552  0.12682561  1
  Ti  Ti37  1  0.41128006  0.18790849  0.29559516  1
  Ti  Ti38  1  0.46924478  0.26587282  0.74936603  1
  Ti  Ti39  1  0.39131269  0.57725845  0.10609267  1
  Ti  Ti40  1  0.49576629  0.49513147  0.38998145  1
  Ti  Ti41  1  0.41514916  0.65025262  0.69575448  1
  Ti  Ti42  1  0.39501900  0.91018964  -0.00561864  1
  Ti  Ti43  1  0.52142054  0.89366145  0.40482417  1
  Ti  Ti44  1  0.47550989  0.85349633  0.79055207  1
  Ti  Ti45  1  0.75838128  0.33554090  0.09412154  1
  Ti  Ti46  1  0.69382651  0.24443868  0.40248863  1
  Ti  Ti47  1  0.85908977  0.17691105  0.76707201  1
  Ti  Ti48  1  0.74422465  0.55726342  0.08138877  1
  Ti  Ti49  1  0.80357591  0.55048625  0.43424026  1
  Ti  Ti50  1  0.78542890  0.67080171  0.77198409  1
  Ti  Ti51  1  0.80089435  0.83875533  0.16099224  1
  Ti  Ti52  1  0.70920272  0.93485885  0.47191278  1
  Ti  Ti53  1  0.65278131  0.93098837  0.74469052  1
  Ti  Ti54  1  0.23424549  0.01758858  0.06704147  1
  Ti  Ti55  1  0.27191485  0.07806324  0.41652957  1
  Ti  Ti56  1  0.25866197  0.03420880  0.77477556  1
  Ti  Ti57  1  0.30164556  0.41736064  -0.00315830  1
  Ti  Ti58  1  0.30169225  0.48811700  0.37494907  1
  Ti  Ti59  1  0.22521468  0.44635193  0.77346779  1
  Ti  Ti60  1  0.27732004  0.81139080  0.13928212  1
  Ti  Ti61  1  0.21533492  0.78803569  0.44464339  1
  Ti  Ti62  1  0.26037120  0.80627635  0.71382616  1
  Ti  Ti63  1  0.61313694  0.08732478  0.07151176  1
  Ti  Ti64  1  0.53761259  0.10175315  0.42159616  1
  Ti  Ti65  1  0.52028542  0.08623638  0.76477605  1
  Ti  Ti66  1  0.56820469  0.37569204  0.04414725  1
  Ti  Ti67  1  0.50059023  0.30288754  0.44656050  1
  Ti  Ti68  1  0.61518318  0.40564852  0.73236245  1
  Ti  Ti69  1  0.50111382  0.74933216  0.09480573  1
  Ti  Ti70  1  0.50592632  0.68889358  0.41193499  1
  Ti  Ti71  1  0.60173023  0.72286037  0.70780576  1
  Ti  Ti72  1  0.99508436  0.13816936  0.11827830  1
  Ti  Ti73  1  0.81942656  0.10951546  0.41417111  1
  Ti  Ti74  1  0.89744689  -0.02200875  0.79273957  1
  Ti  Ti75  1  0.90742079  0.44791548  0.03459868  1
  Ti  Ti76  1  0.98280860  0.47170923  0.42289087  1
  Ti  Ti77  1  0.91398106  0.42542540  0.62311979  1
  Ti  Ti78  1  0.95169775  0.73450425  0.05255000  1
  Ti  Ti79  1  0.85213388  0.76221099  0.39334220  1
  Ti  Ti80  1  0.95648309  0.79455133  0.71254977  1
  Ti  Ti81  1  0.22436616  0.27809789  0.28186709  1
  Ti  Ti82  1  0.28258426  0.29525441  0.47084663  1
  Ti  Ti83  1  0.27719912  0.22645982  0.94291698  1
  Ti  Ti84  1  0.24175799  0.62981698  0.24050962  1
  Ti  Ti85  1  0.26098346  0.54702844  0.57451557  1
  Ti  Ti86  1  0.24982697  0.59117653  0.92093308  1
  Ti  Ti87  1  0.26232230  0.95218588  0.27157780  1
  Ti  Ti88  1  0.28214157  0.93413727  0.56371266  1
  Ti  Ti89  1  0.21930832  0.82012980  0.94548892  1
  Ti  Ti90  1  0.58138973  0.30600803  0.25610225  1
  Ti  Ti91  1  0.63132880  0.25207644  0.60243217  1
  Ti  Ti92  1  0.66706925  0.21992888  0.82228364  1
  Ti  Ti93  1  0.57448373  0.59883527  0.22669821  1
  Ti  Ti94  1  0.56462046  0.55593798  0.56767140  1
  Ti  Ti95  1  0.65482659  0.54731712  0.87702512  1
  Ti  Ti96  1  0.56405562  0.96883272  0.23768440  1
  Ti  Ti97  1  0.54428620  0.98087093  0.59009377  1
  Ti  Ti98  1  0.59604407  0.96704863  0.91869263  1
  Ti  Ti99  1  0.92198375  0.21769718  0.30439363  1
  Ti  Ti100  1  0.83807357  0.23556359  0.56353001  1
  Ti  Ti101  1  0.89343070  0.25208719  0.96046998  1
  Ti  Ti102  1  0.91181531  0.54527746  0.25083039  1
  Ti  Ti103  1  0.96342764  0.61323965  0.68082679  1
  Ti  Ti104  1  0.91943987  0.50094069  0.83610242  1
  Ti  Ti105  1  0.86317781  0.93853862  0.31909805  1
  Ti  Ti106  1  0.85106914  0.84694197  0.56798781  1
  Ti  Ti107  1  0.89886850  0.92833359  0.99536315  1
  Co  Co108  1  0.11573672  0.54647323  0.68307500  1
  Co  Co109  1  0.64652578  0.59355182  0.40856977  1
  Co  Co110  1  0.65545495  0.22705439  0.13303852  1
  Co  Co111  1  0.10662165  0.74781541  0.73877773  1
  Co  Co112  1  0.76579524  0.23158859  0.25050794  1
  Co  Co113  1  0.42869608  -0.00034592  0.85081918  1
  Co  Co114  1  0.92782492  0.67425763  0.85025983  1
  Co  Co115  1  -0.01022536  0.36929902  -0.08971885  1
  Co  Co116  1  0.12324691  0.71302968  0.15757961  1
  Co  Co117  1  0.41439700  0.28675416  0.59191611  1
  Co  Co118  1  0.18230932  0.18567160  0.10877211  1
  Co  Co119  1  0.68608899  0.11139198  0.51187902  1
  Co  Co120  1  0.65424264  0.44764150  0.16040261  1
  Co  Co121  1  0.51361588  0.14551700  0.58102134  1
  Co  Co122  1  0.12879395  0.85855796  0.59914591  1
  Co  Co123  1  0.52755591  0.81166862  -0.05323854  1
  Co  Co124  1  0.41533449  0.60147439  0.53090896  1
  Co  Co125  1  0.37998134  0.81695714  0.46092756  1
  Co  Co126  1  0.57824061  0.78543347  0.51702524  1
  Co  Co127  1  0.65398093  0.78966098  0.85034001  1
  Co  Co128  1  0.52680212  0.67747173  0.84699876  1
  Co  Co129  1  -0.04440847  0.88782982  0.16473619  1
  Co  Co130  1  0.66417649  0.57364631  0.69454596  1
  Co  Co131  1  0.26855959  0.38248111  0.60607720  1
  Co  Co132  1  0.80767830  0.56870014  0.62449565  1
  Co  Co133  1  0.39543831  0.16946888  0.47207391  1
  Co  Co134  1  0.53504923  -0.05873882  0.06688116  1
  Co  Co135  1  0.88681166  0.67775897  0.54345098  1
  Co  Co136  1  0.36369536  0.15396138  0.81040037  1
  Co  Co137  1  0.65272948  0.39420387  0.44766715  1
  Co  Co138  1  0.29811643  0.04919213  -0.06864474  1
  Co  Co139  1  0.05332561  0.42679902  0.76991094  1
  Co  Co140  1  -0.11672146  0.82055153  0.87070566  1
  Co  Co141  1  0.15930114  -0.06289900  0.42250306  1
  Co  Co142  1  -0.04358318  0.37909991  0.29279991  1
  Co  Co143  1  0.38900514  -0.04311308  0.68663434  1
  Co  Co144  1  0.62984583  0.46042771  0.31107194  1
  Co  Co145  1  0.67201602  0.69113595  0.13695251  1
  Co  Co146  1  0.41255897  0.01533806  0.30924437  1
  Co  Co147  1  0.49196555  0.21945181  0.11818451  1
  Co  Co148  1  0.31843252  0.65237180  0.41154285  1
  Co  Co149  1  0.80504706  0.57671660  -0.06964489  1
  Co  Co150  1  0.30793184  0.89436191  0.83822155  1
  Co  Co151  1  0.39659174  0.42962515  0.50123139  1
  Co  Co152  1  -0.02328896  -0.06365546  0.63279458  1
  Co  Co153  1  -0.02172374  0.17136864  0.48542696  1
  Co  Co154  1  0.56243431  0.55569967  0.06910998  1
  Co  Co155  1  0.74459936  0.56666118  0.26191102  1
  Co  Co156  1  0.41438416  -0.00497734  0.48963369  1
  Co  Co157  1  0.14832318  -0.03973847  0.90622170  1
  Co  Co158  1  -0.03959077  0.63709401  0.39980494  1
  Co  Co159  1  0.54557200  0.39178775  0.57776372  1
  Co  Co160  1  0.07373227  0.60719591  0.28572032  1
  Co  Co161  1  0.06889848  0.27058014  0.22561390  1
  Ni  Ni162  1  -0.01310285  0.89270535  0.43458018  1
  Ni  Ni163  1  0.81693984  0.17069945  0.09840216  1
  Ni  Ni164  1  0.39995283  0.39325655  0.83924538  1
  Ni  Ni165  1  0.04323342  0.00093341  0.02444531  1
  Ni  Ni166  1  0.21781609  0.54817047  0.08563174  1
  Ni  Ni167  1  0.35803804  0.54624294  0.80806624  1
  Ni  Ni168  1  0.59374990  0.22291385  -0.02952255  1
  Ni  Ni169  1  0.65036430  0.10331476  0.66956349  1
  Ni  Ni170  1  0.24376441  0.63770759  0.73328795  1
  Ni  Ni171  1  0.15417507  0.17878259  0.47864606  1
  Ni  Ni172  1  0.77910718  0.46831236  0.75106989  1
  Ni  Ni173  1  0.91130516  0.29421862  0.14986604  1
  Ni  Ni174  1  0.90069240  0.34235545  0.77333773  1
  Ni  Ni175  1  0.38484483  0.35168797  0.31464796  1
  Ni  Ni176  1  0.57306544  0.13764306  0.24945150  1
  Ni  Ni177  1  0.84196847  0.36665437  0.45119762  1
  Ni  Ni178  1  0.27282192  0.11397779  0.23050799  1
  Ni  Ni179  1  0.68503761  0.84884232  0.60896760  1
  Ni  Ni180  1  0.53701816  0.78378003  0.26227784  1
  Ni  Ni181  1  0.78493580  0.83391088  0.73615376  1
  Ni  Ni182  1  0.14897080  0.68293487  0.59521924  1
  Ni  Ni183  1  0.43202186  0.30281783  -0.02561089  1
  Ni  Ni184  1  0.95282565  0.10264213  0.64560990  1
  Ni  Ni185  1  0.70010477  0.89046788  0.30661439  1
  Ni  Ni186  1  -0.02422648  0.58884311  -0.02351706  1
  Ni  Ni187  1  0.62438550  0.67663495  -0.02140204  1
  Ni  Ni188  1  0.30829296  0.69524385  0.03636524  1
  Ni  Ni189  1  0.67331224  0.04554819  0.35631260  1
  Ni  Ni190  1  0.18949976  0.36710820  0.12577461  1
  Ni  Ni191  1  0.17493217  0.79928861  0.28333839  1
  Ni  Ni192  1  0.02542793  0.41044552  0.14235567  1
  Ni  Ni193  1  -0.01393890  0.26824467  0.63759826  1
  Ni  Ni194  1  0.73219673  0.06416255  0.80385626  1
  Ni  Ni195  1  0.41122292  0.60955028  0.27393455  1
  Ni  Ni196  1  0.41833625  0.89290867  0.17917974  1
  Ni  Ni197  1  0.63846930  0.84810633  0.14900026  1
  Ni  Ni198  1  0.89968628  0.00709228  0.50820332  1
  Ni  Ni199  1  0.15946015  0.33280087  0.88280401  1
  Ni  Ni200  1  0.75788967  -0.07920479  0.88965626  1
  Ni  Ni201  1  -0.02272672  0.05387840  0.37031772  1
  Ni  Ni202  1  0.72906145  -0.04391702  0.05448655  1
  Ni  Ni203  1  0.11666031  0.03459042  0.17387140  1
  Ni  Ni204  1  0.29959972  0.45674804  0.20356495  1
  Ni  Ni205  1  0.12340287  0.68180576  -0.00138119  1
  Ni  Ni206  1  0.16015056  0.43494081  0.45266044  1
  Ni  Ni207  1  0.83584795  0.67847338  0.18184233  1
  Ni  Ni208  1  0.87613573  0.01952330  0.12991233  1
  Ni  Ni209  1  0.30598658  0.71742348  0.57456710  1
  Ni  Ni210  1  0.56573047  0.36342599  -0.12052997  1
  Ni  Ni211  1  0.75834474  0.30626144  0.70773149  1
  Ni  Ni212  1  -0.04149297  0.10710404  0.90451318  1
  Ni  Ni213  1  0.51784780  0.53245221  0.76907641  1
  Ni  Ni214  1  0.03544379  0.56589754  0.54272732  1
