# generated using pymatgen
data_Ti108Co54Ni53
_symmetry_space_group_name_H-M   'P 1'
_cell_length_a   14.51729791
_cell_length_b   14.42058031
_cell_length_c   14.50217158
_cell_angle_alpha   89.67158104
_cell_angle_beta   89.77684047
_cell_angle_gamma   90.14781858
_symmetry_Int_Tables_number   1
_chemical_formula_structural   Ti108Co54Ni53
_chemical_formula_sum   'Ti108 Co54 Ni53'
_cell_volume   3035.91540880
_cell_formula_units_Z   1
loop_
 _symmetry_equiv_pos_site_id
 _symmetry_equiv_pos_as_xyz
  1  'x, y, z'
loop_
 _atom_site_type_symbol
 _atom_site_label
 _atom_site_symmetry_multiplicity
 _atom_site_fract_x
 _atom_site_fract_y
 _atom_site_fract_z
 _atom_site_occupancy
  Ti  Ti0  1  0.07184861  0.07977038  0.21741893  1
  Ti  Ti1  1  0.12017498  0.10974315  0.56298272  1
  Ti  Ti2  1  0.07537963  0.06826676  1.00267572  1
  Ti  Ti3  1  0.05390218  0.37849736  0.30520481  1
  Ti  Ti4  1  0.14775762  0.48967635  0.57702287  1
  Ti  Ti5  1  0.02306879  0.34837456  0.95369788  1
  Ti  Ti6  1  0.09923249  0.69343389  0.21448208  1
  Ti  Ti7  1  0.14810072  0.75264454  0.59164404  1
  Ti  Ti8  1  0.11686592  0.72604238  0.92637871  1
  Ti  Ti9  1  0.38195280  0.14279004  0.29882321  1
  Ti  Ti10  1  0.41690887  0.07939576  0.68981954  1
  Ti  Ti11  1  0.48057281  0.07454179  0.88852780  1
  Ti  Ti12  1  0.39068025  0.44068481  0.26035533  1
  Ti  Ti13  1  0.44868226  0.37940262  0.63606656  1
  Ti  Ti14  1  0.35284465  0.46256744  0.95787942  1
  Ti  Ti15  1  0.51081991  0.80336397  0.24076388  1
  Ti  Ti16  1  0.45122399  0.70036173  0.58085838  1
  Ti  Ti17  1  0.46315368  0.77174268  0.86083466  1
  Ti  Ti18  1  0.68396445  0.18734038  0.25774135  1
  Ti  Ti19  1  0.70029881  0.00905110  0.49188495  1
  Ti  Ti20  1  0.66936860  0.10611155  0.90776114  1
  Ti  Ti21  1  0.70516226  0.41912120  0.24877702  1
  Ti  Ti22  1  0.79190142  0.37055864  0.68431175  1
  Ti  Ti23  1  0.73530378  0.40277904  0.90551448  1
  Ti  Ti24  1  0.74359736  0.67253340  0.30396538  1
  Ti  Ti25  1  0.77430531  0.71106659  0.51548335  1
  Ti  Ti26  1  0.77236946  0.76621737  0.92851481  1
  Ti  Ti27  1  0.11468849  0.27443046  0.09512601  1
  Ti  Ti28  1  0.07622073  0.30297293  0.48920057  1
  Ti  Ti29  1  0.11028176  0.36718137  0.78383532  1
  Ti  Ti30  1  0.03087007  0.58474594  0.02042040  1
  Ti  Ti31  1  0.07013337  0.57506980  0.41212979  1
  Ti  Ti32  1  0.09885461  0.56461616  0.76561338  1
  Ti  Ti33  1  0.10646404  0.88779126  0.19988820  1
  Ti  Ti34  1  0.07275741  0.92522488  0.48409265  1
  Ti  Ti35  1  0.06503400  1.01074042  0.71805469  1
  Ti  Ti36  1  0.36185642  0.25247466  0.11440127  1
  Ti  Ti37  1  0.40298958  0.22066612  0.49947169  1
  Ti  Ti38  1  0.47394800  0.25022708  0.81072297  1
  Ti  Ti39  1  0.45758848  0.67394662  0.05533104  1
  Ti  Ti40  1  0.40577646  0.56631229  0.39982853  1
  Ti  Ti41  1  0.40173437  0.58323740  0.72366954  1
  Ti  Ti42  1  0.46563412  0.97122481  0.06964641  1
  Ti  Ti43  1  0.40953309  0.85989636  0.41318043  1
  Ti  Ti44  1  0.39287913  0.89644253  0.70177817  1
  Ti  Ti45  1  0.78852589  0.32383666  0.08979494  1
  Ti  Ti46  1  0.80717331  0.15445513  0.44810907  1
  Ti  Ti47  1  0.77013577  0.21231443  0.79334865  1
  Ti  Ti48  1  0.66431240  0.58805429  -0.00283498  1
  Ti  Ti49  1  0.69724075  0.53049396  0.42397979  1
  Ti  Ti50  1  0.72066165  0.57996338  0.66258613  1
  Ti  Ti51  1  0.76414530  0.95191795  0.01740625  1
  Ti  Ti52  1  0.77398461  0.87272951  0.39908360  1
  Ti  Ti53  1  0.74406147  0.78953496  0.68364427  1
  Ti  Ti54  1  0.23887047  -0.01665929  0.08926022  1
  Ti  Ti55  1  0.21139118  0.10035831  0.40508873  1
  Ti  Ti56  1  0.21615287  0.16130193  0.73515147  1
  Ti  Ti57  1  0.23979567  0.41820733  0.12099168  1
  Ti  Ti58  1  0.26108926  0.42887144  0.43542564  1
  Ti  Ti59  1  0.30008513  0.34084626  0.80099175  1
  Ti  Ti60  1  0.21915658  0.78365184  0.08788638  1
  Ti  Ti61  1  0.18989868  0.77793624  0.37999027  1
  Ti  Ti62  1  0.26290338  0.76724169  0.82140185  1
  Ti  Ti63  1  0.52778087  0.14599415  0.17633416  1
  Ti  Ti64  1  0.53239701  0.04652871  0.36927705  1
  Ti  Ti65  1  0.61840061  0.13385391  0.72772234  1
  Ti  Ti66  1  0.59416163  0.29566881  0.05922322  1
  Ti  Ti67  1  0.58770682  0.31712802  0.49257432  1
  Ti  Ti68  1  0.61571122  0.36701102  0.75040297  1
  Ti  Ti69  1  0.66545454  0.79824261  0.09814436  1
  Ti  Ti70  1  0.61073241  0.75646905  0.42560943  1
  Ti  Ti71  1  0.60194135  0.68672586  0.76567816  1
  Ti  Ti72  1  0.92416958  0.10944248  0.11256344  1
  Ti  Ti73  1  1.00578863  0.10416403  0.41138451  1
  Ti  Ti74  1  0.93598216  0.23919802  0.71662178  1
  Ti  Ti75  1  0.84549029  0.50738632  0.06654643  1
  Ti  Ti76  1  0.87010462  0.42747948  0.36796243  1
  Ti  Ti77  1  0.95605975  0.48355379  0.68032472  1
  Ti  Ti78  1  0.88519903  0.71666814  0.16677045  1
  Ti  Ti79  1  0.96986517  0.73390064  0.49096398  1
  Ti  Ti80  1  1.05160076  0.76761706  0.74540061  1
  Ti  Ti81  1  0.22164926  0.23484881  0.25438205  1
  Ti  Ti82  1  0.22152252  0.30764552  0.61492321  1
  Ti  Ti83  1  0.22198099  0.18166913  0.94835869  1
  Ti  Ti84  1  0.27460951  0.60141417  0.23175311  1
  Ti  Ti85  1  0.28128067  0.61916651  0.56819050  1
  Ti  Ti86  1  0.25380435  0.60896265  1.01609375  1
  Ti  Ti87  1  0.31022774  0.89182396  0.24123967  1
  Ti  Ti88  1  0.25535047  0.91976875  0.53870450  1
  Ti  Ti89  1  0.27529293  0.94270336  0.89602103  1
  Ti  Ti90  1  0.53559319  0.33029709  0.26620829  1
  Ti  Ti91  1  0.55409525  0.10114046  0.55315065  1
  Ti  Ti92  1  0.52864567  0.40542831  0.92428749  1
  Ti  Ti93  1  0.57813868  0.56474776  0.19076556  1
  Ti  Ti94  1  0.54432591  0.54832125  0.52492943  1
  Ti  Ti95  1  0.50283141  0.58514191  0.88664794  1
  Ti  Ti96  1  0.63514708  0.97441596  0.20578220  1
  Ti  Ti97  1  0.52526279  0.89789012  0.54778354  1
  Ti  Ti98  1  0.59791221  0.92010109  0.91836925  1
  Ti  Ti99  1  0.85675897  0.23581935  0.25626071  1
  Ti  Ti100  1  0.88374016  0.32548444  0.53680235  1
  Ti  Ti101  1  0.93543633  0.18416002  0.91613303  1
  Ti  Ti102  1  0.98819056  0.52744383  0.21598800  1
  Ti  Ti103  1  0.85129178  0.53493527  0.53506650  1
  Ti  Ti104  1  0.94045846  0.65423423  0.84207927  1
  Ti  Ti105  1  0.86728609  0.92612918  0.22544341  1
  Ti  Ti106  1  0.85564390  0.89419780  0.57579540  1
  Ti  Ti107  1  0.96177266  0.85391867  0.92098714  1
  Co  Co108  1  0.86207172  0.60217655  0.39459177  1
  Co  Co109  1  0.87672707  -0.01073568  0.42954760  1
  Co  Co110  1  0.82325204  0.56708285  -0.07554748  1
  Co  Co111  1  0.51213165  0.82469092  0.02681490  1
  Co  Co112  1  0.04475636  0.35706882  0.63439152  1
  Co  Co113  1  0.42977621  0.92339526  0.87496367  1
  Co  Co114  1  0.46187555  0.70882228  0.38994266  1
  Co  Co115  1  -0.04133810  0.18136365  0.55361930  1
  Co  Co116  1  0.68234526  0.85612957  0.55032009  1
  Co  Co117  1  -0.03842046  0.02008634  0.56278366  1
  Co  Co118  1  0.10183102  0.22260093  0.35281352  1
  Co  Co119  1  0.21883676  0.33978275  0.94367042  1
  Co  Co120  1  0.64779566  -0.01905035  0.64851387  1
  Co  Co121  1  0.01225385  0.24080913  0.22441231  1
  Co  Co122  1  0.45329884  -0.02302072  0.24227517  1
  Co  Co123  1  0.76986126  0.24664544  -0.04498053  1
  Co  Co124  1  0.74903830  0.38895057  0.49371128  1
  Co  Co125  1  0.34216917  0.61890597  0.87159203  1
  Co  Co126  1  0.58604379  0.90247568  0.36345493  1
  Co  Co127  1  0.23717359  0.38192613  0.28439665  1
  Co  Co128  1  0.43356945  0.43575966  0.79147607  1
  Co  Co129  1  0.54212070  -0.01765682  0.76536472  1
  Co  Co130  1  0.36185460  0.29812802  0.35345432  1
  Co  Co131  1  0.15488079  0.51362155  0.29475781  1
  Co  Co132  1  0.88889349  0.08400733  0.29327816  1
  Co  Co133  1  0.14020215  0.55342308  0.13614371  1
  Co  Co134  1  0.56741331  0.46120906  0.35739913  1
  Co  Co135  1  0.07732339  0.20613813  0.67636628  1
  Co  Co136  1  0.70306204  0.31194945  0.36685924  1
  Co  Co137  1  0.15377340  0.04003936  0.86167512  1
  Co  Co138  1  0.10952485  0.88644402  0.84265095  1
  Co  Co139  1  0.51465562  0.21565399  0.36354280  1
  Co  Co140  1  0.27894887  0.12257454  0.57398388  1
  Co  Co141  1  0.30919767  0.77384508  0.64604828  1
  Co  Co142  1  0.01104508  0.86976937  0.62307857  1
  Co  Co143  1  0.24469627  0.05174513  0.24431725  1
  Co  Co144  1  0.51721867  0.51850606  0.04372690  1
  Co  Co145  1  0.51574517  0.22990593  0.64549215  1
  Co  Co146  1  0.23612247  0.61446063  0.40515416  1
  Co  Co147  1  0.31241826  0.74944948  0.47756162  1
  Co  Co148  1  0.02118727  0.41210953  0.11056500  1
  Co  Co149  1  0.61424417  0.73430101  -0.05906268  1
  Co  Co150  1  0.61740902  0.25981965  0.88660578  1
  Co  Co151  1  0.58084015  0.62396956  0.33304188  1
  Co  Co152  1  0.35880807  0.23897772  0.67815315  1
  Co  Co153  1  0.89201941  0.38670752  0.20575784  1
  Co  Co154  1  -0.05726108  0.26862263  0.08278484  1
  Co  Co155  1  0.32922661  0.76054724  -0.02820738  1
  Co  Co156  1  0.64532530  0.16219052  0.42986265  1
  Co  Co157  1  0.32914324  0.73947408  0.30039040  1
  Co  Co158  1  0.73523715  0.03466438  0.33049746  1
  Co  Co159  1  0.38008657  0.53356555  0.11980543  1
  Co  Co160  1  0.60953645  0.70725268  0.58703517  1
  Co  Co161  1  0.44973899  0.39700007  0.44302504  1
  Ni  Ni162  1  -0.06474774  0.25525216  0.39578775  1
  Ni  Ni163  1  0.83084725  0.49431474  0.78399594  1
  Ni  Ni164  1  -0.00286751  0.45389523  0.49925991  1
  Ni  Ni165  1  0.68524277  0.85260042  0.81132861  1
  Ni  Ni166  1  0.25732086  0.01237420  0.70048696  1
  Ni  Ni167  1  0.56253053  0.83310245  0.69528015  1
  Ni  Ni168  1  0.34243889  0.07263591  -0.01726366  1
  Ni  Ni169  1  -0.02046314  0.48417316  0.86758177  1
  Ni  Ni170  1  0.69767962  0.16832030  0.08835959  1
  Ni  Ni171  1  0.02669588  0.61131471  0.59601049  1
  Ni  Ni172  1  0.55594052  0.52170832  0.70469791  1
  Ni  Ni173  1  0.70327577  0.83162490  0.25651794  1
  Ni  Ni174  1  0.21987157  0.50380441  0.85558732  1
  Ni  Ni175  1  0.65149343  0.44033376  0.59933375  1
  Ni  Ni176  1  0.43905586  0.64785593  0.22695753  1
  Ni  Ni177  1  -0.01520175  -0.06212550  0.09863080  1
  Ni  Ni178  1  0.86576343  0.83324275  0.05747950  1
  Ni  Ni179  1  0.11924148  0.90344384  0.00024556  1
  Ni  Ni180  1  0.61428588  0.03697247  0.04858136  1
  Ni  Ni181  1  0.38136543  0.81210187  0.12310466  1
  Ni  Ni182  1  0.65441834  0.44254780  0.09136958  1
  Ni  Ni183  1  0.34053889  0.15104503  0.83436384  1
  Ni  Ni184  1  0.78823368  0.66765741  0.79020412  1
  Ni  Ni185  1  0.45274043  0.38335928  0.10618797  1
  Ni  Ni186  1  0.38402204  0.27925103  -0.04785925  1
  Ni  Ni187  1  0.13858453  0.46420581  -0.00703751  1
  Ni  Ni188  1  0.87684300  0.78441566  0.32492250  1
  Ni  Ni189  1  0.16788204  -0.05023831  0.34515119  1
  Ni  Ni190  1  0.00154604  -0.03440244  0.32176536  1
  Ni  Ni191  1  0.36018384  0.48018004  0.55623300  1
  Ni  Ni192  1  0.33457275  -0.00407280  0.37065567  1
  Ni  Ni193  1  0.36657405  0.08832420  0.13971791  1
  Ni  Ni194  1  0.67509844  0.54389657  0.83288150  1
  Ni  Ni195  1  0.82043264  0.53660955  0.23936125  1
  Ni  Ni196  1  0.23654030  0.63782689  0.72940727  1
  Ni  Ni197  1  0.03659111  0.81536280  0.34885833  1
  Ni  Ni198  1  0.18937452  0.87191900  0.70746796  1
  Ni  Ni199  1  0.82007144  0.09792293  -0.01110348  1
  Ni  Ni200  1  0.88313989  0.33796418  0.84775630  1
  Ni  Ni201  1  0.77765202  0.05945951  0.17096008  1
  Ni  Ni202  1  0.39485122  0.02093933  0.51886807  1
  Ni  Ni203  1  0.26605193  0.46855247  0.69302551  1
  Ni  Ni204  1  0.08015064  0.18605990  0.84196985  1
  Ni  Ni205  1  0.20803983  0.14213628  0.11396250  1
  Ni  Ni206  1  0.81002428  0.16615460  0.62384217  1
  Ni  Ni207  1  0.23684882  0.25482832  0.45773593  1
  Ni  Ni208  1  0.03718724  0.77239686  0.07023648  1
  Ni  Ni209  1  0.73680757  0.64219397  0.13693400  1
  Ni  Ni210  1  -0.03018145  0.66174548  0.30616028  1
  Ni  Ni211  1  0.50657943  0.17005343  0.01116249  1
  Ni  Ni212  1  -0.09889172  0.67854383  0.00779618  1
  Ni  Ni213  1  0.90065742  0.71786985  0.64771738  1
  Ni  Ni214  1  0.68097907  0.26288602  0.61741676  1
