# generated using pymatgen
data_Ti108Co54Ni53
_symmetry_space_group_name_H-M   'P 1'
_cell_length_a   14.50389610
_cell_length_b   14.49418335
_cell_length_c   14.50171417
_cell_angle_alpha   90.04107088
_cell_angle_beta   89.97449668
_cell_angle_gamma   90.72796816
_symmetry_Int_Tables_number   1
_chemical_formula_structural   Ti108Co54Ni53
_chemical_formula_sum   'Ti108 Co54 Ni53'
_cell_volume   3048.33409964
_cell_formula_units_Z   1
loop_
 _symmetry_equiv_pos_site_id
 _symmetry_equiv_pos_as_xyz
  1  'x, y, z'
loop_
 _atom_site_type_symbol
 _atom_site_label
 _atom_site_symmetry_multiplicity
 _atom_site_fract_x
 _atom_site_fract_y
 _atom_site_fract_z
 _atom_site_occupancy
  Ti  Ti0  1  0.04434885  0.13389435  0.30659321  1
  Ti  Ti1  1  0.19661419  0.09294754  0.55998266  1
  Ti  Ti2  1  0.07840550  0.07752961  0.99678395  1
  Ti  Ti3  1  0.09473300  0.35769248  0.24588077  1
  Ti  Ti4  1  0.02964067  0.48301339  0.54810637  1
  Ti  Ti5  1  0.05925833  0.45399322  0.92835967  1
  Ti  Ti6  1  0.10584205  0.75281619  0.20316684  1
  Ti  Ti7  1  0.03979117  0.76512729  0.60522308  1
  Ti  Ti8  1  0.02319289  0.66029142  0.89586661  1
  Ti  Ti9  1  0.48192044  0.08513407  0.20319958  1
  Ti  Ti10  1  0.40337372  0.21191298  0.61503390  1
  Ti  Ti11  1  0.42100768  0.06527280  0.95181863  1
  Ti  Ti12  1  0.43441840  0.42655492  0.22955098  1
  Ti  Ti13  1  0.43986019  0.39176266  0.58460058  1
  Ti  Ti14  1  0.40313690  0.46617955  0.89122728  1
  Ti  Ti15  1  0.39393143  0.71972940  0.18929143  1
  Ti  Ti16  1  0.35149079  0.72283319  0.54921136  1
  Ti  Ti17  1  0.37276817  0.80218336  0.99291385  1
  Ti  Ti18  1  0.75627045  0.09617097  0.29925174  1
  Ti  Ti19  1  0.74448581  -0.02244480  0.63078659  1
  Ti  Ti20  1  0.75100835  0.14577613  0.91024470  1
  Ti  Ti21  1  0.75175029  0.41386843  0.30066453  1
  Ti  Ti22  1  0.72314853  0.41076915  0.52257495  1
  Ti  Ti23  1  0.73261282  0.39453223  0.97262296  1
  Ti  Ti24  1  0.72724507  0.75033032  0.25823400  1
  Ti  Ti25  1  0.84197852  0.80070387  0.59335229  1
  Ti  Ti26  1  0.75551573  0.80215418  0.89738240  1
  Ti  Ti27  1  0.11800823  0.22932858  0.10959672  1
  Ti  Ti28  1  0.02132147  0.24097395  0.47452537  1
  Ti  Ti29  1  0.09147625  0.29300647  0.76090649  1
  Ti  Ti30  1  0.12524987  0.60628352  0.04601906  1
  Ti  Ti31  1  0.10500754  0.54889858  0.36066546  1
  Ti  Ti32  1  0.09093527  0.61273624  0.71120654  1
  Ti  Ti33  1  0.14728477  0.93594407  0.11728858  1
  Ti  Ti34  1  0.11506634  0.95403126  0.46777263  1
  Ti  Ti35  1  0.07931852  0.99002337  0.80275522  1
  Ti  Ti36  1  0.42609714  0.25400821  0.10498927  1
  Ti  Ti37  1  0.48754523  0.21928083  0.43347587  1
  Ti  Ti38  1  0.37383138  0.29895768  0.77677716  1
  Ti  Ti39  1  0.46267043  0.62091965  0.00376774  1
  Ti  Ti40  1  0.35313025  0.56974612  0.42844301  1
  Ti  Ti41  1  0.48465582  0.66594777  0.72560057  1
  Ti  Ti42  1  0.35869449  0.94186851  0.12824536  1
  Ti  Ti43  1  0.42744427  0.93800578  0.48552682  1
  Ti  Ti44  1  0.39429798  0.86154364  0.71883484  1
  Ti  Ti45  1  0.75261929  0.20060415  0.08673334  1
  Ti  Ti46  1  0.71170744  0.24320105  0.40642111  1
  Ti  Ti47  1  0.73779972  0.16184747  0.72749482  1
  Ti  Ti48  1  0.77318215  0.55438005  0.15253051  1
  Ti  Ti49  1  0.79157024  0.58361528  0.35293953  1
  Ti  Ti50  1  0.77870169  0.50398170  0.71433553  1
  Ti  Ti51  1  0.81811238  0.87323072  0.08916458  1
  Ti  Ti52  1  0.74495206  0.89644690  0.42492483  1
  Ti  Ti53  1  0.68552435  0.98092649  0.82050065  1
  Ti  Ti54  1  0.27094928  0.11108284  0.05230618  1
  Ti  Ti55  1  0.22812667  0.10346021  0.34829985  1
  Ti  Ti56  1  0.22511536  0.15226896  0.74417831  1
  Ti  Ti57  1  0.25558232  0.47418231  0.00217188  1
  Ti  Ti58  1  0.22774859  0.42860012  0.38864591  1
  Ti  Ti59  1  0.27159965  0.44221417  0.70841748  1
  Ti  Ti60  1  0.20269552  0.78349424  0.03654658  1
  Ti  Ti61  1  0.22755009  0.69394631  0.34154159  1
  Ti  Ti62  1  0.24158430  0.72556713  0.71661901  1
  Ti  Ti63  1  0.58057387  0.13687545  0.02634655  1
  Ti  Ti64  1  0.61852661  0.03893107  0.46901081  1
  Ti  Ti65  1  0.43456544  0.09929885  0.75080090  1
  Ti  Ti66  1  0.56382690  0.46414032  0.06121897  1
  Ti  Ti67  1  0.54295323  0.50818914  0.45316810  1
  Ti  Ti68  1  0.62876629  0.37945640  0.71073293  1
  Ti  Ti69  1  0.60740575  0.68572202  0.13818669  1
  Ti  Ti70  1  0.58081477  0.70324879  0.49380606  1
  Ti  Ti71  1  0.67926262  0.75730789  0.71974228  1
  Ti  Ti72  1  0.87374839  0.06737370  0.02371879  1
  Ti  Ti73  1  0.92468087  -0.01614304  0.34995098  1
  Ti  Ti74  1  0.89195264  0.04799262  0.79056525  1
  Ti  Ti75  1  0.95807593  0.46709010  0.11775054  1
  Ti  Ti76  1  0.88450762  0.38210007  0.42140708  1
  Ti  Ti77  1  0.92157641  0.38866226  0.75642368  1
  Ti  Ti78  1  0.99178349  0.79518344  0.06388913  1
  Ti  Ti79  1  0.91533860  0.73757814  0.41654259  1
  Ti  Ti80  1  0.88394060  0.68817922  0.74719292  1
  Ti  Ti81  1  0.30715621  0.28614506  0.29181466  1
  Ti  Ti82  1  0.28169074  0.26956096  0.48169337  1
  Ti  Ti83  1  0.28374661  0.29119079  0.96794003  1
  Ti  Ti84  1  0.24614387  0.47503904  0.20271479  1
  Ti  Ti85  1  0.20242723  0.59156059  0.55081580  1
  Ti  Ti86  1  0.21337113  0.56009741  0.84363690  1
  Ti  Ti87  1  0.23564565  0.90507756  0.30222050  1
  Ti  Ti88  1  0.26057782  0.88852555  0.59053513  1
  Ti  Ti89  1  0.23092503  0.88043092  0.81825110  1
  Ti  Ti90  1  0.62196027  0.26264855  0.21767157  1
  Ti  Ti91  1  0.62085387  0.22130204  0.58780086  1
  Ti  Ti92  1  0.61312180  0.28286997  0.88732244  1
  Ti  Ti93  1  0.61949548  0.50875440  0.24720457  1
  Ti  Ti94  1  0.59883636  0.54347602  0.62489062  1
  Ti  Ti95  1  0.60286478  0.68189877  0.90422245  1
  Ti  Ti96  1  0.62610568  0.90559018  0.16425077  1
  Ti  Ti97  1  0.55268467  0.93042555  0.63092971  1
  Ti  Ti98  1  0.54583922  0.89383412  0.94879328  1
  Ti  Ti99  1  0.84763283  0.28750754  0.22059781  1
  Ti  Ti100  1  0.90261942  0.13881411  0.60487577  1
  Ti  Ti101  1  0.93417372  0.24115301  0.92500567  1
  Ti  Ti102  1  0.92263104  0.65194929  0.23196899  1
  Ti  Ti103  1  0.86276944  0.59455518  0.54502550  1
  Ti  Ti104  1  0.85191536  0.55301423  0.97890724  1
  Ti  Ti105  1  0.97422054  0.99771829  0.16430547  1
  Ti  Ti106  1  0.97150908  0.95730394  0.63098639  1
  Ti  Ti107  1  0.94880795  0.85029707  0.86339783  1
  Co  Co108  1  0.20671623  0.06289621  0.89110741  1
  Co  Co109  1  -0.09951730  0.13150073  0.22835012  1
  Co  Co110  1  0.26312250  0.29311699  0.63882074  1
  Co  Co111  1  -0.01068921  0.84822359  0.24794152  1
  Co  Co112  1  0.04005464  0.68568250  0.32553288  1
  Co  Co113  1  -0.07203445  0.54345744  0.83172543  1
  Co  Co114  1  0.49252500  0.58514683  0.17419040  1
  Co  Co115  1  0.22942473  0.64447373  0.16597736  1
  Co  Co116  1  0.33844777  0.58308729  0.27103405  1
  Co  Co117  1  -0.05004877  0.56085788  0.40923225  1
  Co  Co118  1  0.64624600  0.08136637  0.16417842  1
  Co  Co119  1  0.50737103  0.37517555  0.81858414  1
  Co  Co120  1  0.74820521  0.72911743  0.43838098  1
  Co  Co121  1  0.85239049  0.35344356  0.07033579  1
  Co  Co122  1  0.83634026  0.26442210  0.52298358  1
  Co  Co123  1  0.78061964  0.30373882  0.66315999  1
  Co  Co124  1  0.01453691  0.07550308  0.48962540  1
  Co  Co125  1  0.70658274  0.38324420  0.13935413  1
  Co  Co126  1  0.91892551  0.21392570  0.75871657  1
  Co  Co127  1  0.72238626  0.65139670  0.01732308  1
  Co  Co128  1  0.53761600  0.23481080  0.72633549  1
  Co  Co129  1  0.87316723  0.42110793  0.59018918  1
  Co  Co130  1  0.82918306  0.71618649  0.11596498  1
  Co  Co131  1  0.94168020  0.19910836  0.09130053  1
  Co  Co132  1  0.21715824  0.38060615  0.84739175  1
  Co  Co133  1  0.51445399  -0.01302691  0.07939015  1
  Co  Co134  1  0.40294580  0.38832484  0.40718684  1
  Co  Co135  1  0.45332062  0.26143183  -0.05648548  1
  Co  Co136  1  0.62942019  0.64668047  0.34146737  1
  Co  Co137  1  0.63911045  0.58044655  0.77053911  1
  Co  Co138  1  0.09067473  -0.02780528  0.29088196  1
  Co  Co139  1  0.26525211  -0.05128761  -0.01078956  1
  Co  Co140  1  0.79316722  0.01499045  0.16330360  1
  Co  Co141  1  0.28142824  -0.02021440  0.44381444  1
  Co  Co142  1  0.60898133  0.07414126  0.68461021  1
  Co  Co143  1  -0.01769023  -0.05536724  0.00018354  1
  Co  Co144  1  -0.05261360  0.54563311  0.67551793  1
  Co  Co145  1  0.73441434  0.64939643  0.62682838  1
  Co  Co146  1  0.04912308  0.10323188  0.68098277  1
  Co  Co147  1  0.39534607  0.40728968  0.05917583  1
  Co  Co148  1  0.48078174  0.55777271  0.32657730  1
  Co  Co149  1  0.26704351  0.80751063  0.18763571  1
  Co  Co150  1  0.49969501  0.81153868  0.09680891  1
  Co  Co151  1  -0.02834932  0.27970891  0.31375309  1
  Co  Co152  1  -0.03353350  0.62920769  0.07744834  1
  Co  Co153  1  0.32814910  0.16984744  0.87539948  1
  Co  Co154  1  0.35389131  0.55821817  0.10877789  1
  Co  Co155  1  0.08028203  0.46463560  0.76919613  1
  Co  Co156  1  0.87953260  0.71849892  -0.04392520  1
  Co  Co157  1  0.49666016  0.08671885  0.56479470  1
  Co  Co158  1  0.49044816  0.78220598  0.60128707  1
  Co  Co159  1  0.89844513  0.40377739  -0.07886204  1
  Co  Co160  1  0.58496624  0.30185519  0.05702645  1
  Co  Co161  1  0.74420337  0.12556753  0.53735398  1
  Ni  Ni162  1  0.46216518  0.24002526  0.27634382  1
  Ni  Ni163  1  0.15148931  0.26112082  0.37067772  1
  Ni  Ni164  1  0.04923964  0.39783258  0.40513974  1
  Ni  Ni165  1  -0.04859570  0.87961447  0.48172930  1
  Ni  Ni166  1  0.12868201  0.42846942  0.09291741  1
  Ni  Ni167  1  0.01220583  0.33346228  0.03700509  1
  Ni  Ni168  1  0.04655514  0.14438912  0.84013305  1
  Ni  Ni169  1  0.85296269  0.00642140  0.50349843  1
  Ni  Ni170  1  0.07661578  0.78385770  0.77708202  1
  Ni  Ni171  1  0.35493443  0.11404971  0.48958459  1
  Ni  Ni172  1  0.57824514  0.12500305  0.85287612  1
  Ni  Ni173  1  0.56030521  0.83255822  0.77695334  1
  Ni  Ni174  1  0.82131802  0.87743508  0.74950048  1
  Ni  Ni175  1  0.94569290  0.45573066  0.27921884  1
  Ni  Ni176  1  0.69792087  0.57458278  0.48536677  1
  Ni  Ni177  1  0.57422802  0.35326007  0.49756263  1
  Ni  Ni178  1  0.78356638  0.30270202  0.83083823  1
  Ni  Ni179  1  0.26238975  0.31180237  0.13525894  1
  Ni  Ni180  1  0.45785186  0.48937013  0.72061466  1
  Ni  Ni181  1  0.64348584  -0.02423438  0.30861668  1
  Ni  Ni182  1  0.66079845  0.80521441  0.03265492  1
  Ni  Ni183  1  0.33872901  0.03070617  0.63558263  1
  Ni  Ni184  1  0.82497714  -0.04366448  0.91497632  1
  Ni  Ni185  1  0.07780275  0.66840383  0.48023628  1
  Ni  Ni186  1  0.12376289  0.89997942  0.66677184  1
  Ni  Ni187  1  0.12412718  0.25918888  -0.07107751  1
  Ni  Ni188  1  0.11101341  0.87732535  -0.06612114  1
  Ni  Ni189  1  0.29064660  0.64674284  -0.00788900  1
  Ni  Ni190  1  0.68808937  -0.01485385  0.01751367  1
  Ni  Ni191  1  -0.02387914  0.29965430  0.62262907  1
  Ni  Ni192  1  0.45119051  0.76170572  0.86163839  1
  Ni  Ni193  1  0.88171833  0.15129594  0.40739717  1
  Ni  Ni194  1  0.27346949  0.81686792  0.43836165  1
  Ni  Ni195  1  0.18292913  0.71774301  0.88499356  1
  Ni  Ni196  1  0.51780211  -0.01979688  0.80319281  1
  Ni  Ni197  1  0.13640735  0.39670351  0.62170100  1
  Ni  Ni198  1  0.15426124  0.08482903  0.18287107  1
  Ni  Ni199  1  0.07872492  0.55890807  0.20150894  1
  Ni  Ni200  1  0.56070074  0.37028932  0.33510816  1
  Ni  Ni201  1  0.58698854  0.13224692  0.32891771  1
  Ni  Ni202  1  0.67485743  0.82149212  0.56297770  1
  Ni  Ni203  1  0.32610367  0.59106746  0.68960095  1
  Ni  Ni204  1  0.59129340  0.49325649  -0.10071735  1
  Ni  Ni205  1  0.38286946  0.92450894  0.87299377  1
  Ni  Ni206  1  0.36854978  0.62705615  0.84813624  1
  Ni  Ni207  1  0.76674568  0.63461113  0.85200263  1
  Ni  Ni208  1  0.09087952  0.81973724  0.38887383  1
  Ni  Ni209  1  0.29317787  0.44601006  0.53754071  1
  Ni  Ni210  1  0.12301310  0.22826882  0.60587152  1
  Ni  Ni211  1  0.43859380  0.57909740  0.57559107  1
  Ni  Ni212  1  0.84402922  0.84310252  0.30162005  1
  Ni  Ni213  1  0.31774283  0.14143000  0.20806012  1
  Ni  Ni214  1  0.40373388  0.07035107  0.34428800  1
