# generated using pymatgen
data_Ti108Co54Ni53
_symmetry_space_group_name_H-M   'P 1'
_cell_length_a   14.60837583
_cell_length_b   14.65341085
_cell_length_c   14.68041149
_cell_angle_alpha   89.56325139
_cell_angle_beta   89.81794499
_cell_angle_gamma   90.18524826
_symmetry_Int_Tables_number   1
_chemical_formula_structural   Ti108Co54Ni53
_chemical_formula_sum   'Ti108 Co54 Ni53'
_cell_volume   3142.40223311
_cell_formula_units_Z   1
loop_
 _symmetry_equiv_pos_site_id
 _symmetry_equiv_pos_as_xyz
  1  'x, y, z'
loop_
 _atom_site_type_symbol
 _atom_site_label
 _atom_site_symmetry_multiplicity
 _atom_site_fract_x
 _atom_site_fract_y
 _atom_site_fract_z
 _atom_site_occupancy
  Ti  Ti0  1  -0.01730538  0.12077206  0.23939561  1
  Ti  Ti1  1  0.01990185  0.11295630  0.61441617  1
  Ti  Ti2  1  0.05658252  0.10061511  0.85382830  1
  Ti  Ti3  1  0.09933439  0.41943053  0.22290927  1
  Ti  Ti4  1  0.06514750  0.40852961  0.60002274  1
  Ti  Ti5  1  0.01006451  0.44067751  0.90684595  1
  Ti  Ti6  1  0.13618141  0.70799863  0.32482201  1
  Ti  Ti7  1  0.07288700  0.71657896  0.60397893  1
  Ti  Ti8  1  0.05519862  0.75525298  0.95352832  1
  Ti  Ti9  1  0.39288171  -0.03476613  0.25424668  1
  Ti  Ti10  1  0.34193231  0.04050543  0.59693534  1
  Ti  Ti11  1  0.45223077  0.07809875  0.89473994  1
  Ti  Ti12  1  0.42551201  0.38598469  0.25101572  1
  Ti  Ti13  1  0.35441684  0.47273681  0.61283572  1
  Ti  Ti14  1  0.42812878  0.44543262  0.95359531  1
  Ti  Ti15  1  0.33577803  0.70028989  0.25153842  1
  Ti  Ti16  1  0.47700170  0.79413908  0.52321022  1
  Ti  Ti17  1  0.39279377  0.70340944  0.93832237  1
  Ti  Ti18  1  0.75931101  0.08671865  0.19080050  1
  Ti  Ti19  1  0.78851704  0.05071527  0.54212005  1
  Ti  Ti20  1  0.83146659  0.07379129  0.93221136  1
  Ti  Ti21  1  0.75532197  0.41734660  0.20948272  1
  Ti  Ti22  1  0.78197292  0.39771010  0.52700318  1
  Ti  Ti23  1  0.78506040  0.45869595  0.90995369  1
  Ti  Ti24  1  0.72351562  0.75757975  0.21342152  1
  Ti  Ti25  1  0.77380268  0.74673471  0.62744084  1
  Ti  Ti26  1  0.68851607  0.77213429  0.91120565  1
  Ti  Ti27  1  0.10423529  0.24385129  0.13446172  1
  Ti  Ti28  1  0.13203488  0.28525623  0.35797289  1
  Ti  Ti29  1  0.00053483  0.28238272  0.75684023  1
  Ti  Ti30  1  0.01349612  0.58220588  0.09189672  1
  Ti  Ti31  1  0.08656228  0.58833654  0.48355659  1
  Ti  Ti32  1  0.12043969  0.64305790  0.77515646  1
  Ti  Ti33  1  0.08598664  0.88313719  0.10334173  1
  Ti  Ti34  1  0.03051711  0.86988837  0.42586401  1
  Ti  Ti35  1  0.13966198  0.84979749  0.79994613  1
  Ti  Ti36  1  0.36252625  0.23385656  0.03766958  1
  Ti  Ti37  1  0.32988964  0.30779373  0.41906623  1
  Ti  Ti38  1  0.50141662  0.20352354  0.76245617  1
  Ti  Ti39  1  0.39261355  0.54428058  0.11742922  1
  Ti  Ti40  1  0.42236220  0.62157599  0.43438481  1
  Ti  Ti41  1  0.44344637  0.60128222  0.76513294  1
  Ti  Ti42  1  0.41057735  0.98414753  0.06303949  1
  Ti  Ti43  1  0.35745345  0.99432109  0.42885730  1
  Ti  Ti44  1  0.47629313  0.96646659  0.70506732  1
  Ti  Ti45  1  0.77041220  0.31730877  0.03596815  1
  Ti  Ti46  1  0.76106183  0.26468610  0.39006393  1
  Ti  Ti47  1  0.73297159  0.24767826  0.83296338  1
  Ti  Ti48  1  0.70023819  0.56220135  0.09618828  1
  Ti  Ti49  1  0.75804318  0.55992874  0.41561092  1
  Ti  Ti50  1  0.75915307  0.57073436  0.75413193  1
  Ti  Ti51  1  0.80443335  0.89584916  0.03367637  1
  Ti  Ti52  1  0.81840470  0.86394675  0.45309032  1
  Ti  Ti53  1  0.80210273  0.87734213  0.80304174  1
  Ti  Ti54  1  0.21567655  0.06962624  0.14067818  1
  Ti  Ti55  1  0.20140901  0.14030121  0.47149782  1
  Ti  Ti56  1  0.19166118  0.11288762  0.69276522  1
  Ti  Ti57  1  0.26313940  0.40021706  0.09643976  1
  Ti  Ti58  1  0.23634697  0.47647537  0.46225225  1
  Ti  Ti59  1  0.22382449  0.38478270  0.72176292  1
  Ti  Ti60  1  0.23741069  0.74481369  0.06911428  1
  Ti  Ti61  1  0.31947710  0.80356794  0.40798668  1
  Ti  Ti62  1  0.32205834  0.76174397  0.74465642  1
  Ti  Ti63  1  0.62769091  0.01538216  0.06130506  1
  Ti  Ti64  1  0.56361727  0.16755028  0.47529786  1
  Ti  Ti65  1  0.64274470  0.11829314  0.65923848  1
  Ti  Ti66  1  0.57442380  0.35964077  0.09496117  1
  Ti  Ti67  1  0.53391593  0.36164370  0.43453781  1
  Ti  Ti68  1  0.52305783  0.41133647  0.77889459  1
  Ti  Ti69  1  0.57814926  0.69897906  0.03995532  1
  Ti  Ti70  1  0.60113856  0.70934048  0.36828749  1
  Ti  Ti71  1  0.60953274  0.71256149  0.71734972  1
  Ti  Ti72  1  1.04437106  0.07357816  0.06531007  1
  Ti  Ti73  1  0.96552250  0.14917083  0.42921587  1
  Ti  Ti74  1  0.90325256  0.02184711  0.73350556  1
  Ti  Ti75  1  0.96182130  0.37841595  0.07754675  1
  Ti  Ti76  1  0.96501132  0.50120852  0.37209654  1
  Ti  Ti77  1  0.88570256  0.44278098  0.70848639  1
  Ti  Ti78  1  0.92963216  0.75642499  0.12987491  1
  Ti  Ti79  1  0.93819338  0.70323829  0.37890631  1
  Ti  Ti80  1  0.94321697  0.73209711  0.74286061  1
  Ti  Ti81  1  0.32833363  0.15838388  0.29853299  1
  Ti  Ti82  1  0.31774543  0.23500459  0.61071922  1
  Ti  Ti83  1  0.28060869  0.21018134  0.84142546  1
  Ti  Ti84  1  0.20561080  0.57284203  0.18738184  1
  Ti  Ti85  1  0.28175772  0.66809839  0.57436479  1
  Ti  Ti86  1  0.20953199  0.49146861  0.89252759  1
  Ti  Ti87  1  0.20888408  0.86862033  0.24120356  1
  Ti  Ti88  1  0.17691584  0.95143577  0.57009442  1
  Ti  Ti89  1  0.29047550  0.89465670  0.91794262  1
  Ti  Ti90  1  0.61334046  0.28097322  0.26763724  1
  Ti  Ti91  1  0.61148383  0.32062821  0.62477052  1
  Ti  Ti92  1  0.57068161  0.25153821  0.95125256  1
  Ti  Ti93  1  0.52626746  0.63055606  0.22149404  1
  Ti  Ti94  1  0.60053897  0.61882346  0.54514670  1
  Ti  Ti95  1  0.59112621  0.56811353  0.88633947  1
  Ti  Ti96  1  0.55198169  0.86013958  0.20583953  1
  Ti  Ti97  1  0.62178725  0.89954746  0.59539065  1
  Ti  Ti98  1  0.54140650  0.90310204  0.91754429  1
  Ti  Ti99  1  0.92420357  0.30009942  0.26523130  1
  Ti  Ti100  1  0.90639646  0.26993791  0.58060204  1
  Ti  Ti101  1  0.97750701  0.23008599  0.96379115  1
  Ti  Ti102  1  0.84437839  0.60820219  0.22954465  1
  Ti  Ti103  1  0.89299318  0.61395371  0.55753266  1
  Ti  Ti104  1  0.89822307  0.62332750  0.94410084  1
  Ti  Ti105  1  0.91798550  0.94203625  0.19185449  1
  Ti  Ti106  1  1.00706672  0.89045823  0.63239093  1
  Ti  Ti107  1  0.96935214  0.93704098  0.95120302  1
  Co  Co108  1  -0.05737989  0.56725590  0.80238734  1
  Co  Co109  1  0.24872359  0.92499561  0.07594581  1
  Co  Co110  1  0.13391633  0.30434858  0.83894489  1
  Co  Co111  1  0.68421209  0.59032716  0.27242391  1
  Co  Co112  1  0.40434178  0.45458641  0.43361984  1
  Co  Co113  1  -0.07030241  -0.01690344  0.34911329  1
  Co  Co114  1  0.17707939  0.54398198  0.62391993  1
  Co  Co115  1  0.10301252  0.72406520  0.15601872  1
  Co  Co116  1  0.60777821  0.86738022  0.77060546  1
  Co  Co117  1  0.19356478  0.80923484  0.65053417  1
  Co  Co118  1  0.60319819  0.54576715  0.70351879  1
  Co  Co119  1  0.01119277  0.56516916  0.65414615  1
  Co  Co120  1  0.52459937  0.04709309  0.18529906  1
  Co  Co121  1  -0.08893659  0.21614776  0.11318898  1
  Co  Co122  1  0.20655298  0.32487058  0.53126030  1
  Co  Co123  1  0.67349350  0.42049877  0.35347237  1
  Co  Co124  1  0.59126254  0.03467986  0.79270365  1
  Co  Co125  1  0.12668967  0.47962452  0.05526096  1
  Co  Co126  1  0.84195991  0.89463937  0.62221827  1
  Co  Co127  1  -0.06917881  0.46192993  0.52922353  1
  Co  Co128  1  -0.02379489  0.87838257  0.80687962  1
  Co  Co129  1  0.89149863  0.78721280  -0.06193566  1
  Co  Co130  1  0.52404262  0.73870706  0.85645808  1
  Co  Co131  1  0.13758607  0.25606927  0.67135019  1
  Co  Co132  1  0.08132030  -0.00971860  0.24044175  1
  Co  Co133  1  0.77048332  0.71397455  0.37142062  1
  Co  Co134  1  0.73236942  0.61370083  -0.05603056  1
  Co  Co135  1  0.93674628  0.31938863  0.43004372  1
  Co  Co136  1  0.84730137  0.50007496  0.06292943  1
  Co  Co137  1  0.26142754  0.41561205  0.29015637  1
  Co  Co138  1  0.14125835  0.14916215  0.27939652  1
  Co  Co139  1  0.47317577  0.79374117  0.68592741  1
  Co  Co140  1  0.08424440  0.59686532  -0.06916736  1
  Co  Co141  1  -0.07372442  0.77500670  0.54531008  1
  Co  Co142  1  0.07534213  0.40824081  0.43912975  1
  Co  Co143  1  0.41810555  0.86834920  0.82438428  1
  Co  Co144  1  0.45608247  0.30923675  0.56858328  1
  Co  Co145  1  0.06387503  0.24754931  0.52148357  1
  Co  Co146  1  0.74845522  0.55370960  0.59740114  1
  Co  Co147  1  0.14260552  0.52783491  0.33623637  1
  Co  Co148  1  0.44976421  0.63846353  0.61191510  1
  Co  Co149  1  0.75482739  0.16295190  0.03963278  1
  Co  Co150  1  -0.10162589  0.16983217  0.81510993  1
  Co  Co151  1  0.70012299  -0.04978734  -0.09560040  1
  Co  Co152  1  0.33431245  0.86635768  0.57168997  1
  Co  Co153  1  0.76544315  0.25114050  0.19630796  1
  Co  Co154  1  0.49703400  0.13024067  0.04327541  1
  Co  Co155  1  0.25999616  0.63720714  0.40146920  1
  Co  Co156  1  0.35999466  0.45863356  0.80802515  1
  Co  Co157  1  0.61790410  0.40959235  -0.06061877  1
  Co  Co158  1  0.83261980  0.42021060  0.35235816  1
  Co  Co159  1  0.43159276  0.29379800  0.88370939  1
  Co  Co160  1  0.37228110  0.11394531  0.15137612  1
  Co  Co161  1  0.39309476  0.15545839  0.47124568  1
  Ni  Ni162  1  0.25986520  0.58438309  0.01848800  1
  Ni  Ni163  1  0.36038572  0.83965216  0.16233485  1
  Ni  Ni164  1  0.82170787  0.15457363  0.66880201  1
  Ni  Ni165  1  0.46099682  0.78739865  0.32658431  1
  Ni  Ni166  1  0.28035892  -0.06478307  0.72270031  1
  Ni  Ni167  1  0.55077667  0.53383068  0.37214084  1
  Ni  Ni168  1  0.68719248  0.41222600  0.77894913  1
  Ni  Ni169  1  0.48712641  0.84182309  0.05646579  1
  Ni  Ni170  1  0.15683476  0.17336771  -0.02648929  1
  Ni  Ni171  1  0.80267974  0.70659040  0.81628491  1
  Ni  Ni172  1  0.49974897  0.00338201  0.53007057  1
  Ni  Ni173  1  0.35615530  0.08709530  0.75540782  1
  Ni  Ni174  1  0.93947472  -0.00808733  0.51792974  1
  Ni  Ni175  1  0.46946755  0.23971773  0.17341839  1
  Ni  Ni176  1  0.63864101  0.46493036  0.50758049  1
  Ni  Ni177  1  0.08771625  -0.00788325  0.73451676  1
  Ni  Ni178  1  0.02551341  0.82880113  0.26374978  1
  Ni  Ni179  1  0.83491238  0.13482475  0.32663343  1
  Ni  Ni180  1  0.86049019  0.82534772  0.29387323  1
  Ni  Ni181  1  0.23249618  0.02263943  0.31073760  1
  Ni  Ni182  1  0.72200800  -0.02888302  0.69221540  1
  Ni  Ni183  1  0.08089057  0.03099250  0.42994476  1
  Ni  Ni184  1  0.12462571  0.33487952  -0.00424438  1
  Ni  Ni185  1  0.64399362  0.11000234  0.92364548  1
  Ni  Ni186  1  0.62399098  0.18273381  0.13130490  1
  Ni  Ni187  1  0.36616325  0.54090462  0.29418553  1
  Ni  Ni188  1  0.54434117  0.52277335  0.05441795  1
  Ni  Ni189  1  0.72782745  0.22034432  0.54627035  1
  Ni  Ni190  1  0.66644463  0.77356356  0.50274125  1
  Ni  Ni191  1  0.08299556  0.46767321  0.76477750  1
  Ni  Ni192  1  0.77609010  0.72316993  0.06010826  1
  Ni  Ni193  1  0.47723843  0.14359940  0.61571597  1
  Ni  Ni194  1  0.88178188  0.05665505  0.08160207  1
  Ni  Ni195  1  0.58033796  0.46831574  0.21831005  1
  Ni  Ni196  1  0.38737892  0.32622868  0.72529355  1
  Ni  Ni197  1  0.28303913  0.34972831  -0.07204219  1
  Ni  Ni198  1  0.13574645  -0.03249087  -0.03911862  1
  Ni  Ni199  1  0.27561226  0.58490454  0.75031328  1
  Ni  Ni200  1  0.17410637  0.76461290  0.48318560  1
  Ni  Ni201  1  0.21914361  0.03427339  0.84028716  1
  Ni  Ni202  1  0.42033389  0.70442624  0.10369854  1
  Ni  Ni203  1  0.22559353  0.71167560  0.89614877  1
  Ni  Ni204  1  0.77623622  0.31224000  0.68430298  1
  Ni  Ni205  1  0.19680446  0.91102424  0.41587987  1
  Ni  Ni206  1  0.50933037  0.46586687  0.60183507  1
  Ni  Ni207  1  0.47141148  0.23046821  0.34362243  1
  Ni  Ni208  1  0.87949895  0.32975181  0.87279573  1
  Ni  Ni209  1  0.25093355  0.27425830  0.21036859  1
  Ni  Ni210  1  0.65440995  0.84690899  0.06810037  1
  Ni  Ni211  1  0.74949926  0.08294649  0.79724068  1
  Ni  Ni212  1  -0.07328107  0.46672840  0.21062591  1
  Ni  Ni213  1  0.29205995  0.07808252  -0.01940010  1
  Ni  Ni214  1  0.02106095  0.60890693  0.25091187  1
