# generated using pymatgen
data_Ti108Co54Ni53
_symmetry_space_group_name_H-M   'P 1'
_cell_length_a   14.63300597
_cell_length_b   14.66402234
_cell_length_c   14.65622983
_cell_angle_alpha   90.13201098
_cell_angle_beta   89.84003736
_cell_angle_gamma   90.11610720
_symmetry_Int_Tables_number   1
_chemical_formula_structural   Ti108Co54Ni53
_chemical_formula_sum   'Ti108 Co54 Ni53'
_cell_volume   3144.88810878
_cell_formula_units_Z   1
loop_
 _symmetry_equiv_pos_site_id
 _symmetry_equiv_pos_as_xyz
  1  'x, y, z'
loop_
 _atom_site_type_symbol
 _atom_site_label
 _atom_site_symmetry_multiplicity
 _atom_site_fract_x
 _atom_site_fract_y
 _atom_site_fract_z
 _atom_site_occupancy
  Ti  Ti0  1  0.01059328  0.10775520  0.27038249  1
  Ti  Ti1  1  0.13498800  0.10269830  0.56587314  1
  Ti  Ti2  1  0.09658849  0.06756106  0.84962881  1
  Ti  Ti3  1  0.07398522  0.29408506  0.26061508  1
  Ti  Ti4  1  0.07630753  0.42614591  0.54796715  1
  Ti  Ti5  1  0.14245360  0.42833285  0.87912229  1
  Ti  Ti6  1  0.11251557  0.73519957  0.17331942  1
  Ti  Ti7  1  0.05111529  0.77118077  0.61521439  1
  Ti  Ti8  1  0.10713947  0.75678005  0.81203804  1
  Ti  Ti9  1  0.41586090  0.08850866  0.25576731  1
  Ti  Ti10  1  0.40682096  0.11133313  0.54241312  1
  Ti  Ti11  1  0.41662527  0.08883580  0.84394446  1
  Ti  Ti12  1  0.36208295  0.35870403  0.26582165  1
  Ti  Ti13  1  0.36042271  0.41158289  0.53110583  1
  Ti  Ti14  1  0.49642148  0.34232363  0.94993632  1
  Ti  Ti15  1  0.41127761  0.73652236  0.23114747  1
  Ti  Ti16  1  0.48064225  0.67767351  0.64894665  1
  Ti  Ti17  1  0.35671582  0.77598679  0.89719484  1
  Ti  Ti18  1  0.68571670  0.06780512  0.23489971  1
  Ti  Ti19  1  0.80079795  0.06104993  0.56861487  1
  Ti  Ti20  1  0.78414716  0.10855876  0.86138672  1
  Ti  Ti21  1  0.73769219  0.38450540  0.20679331  1
  Ti  Ti22  1  0.77962268  0.43819487  0.68695884  1
  Ti  Ti23  1  0.69845457  0.35419384  0.90064860  1
  Ti  Ti24  1  0.70280776  0.68858191  0.27376195  1
  Ti  Ti25  1  0.80634736  0.76733109  0.54944959  1
  Ti  Ti26  1  0.71312508  0.77996586  0.95893735  1
  Ti  Ti27  1  0.07268708  0.34614006  0.07753072  1
  Ti  Ti28  1  0.09879792  0.25004224  0.44418449  1
  Ti  Ti29  1  0.08161977  0.25968795  0.81520512  1
  Ti  Ti30  1  0.16254714  0.53894221  0.15338717  1
  Ti  Ti31  1  0.05571102  0.63982135  0.43069810  1
  Ti  Ti32  1  0.13912952  0.55302412  0.74892360  1
  Ti  Ti33  1  0.09453774  0.91288569  0.04272047  1
  Ti  Ti34  1  0.12778016  0.85016390  0.35982204  1
  Ti  Ti35  1  0.08396496  0.95436562  0.69425248  1
  Ti  Ti36  1  0.37962260  0.22401258  0.09419214  1
  Ti  Ti37  1  0.39913137  0.25773115  0.42023826  1
  Ti  Ti38  1  0.41233813  0.28321386  0.77419791  1
  Ti  Ti39  1  0.43174264  0.61775431  0.08336038  1
  Ti  Ti40  1  0.39615728  0.66877890  0.40734093  1
  Ti  Ti41  1  0.43548342  0.61647232  0.82325403  1
  Ti  Ti42  1  0.43121754  0.95033503  0.08790460  1
  Ti  Ti43  1  0.48200219  0.91529279  0.50227027  1
  Ti  Ti44  1  0.37622813  0.84049625  0.68813414  1
  Ti  Ti45  1  0.71274500  0.14958880  0.02577272  1
  Ti  Ti46  1  0.78122991  0.28947932  0.42256154  1
  Ti  Ti47  1  0.74669990  0.27134027  0.73577807  1
  Ti  Ti48  1  0.74816303  0.58289137  0.12590523  1
  Ti  Ti49  1  0.73924047  0.59583309  0.45165599  1
  Ti  Ti50  1  0.76252695  0.62223234  0.66070534  1
  Ti  Ti51  1  0.66047491  0.95861869  0.05836596  1
  Ti  Ti52  1  0.74467114  0.94777383  0.38669163  1
  Ti  Ti53  1  0.74308257  0.96443575  0.74600152  1
  Ti  Ti54  1  0.19515348  0.12255016  0.01070714  1
  Ti  Ti55  1  0.25414199  0.08882885  0.42207493  1
  Ti  Ti56  1  0.25636378  0.00818907  0.73809413  1
  Ti  Ti57  1  0.36193467  0.42614448  0.09245809  1
  Ti  Ti58  1  0.16697707  0.45219328  0.32953772  1
  Ti  Ti59  1  0.30853632  0.45552804  0.75093954  1
  Ti  Ti60  1  0.26731800  0.84359161  0.10809944  1
  Ti  Ti61  1  0.20099610  0.75432873  0.49276893  1
  Ti  Ti62  1  0.25912686  0.67621477  0.67932579  1
  Ti  Ti63  1  0.54770490  0.14576975  0.12563575  1
  Ti  Ti64  1  0.66658042  0.11729740  0.41999111  1
  Ti  Ti65  1  0.54980913  -0.01232504  0.73185601  1
  Ti  Ti66  1  0.57619981  0.46996632  0.11561983  1
  Ti  Ti67  1  0.64147136  0.42662133  0.41153326  1
  Ti  Ti68  1  0.57995424  0.51233726  0.70370061  1
  Ti  Ti69  1  0.56606464  0.78955345  0.10374490  1
  Ti  Ti70  1  0.65518819  0.79387915  0.44100940  1
  Ti  Ti71  1  0.62557976  0.69374756  0.78641071  1
  Ti  Ti72  1  0.92525420  0.02592036  0.12352535  1
  Ti  Ti73  1  0.88511404  0.09276797  0.41053186  1
  Ti  Ti74  1  0.98000986  0.12711821  0.68075644  1
  Ti  Ti75  1  0.89355482  0.43536773  0.07321723  1
  Ti  Ti76  1  0.96100377  0.40408603  0.37739368  1
  Ti  Ti77  1  0.97820089  0.41604754  0.75293451  1
  Ti  Ti78  1  0.91438583  0.83063442  0.12931611  1
  Ti  Ti79  1  0.87461580  0.71618743  0.37935871  1
  Ti  Ti80  1  0.89266829  0.73833240  0.74307199  1
  Ti  Ti81  1  0.22257220  0.19932317  0.18788878  1
  Ti  Ti82  1  0.21972953  0.30141503  0.64329560  1
  Ti  Ti83  1  0.23522854  0.30033608  0.98113651  1
  Ti  Ti84  1  0.22644862  0.64454915  0.31592938  1
  Ti  Ti85  1  0.24563636  0.57119033  0.49856526  1
  Ti  Ti86  1  0.30521106  0.52863236  0.92766342  1
  Ti  Ti87  1  0.23733077  0.97593997  0.26637400  1
  Ti  Ti88  1  0.28435522  0.92910608  0.53076368  1
  Ti  Ti89  1  0.27146851  0.95728362  0.93824962  1
  Ti  Ti90  1  0.56611755  0.26494308  0.29407126  1
  Ti  Ti91  1  0.57356115  0.27267431  0.63996917  1
  Ti  Ti92  1  0.59841779  0.18942795  0.82731744  1
  Ti  Ti93  1  0.47996484  0.52493742  0.28850105  1
  Ti  Ti94  1  0.51357389  0.55110267  0.50376885  1
  Ti  Ti95  1  0.60343857  0.54219163  0.92080841  1
  Ti  Ti96  1  0.63459993  0.87025819  0.25295445  1
  Ti  Ti97  1  0.60347235  0.83261656  0.63868094  1
  Ti  Ti98  1  0.51778577  0.90257701  0.92383373  1
  Ti  Ti99  1  0.89535154  0.25490265  0.18557483  1
  Ti  Ti100  1  0.88481517  0.29431371  0.59026021  1
  Ti  Ti101  1  0.88340627  0.27586002  0.90952311  1
  Ti  Ti102  1  0.90152535  0.54741306  0.25098996  1
  Ti  Ti103  1  0.93484445  0.52957935  0.60143591  1
  Ti  Ti104  1  0.83621805  0.57545498  0.93826435  1
  Ti  Ti105  1  0.93599590  0.92546763  0.31568914  1
  Ti  Ti106  1  0.90545433  0.90947776  0.64029673  1
  Ti  Ti107  1  0.93174486  0.96615124  0.92226572  1
  Co  Co108  1  0.05371341  0.22749573  -0.03492071  1
  Co  Co109  1  0.77403379  0.68517676  0.83979102  1
  Co  Co110  1  0.33474155  0.49674094  0.38244050  1
  Co  Co111  1  0.25449046  0.80059520  0.26489874  1
  Co  Co112  1  0.23618970  0.27878249  0.33638512  1
  Co  Co113  1  0.21313295  0.38551450  0.46717793  1
  Co  Co114  1  -0.02881169  0.17945481  0.51917152  1
  Co  Co115  1  0.03533254  0.06857480  0.00639769  1
  Co  Co116  1  0.74499426  0.79811534  0.71021350  1
  Co  Co117  1  0.46123342  0.50351432  -0.01948092  1
  Co  Co118  1  0.93337912  0.67771773  0.55379340  1
  Co  Co119  1  0.21258291  0.47771767  0.62104707  1
  Co  Co120  1  0.24214130  0.84579891  0.80509988  1
  Co  Co121  1  0.82245157  0.14257507  0.70490150  1
  Co  Co122  1  0.20561719  0.45389629  0.02825251  1
  Co  Co123  1  0.56841737  0.11574820  0.55927218  1
  Co  Co124  1  0.25324694  0.13849028  0.85733397  1
  Co  Co125  1  0.19215125  0.79722087  -0.04298253  1
  Co  Co126  1  0.47920707  0.39724536  0.39109444  1
  Co  Co127  1  0.72268039  0.19946101  0.56518695  1
  Co  Co128  1  0.45605037  0.45608104  0.83099825  1
  Co  Co129  1  0.65834350  0.11257534  0.69875591  1
  Co  Co130  1  0.15916869  0.13391192  0.31512102  1
  Co  Co131  1  0.05627014  0.59517037  0.27690927  1
  Co  Co132  1  0.90475516  0.01377484  0.76852439  1
  Co  Co133  1  0.11145833  -0.08671009  0.87925356  1
  Co  Co134  1  0.04234969  0.18381223  0.12444296  1
  Co  Co135  1  0.26282330  0.22702917  0.50364627  1
  Co  Co136  1  0.10799950  0.61123632  0.58372303  1
  Co  Co137  1  0.87488457  0.56237039  0.76703939  1
  Co  Co138  1  0.73505657  0.78904320  0.12491917  1
  Co  Co139  1  0.64532211  0.85981808  0.83039086  1
  Co  Co140  1  0.37001396  0.23119616  -0.07377624  1
  Co  Co141  1  0.01850691  0.44045912  0.20781820  1
  Co  Co142  1  0.32782038  0.53173868  0.22239632  1
  Co  Co143  1  0.57242663  0.64262016  0.37511391  1
  Co  Co144  1  0.39222547  -0.06842409  0.82182994  1
  Co  Co145  1  -0.05060444  0.13347898  0.86971338  1
  Co  Co146  1  0.73999570  0.90792475  0.58114810  1
  Co  Co147  1  0.21938977  0.37197116  0.17648824  1
  Co  Co148  1  0.56012818  -0.02412707  0.35478876  1
  Co  Co149  1  0.67007111  0.50625514  0.56852301  1
  Co  Co150  1  0.24805501  0.29771830  0.81246113  1
  Co  Co151  1  0.16010961  0.15148504  0.71722112  1
  Co  Co152  1  0.58441609  0.36470466  0.78879943  1
  Co  Co153  1  0.53529778  0.39413268  0.54029849  1
  Co  Co154  1  -0.06113612  0.24333489  0.36328244  1
  Co  Co155  1  0.27614314  0.67485413  0.16177010  1
  Co  Co156  1  0.69972061  0.35175355  0.56473357  1
  Co  Co157  1  0.25247748  0.65885618  0.83999731  1
  Co  Co158  1  0.54476355  -0.01290622  0.18830672  1
  Co  Co159  1  0.63671179  0.67337576  0.57600964  1
  Co  Co160  1  0.62667848  -0.02265618  0.50777777  1
  Co  Co161  1  0.39383909  0.26708986  0.60350532  1
  Ni  Ni162  1  0.38763011  -0.00614901  0.39052232  1
  Ni  Ni163  1  0.00152834  0.54490885  0.86636067  1
  Ni  Ni164  1  0.79467238  0.29529332  0.05804714  1
  Ni  Ni165  1  0.63225327  0.03103063  -0.10219795  1
  Ni  Ni166  1  -0.00735086  0.39420135  -0.06511427  1
  Ni  Ni167  1  0.78922120  -0.05041599  0.18274248  1
  Ni  Ni168  1  0.34238146  0.83111576  0.39840325  1
  Ni  Ni169  1  0.40551348  0.90481007  0.25183272  1
  Ni  Ni170  1  0.52630028  0.17016562  -0.03140549  1
  Ni  Ni171  1  0.49592716  0.79817495  0.78737645  1
  Ni  Ni172  1  0.72654309  0.44619475  0.03436202  1
  Ni  Ni173  1  0.08240129  0.01373923  0.39517623  1
  Ni  Ni174  1  0.11798000  -0.08467316  0.52711310  1
  Ni  Ni175  1  0.27854154  0.67078748  0.00674702  1
  Ni  Ni176  1  0.65951560  0.52422485  0.27036785  1
  Ni  Ni177  1  0.20406342  0.83963313  0.64891364  1
  Ni  Ni178  1  0.50187813  0.32406491  0.15168120  1
  Ni  Ni179  1  -0.02132011  0.86870506  0.79272946  1
  Ni  Ni180  1  0.38901115  0.08484828  0.00403656  1
  Ni  Ni181  1  0.59247486  0.26271293  0.46135284  1
  Ni  Ni182  1  0.37183786  0.55728976  0.62335933  1
  Ni  Ni183  1  0.05023799  0.27923051  0.63922151  1
  Ni  Ni184  1  0.06339355  0.90203377  0.20863106  1
  Ni  Ni185  1  0.87376928  -0.08931792  0.47309367  1
  Ni  Ni186  1  0.80549425  0.82357843  0.27658694  1
  Ni  Ni187  1  0.35201914  0.75189984  0.55034392  1
  Ni  Ni188  1  0.89448670  0.16005242  0.02934649  1
  Ni  Ni189  1  0.45374676  0.41280886  0.67533707  1
  Ni  Ni190  1  0.12575178  0.04379529  0.15316477  1
  Ni  Ni191  1  0.81326893  0.91033043  0.02255098  1
  Ni  Ni192  1  0.40260893  -0.00028566  0.65885015  1
  Ni  Ni193  1  0.41028693  0.78063214  0.04999715  1
  Ni  Ni194  1  0.82473412  0.44005425  0.50994391  1
  Ni  Ni195  1  0.71968965  0.52816895  0.81212600  1
  Ni  Ni196  1  -0.00752247  0.76764542  0.28248106  1
  Ni  Ni197  1  -0.08891035  0.55590557  0.42880331  1
  Ni  Ni198  1  0.00933184  0.63361173  0.71442091  1
  Ni  Ni199  1  0.69427266  0.22778515  0.17815463  1
  Ni  Ni200  1  0.29312225  0.03969147  0.12491943  1
  Ni  Ni201  1  -0.00077178  0.80688006  0.45613834  1
  Ni  Ni202  1  0.62813026  0.29931248  0.04622220  1
  Ni  Ni203  1  0.84708656  0.43024240  0.86125276  1
  Ni  Ni204  1  0.53736692  0.72984056  0.93543721  1
  Ni  Ni205  1  0.79723930  0.45703830  0.34811007  1
  Ni  Ni206  1  0.50959118  0.74630244  0.50340654  1
  Ni  Ni207  1  0.63100558  0.64820910  0.04316340  1
  Ni  Ni208  1  0.50982323  0.80132861  0.34874893  1
  Ni  Ni209  1  0.85937009  0.69211489  0.19167832  1
  Ni  Ni210  1  -0.01401704  0.01751556  0.53874305  1
  Ni  Ni211  1  0.47942054  0.14376339  0.69695147  1
  Ni  Ni212  1  0.56320428  0.63968594  0.19780311  1
  Ni  Ni213  1  0.50153500  0.12726538  0.39641454  1
  Ni  Ni214  1  0.79479550  0.18201267  0.29791710  1
