# generated using pymatgen
data_Ti108Co54Ni53
_symmetry_space_group_name_H-M   'P 1'
_cell_length_a   14.64453544
_cell_length_b   14.73221684
_cell_length_c   14.62386480
_cell_angle_alpha   90.03749378
_cell_angle_beta   89.63831239
_cell_angle_gamma   89.75965930
_symmetry_Int_Tables_number   1
_chemical_formula_structural   Ti108Co54Ni53
_chemical_formula_sum   'Ti108 Co54 Ni53'
_cell_volume   3154.95588055
_cell_formula_units_Z   1
loop_
 _symmetry_equiv_pos_site_id
 _symmetry_equiv_pos_as_xyz
  1  'x, y, z'
loop_
 _atom_site_type_symbol
 _atom_site_label
 _atom_site_symmetry_multiplicity
 _atom_site_fract_x
 _atom_site_fract_y
 _atom_site_fract_z
 _atom_site_occupancy
  Ti  Ti0  1  0.06570646  0.03199063  0.29365841  1
  Ti  Ti1  1  0.01657240  0.04389826  0.56589585  1
  Ti  Ti2  1  0.09426425  0.03985063  0.87979569  1
  Ti  Ti3  1  0.05647354  0.45527054  0.29603455  1
  Ti  Ti4  1  0.08170501  0.37862795  0.60555847  1
  Ti  Ti5  1  0.11121576  0.45480673  0.94382926  1
  Ti  Ti6  1  0.00658358  0.77607272  0.24334284  1
  Ti  Ti7  1  0.08799987  0.73283811  0.66818873  1
  Ti  Ti8  1  0.12103589  0.74073075  0.92344291  1
  Ti  Ti9  1  0.36622496  0.09387459  0.31510138  1
  Ti  Ti10  1  0.36060712  0.10238102  0.52104473  1
  Ti  Ti11  1  0.42562012  0.08075159  0.85537555  1
  Ti  Ti12  1  0.42093060  0.47017807  0.21442455  1
  Ti  Ti13  1  0.44382592  0.37988392  0.52579740  1
  Ti  Ti14  1  0.41120640  0.42928809  0.93812022  1
  Ti  Ti15  1  0.43493876  0.82550737  0.11565854  1
  Ti  Ti16  1  0.39095064  0.71395622  0.51343955  1
  Ti  Ti17  1  0.39273353  0.68660876  0.80882121  1
  Ti  Ti18  1  0.77715152  0.10295747  0.17862748  1
  Ti  Ti19  1  0.76491631  0.11483468  0.62304399  1
  Ti  Ti20  1  0.71341261  0.07289602  0.98905720  1
  Ti  Ti21  1  0.69418007  0.43919167  0.23170912  1
  Ti  Ti22  1  0.72678322  0.41411188  0.61375459  1
  Ti  Ti23  1  0.77143113  0.42005579  0.91101797  1
  Ti  Ti24  1  0.71945268  0.74100009  0.21669505  1
  Ti  Ti25  1  0.79412133  0.70460742  0.60209814  1
  Ti  Ti26  1  0.81991904  0.70717467  0.91567410  1
  Ti  Ti27  1  0.08825661  0.29965548  0.04635375  1
  Ti  Ti28  1  0.06916044  0.24309700  0.31880187  1
  Ti  Ti29  1  0.12051532  0.24108162  0.82411713  1
  Ti  Ti30  1  0.01767591  0.60705596  0.16422218  1
  Ti  Ti31  1  0.11584057  0.65631553  0.47907922  1
  Ti  Ti32  1  0.15751540  0.53663001  0.75237218  1
  Ti  Ti33  1  0.12765152  0.89044716  0.16175042  1
  Ti  Ti34  1  0.15501384  0.91685756  0.43802627  1
  Ti  Ti35  1  0.02015360  0.93079741  0.73689900  1
  Ti  Ti36  1  0.43450011  0.18512079  0.09617338  1
  Ti  Ti37  1  0.48940524  0.22786829  0.40833340  1
  Ti  Ti38  1  0.38564933  0.24627807  0.76972720  1
  Ti  Ti39  1  0.40263037  0.65543769  0.17259335  1
  Ti  Ti40  1  0.36259232  0.52687804  0.42279277  1
  Ti  Ti41  1  0.35163408  0.51480833  0.76564163  1
  Ti  Ti42  1  0.43753236  0.99723960  0.03562730  1
  Ti  Ti43  1  0.45185927  0.92647739  0.40286196  1
  Ti  Ti44  1  0.44494924  0.85641494  0.83106936  1
  Ti  Ti45  1  0.76248477  0.28585471  0.09497979  1
  Ti  Ti46  1  0.76906903  0.26559598  0.45395965  1
  Ti  Ti47  1  0.66347032  0.31837819  0.78829762  1
  Ti  Ti48  1  0.81040819  0.58904804  0.11560460  1
  Ti  Ti49  1  0.71557985  0.57214644  0.47319780  1
  Ti  Ti50  1  0.78143893  0.56486036  0.77209238  1
  Ti  Ti51  1  0.75105733  0.91528147  0.12896209  1
  Ti  Ti52  1  0.86478041  0.97652727  0.35245306  1
  Ti  Ti53  1  0.81840548  0.89116477  0.80268549  1
  Ti  Ti54  1  0.19897435  0.06817610  0.11949735  1
  Ti  Ti55  1  0.17435818  0.12401192  0.42261727  1
  Ti  Ti56  1  0.28336646  0.09835977  0.70197032  1
  Ti  Ti57  1  0.25336008  0.40640420  0.07609653  1
  Ti  Ti58  1  0.22614080  0.38909583  0.36258498  1
  Ti  Ti59  1  0.24077548  0.35758436  0.71084409  1
  Ti  Ti60  1  0.24925477  0.74506584  0.07607785  1
  Ti  Ti61  1  0.27364045  0.69521872  0.35166774  1
  Ti  Ti62  1  0.25535488  0.82057012  0.73839676  1
  Ti  Ti63  1  0.58917801  0.07147950  0.15675658  1
  Ti  Ti64  1  0.59594317  0.06713371  0.35211182  1
  Ti  Ti65  1  0.61975531  0.12321785  0.78437255  1
  Ti  Ti66  1  0.56290768  0.39190088  0.08801112  1
  Ti  Ti67  1  0.54655731  0.43821245  0.36960434  1
  Ti  Ti68  1  0.58777560  0.49750065  0.75780413  1
  Ti  Ti69  1  0.53712596  0.70126738  -0.01938381  1
  Ti  Ti70  1  0.57950265  0.71207218  0.37326133  1
  Ti  Ti71  1  0.59198647  0.69685632  0.76314047  1
  Ti  Ti72  1  0.97973794  0.12809320  0.09663336  1
  Ti  Ti73  1  0.92758029  0.15241682  0.42639372  1
  Ti  Ti74  1  0.93794025  0.12049153  0.75021975  1
  Ti  Ti75  1  0.94640693  0.46400970  0.04913249  1
  Ti  Ti76  1  0.96592129  0.34998183  0.43656668  1
  Ti  Ti77  1  0.95142350  0.46850538  0.70683291  1
  Ti  Ti78  1  0.89417087  0.78247161  0.07921808  1
  Ti  Ti79  1  0.91704338  0.72832501  0.40768345  1
  Ti  Ti80  1  0.96269367  0.76129697  0.82328924  1
  Ti  Ti81  1  0.34194344  0.27614038  0.24024386  1
  Ti  Ti82  1  0.18564552  0.21499842  0.59243796  1
  Ti  Ti83  1  0.30296090  0.25393752  0.94457475  1
  Ti  Ti84  1  0.22025460  0.55661629  0.20626388  1
  Ti  Ti85  1  0.24518074  0.53416560  0.57579225  1
  Ti  Ti86  1  0.26504577  0.58268715  0.93271145  1
  Ti  Ti87  1  0.28694284  0.86259607  0.26439327  1
  Ti  Ti88  1  0.30035814  0.90904567  0.57829687  1
  Ti  Ti89  1  0.27632966  0.95589403  0.90771435  1
  Ti  Ti90  1  0.65952879  0.25167832  0.28741015  1
  Ti  Ti91  1  0.54272180  0.21042351  0.61332099  1
  Ti  Ti92  1  0.52708589  0.24609033  0.93633501  1
  Ti  Ti93  1  0.61118192  0.59265072  0.12872398  1
  Ti  Ti94  1  0.47312747  0.56676485  0.61685929  1
  Ti  Ti95  1  0.66512680  0.57789198  0.93460253  1
  Ti  Ti96  1  0.57153299  0.89074332  0.23663520  1
  Ti  Ti97  1  0.49080709  0.93455467  0.61351838  1
  Ti  Ti98  1  0.63891254  0.93983749  0.87468527  1
  Ti  Ti99  1  0.88905427  0.25542035  0.24039561  1
  Ti  Ti100  1  0.88439758  0.28594987  0.60988518  1
  Ti  Ti101  1  0.86707189  0.26530974  0.87638700  1
  Ti  Ti102  1  0.86531397  0.51305052  0.31733405  1
  Ti  Ti103  1  0.95370714  0.53811792  0.49153649  1
  Ti  Ti104  1  0.99594070  0.57675244  0.86091358  1
  Ti  Ti105  1  0.93459640  0.95005022  0.16478995  1
  Ti  Ti106  1  0.91708176  0.87940198  0.53986988  1
  Ti  Ti107  1  0.89750101  0.99778732  0.95154636  1
  Co  Co108  1  0.72677792  0.71529752  0.04610238  1
  Co  Co109  1  0.53121429  -0.01440731  0.76269724  1
  Co  Co110  1  0.17093280  0.34298036  0.21563801  1
  Co  Co111  1  0.38203896  0.67799388  -0.00451923  1
  Co  Co112  1  0.66405046  0.31498375  -0.02130880  1
  Co  Co113  1  0.76594507  0.73068513  0.75926100  1
  Co  Co114  1  0.85075646  0.41671431  0.17095912  1
  Co  Co115  1  0.61279686  0.22724478  0.12725741  1
  Co  Co116  1  0.84839225  0.55175712  -0.04983034  1
  Co  Co117  1  0.16825253  0.71102925  0.21294258  1
  Co  Co118  1  0.72474111  0.45962439  0.06324688  1
  Co  Co119  1  0.58303404  0.43816134  0.92414670  1
  Co  Co120  1  0.33249365  0.54411525  0.07780412  1
  Co  Co121  1  0.61086569  0.80271697  0.09637539  1
  Co  Co122  1  0.45102067  0.10056959  0.68106053  1
  Co  Co123  1  -0.12577510  -0.01189017  0.67402731  1
  Co  Co124  1  0.28661194  0.78337068  0.91018569  1
  Co  Co125  1  0.51727213  0.58633961  0.45744782  1
  Co  Co126  1  0.55221806  0.56440539  0.27373981  1
  Co  Co127  1  0.54392407  0.72150895  0.21559193  1
  Co  Co128  1  0.78546741  0.22241958  0.73675615  1
  Co  Co129  1  0.21985473  0.17324922  0.27235363  1
  Co  Co130  1  0.10202018  0.46228724  0.12457851  1
  Co  Co131  1  0.22319240  0.00680684  0.27322021  1
  Co  Co132  1  0.24068026  0.12611699  0.84701263  1
  Co  Co133  1  0.92896379  0.10178355  0.25883726  1
  Co  Co134  1  0.83653204  0.42832929  0.49039671  1
  Co  Co135  1  0.51082589  0.32710035  0.23216326  1
  Co  Co136  1  0.13442080  0.30011429  0.46138659  1
  Co  Co137  1  0.81957739  0.35902324  0.32521673  1
  Co  Co138  1  0.82945108  0.54309890  0.60871373  1
  Co  Co139  1  0.55322980  0.08938234  -0.03786050  1
  Co  Co140  1  0.06993508  0.75884076  0.08271947  1
  Co  Co141  1  0.30989564  0.10013015  0.00043655  1
  Co  Co142  1  0.05787082  0.80522588  0.50876684  1
  Co  Co143  1  0.22172334  0.76177234  0.54473153  1
  Co  Co144  1  -0.05397396  0.41763066  0.88081318  1
  Co  Co145  1  0.16726618  0.88265326  -0.00268314  1
  Co  Co146  1  0.19580781  -0.02889107  0.75274653  1
  Co  Co147  1  0.66521043  0.59409879  0.64778557  1
  Co  Co148  1  0.82082145  0.38614054  0.74964383  1
  Co  Co149  1  0.59403377  0.47810896  0.53985720  1
  Co  Co150  1  0.43275641  0.80554173  0.29904174  1
  Co  Co151  1  0.48931887  0.54253026  0.03964050  1
  Co  Co152  1  0.90143206  0.80829034  0.68208654  1
  Co  Co153  1  0.49938158  0.16833491  0.25178465  1
  Co  Co154  1  0.71607013  0.19831874  0.89239118  1
  Co  Co155  1  0.08820449  0.40187456  0.79196049  1
  Co  Co156  1  0.00653930  0.34323137  0.18574877  1
  Co  Co157  1  0.29748059  -0.00745697  0.42394709  1
  Co  Co158  1  0.10632937  0.46581939  0.47558965  1
  Co  Co159  1  0.31690798  0.83308104  0.42828447  1
  Co  Co160  1  0.09682112  0.19288455  0.17084463  1
  Co  Co161  1  0.40200771  0.34126512  0.08155207  1
  Ni  Ni162  1  0.87283627  0.66802245  0.25328407  1
  Ni  Ni163  1  0.06919338  0.56626064  0.61696293  1
  Ni  Ni164  1  0.36578800  -0.04343909  0.73003879  1
  Ni  Ni165  1  0.13307871  0.60268216  0.03810274  1
  Ni  Ni166  1  0.49881616  0.35478066  0.80675590  1
  Ni  Ni167  1  0.43002999  0.64633007  0.33537891  1
  Ni  Ni168  1  0.21631701  0.67481328  0.80036122  1
  Ni  Ni169  1  0.84770245  0.83551742  0.26097596  1
  Ni  Ni170  1  0.84881355  0.03358185  0.51024991  1
  Ni  Ni171  1  -0.03052875  0.65310051  0.00469087  1
  Ni  Ni172  1  0.02271175  0.21349363  0.54831737  1
  Ni  Ni173  1  0.01801504  0.88856046  0.91173406  1
  Ni  Ni174  1  0.77688369  0.87277356  -0.02732355  1
  Ni  Ni175  1  0.71527871  0.59580225  0.29999355  1
  Ni  Ni176  1  0.51388999  0.06449972  0.49914684  1
  Ni  Ni177  1  0.39483538  0.36977170  0.36300136  1
  Ni  Ni178  1  0.95898487  0.68910031  0.56668183  1
  Ni  Ni179  1  -0.07755902  0.63978331  0.71484796  1
  Ni  Ni180  1  0.24788870  0.23156866  0.10583267  1
  Ni  Ni181  1  0.19079079  0.04017368  0.56946012  1
  Ni  Ni182  1  -0.07886859  0.29895924  0.04446092  1
  Ni  Ni183  1  0.48929684  0.57108549  0.87409018  1
  Ni  Ni184  1  0.25167691  0.40542031  0.87003024  1
  Ni  Ni185  1  0.40228924  0.39320928  0.67797995  1
  Ni  Ni186  1  0.78563533  0.06334217  0.80851763  1
  Ni  Ni187  1  0.13155890  0.89472318  0.61717941  1
  Ni  Ni188  1  -0.00555544  0.16864213  0.92899679  1
  Ni  Ni189  1  0.35911228  0.24485788  0.60326698  1
  Ni  Ni190  1  0.30945888  0.66137937  0.65804297  1
  Ni  Ni191  1  0.56453223  0.36792100  0.65305020  1
  Ni  Ni192  1  0.30389988  0.24277442  0.43189404  1
  Ni  Ni193  1  -0.02738844  0.29751106  0.74710885  1
  Ni  Ni194  1  0.19220853  0.55320021  0.37112492  1
  Ni  Ni195  1  0.76802673  0.12334463  0.35191058  1
  Ni  Ni196  1  0.60794649  0.31566498  0.49326571  1
  Ni  Ni197  1  0.29370047  0.92678317  0.10430454  1
  Ni  Ni198  1  -0.00551259  -0.11805169  0.37274829  1
  Ni  Ni199  1  0.61209316  -0.04550812  0.04877418  1
  Ni  Ni200  1  0.26757652  0.37393277  0.53853027  1
  Ni  Ni201  1  0.42586129  -0.02151452  0.21129614  1
  Ni  Ni202  1  0.42438850  0.78238391  0.66749408  1
  Ni  Ni203  1  0.66447928  0.77500884  0.89188108  1
  Ni  Ni204  1  0.84677342  0.15808574  0.00406327  1
  Ni  Ni205  1  0.65133732  0.15324640  0.48640283  1
  Ni  Ni206  1  0.51803613  0.85992402  -0.03138339  1
  Ni  Ni207  1  0.69995676  0.42094243  0.40667983  1
  Ni  Ni208  1  0.03107550  0.62335356  0.33174831  1
  Ni  Ni209  1  0.15017557  0.16155000  -0.01543236  1
  Ni  Ni210  1  0.12959065  0.77921841  0.35634298  1
  Ni  Ni211  1  0.71566916  -0.02474219  0.27822883  1
  Ni  Ni212  1  0.10191359  0.10085145  0.70751876  1
  Ni  Ni213  1  0.60971783  0.05364364  0.62935389  1
  Ni  Ni214  1  0.04786469  -0.01293190  0.04228478  1
