# generated using pymatgen
data_Ti108Co54Ni53
_symmetry_space_group_name_H-M   'P 1'
_cell_length_a   14.67409882
_cell_length_b   14.70151757
_cell_length_c   14.63356645
_cell_angle_alpha   89.82078531
_cell_angle_beta   89.94737463
_cell_angle_gamma   90.00734598
_symmetry_Int_Tables_number   1
_chemical_formula_structural   Ti108Co54Ni53
_chemical_formula_sum   'Ti108 Co54 Ni53'
_cell_volume   3156.90475527
_cell_formula_units_Z   1
loop_
 _symmetry_equiv_pos_site_id
 _symmetry_equiv_pos_as_xyz
  1  'x, y, z'
loop_
 _atom_site_type_symbol
 _atom_site_label
 _atom_site_symmetry_multiplicity
 _atom_site_fract_x
 _atom_site_fract_y
 _atom_site_fract_z
 _atom_site_occupancy
  Ti  Ti0  1  0.07037245  0.11526571  0.28220746  1
  Ti  Ti1  1  0.05005309  0.12259596  0.62242683  1
  Ti  Ti2  1  0.02314426  0.08637863  0.91876901  1
  Ti  Ti3  1  0.17309694  0.43647561  0.22099670  1
  Ti  Ti4  1  0.12274219  0.37798068  0.55167085  1
  Ti  Ti5  1  0.05555099  0.45028543  0.92088420  1
  Ti  Ti6  1  0.03812185  0.71963229  0.19203731  1
  Ti  Ti7  1  0.09339301  0.69228011  0.56859801  1
  Ti  Ti8  1  0.11395867  0.66004439  0.97201912  1
  Ti  Ti9  1  0.50522036  0.12675420  0.19721095  1
  Ti  Ti10  1  0.37162982  0.05464669  0.60432678  1
  Ti  Ti11  1  0.34965367  0.10816496  0.91306739  1
  Ti  Ti12  1  0.39242978  0.45431926  0.30335301  1
  Ti  Ti13  1  0.40735659  0.43632699  0.56492893  1
  Ti  Ti14  1  0.38078246  0.40619910  0.88324945  1
  Ti  Ti15  1  0.39512102  0.75440789  0.20329409  1
  Ti  Ti16  1  0.52252626  0.73273836  0.56324530  1
  Ti  Ti17  1  0.47679952  0.69440282  0.97282750  1
  Ti  Ti18  1  0.69650203  0.10536394  0.27265209  1
  Ti  Ti19  1  0.85045423  0.06462617  0.56648956  1
  Ti  Ti20  1  0.79999229  0.06692707  0.94469926  1
  Ti  Ti21  1  0.71734436  0.37244239  0.24585624  1
  Ti  Ti22  1  0.70893599  0.38617120  0.64260634  1
  Ti  Ti23  1  0.78544786  0.45063405  0.89656481  1
  Ti  Ti24  1  0.70985396  0.68803381  0.25319399  1
  Ti  Ti25  1  0.72453320  0.80451551  0.58982455  1
  Ti  Ti26  1  0.77903807  0.77342048  0.80205477  1
  Ti  Ti27  1  0.00789972  0.23698897  0.14682646  1
  Ti  Ti28  1  0.09087621  0.23729803  0.43518961  1
  Ti  Ti29  1  0.13910332  0.29945195  0.81867954  1
  Ti  Ti30  1  0.01391963  0.52712682  0.12270724  1
  Ti  Ti31  1  0.12665282  0.55889015  0.43513339  1
  Ti  Ti32  1  -0.01483322  0.56843118  0.69299773  1
  Ti  Ti33  1  0.09472011  0.92778975  0.18192628  1
  Ti  Ti34  1  -0.00936357  0.86588164  0.35210361  1
  Ti  Ti35  1  0.12886254  0.89965573  0.79197186  1
  Ti  Ti36  1  0.43604280  0.26232115  0.04569072  1
  Ti  Ti37  1  0.45755298  0.28370159  0.44693829  1
  Ti  Ti38  1  0.45208777  0.24309313  0.81593580  1
  Ti  Ti39  1  0.45262484  0.57898116  0.13697778  1
  Ti  Ti40  1  0.40705271  0.60163055  0.46497470  1
  Ti  Ti41  1  0.47430371  0.57960232  0.81161637  1
  Ti  Ti42  1  0.46654393  0.94142853  0.13524360  1
  Ti  Ti43  1  0.44075413  0.90566162  0.47429791  1
  Ti  Ti44  1  0.44993406  0.96536115  0.78533868  1
  Ti  Ti45  1  0.78713009  0.23597434  0.12334461  1
  Ti  Ti46  1  0.79872623  0.26252317  0.49034407  1
  Ti  Ti47  1  0.74636284  0.19763253  0.67630060  1
  Ti  Ti48  1  0.77502820  0.59072661  0.05875416  1
  Ti  Ti49  1  0.76379990  0.55545547  0.36946121  1
  Ti  Ti50  1  0.78994936  0.60970355  0.71515909  1
  Ti  Ti51  1  0.76160032  0.90403773  0.03702939  1
  Ti  Ti52  1  0.76343721  0.83719709  0.37425467  1
  Ti  Ti53  1  0.68166102  1.00415739  0.76208111  1
  Ti  Ti54  1  0.20220047  0.02380413  0.04646262  1
  Ti  Ti55  1  0.26419351  0.15953792  0.33838406  1
  Ti  Ti56  1  0.21164895  0.12245931  0.75979734  1
  Ti  Ti57  1  0.27370910  0.37415082  0.05392196  1
  Ti  Ti58  1  0.27270806  0.33168999  0.40437707  1
  Ti  Ti59  1  0.23534652  0.42135243  0.70765665  1
  Ti  Ti60  1  0.20899250  0.79125722  0.09535814  1
  Ti  Ti61  1  0.30450945  0.79029701  0.37739036  1
  Ti  Ti62  1  0.24904384  0.70641564  0.83561189  1
  Ti  Ti63  1  0.64226738  0.07745290  0.08330361  1
  Ti  Ti64  1  0.51662465  0.07495769  0.38257763  1
  Ti  Ti65  1  0.53870434  0.11610021  0.68519607  1
  Ti  Ti66  1  0.59782187  0.42724608  0.09982843  1
  Ti  Ti67  1  0.64086160  0.35556327  0.41342817  1
  Ti  Ti68  1  0.55572994  0.40720762  0.76473508  1
  Ti  Ti69  1  0.57487794  0.76805649  0.12704730  1
  Ti  Ti70  1  0.53084848  0.74201363  0.35548022  1
  Ti  Ti71  1  0.49876595  0.77344112  0.76453493  1
  Ti  Ti72  1  0.94038995  -0.01402604  0.07474959  1
  Ti  Ti73  1  0.88557305  0.11677531  0.37900603  1
  Ti  Ti74  1  0.87610396  0.07176859  0.76755091  1
  Ti  Ti75  1  0.91676776  0.36833470  0.05224770  1
  Ti  Ti76  1  0.97418691  0.41770378  0.41871892  1
  Ti  Ti77  1  0.91937867  0.33012864  0.79069418  1
  Ti  Ti78  1  0.84212675  0.76130406  0.12359897  1
  Ti  Ti79  1  0.88953073  0.70216636  0.45786935  1
  Ti  Ti80  1  0.97333332  0.79032122  0.71676754  1
  Ti  Ti81  1  0.19627403  0.22280247  0.15396451  1
  Ti  Ti82  1  0.32188747  0.26144339  0.59279614  1
  Ti  Ti83  1  0.15661991  0.20231107  0.97520778  1
  Ti  Ti84  1  0.21358480  0.65783961  0.26962095  1
  Ti  Ti85  1  0.26693702  0.60832740  0.62298371  1
  Ti  Ti86  1  0.30742359  0.56557070  0.96787640  1
  Ti  Ti87  1  0.29272098  0.91486888  0.20522959  1
  Ti  Ti88  1  0.23975585  0.81900487  0.64109926  1
  Ti  Ti89  1  0.32338054  0.90475785  0.94077348  1
  Ti  Ti90  1  0.51148849  0.32881977  0.24775672  1
  Ti  Ti91  1  0.60277022  0.21357646  0.54034160  1
  Ti  Ti92  1  0.61616206  0.22052501  0.94439669  1
  Ti  Ti93  1  0.57087300  0.54471987  0.29469024  1
  Ti  Ti94  1  0.58771482  0.55328613  0.61977567  1
  Ti  Ti95  1  0.61603210  0.53806476  0.94069265  1
  Ti  Ti96  1  0.59837613  0.92512328  0.28300305  1
  Ti  Ti97  1  0.56458883  0.91927054  0.62425132  1
  Ti  Ti98  1  0.59889900  0.85610252  0.91945313  1
  Ti  Ti99  1  0.91490152  0.29101563  0.30386584  1
  Ti  Ti100  1  0.91535653  0.36599350  0.59247969  1
  Ti  Ti101  1  0.82859138  0.24217658  0.91911708  1
  Ti  Ti102  1  0.97106970  0.57373234  0.31779946  1
  Ti  Ti103  1  0.83423043  0.51808274  0.54455281  1
  Ti  Ti104  1  0.94199563  0.65665629  0.87265642  1
  Ti  Ti105  1  0.81042258  0.96214008  0.23444892  1
  Ti  Ti106  1  0.89928361  0.87971132  0.56211318  1
  Ti  Ti107  1  0.93657174  0.91761573  0.87001640  1
  Co  Co108  1  0.26332240  0.51966666  0.35013872  1
  Co  Co109  1  0.67940859  0.48290580  0.49765473  1
  Co  Co110  1  -0.04068088  0.67280021  0.04160403  1
  Co  Co111  1  0.40315021  0.81563849  0.05131516  1
  Co  Co112  1  0.78535491  0.43421535  0.09856659  1
  Co  Co113  1  0.92048976  0.15979795  0.03477783  1
  Co  Co114  1  0.29895203  0.26932631  0.76586023  1
  Co  Co115  1  0.70416331  0.84058096  0.19912511  1
  Co  Co116  1  0.11965527  0.28088917  0.28339698  1
  Co  Co117  1  0.81115896  0.40118379  0.40737768  1
  Co  Co118  1  0.16489626  0.81663806  0.27846431  1
  Co  Co119  1  0.03566584  0.78961144  0.88542167  1
  Co  Co120  1  0.76794974  -0.08258211  0.87415787  1
  Co  Co121  1  0.68977404  0.06089012  0.59737195  1
  Co  Co122  1  -0.05681956  0.86150347  0.18852224  1
  Co  Co123  1  0.66936887  0.52429182  0.77962687  1
  Co  Co124  1  0.39972484  0.40619044  0.72076110  1
  Co  Co125  1  -0.03666297  0.00312835  0.26568504  1
  Co  Co126  1  0.64577647  0.84829581  0.75477998  1
  Co  Co127  1  0.72169818  0.32970682  0.81728151  1
  Co  Co128  1  0.64053553  0.01978345  -0.06683397  1
  Co  Co129  1  0.58143580  0.60302057  0.44980224  1
  Co  Co130  1  0.25033955  0.65740017  0.45829070  1
  Co  Co131  1  0.61031910  -0.07996966  0.07840811  1
  Co  Co132  1  0.18129868  0.83118734  -0.05862476  1
  Co  Co133  1  0.76004375  0.24036992  0.32489087  1
  Co  Co134  1  0.01402642  0.39847397  0.22663383  1
  Co  Co135  1  0.83199035  0.44959664  0.71299639  1
  Co  Co136  1  -0.10128101  0.69370371  0.61174841  1
  Co  Co137  1  0.13324331  0.40933137  0.37750880  1
  Co  Co138  1  0.58933902  0.21426069  0.33381070  1
  Co  Co139  1  0.56128615  0.37550713  0.57201380  1
  Co  Co140  1  0.50024292  0.12265887  0.01235178  1
  Co  Co141  1  0.46332860  0.50694292  -0.00973224  1
  Co  Co142  1  0.41604271  0.20589972  0.31460957  1
  Co  Co143  1  0.68194030  0.71790637  0.42352743  1
  Co  Co144  1  -0.11433033  0.14153678  0.21962343  1
  Co  Co145  1  0.42837544  0.56801371  0.65748992  1
  Co  Co146  1  0.59895289  0.85416110  0.46521615  1
  Co  Co147  1  0.40691489  0.87173239  0.64334882  1
  Co  Co148  1  0.06618200  0.08738287  0.10764751  1
  Co  Co149  1  0.46843663  0.26628403  0.64378433  1
  Co  Co150  1  0.63694088  0.70063238  0.68464130  1
  Co  Co151  1  0.71190775  0.53100486  0.20825491  1
  Co  Co152  1  0.16254607  0.62278060  0.12356956  1
  Co  Co153  1  0.38060167  0.13899903  0.46816288  1
  Co  Co154  1  0.60607372  0.25891702  0.72901438  1
  Co  Co155  1  0.31718127  0.67609041  0.07691994  1
  Co  Co156  1  0.87312776  0.60925248  0.18701436  1
  Co  Co157  1  0.07602344  -0.05852447  -0.01307217  1
  Co  Co158  1  0.21964604  0.42912056  0.88275444  1
  Co  Co159  1  0.29875352  0.26573089  -0.07184061  1
  Co  Co160  1  0.79818848  0.07035611  0.10956930  1
  Co  Co161  1  0.53508871  0.04968697  0.53229872  1
  Ni  Ni162  1  0.72815662  0.64135039  0.55343863  1
  Ni  Ni163  1  0.19549759  0.01867357  0.88514227  1
  Ni  Ni164  1  0.91131659  0.52657118  -0.01172585  1
  Ni  Ni165  1  0.09622603  0.35460064  0.06628360  1
  Ni  Ni166  1  0.38397271  0.62804869  0.30588447  1
  Ni  Ni167  1  0.36486982  0.04552846  0.07128716  1
  Ni  Ni168  1  -0.01149977  0.56260718  0.52108002  1
  Ni  Ni169  1  -0.04773916  0.21116675  0.50978294  1
  Ni  Ni170  1  0.70192169  0.15275868  0.82738390  1
  Ni  Ni171  1  0.86106861  0.78455439  -0.04569751  1
  Ni  Ni172  1  0.11460325  0.70628743  0.73951034  1
  Ni  Ni173  1  -0.07096620  0.49957695  0.82851581  1
  Ni  Ni174  1  0.21575086  0.06003162  0.21173822  1
  Ni  Ni175  1  0.54358875  0.37305418  0.93284502  1
  Ni  Ni176  1  0.14161123  0.55939838  0.81660077  1
  Ni  Ni177  1  0.60972019  0.60889010  0.09887894  1
  Ni  Ni178  1  0.62290837  0.24586048  0.15177903  1
  Ni  Ni179  1  0.48025373  0.96937208  -0.03818042  1
  Ni  Ni180  1  0.70302747  0.34672240  -0.00494961  1
  Ni  Ni181  1  0.25469857  0.47622517  0.51152751  1
  Ni  Ni182  1  0.27900863  -0.02658861  0.72025136  1
  Ni  Ni183  1  0.36496603  0.70899794  0.70302096  1
  Ni  Ni184  1  0.68435413  0.72730678  -0.00494085  1
  Ni  Ni185  1  0.32989994  0.84094275  0.78920918  1
  Ni  Ni186  1  0.03756857  0.30480780  0.67578828  1
  Ni  Ni187  1  0.16845215  0.49761168  0.03229627  1
  Ni  Ni188  1  0.37962464  0.04361541  0.27704164  1
  Ni  Ni189  1  0.02428564  0.17873668  0.78433221  1
  Ni  Ni190  1  0.68462491  -0.01880802  0.42362341  1
  Ni  Ni191  1  0.89560246  0.73413468  0.29328684  1
  Ni  Ni192  1  0.77097313  0.62324096  0.88994561  1
  Ni  Ni193  1  0.52798884  0.09742092  0.85088479  1
  Ni  Ni194  1  0.00556248  0.27629036  -0.06276855  1
  Ni  Ni195  1  0.51053920  0.45569345  0.42877866  1
  Ni  Ni196  1  0.62046770  0.68076516  0.84433081  1
  Ni  Ni197  1  0.43284791  0.89020293  0.30554318  1
  Ni  Ni198  1  0.21910620  0.16274288  0.50699577  1
  Ni  Ni199  1  0.17394320  0.23784985  0.64920821  1
  Ni  Ni200  1  0.29639475  0.53360296  0.16779443  1
  Ni  Ni201  1  -0.01474935  -0.03386312  0.69221866  1
  Ni  Ni202  1  0.32033209  0.31715590  0.22866074  1
  Ni  Ni203  1  0.12429103  0.52586246  0.62412682  1
  Ni  Ni204  1  0.82641165  0.91481071  0.71227593  1
  Ni  Ni205  1  0.70581391  0.13402623  0.44215009  1
  Ni  Ni206  1  0.35732698  0.75633807  0.53547602  1
  Ni  Ni207  1  0.42043952  0.41452223  0.12853701  1
  Ni  Ni208  1  0.34666265  0.16781080  0.16742725  1
  Ni  Ni209  1  0.03518703  0.82231034  0.51025047  1
  Ni  Ni210  1  0.31161162  0.54992024  0.78727931  1
  Ni  Ni211  1  0.90775982  0.20453043  0.66496898  1
  Ni  Ni212  1  0.85944960  -0.03625242  0.42098929  1
  Ni  Ni213  1  0.06182851  0.71065272  0.37616108  1
  Ni  Ni214  1  0.86404037  0.45566447  0.24845218  1
