# generated using pymatgen
data_Ti108Co54Ni53
_symmetry_space_group_name_H-M   'P 1'
_cell_length_a   14.68443408
_cell_length_b   14.68742310
_cell_length_c   14.64019425
_cell_angle_alpha   90.08377126
_cell_angle_beta   90.22921059
_cell_angle_gamma   89.70269882
_symmetry_Int_Tables_number   1
_chemical_formula_structural   Ti108Co54Ni53
_chemical_formula_sum   'Ti108 Co54 Ni53'
_cell_volume   3157.47474873
_cell_formula_units_Z   1
loop_
 _symmetry_equiv_pos_site_id
 _symmetry_equiv_pos_as_xyz
  1  'x, y, z'
loop_
 _atom_site_type_symbol
 _atom_site_label
 _atom_site_symmetry_multiplicity
 _atom_site_fract_x
 _atom_site_fract_y
 _atom_site_fract_z
 _atom_site_occupancy
  Ti  Ti0  1  0.17214712  0.08633367  0.20071261  1
  Ti  Ti1  1  0.07603894  0.05807591  0.68733627  1
  Ti  Ti2  1  0.14227651  0.13590364  0.88001603  1
  Ti  Ti3  1  0.09382208  0.39632323  0.21434589  1
  Ti  Ti4  1  0.05384290  0.43207938  0.52439040  1
  Ti  Ti5  1  0.05799236  0.35447434  0.88420614  1
  Ti  Ti6  1  0.04457091  0.74849520  0.25870714  1
  Ti  Ti7  1  0.07047465  0.74923977  0.56477316  1
  Ti  Ti8  1  0.07895466  0.79079826  0.93247383  1
  Ti  Ti9  1  0.35173715  0.07291298  0.24743418  1
  Ti  Ti10  1  0.42142256  0.12907622  0.56607925  1
  Ti  Ti11  1  0.45812592  0.17074756  0.92827959  1
  Ti  Ti12  1  0.44725027  0.37076165  0.25245610  1
  Ti  Ti13  1  0.39165215  0.43838072  0.57989467  1
  Ti  Ti14  1  0.47997401  0.43593446  0.86723539  1
  Ti  Ti15  1  0.38318823  0.71323808  0.24752449  1
  Ti  Ti16  1  0.37844492  0.77037289  0.50202238  1
  Ti  Ti17  1  0.36808103  0.72632598  0.84247091  1
  Ti  Ti18  1  0.73979674  0.05542908  0.25667323  1
  Ti  Ti19  1  0.80729279  0.12889783  0.52317740  1
  Ti  Ti20  1  0.68192876  0.06045498  0.99723426  1
  Ti  Ti21  1  0.76165209  0.39112449  0.26959702  1
  Ti  Ti22  1  0.74300019  0.47661373  0.57524153  1
  Ti  Ti23  1  0.73276278  0.49932855  0.86981662  1
  Ti  Ti24  1  0.74145634  0.70075732  0.28552848  1
  Ti  Ti25  1  0.78719655  0.72904697  0.63550058  1
  Ti  Ti26  1  0.76963366  0.78951971  0.98147710  1
  Ti  Ti27  1  0.07553276  0.23977646  0.06986973  1
  Ti  Ti28  1  0.03071921  0.20901582  0.42644724  1
  Ti  Ti29  1  0.03101130  0.22420615  0.74302091  1
  Ti  Ti30  1  0.09573255  0.57756294  0.11169336  1
  Ti  Ti31  1  0.08412764  0.62499084  0.42490233  1
  Ti  Ti32  1  0.07498547  0.61240433  0.77575914  1
  Ti  Ti33  1  0.13914020  0.90660722  0.10784369  1
  Ti  Ti34  1  0.09747537  0.91026519  0.43810173  1
  Ti  Ti35  1  0.12254491  0.92473523  0.80478886  1
  Ti  Ti36  1  0.39837946  0.28393921  0.08757259  1
  Ti  Ti37  1  0.41876947  0.20848369  0.38884314  1
  Ti  Ti38  1  0.41021503  0.10986414  0.75770777  1
  Ti  Ti39  1  0.35865220  0.57314917  -0.00975847  1
  Ti  Ti40  1  0.43000451  0.51986683  0.38428723  1
  Ti  Ti41  1  0.42415990  0.57678281  0.72263363  1
  Ti  Ti42  1  0.40238315  0.89634474  -0.02173391  1
  Ti  Ti43  1  0.39088847  0.97640610  0.42059046  1
  Ti  Ti44  1  0.34857839  0.92102376  0.79069666  1
  Ti  Ti45  1  0.73266786  0.24060094  0.11756998  1
  Ti  Ti46  1  0.78396384  0.22817995  0.37403748  1
  Ti  Ti47  1  0.72593066  0.22681163  0.69853301  1
  Ti  Ti48  1  0.78336917  0.51636135  0.06449679  1
  Ti  Ti49  1  0.75166786  0.54176801  0.38917573  1
  Ti  Ti50  1  0.86891011  0.55608925  0.72750324  1
  Ti  Ti51  1  0.82721710  0.94367390  0.10356431  1
  Ti  Ti52  1  0.76656454  0.87881041  0.30736013  1
  Ti  Ti53  1  0.74996396  0.93511921  0.72810049  1
  Ti  Ti54  1  0.28523684  0.13521596  0.04624614  1
  Ti  Ti55  1  0.22384632  0.15685739  0.39106613  1
  Ti  Ti56  1  0.23809712  0.15710818  0.66372133  1
  Ti  Ti57  1  0.27139124  0.43955262  0.11448601  1
  Ti  Ti58  1  0.24253764  0.50892958  0.47872955  1
  Ti  Ti59  1  0.31810581  0.38846434  0.78861181  1
  Ti  Ti60  1  0.28995955  0.76661761  0.05705658  1
  Ti  Ti61  1  0.20775620  0.76862073  0.37464317  1
  Ti  Ti62  1  0.20919758  0.75890827  0.73376542  1
  Ti  Ti63  1  0.49840706  0.01805013  0.09342899  1
  Ti  Ti64  1  0.53939151  0.04448689  0.29920937  1
  Ti  Ti65  1  0.60049873  0.09344577  0.77828961  1
  Ti  Ti66  1  0.63517415  0.42837750  0.13521609  1
  Ti  Ti67  1  0.52863850  0.36808110  0.43703592  1
  Ti  Ti68  1  0.64949622  0.39882333  0.73421883  1
  Ti  Ti69  1  0.61051228  0.71640292  0.08742454  1
  Ti  Ti70  1  0.60645544  0.76098293  0.43048535  1
  Ti  Ti71  1  0.61279420  0.68334575  0.84392224  1
  Ti  Ti72  1  0.95355171  0.08000448  0.02274723  1
  Ti  Ti73  1  0.95719408  0.03310932  0.43944581  1
  Ti  Ti74  1  0.88053669  0.07973136  0.69467773  1
  Ti  Ti75  1  0.96724234  0.43356479  0.06727960  1
  Ti  Ti76  1  0.87445402  0.39431501  0.43556644  1
  Ti  Ti77  1  0.88018025  0.37484382  0.77040845  1
  Ti  Ti78  1  0.94111819  0.72264406  0.08038659  1
  Ti  Ti79  1  0.90781013  0.80542571  0.43571706  1
  Ti  Ti80  1  0.89264956  0.79509334  0.80877382  1
  Ti  Ti81  1  0.25546414  0.36533429  0.31218195  1
  Ti  Ti82  1  0.21471864  0.36658623  0.61218119  1
  Ti  Ti83  1  0.23173170  0.30145259  0.95317824  1
  Ti  Ti84  1  0.21800554  0.58184679  0.27171080  1
  Ti  Ti85  1  0.24582365  0.56967194  0.66516124  1
  Ti  Ti86  1  0.17095804  0.51081363  0.93238552  1
  Ti  Ti87  1  0.28634761  0.88830312  0.23982701  1
  Ti  Ti88  1  0.22403033  0.95309311  0.61453995  1
  Ti  Ti89  1  0.21949716  0.97164497  0.95725544  1
  Ti  Ti90  1  0.60401937  0.24986078  0.30862617  1
  Ti  Ti91  1  0.61824479  0.20213118  0.52429805  1
  Ti  Ti92  1  0.58484966  0.32525805  0.97327719  1
  Ti  Ti93  1  0.53555665  0.56789575  0.21324423  1
  Ti  Ti94  1  0.56126676  0.53742517  0.60871676  1
  Ti  Ti95  1  0.57481174  0.54853089  0.99320234  1
  Ti  Ti96  1  0.58083331  0.84573240  0.22853420  1
  Ti  Ti97  1  0.63949744  0.97993266  0.53310927  1
  Ti  Ti98  1  0.59067989  0.87585690  0.93205372  1
  Ti  Ti99  1  0.93487644  0.26525846  0.23468852  1
  Ti  Ti100  1  0.92359002  0.27501325  0.59793612  1
  Ti  Ti101  1  0.81520955  0.20353986  0.93482369  1
  Ti  Ti102  1  0.88583040  0.58610984  0.22196992  1
  Ti  Ti103  1  0.91252139  0.59185964  0.51640283  1
  Ti  Ti104  1  0.89825353  0.60063864  0.93150327  1
  Ti  Ti105  1  0.95061060  0.96130944  0.25855421  1
  Ti  Ti106  1  0.83566962  0.93733314  0.57219677  1
  Ti  Ti107  1  0.83937854  0.97285230  0.89180982  1
  Co  Co108  1  0.35134855  0.36926449  0.43686674  1
  Co  Co109  1  0.45140851  0.28869036  0.55128189  1
  Co  Co110  1  0.92693329  0.82206251  0.63502253  1
  Co  Co111  1  0.16699770  0.32623907  0.44401421  1
  Co  Co112  1  0.11179330  0.90440127  0.26982751  1
  Co  Co113  1  0.22628674  -0.00759107  0.35292387  1
  Co  Co114  1  0.73945087  0.32343275  0.84682394  1
  Co  Co115  1  0.12372846  0.40261330  0.04647656  1
  Co  Co116  1  0.82845936  0.37285448  0.12638210  1
  Co  Co117  1  -0.00969731  0.86826001  0.13334839  1
  Co  Co118  1  0.11603314  0.07773734  0.04798074  1
  Co  Co119  1  0.60367974  0.44414708  0.30605160  1
  Co  Co120  1  0.29565887  0.20093198  0.84245437  1
  Co  Co121  1  -0.08639208  0.65979405  0.36597226  1
  Co  Co122  1  0.09680861  0.57885349  0.59076777  1
  Co  Co123  1  0.62100194  -0.06908252  0.37863138  1
  Co  Co124  1  0.79030445  0.66996154  0.11612299  1
  Co  Co125  1  -0.00944792  0.49384547  0.84927986  1
  Co  Co126  1  0.21393257  0.28945270  0.13271791  1
  Co  Co127  1  0.46911760  0.60583512  0.87915752  1
  Co  Co128  1  0.75657192  0.09275885  0.82183064  1
  Co  Co129  1  0.38980020  0.60180826  0.54813714  1
  Co  Co130  1  0.73003501  0.36967174  -0.00158939  1
  Co  Co131  1  0.60534511  0.50974176  0.46227867  1
  Co  Co132  1  0.11493075  0.23578133  0.27109711  1
  Co  Co133  1  0.07823860  0.06927634  0.33348860  1
  Co  Co134  1  0.60764566  0.36164260  0.58161520  1
  Co  Co135  1  0.24284382  0.04427670  0.77667000  1
  Co  Co136  1  0.91353723  0.25232584  0.06747050  1
  Co  Co137  1  0.52073071  0.07034581  0.45680100  1
  Co  Co138  1  0.04039460  0.77097785  0.75734329  1
  Co  Co139  1  0.65277896  0.19433508  0.90033559  1
  Co  Co140  1  0.71735698  0.63594420  -0.02689020  1
  Co  Co141  1  0.70865480  0.55220807  0.22290374  1
  Co  Co142  1  -0.05200669  -0.06228285  0.74437324  1
  Co  Co143  1  -0.01827808  0.22102117  -0.08171131  1
  Co  Co144  1  0.88672372  0.78134996  0.23728241  1
  Co  Co145  1  0.34354736  0.05733328  -0.08783770  1
  Co  Co146  1  0.70662843  0.58080130  0.70093257  1
  Co  Co147  1  0.57809208  0.53505517  0.78478490  1
  Co  Co148  1  0.71245985  0.07138116  0.64816327  1
  Co  Co149  1  0.45964733  0.81797722  0.11345083  1
  Co  Co150  1  0.25120832  0.82810618  0.89266558  1
  Co  Co151  1  0.11794349  0.73058116  0.07741667  1
  Co  Co152  1  0.25792568  0.62000944  0.11710735  1
  Co  Co153  1  0.69710761  0.37277108  0.42675094  1
  Co  Co154  1  0.87235521  0.21616360  0.78335270  1
  Co  Co155  1  0.09504245  0.87374821  0.65561074  1
  Co  Co156  1  -0.01600310  0.13066993  0.57286052  1
  Co  Co157  1  0.20530423  0.75034536  0.20964268  1
  Co  Co158  1  0.30465021  0.54768303  0.83257783  1
  Co  Co159  1  0.60788497  0.61722781  0.34469662  1
  Co  Co160  1  0.32156387  -0.01995424  0.10158321  1
  Co  Co161  1  0.05401806  0.62797323  -0.04134277  1
  Ni  Ni162  1  0.46707426  0.44311160  0.08448718  1
  Ni  Ni163  1  0.26368358  0.88867678  0.47358265  1
  Ni  Ni164  1  0.04088250  0.56627227  0.27219909  1
  Ni  Ni165  1  0.73853577  0.81495168  0.15503703  1
  Ni  Ni166  1  0.90361806  0.43906639  0.60425589  1
  Ni  Ni167  1  0.76689989  0.29991030  0.55028565  1
  Ni  Ni168  1  0.64680550  -0.08070379  0.07913236  1
  Ni  Ni169  1  -0.00120723  0.96246418  0.57645525  1
  Ni  Ni170  1  0.71473909  0.81930142  0.82795323  1
  Ni  Ni171  1  0.77458647  0.68690946  0.46825154  1
  Ni  Ni172  1  0.92523809  0.86097177  -0.01864225  1
  Ni  Ni173  1  0.55935114  0.29152348  0.14298682  1
  Ni  Ni174  1  0.44358350  0.65175422  0.10404220  1
  Ni  Ni175  1  0.36452840  0.26360947  0.69045209  1
  Ni  Ni176  1  0.04135200  0.38624275  0.69260915  1
  Ni  Ni177  1  -0.02679847  0.07808278  0.83737516  1
  Ni  Ni178  1  0.78248863  0.66856155  0.82182730  1
  Ni  Ni179  1  0.30756228  0.22828433  0.23837199  1
  Ni  Ni180  1  0.53873841  0.21948322  0.66874684  1
  Ni  Ni181  1  0.12807799  0.46948231  0.36821812  1
  Ni  Ni182  1  -0.04347887  0.66774568  0.65804766  1
  Ni  Ni183  1  0.47081749  0.84176594  0.36244371  1
  Ni  Ni184  1  0.48266070  0.38723906  0.70367039  1
  Ni  Ni185  1  0.43861088  -0.06853868  0.22585500  1
  Ni  Ni186  1  0.79982370  -0.00318173  0.41106831  1
  Ni  Ni187  1  0.35204511  0.40716927  -0.03498985  1
  Ni  Ni188  1  0.92942695  0.43423389  0.25331443  1
  Ni  Ni189  1  0.29127357  0.24193079  0.52403631  1
  Ni  Ni190  1  0.13415227  0.06809122  0.50674902  1
  Ni  Ni191  1  0.00633976  0.12147057  0.18331970  1
  Ni  Ni192  1  0.46632679  0.67683993  0.39427139  1
  Ni  Ni193  1  0.53507085  0.27368531  0.81738142  1
  Ni  Ni194  1  0.84256799  0.11651150  0.14325093  1
  Ni  Ni195  1  0.01887324  0.35360324  0.36380796  1
  Ni  Ni196  1  0.74267168  0.84687560  0.47343168  1
  Ni  Ni197  1  0.30675678  0.64071225  0.40353009  1
  Ni  Ni198  1  0.11224029  0.23817709  0.57834408  1
  Ni  Ni199  1  0.87853549  0.38680216  -0.06185598  1
  Ni  Ni200  1  0.21168542  0.67156581  0.90124379  1
  Ni  Ni201  1  0.67083495  0.09753714  0.40320407  1
  Ni  Ni202  1  0.61917091  0.13436802  0.18511795  1
  Ni  Ni203  1  0.56769856  0.16908962  0.04233511  1
  Ni  Ni204  1  0.37097085  0.52912376  0.21269486  1
  Ni  Ni205  1  0.22918132  0.68599784  0.54466416  1
  Ni  Ni206  1  0.35328487  0.72232386  0.66285839  1
  Ni  Ni207  1  0.48647599  0.74191453  -0.03164788  1
  Ni  Ni208  1  0.49536307  0.00438547  0.87929916  1
  Ni  Ni209  1  0.46592624  0.18911047  0.22160860  1
  Ni  Ni210  1  0.89717031  0.12048675  0.31085406  1
  Ni  Ni211  1  0.16432250  0.46031292  0.77048475  1
  Ni  Ni212  1  0.37476968  -0.00741046  0.63792179  1
  Ni  Ni213  1  0.17981883  0.29207195  0.76328029  1
  Ni  Ni214  1  0.04400490  -0.03383304  -0.05398576  1
