# generated using pymatgen
data_Ti108Co54Ni53
_symmetry_space_group_name_H-M   'P 1'
_cell_length_a   14.66911283
_cell_length_b   14.63804581
_cell_length_c   14.64404149
_cell_angle_alpha   90.24434196
_cell_angle_beta   90.35179753
_cell_angle_gamma   89.66460066
_symmetry_Int_Tables_number   1
_chemical_formula_structural   Ti108Co54Ni53
_chemical_formula_sum   'Ti108 Co54 Ni53'
_cell_volume   3144.33196593
_cell_formula_units_Z   1
loop_
 _symmetry_equiv_pos_site_id
 _symmetry_equiv_pos_as_xyz
  1  'x, y, z'
loop_
 _atom_site_type_symbol
 _atom_site_label
 _atom_site_symmetry_multiplicity
 _atom_site_fract_x
 _atom_site_fract_y
 _atom_site_fract_z
 _atom_site_occupancy
  Ti  Ti0  1  0.12795993  0.05832315  0.22347435  1
  Ti  Ti1  1  0.06637571  0.09945514  0.55688556  1
  Ti  Ti2  1  0.12393416  0.07908637  0.86625844  1
  Ti  Ti3  1  0.10419712  0.37227613  0.27353820  1
  Ti  Ti4  1  0.11564773  0.38221170  0.61892619  1
  Ti  Ti5  1  0.06831687  0.43212520  0.96568301  1
  Ti  Ti6  1  0.01851360  0.75605468  0.29795800  1
  Ti  Ti7  1  0.19357258  0.81343731  0.59873720  1
  Ti  Ti8  1  0.08003130  0.75511871  0.94504562  1
  Ti  Ti9  1  0.49230100  0.06879374  0.30076156  1
  Ti  Ti10  1  0.43955582  0.07525175  0.62444154  1
  Ti  Ti11  1  0.43942698  0.09810553  0.97354263  1
  Ti  Ti12  1  0.38532477  0.36945705  0.25790333  1
  Ti  Ti13  1  0.48828487  0.39847074  0.58610048  1
  Ti  Ti14  1  0.40165037  0.42167278  0.97204274  1
  Ti  Ti15  1  0.42644920  0.79966999  0.24679155  1
  Ti  Ti16  1  0.37421649  0.71827798  0.71487863  1
  Ti  Ti17  1  0.37302734  0.74061603  0.93241740  1
  Ti  Ti18  1  0.79831761  -0.01534979  0.27170627  1
  Ti  Ti19  1  0.77276787  0.18912175  0.59096283  1
  Ti  Ti20  1  0.83805615  0.10724659  0.95261790  1
  Ti  Ti21  1  0.72084360  0.43527015  0.26926243  1
  Ti  Ti22  1  0.68648099  0.37160560  0.61160845  1
  Ti  Ti23  1  0.77611592  0.42144874  0.94611172  1
  Ti  Ti24  1  0.82655545  0.79121904  0.21815567  1
  Ti  Ti25  1  0.74701688  0.78792736  0.58988635  1
  Ti  Ti26  1  0.77828476  0.77044043  0.90110779  1
  Ti  Ti27  1  -0.00198037  0.17868674  0.05755722  1
  Ti  Ti28  1  0.10528910  0.25601369  0.44436058  1
  Ti  Ti29  1  0.09469779  0.22528652  0.74765483  1
  Ti  Ti30  1  0.08121858  0.65377100  0.12878884  1
  Ti  Ti31  1  0.03631692  0.61351305  0.44769411  1
  Ti  Ti32  1  0.06754150  0.50127880  0.77094308  1
  Ti  Ti33  1  0.07278314  0.95710448  0.03615305  1
  Ti  Ti34  1  0.04531455  0.92650199  0.39092419  1
  Ti  Ti35  1  0.05241017  0.91661311  0.81280591  1
  Ti  Ti36  1  0.38698177  0.27848017  0.07353578  1
  Ti  Ti37  1  0.38573832  0.21159149  0.37205696  1
  Ti  Ti38  1  0.42739599  0.27596560  0.71409403  1
  Ti  Ti39  1  0.35576692  0.58785581  0.02688940  1
  Ti  Ti40  1  0.42016478  0.59919094  0.47660097  1
  Ti  Ti41  1  0.41705046  0.54692524  0.81815455  1
  Ti  Ti42  1  0.40208456  0.96463071  0.15229870  1
  Ti  Ti43  1  0.36380189  0.93918192  0.36690389  1
  Ti  Ti44  1  0.47119064  0.88035884  0.68737293  1
  Ti  Ti45  1  0.69232017  0.31079640  0.10577709  1
  Ti  Ti46  1  0.75970222  0.29482461  0.40747434  1
  Ti  Ti47  1  0.74628734  0.21132922  0.78549738  1
  Ti  Ti48  1  0.82253295  0.53423701  0.12927275  1
  Ti  Ti49  1  0.83134823  0.52204340  0.43161360  1
  Ti  Ti50  1  0.73468164  0.53093757  0.76315019  1
  Ti  Ti51  1  0.67405901  0.92232789  -0.01639672  1
  Ti  Ti52  1  0.78474251  0.95754267  0.48244348  1
  Ti  Ti53  1  0.70094012  0.93012515  0.79015038  1
  Ti  Ti54  1  0.28514602  0.09639785  0.08198125  1
  Ti  Ti55  1  0.24615760  0.10574625  0.47159476  1
  Ti  Ti56  1  0.26901623  0.08566218  0.71408096  1
  Ti  Ti57  1  0.24071274  0.45034107  0.14121135  1
  Ti  Ti58  1  0.27939005  0.48073240  0.40758358  1
  Ti  Ti59  1  0.28226932  0.45529925  0.70332024  1
  Ti  Ti60  1  0.27083834  0.70068236  0.14340803  1
  Ti  Ti61  1  0.31933551  0.74859640  0.40151661  1
  Ti  Ti62  1  0.21046971  0.78017410  0.80361423  1
  Ti  Ti63  1  0.65210945  0.12097955  0.03448248  1
  Ti  Ti64  1  0.57709888  0.04072666  0.48423842  1
  Ti  Ti65  1  0.55256840  0.06990139  0.76317268  1
  Ti  Ti66  1  0.58617042  0.39136036  -0.03248638  1
  Ti  Ti67  1  0.56307146  0.36299185  0.36826981  1
  Ti  Ti68  1  0.63681640  0.36196509  0.78596058  1
  Ti  Ti69  1  0.51191471  0.80888495  0.06467736  1
  Ti  Ti70  1  0.52040489  0.76773586  0.44322191  1
  Ti  Ti71  1  0.56038714  0.65866061  0.75492262  1
  Ti  Ti72  1  0.83110583  0.12995857  0.14870529  1
  Ti  Ti73  1  0.91685019  0.06759063  0.41280272  1
  Ti  Ti74  1  0.86423375  0.04196119  0.76405555  1
  Ti  Ti75  1  0.94592610  0.37174753  0.11357413  1
  Ti  Ti76  1  0.96710383  0.39155678  0.42217218  1
  Ti  Ti77  1  0.89485385  0.48220909  0.66458481  1
  Ti  Ti78  1  0.91146324  0.66774157  0.01216080  1
  Ti  Ti79  1  0.90567248  0.78226263  0.47865325  1
  Ti  Ti80  1  0.88504289  0.83253718  0.74371629  1
  Ti  Ti81  1  0.23012468  0.25545572  0.18169313  1
  Ti  Ti82  1  0.28213370  0.31550656  0.53513113  1
  Ti  Ti83  1  0.25810010  0.23834831  0.90590159  1
  Ti  Ti84  1  0.33063242  0.59099180  0.27108348  1
  Ti  Ti85  1  0.25831112  0.62309361  0.57616437  1
  Ti  Ti86  1  0.22197726  0.54114936  0.88711658  1
  Ti  Ti87  1  0.20688450  0.86830475  0.26164617  1
  Ti  Ti88  1  0.32191281  0.94125320  0.54477730  1
  Ti  Ti89  1  0.25082229  0.90546576  0.96807574  1
  Ti  Ti90  1  0.53670977  0.23821699  0.20977162  1
  Ti  Ti91  1  0.57801716  0.23259934  0.51400891  1
  Ti  Ti92  1  0.54809259  0.22278190  0.87199921  1
  Ti  Ti93  1  0.54873795  0.53753482  0.21014418  1
  Ti  Ti94  1  0.58814456  0.56034613  0.54250695  1
  Ti  Ti95  1  0.68784231  0.59815312  0.97252172  1
  Ti  Ti96  1  0.59909352  0.94445543  0.19583685  1
  Ti  Ti97  1  0.62889562  0.92929600  0.61846414  1
  Ti  Ti98  1  0.53282026  0.83689894  0.86398779  1
  Ti  Ti99  1  0.95421169  0.24128908  0.30120533  1
  Ti  Ti100  1  0.95731959  0.28596791  0.60878981  1
  Ti  Ti101  1  0.91192637  0.29932300  0.88684980  1
  Ti  Ti102  1  0.97646845  0.54825684  0.27086499  1
  Ti  Ti103  1  0.99576049  0.66009682  0.63755716  1
  Ti  Ti104  1  0.92135544  0.63024018  0.82856899  1
  Ti  Ti105  1  0.98373781  0.92613145  0.20722584  1
  Ti  Ti106  1  0.98763151  0.92864692  0.59592247  1
  Ti  Ti107  1  0.85835383  0.90446596  1.05351729  1
  Co  Co108  1  0.41611082  0.92583158  -0.02741531  1
  Co  Co109  1  0.48247335  -0.08697107  0.51861954  1
  Co  Co110  1  0.10728989  0.31730526  0.09053490  1
  Co  Co111  1  0.89304647  0.88234988  0.35312941  1
  Co  Co112  1  -0.04283816  0.08179621  0.24618253  1
  Co  Co113  1  0.82275579  -0.05728440  0.89223343  1
  Co  Co114  1  0.43369378  0.57985057  0.64817053  1
  Co  Co115  1  0.41156792  0.07027450  0.46309087  1
  Co  Co116  1  0.23384231  0.38117073  -0.01236230  1
  Co  Co117  1  0.30585877  -0.10322134  0.68996424  1
  Co  Co118  1  0.59649541  0.17753850  0.36238568  1
  Co  Co119  1  0.40690065  0.00029048  0.80534169  1
  Co  Co120  1  0.81453776  0.94202495  0.64003169  1
  Co  Co121  1  0.22908011  -0.04490096  0.13036246  1
  Co  Co122  1  0.90437054  0.20222726  0.73241134  1
  Co  Co123  1  -0.02445384  0.15138087  0.86731007  1
  Co  Co124  1  0.05265805  0.59278675  -0.06608029  1
  Co  Co125  1  0.66364137  0.11137469  0.21342555  1
  Co  Co126  1  0.81769850  0.35082516  0.72680262  1
  Co  Co127  1  0.68075492  0.43527130  0.45507722  1
  Co  Co128  1  0.55364011  0.75392582  0.59994892  1
  Co  Co129  1  0.91500842  0.66715573  0.17793938  1
  Co  Co130  1  0.69691791  0.83595883  0.12026425  1
  Co  Co131  1  -0.03141458  0.00561572  -0.07027608  1
  Co  Co132  1  -0.00669734  0.35575302  0.76193148  1
  Co  Co133  1  -0.11257195  0.47028074  0.83337088  1
  Co  Co134  1  0.05279003  0.77712201  0.52509710  1
  Co  Co135  1  0.34733991  0.47157256  0.55742238  1
  Co  Co136  1  -0.01014885  0.49145985  0.54426980  1
  Co  Co137  1  0.77178469  0.70367141  0.07240159  1
  Co  Co138  1  0.06934071  0.10471388  0.37742911  1
  Co  Co139  1  0.15682615  0.37428668  0.82132584  1
  Co  Co140  1  0.22096218  -0.04855894  0.81147065  1
  Co  Co141  1  0.18401787  0.56270395  0.04137689  1
  Co  Co142  1  0.54203751  0.24328304  0.03386679  1
  Co  Co143  1  0.36411784  0.85235714  0.82981140  1
  Co  Co144  1  0.74866032  0.51605675  0.58081724  1
  Co  Co145  1  0.31840275  0.38194632  0.84120818  1
  Co  Co146  1  0.64308123  0.87446574  0.46466513  1
  Co  Co147  1  0.07199011  0.20799287  0.20370226  1
  Co  Co148  1  0.47737526  0.39288393  0.81550847  1
  Co  Co149  1  0.70197646  0.25787246  -0.06512278  1
  Co  Co150  1  0.15371302  0.97911080  0.66151688  1
  Co  Co151  1  0.34091014  0.82490147  0.08825448  1
  Co  Co152  1  0.40146592  0.49295482  0.15040068  1
  Co  Co153  1  0.52321783  0.90785352  0.34613480  1
  Co  Co154  1  0.22422917  0.71294424  -0.01344004  1
  Co  Co155  1  0.40973104  0.36442624  0.43795864  1
  Co  Co156  1  0.17352984  0.21086478  0.59726929  1
  Co  Co157  1  0.12289589  0.54749831  0.62200323  1
  Co  Co158  1  0.28609691  0.06601940  -0.09080975  1
  Co  Co159  1  0.64039568  0.75623977  -0.01806267  1
  Co  Co160  1  0.91336827  0.50227287  -0.01125289  1
  Co  Co161  1  0.68271252  0.27143247  0.26617558  1
  Ni  Ni162  1  0.14653231  0.81574296  0.10911292  1
  Ni  Ni163  1  0.52518776  0.38770476  0.12693109  1
  Ni  Ni164  1  0.59993570  0.21757836  0.68119499  1
  Ni  Ni165  1  0.08646167  0.26567478  -0.07340439  1
  Ni  Ni166  1  -0.01533698  0.79959619  0.09389753  1
  Ni  Ni167  1  0.83615842  0.26233630  0.03644308  1
  Ni  Ni168  1  0.41758347  0.22215079  0.54075323  1
  Ni  Ni169  1  0.90206111  0.08803708  0.59271267  1
  Ni  Ni170  1  0.14843987  0.13806126  0.01832553  1
  Ni  Ni171  1  0.70012203  0.07108622  0.68111259  1
  Ni  Ni172  1  0.45454248  0.49550810  0.34699553  1
  Ni  Ni173  1  0.38298084  0.16965058  0.20414181  1
  Ni  Ni174  1  0.73811803  -0.00251013  0.11577218  1
  Ni  Ni175  1  0.16447276  0.80314035  0.41615320  1
  Ni  Ni176  1  0.65289066  0.78969426  0.73179984  1
  Ni  Ni177  1  0.08842552  0.66654556  0.78930138  1
  Ni  Ni178  1  0.23988890  0.61728528  0.74138842  1
  Ni  Ni179  1  0.20024760  0.63173204  0.42276069  1
  Ni  Ni180  1  0.88604563  0.41679040  0.27807601  1
  Ni  Ni181  1  0.68301493  0.64793435  0.63929839  1
  Ni  Ni182  1  0.14212691  0.53653591  0.29736415  1
  Ni  Ni183  1  0.58586557  0.51969561  0.86259284  1
  Ni  Ni184  1  0.38929736  0.16010919  0.81820950  1
  Ni  Ni185  1  0.12737201  0.43719719  0.45393137  1
  Ni  Ni186  1  0.56931966  0.49371047  0.70098928  1
  Ni  Ni187  1  0.69614691  0.07744918  0.87078752  1
  Ni  Ni188  1  0.85457477  0.63757052  0.55209125  1
  Ni  Ni189  1  0.38357546  0.77253856  0.55792890  1
  Ni  Ni190  1  0.55240705  0.00142351  -0.08880868  1
  Ni  Ni191  1  0.66836337  0.48003215  0.09866540  1
  Ni  Ni192  1  0.17333775  0.70042558  0.27899875  1
  Ni  Ni193  1  0.15899573  -0.04356263  0.49861795  1
  Ni  Ni194  1  0.52271239  0.53987142  0.03481975  1
  Ni  Ni195  1  0.47655461  0.65723141  0.31821445  1
  Ni  Ni196  1  0.82705858  0.29080219  0.20205756  1
  Ni  Ni197  1  0.05561205  0.80266852  0.69582979  1
  Ni  Ni198  1  0.01974270  0.06734587  0.71967444  1
  Ni  Ni199  1  0.79377594  0.69467337  0.74411152  1
  Ni  Ni200  1  0.83543618  0.37666295  0.53470678  1
  Ni  Ni201  1  0.80475967  0.15855002  0.30920634  1
  Ni  Ni202  1  0.07448491  0.48289372  0.14352330  1
  Ni  Ni203  1  -0.11725617  0.67057847  0.35098679  1
  Ni  Ni204  1  -0.09524671  0.22415306  0.46643376  1
  Ni  Ni205  1  0.25575014  0.27812005  0.72321341  1
  Ni  Ni206  1  0.45144387  0.66484220  0.14443396  1
  Ni  Ni207  1  0.65675363  0.00635280  0.34796484  1
  Ni  Ni208  1  0.51385327  0.09172564  0.12662217  1
  Ni  Ni209  1  0.29278830  0.04696867  0.26392413  1
  Ni  Ni210  1  0.51753385  0.66249492  0.92374946  1
  Ni  Ni211  1  0.73083950  0.12194613  0.44854805  1
  Ni  Ni212  1  0.24851127  0.32888407  0.35742122  1
  Ni  Ni213  1  -0.06324776  0.83025968  0.92093679  1
  Ni  Ni214  1  0.20337719  0.17736319  0.32525488  1
