# generated using pymatgen
data_Ti108Co54Ni53
_symmetry_space_group_name_H-M   'P 1'
_cell_length_a   14.60127663
_cell_length_b   14.64375402
_cell_length_c   14.68863599
_cell_angle_alpha   90.00321622
_cell_angle_beta   89.76383195
_cell_angle_gamma   89.93857399
_symmetry_Int_Tables_number   1
_chemical_formula_structural   Ti108Co54Ni53
_chemical_formula_sum   'Ti108 Co54 Ni53'
_cell_volume   3140.65898411
_cell_formula_units_Z   1
loop_
 _symmetry_equiv_pos_site_id
 _symmetry_equiv_pos_as_xyz
  1  'x, y, z'
loop_
 _atom_site_type_symbol
 _atom_site_label
 _atom_site_symmetry_multiplicity
 _atom_site_fract_x
 _atom_site_fract_y
 _atom_site_fract_z
 _atom_site_occupancy
  Ti  Ti0  1  0.05442538  0.08128562  0.30109136  1
  Ti  Ti1  1  0.13302605  0.05912076  0.65797652  1
  Ti  Ti2  1  0.08427563  0.07453524  1.00097048  1
  Ti  Ti3  1  0.05846903  0.43291840  0.23981369  1
  Ti  Ti4  1  0.05060777  0.39383906  0.58999524  1
  Ti  Ti5  1  0.15188941  0.44692596  0.90083302  1
  Ti  Ti6  1  0.03975058  0.72785830  0.27167805  1
  Ti  Ti7  1  0.14506181  0.76072575  0.55211316  1
  Ti  Ti8  1  0.07863319  0.78137521  0.93439147  1
  Ti  Ti9  1  0.31625817  0.02839031  0.21698513  1
  Ti  Ti10  1  0.40970509  0.06119009  0.61386452  1
  Ti  Ti11  1  0.54609139  0.15809729  0.94640561  1
  Ti  Ti12  1  0.38581324  0.43070054  0.21948089  1
  Ti  Ti13  1  0.45256352  0.39781715  0.51428343  1
  Ti  Ti14  1  0.35135845  0.41069802  0.93229398  1
  Ti  Ti15  1  0.42175333  0.70562959  0.27154262  1
  Ti  Ti16  1  0.38572545  0.70217408  0.60328163  1
  Ti  Ti17  1  0.41528401  0.73478027  0.96029139  1
  Ti  Ti18  1  0.82312199  0.10747769  0.26440761  1
  Ti  Ti19  1  0.79623524  0.11967128  0.59640211  1
  Ti  Ti20  1  0.75091653  0.12894381  0.84483179  1
  Ti  Ti21  1  0.72992871  0.47779422  0.25677475  1
  Ti  Ti22  1  0.70850592  0.46757269  0.54361595  1
  Ti  Ti23  1  0.69949073  0.47585637  0.93775793  1
  Ti  Ti24  1  0.69332111  0.80365330  0.25454538  1
  Ti  Ti25  1  0.80385646  0.70124265  0.52922951  1
  Ti  Ti26  1  0.81041745  0.73352346  0.96683726  1
  Ti  Ti27  1  0.10289776  0.31065161  0.06703417  1
  Ti  Ti28  1  0.10358464  0.24012674  0.44612638  1
  Ti  Ti29  1  0.06477603  0.22385107  0.87497409  1
  Ti  Ti30  1  0.18119139  0.62484417  0.00512090  1
  Ti  Ti31  1  0.11773467  0.58191660  0.41337734  1
  Ti  Ti32  1  0.05999304  0.66538405  0.70781125  1
  Ti  Ti33  1  0.03050892  0.89866114  0.10038135  1
  Ti  Ti34  1  0.11685191  0.91867241  0.39202348  1
  Ti  Ti35  1  0.16398732  0.94356536  0.84435830  1
  Ti  Ti36  1  0.42183245  0.26920518  0.08997287  1
  Ti  Ti37  1  0.48842953  0.20717912  0.44576464  1
  Ti  Ti38  1  0.43439959  0.28964840  0.77850405  1
  Ti  Ti39  1  0.46461081  0.60375231  0.11797610  1
  Ti  Ti40  1  0.48178814  0.54551929  0.35962664  1
  Ti  Ti41  1  0.38080853  0.52529307  0.65940522  1
  Ti  Ti42  1  0.40278024  0.92794652  0.07262334  1
  Ti  Ti43  1  0.43211392  0.85944052  0.41132115  1
  Ti  Ti44  1  0.36737236  0.90662316  0.86658661  1
  Ti  Ti45  1  0.78806105  0.21108406  0.09553047  1
  Ti  Ti46  1  0.71263085  0.20473297  0.41927315  1
  Ti  Ti47  1  0.77230124  0.27170707  0.71291287  1
  Ti  Ti48  1  0.79193331  0.56112539  0.08037885  1
  Ti  Ti49  1  0.83311734  0.54827333  0.42305011  1
  Ti  Ti50  1  0.76721032  0.46250458  0.73910690  1
  Ti  Ti51  1  0.71965900  0.90965657  0.02912651  1
  Ti  Ti52  1  0.77273000  0.87183195  0.41516041  1
  Ti  Ti53  1  0.79072012  0.96049771  0.72463532  1
  Ti  Ti54  1  0.21371469  0.16219813  0.12876028  1
  Ti  Ti55  1  0.24032670  0.10034263  0.39069798  1
  Ti  Ti56  1  0.29013440  0.18189674  0.71383131  1
  Ti  Ti57  1  0.23391132  0.46242625  0.08950510  1
  Ti  Ti58  1  0.25368296  0.40149233  0.37962142  1
  Ti  Ti59  1  0.16635176  0.33401818  0.72699003  1
  Ti  Ti60  1  0.29916224  0.73623807  0.11538550  1
  Ti  Ti61  1  0.24023591  0.76276797  0.36665014  1
  Ti  Ti62  1  0.23387216  0.77974676  0.75947238  1
  Ti  Ti63  1  0.55854453  0.04806745  0.10177663  1
  Ti  Ti64  1  0.45224890  0.04738435  0.36969364  1
  Ti  Ti65  1  0.50733466  0.10805681  0.76997991  1
  Ti  Ti66  1  0.64380012  0.38000208  0.10228043  1
  Ti  Ti67  1  0.57841420  0.39299352  0.35707422  1
  Ti  Ti68  1  0.58794498  0.42125919  0.79252201  1
  Ti  Ti69  1  0.62236806  0.73051985  0.06997674  1
  Ti  Ti70  1  0.58545481  0.71832243  0.42540111  1
  Ti  Ti71  1  0.59128652  0.74585453  0.86088480  1
  Ti  Ti72  1  0.87579130  0.04468568  0.04348117  1
  Ti  Ti73  1  0.92196884  0.15823628  0.42479611  1
  Ti  Ti74  1  0.98937751  0.03164669  0.78965934  1
  Ti  Ti75  1  0.92366860  0.41864331  0.07154225  1
  Ti  Ti76  1  0.90764416  0.36800866  0.44326488  1
  Ti  Ti77  1  0.95976495  0.39329429  0.77474377  1
  Ti  Ti78  1  0.97353633  0.63115661  0.01993504  1
  Ti  Ti79  1  0.96195853  0.80074307  0.44281604  1
  Ti  Ti80  1  0.86728050  0.74478837  0.70562192  1
  Ti  Ti81  1  0.33018314  0.23050675  0.27360853  1
  Ti  Ti82  1  0.29108709  0.27664164  0.52194007  1
  Ti  Ti83  1  0.35257912  0.18265600  0.92246330  1
  Ti  Ti84  1  0.30026189  0.58846231  0.34588801  1
  Ti  Ti85  1  0.20959988  0.48924924  0.57476613  1
  Ti  Ti86  1  0.31917504  0.60707617  0.84559548  1
  Ti  Ti87  1  0.19424831  0.86272726  0.21713637  1
  Ti  Ti88  1  0.24317941  0.94529962  0.54377203  1
  Ti  Ti89  1  0.21813881  0.89461646  1.02664335  1
  Ti  Ti90  1  0.68406164  0.27493247  0.25062828  1
  Ti  Ti91  1  0.59840813  0.18234879  0.60327544  1
  Ti  Ti92  1  0.53907117  0.34048220  0.94407054  1
  Ti  Ti93  1  0.61897439  0.62885990  0.24660799  1
  Ti  Ti94  1  0.57322685  0.55319442  0.66392459  1
  Ti  Ti95  1  0.51162018  0.55860288  0.92384264  1
  Ti  Ti96  1  0.65148059  0.98756678  0.29285437  1
  Ti  Ti97  1  0.67028945  0.97868752  0.55407027  1
  Ti  Ti98  1  0.61669413  0.97830525  0.87838078  1
  Ti  Ti99  1  0.95888382  0.24861536  0.19553342  1
  Ti  Ti100  1  0.93782929  0.24475893  0.59332214  1
  Ti  Ti101  1  0.86630546  0.27169595  0.91941215  1
  Ti  Ti102  1  0.84149466  0.64844638  0.24470940  1
  Ti  Ti103  1  0.91266685  0.55804622  0.63096708  1
  Ti  Ti104  1  0.84527491  0.59103347  0.84122511  1
  Ti  Ti105  1  0.85435344  0.91795221  0.19828319  1
  Ti  Ti106  1  0.91226956  0.98157612  0.51921198  1
  Ti  Ti107  1  0.89715467  0.84943818  0.85281471  1
  Co  Co108  1  -0.01194861  0.50528816  0.48938807  1
  Co  Co109  1  0.43032493  0.22958125  0.61385265  1
  Co  Co110  1  0.07105102  0.49093524  0.05172554  1
  Co  Co111  1  0.01447243  0.52957757  0.89069969  1
  Co  Co112  1  0.30587717  0.80577673  0.50554928  1
  Co  Co113  1  0.88753411  0.86864966  0.02740671  1
  Co  Co114  1  0.49093546  0.39100950  0.66284552  1
  Co  Co115  1  0.01665324  0.88918764  0.26418486  1
  Co  Co116  1  0.72880340  0.03880063  0.15353497  1
  Co  Co117  1  0.06584746  0.92922346  0.54450875  1
  Co  Co118  1  0.65403909  0.55489394  0.40462033  1
  Co  Co119  1  0.00878379  0.30590903  0.33486575  1
  Co  Co120  1  0.19396853  0.19127453  -0.03292242  1
  Co  Co121  1  -0.07286601  0.11537568  0.90907827  1
  Co  Co122  1  0.42917531  0.46404830  0.80173842  1
  Co  Co123  1  0.10575239  0.41421351  0.43229106  1
  Co  Co124  1  0.72574592  0.86244043  0.85118950  1
  Co  Co125  1  0.27182008  0.30851581  0.04383373  1
  Co  Co126  1  0.64805105  0.58365359  0.80677713  1
  Co  Co127  1  0.45885995  0.02138276  0.94261375  1
  Co  Co128  1  0.60794536  0.08066980  0.43709207  1
  Co  Co129  1  0.74361329  0.71402437  0.80820950  1
  Co  Co130  1  0.55056606  0.47379236  0.21244437  1
  Co  Co131  1  0.80634855  0.36184754  0.16386462  1
  Co  Co132  1  0.60010701  0.89397430  0.13988213  1
  Co  Co133  1  0.31495939  0.58609218  0.16919502  1
  Co  Co134  1  0.82450345  0.85898912  0.58013594  1
  Co  Co135  1  0.38915011  0.10828247  0.07668076  1
  Co  Co136  1  0.50758214  -0.01285895  0.51747917  1
  Co  Co137  1  0.60912363  0.13562001  0.27327714  1
  Co  Co138  1  0.74557329  0.68997006  0.37166277  1
  Co  Co139  1  0.04256201  0.81628914  0.77830381  1
  Co  Co140  1  0.00891808  0.37019925  -0.06121691  1
  Co  Co141  1  0.86306185  0.44774909  -0.08338362  1
  Co  Co142  1  0.87424810  0.79700754  0.30191638  1
  Co  Co143  1  0.15005733  0.63261417  0.84173610  1
  Co  Co144  1  0.36381351  0.06119789  0.81120030  1
  Co  Co145  1  0.59642323  -0.10383122  0.41418375  1
  Co  Co146  1  0.48449348  -0.02439431  0.22944238  1
  Co  Co147  1  0.25207911  0.29973180  0.85775939  1
  Co  Co148  1  0.98414332  0.65899636  0.51841973  1
  Co  Co149  1  -0.01808889  0.09128606  0.61247151  1
  Co  Co150  1  0.81593731  -0.01150145  0.90166934  1
  Co  Co151  1  0.25631018  0.77179712  0.92393437  1
  Co  Co152  1  0.97208025  0.21548380  0.03193078  1
  Co  Co153  1  0.68298263  0.63738073  -0.04756858  1
  Co  Co154  1  0.10107149  0.07215739  0.48121848  1
  Co  Co155  1  -0.02796284  0.68711374  -0.14882838  1
  Co  Co156  1  0.74020925  0.39278861  0.39785034  1
  Co  Co157  1  0.73794758  0.34162816  0.85128519  1
  Co  Co158  1  0.13726513  0.88887568  0.67983287  1
  Co  Co159  1  -0.05010501  0.75316551  0.13837689  1
  Co  Co160  1  0.34595456  0.56547489  0.00794170  1
  Co  Co161  1  0.40426643  0.68948898  0.43808633  1
  Ni  Ni162  1  0.27894176  0.03471224  -0.03504037  1
  Ni  Ni163  1  0.47804839  0.63631734  0.77649977  1
  Ni  Ni164  1  -0.00570418  0.08900613  0.14865709  1
  Ni  Ni165  1  0.14272144  0.01221269  0.16652324  1
  Ni  Ni166  1  0.66359895  0.07101062  0.71247173  1
  Ni  Ni167  1  0.74949853  0.61349103  0.66830972  1
  Ni  Ni168  1  0.22072816  0.33710558  0.20207346  1
  Ni  Ni169  1  0.25280446  0.64470451  0.51094635  1
  Ni  Ni170  1  0.20447037  0.49729382  0.25333827  1
  Ni  Ni171  1  -0.00596943  0.79272297  0.60913065  1
  Ni  Ni172  1  0.76998560  0.29234381  0.54469931  1
  Ni  Ni173  1  0.64631218  0.35349869  0.65227403  1
  Ni  Ni174  1  0.03811408  0.22585546  0.71869602  1
  Ni  Ni175  1  0.47200184  0.78332130  0.12206394  1
  Ni  Ni176  1  -0.05022319  -0.07399034  0.67845175  1
  Ni  Ni177  1  0.00723807  -0.05407473  -0.06593202  1
  Ni  Ni178  1  0.41055923  0.33589130  0.36635332  1
  Ni  Ni179  1  0.89394835  0.44607658  0.28048981  1
  Ni  Ni180  1  0.14170003  0.21989744  0.59952348  1
  Ni  Ni181  1  0.78917756  0.76528259  0.12859611  1
  Ni  Ni182  1  0.48015585  0.44403723  0.06279000  1
  Ni  Ni183  1  0.36563425  0.85999503  0.23540274  1
  Ni  Ni184  1  0.68647152  0.25175813  -0.02952176  1
  Ni  Ni185  1  0.53358288  0.82350571  0.27572965  1
  Ni  Ni186  1  0.23285675  0.62700775  0.68500296  1
  Ni  Ni187  1  0.11778510  0.75000216  0.10506579  1
  Ni  Ni188  1  0.51005955  0.30467258  0.22736649  1
  Ni  Ni189  1  0.69940775  0.08366470  -0.00124102  1
  Ni  Ni190  1  0.09306360  0.49776244  0.73150139  1
  Ni  Ni191  1  0.61248482  0.32053673  0.49983709  1
  Ni  Ni192  1  0.77882577  0.04871881  0.42524631  1
  Ni  Ni193  1  0.35723654  0.52483178  0.48724739  1
  Ni  Ni194  1  0.14851445  0.21999016  0.28632403  1
  Ni  Ni195  1  0.19329501  0.10607117  0.82663125  1
  Ni  Ni196  1  0.61495141  0.24058284  0.79430881  1
  Ni  Ni197  1  0.66893134  0.80984521  0.53696077  1
  Ni  Ni198  1  0.25591028  0.47372856  0.76488453  1
  Ni  Ni199  1  0.26140040  0.11505619  0.55418424  1
  Ni  Ni200  1  0.46125806  0.14299411  0.21834892  1
  Ni  Ni201  1  0.18952482  0.66644559  0.23498410  1
  Ni  Ni202  1  0.53316863  0.86743834  -0.02060505  1
  Ni  Ni203  1  0.32699146  0.36044219  0.66214179  1
  Ni  Ni204  1  0.28749927  -0.06221861  0.36359283  1
  Ni  Ni205  1  -0.02712689  0.58637692  0.34185093  1
  Ni  Ni206  1  0.62115799  0.54886161  0.08140452  1
  Ni  Ni207  1  0.27584437  -0.02481576  0.71220802  1
  Ni  Ni208  1  0.50923637  0.58913624  0.52005987  1
  Ni  Ni209  1  0.59620603  0.21288324  0.11172666  1
  Ni  Ni210  1  0.89110719  0.16021950  0.74750397  1
  Ni  Ni211  1  0.84055371  0.27928387  0.31336944  1
  Ni  Ni212  1  0.87068728  0.40129700  0.61587113  1
  Ni  Ni213  1  -0.02906310  0.56724261  0.17423194  1
  Ni  Ni214  1  -0.08438741  -0.01826621  0.35136224  1
