# generated using pymatgen
data_Ti108Co54Ni53
_symmetry_space_group_name_H-M   'P 1'
_cell_length_a   14.68243895
_cell_length_b   14.68845830
_cell_length_c   14.68940889
_cell_angle_alpha   89.56820462
_cell_angle_beta   89.74297436
_cell_angle_gamma   89.90978460
_symmetry_Int_Tables_number   1
_chemical_formula_structural   Ti108Co54Ni53
_chemical_formula_sum   'Ti108 Co54 Ni53'
_cell_volume   3167.82746542
_cell_formula_units_Z   1
loop_
 _symmetry_equiv_pos_site_id
 _symmetry_equiv_pos_as_xyz
  1  'x, y, z'
loop_
 _atom_site_type_symbol
 _atom_site_label
 _atom_site_symmetry_multiplicity
 _atom_site_fract_x
 _atom_site_fract_y
 _atom_site_fract_z
 _atom_site_occupancy
  Ti  Ti0  1  0.12870872  0.09451037  0.18505760  1
  Ti  Ti1  1  0.03499711  0.11867706  0.65270373  1
  Ti  Ti2  1  0.08680097  0.10364744  0.91884324  1
  Ti  Ti3  1  0.10534115  0.41644029  0.21475998  1
  Ti  Ti4  1  0.10174761  0.31022959  0.62542304  1
  Ti  Ti5  1  -0.01595823  0.41286922  0.91466077  1
  Ti  Ti6  1  0.12241574  0.77761331  0.14262620  1
  Ti  Ti7  1  0.05525051  0.75268838  0.58516617  1
  Ti  Ti8  1  0.06849135  0.76858696  0.95285430  1
  Ti  Ti9  1  0.45454220  0.10113999  0.20423204  1
  Ti  Ti10  1  0.38332657  0.11427819  0.58626823  1
  Ti  Ti11  1  0.43183716  0.11233880  0.89377647  1
  Ti  Ti12  1  0.42611797  0.31695155  0.27338184  1
  Ti  Ti13  1  0.38908631  0.42993011  0.62554948  1
  Ti  Ti14  1  0.45323008  0.42421858  0.98004561  1
  Ti  Ti15  1  0.44722481  0.77508711  0.27687136  1
  Ti  Ti16  1  0.36559376  0.78412481  0.58889475  1
  Ti  Ti17  1  0.47399682  0.74324002  1.00074888  1
  Ti  Ti18  1  0.72956936  0.14308518  0.28759531  1
  Ti  Ti19  1  0.70776897  0.07519152  0.65010541  1
  Ti  Ti20  1  0.71359607  0.03156380  0.87617725  1
  Ti  Ti21  1  0.68715149  0.33180591  0.26805031  1
  Ti  Ti22  1  0.67161156  0.51085058  0.57627957  1
  Ti  Ti23  1  0.79391442  0.47179150  0.86502577  1
  Ti  Ti24  1  0.76618280  0.68074364  0.29534308  1
  Ti  Ti25  1  0.71287351  0.74680754  0.59128246  1
  Ti  Ti26  1  0.80605341  0.74006588  0.96230988  1
  Ti  Ti27  1  0.04469934  0.24990746  0.07635392  1
  Ti  Ti28  1  0.10157863  0.27609924  0.43012353  1
  Ti  Ti29  1  0.16491703  0.22672661  0.77902150  1
  Ti  Ti30  1  0.10286510  0.59941624  0.02568535  1
  Ti  Ti31  1  0.11757538  0.55608826  0.46840222  1
  Ti  Ti32  1  0.08305025  0.51900349  0.70746454  1
  Ti  Ti33  1  0.11587802  0.95713101  0.04193294  1
  Ti  Ti34  1  0.09878111  0.95817289  0.39280347  1
  Ti  Ti35  1  0.06082558  0.90418274  0.70217630  1
  Ti  Ti36  1  0.34953302  0.28226320  0.10579447  1
  Ti  Ti37  1  0.45290040  0.23846249  0.45820745  1
  Ti  Ti38  1  0.39807820  0.29793704  0.79475894  1
  Ti  Ti39  1  0.34909607  0.55552847  0.07828072  1
  Ti  Ti40  1  0.42023243  0.60352296  0.52666282  1
  Ti  Ti41  1  0.39162099  0.56054541  0.77415189  1
  Ti  Ti42  1  0.33978554  0.86508209  0.13340010  1
  Ti  Ti43  1  0.39855780  0.89660612  0.42781035  1
  Ti  Ti44  1  0.45332705  0.87537430  0.76148709  1
  Ti  Ti45  1  0.73006614  0.24991761  0.09013972  1
  Ti  Ti46  1  0.78346804  0.26217148  0.43413711  1
  Ti  Ti47  1  0.76824840  0.28526037  0.67962117  1
  Ti  Ti48  1  0.71819524  0.55550918  0.03566636  1
  Ti  Ti49  1  0.74521748  0.49100667  0.39845349  1
  Ti  Ti50  1  0.81873776  0.62586374  0.71021168  1
  Ti  Ti51  1  0.77019023  1.00570586  0.16253696  1
  Ti  Ti52  1  0.74702878  0.97232246  0.37066821  1
  Ti  Ti53  1  0.71430040  0.89996290  0.70534322  1
  Ti  Ti54  1  0.31279386  0.04676335  0.05914296  1
  Ti  Ti55  1  0.22920769  0.10191138  0.45497028  1
  Ti  Ti56  1  0.20177981  0.04020110  0.74526325  1
  Ti  Ti57  1  0.21034054  0.42902736  0.05067210  1
  Ti  Ti58  1  0.36213193  0.42413441  0.42529403  1
  Ti  Ti59  1  0.23637594  0.41254720  0.76334250  1
  Ti  Ti60  1  0.26199966  0.71120518  0.02813974  1
  Ti  Ti61  1  0.31388220  0.71825104  0.40234020  1
  Ti  Ti62  1  0.21161935  0.80588366  0.81204351  1
  Ti  Ti63  1  0.58112445  -0.00135464  0.05708988  1
  Ti  Ti64  1  0.55021752  0.07036303  0.40034284  1
  Ti  Ti65  1  0.52607975  0.12748916  0.72612505  1
  Ti  Ti66  1  0.60339559  0.43579562  0.11920429  1
  Ti  Ti67  1  0.57998328  0.36882301  0.40999358  1
  Ti  Ti68  1  0.62924063  0.42790897  0.76196676  1
  Ti  Ti69  1  0.64755568  0.72078369  0.12046148  1
  Ti  Ti70  1  0.61737298  0.66799431  0.45795158  1
  Ti  Ti71  1  0.66089424  0.74189717  0.78807099  1
  Ti  Ti72  1  0.94530049  0.05258339  0.07577645  1
  Ti  Ti73  1  0.91442756  0.05936701  0.44036978  1
  Ti  Ti74  1  0.85121252  0.14025257  0.77448083  1
  Ti  Ti75  1  0.90317524  0.37795834  0.09299030  1
  Ti  Ti76  1  0.91710984  0.43439388  0.44453976  1
  Ti  Ti77  1  0.92753112  0.40946976  0.65364748  1
  Ti  Ti78  1  0.83583002  0.81685366  0.13403747  1
  Ti  Ti79  1  0.86303222  0.78560305  0.43753282  1
  Ti  Ti80  1  0.87751882  0.80233967  0.75888038  1
  Ti  Ti81  1  0.23187704  0.27530083  0.29481932  1
  Ti  Ti82  1  0.27755396  0.28325539  0.59721189  1
  Ti  Ti83  1  0.25518455  0.28697732  0.93611338  1
  Ti  Ti84  1  0.33633533  0.57272426  0.27777549  1
  Ti  Ti85  1  0.25911565  0.61209191  0.63954944  1
  Ti  Ti86  1  0.22170272  0.60816492  0.86374408  1
  Ti  Ti87  1  0.28899412  1.01677916  0.29052523  1
  Ti  Ti88  1  0.27979682  0.95669681  0.58705300  1
  Ti  Ti89  1  0.29974662  0.96276529  0.88537216  1
  Ti  Ti90  1  0.54010359  0.26655939  0.10009051  1
  Ti  Ti91  1  0.61411747  0.23896399  0.57442499  1
  Ti  Ti92  1  0.58431497  0.28302120  0.90134053  1
  Ti  Ti93  1  0.53107574  0.59579219  0.20075723  1
  Ti  Ti94  1  0.52278070  0.67356993  0.66483269  1
  Ti  Ti95  1  0.56747810  0.58182464  0.87063981  1
  Ti  Ti96  1  0.64195200  0.86834593  0.23916452  1
  Ti  Ti97  1  0.61728500  0.91904157  0.51517491  1
  Ti  Ti98  1  0.59009762  0.86589232  0.91086416  1
  Ti  Ti99  1  0.88598800  0.26906678  0.25328681  1
  Ti  Ti100  1  0.93919474  0.26152774  0.52828289  1
  Ti  Ti101  1  0.88945418  0.23119382  0.96393935  1
  Ti  Ti102  1  0.92104225  0.54773428  0.19316935  1
  Ti  Ti103  1  0.94100665  0.58636937  0.56421074  1
  Ti  Ti104  1  0.91015905  0.57370092  0.99516919  1
  Ti  Ti105  1  0.98325390  0.92420960  0.22903703  1
  Ti  Ti106  1  0.89539175  0.97840220  0.63221934  1
  Ti  Ti107  1  0.95236167  0.91430264  0.90054032  1
  Co  Co108  1  0.27229948  0.71613882  0.20720853  1
  Co  Co109  1  0.61664548  0.14272543  -0.03690290  1
  Co  Co110  1  -0.06790030  0.50893300  0.78010422  1
  Co  Co111  1  0.23104583  0.86266922  -0.00335568  1
  Co  Co112  1  -0.02338360  0.87093656  0.06719937  1
  Co  Co113  1  0.28560535  0.41956341  0.20666047  1
  Co  Co114  1  0.84888709  -0.02418429  0.78463279  1
  Co  Co115  1  0.10978875  0.11530360  0.34152156  1
  Co  Co116  1  0.52794880  0.58057737  0.03595685  1
  Co  Co117  1  0.85231386  0.15711623  0.14606557  1
  Co  Co118  1  0.05674987  0.12092902  0.49395732  1
  Co  Co119  1  0.38186954  0.62512610  -0.07783858  1
  Co  Co120  1  0.47756103  0.42984967  0.81725069  1
  Co  Co121  1  0.68400962  0.86572228  0.05111268  1
  Co  Co122  1  0.70222110  0.81611637  0.40938869  1
  Co  Co123  1  0.48398283  0.76114235  0.48026151  1
  Co  Co124  1  0.57463995  -0.02633540  0.70265583  1
  Co  Co125  1  0.22954864  0.86564715  0.46590919  1
  Co  Co126  1  0.20188074  0.39439511  0.45987459  1
  Co  Co127  1  0.55107785  0.01422586  0.85992783  1
  Co  Co128  1  0.52074956  0.51287282  0.66881753  1
  Co  Co129  1  0.01004094  0.03614478  0.78601129  1
  Co  Co130  1  0.96023248  0.20376905  0.37858568  1
  Co  Co131  1  0.51666003  0.85145039  0.12062423  1
  Co  Co132  1  0.09468045  0.29162684  -0.07094336  1
  Co  Co133  1  0.61445936  0.44340208  -0.05562299  1
  Co  Co134  1  -0.02018311  0.65883508  0.70331778  1
  Co  Co135  1  0.29525039  0.26030593  0.44082184  1
  Co  Co136  1  0.05237808  0.36095431  0.77732534  1
  Co  Co137  1  0.63269628  0.70328772  -0.04052052  1
  Co  Co138  1  0.53310734  0.38233846  0.56871582  1
  Co  Co139  1  -0.09584425  0.07229219  -0.08668420  1
  Co  Co140  1  0.26901979  0.12986663  0.88566734  1
  Co  Co141  1  0.81872055  0.65418530  0.12471648  1
  Co  Co142  1  0.56570660  0.29325003  0.72696388  1
  Co  Co143  1  0.44150970  0.25941786  0.63069538  1
  Co  Co144  1  0.72214048  0.55690466  0.20992572  1
  Co  Co145  1  0.42584946  0.26017373  -0.04040520  1
  Co  Co146  1  -0.05517392  0.24971979  0.69112823  1
  Co  Co147  1  0.18956191  0.28418804  0.13887622  1
  Co  Co148  1  0.19609310  0.13763619  0.61099009  1
  Co  Co149  1  0.47172214  0.12902125  0.04725348  1
  Co  Co150  1  0.47294366  0.63294367  0.37007598  1
  Co  Co151  1  0.74554440  0.62060794  0.87147079  1
  Co  Co152  1  0.37021796  0.16489688  0.33002665  1
  Co  Co153  1  0.66171124  0.59167265  0.72006251  1
  Co  Co154  1  0.03445730  0.77871954  0.79893784  1
  Co  Co155  1  0.04732045  0.43077925  0.53910339  1
  Co  Co156  1  0.27767133  0.55398535  0.46773413  1
  Co  Co157  1  0.39390921  0.04988498  0.44086775  1
  Co  Co158  1  0.62790861  0.13623969  0.13731506  1
  Co  Co159  1  0.29013681  0.15290218  0.18529349  1
  Co  Co160  1  -0.00386416  0.20490159  0.83448755  1
  Co  Co161  1  0.63272629  0.21175556  0.41457842  1
  Ni  Ni162  1  0.87547907  0.32906539  0.81392509  1
  Ni  Ni163  1  0.32292956  0.17036263  0.73178235  1
  Ni  Ni164  1  0.55462568  0.82580972  0.63021088  1
  Ni  Ni165  1  0.79263463  0.62674690  0.50035470  1
  Ni  Ni166  1  0.20222177  0.48940609  0.32975772  1
  Ni  Ni167  1  0.17931530  -0.07196527  0.19209577  1
  Ni  Ni168  1  0.45703500  -0.04225340  0.58365222  1
  Ni  Ni169  1  0.34202282  0.72132560  0.74694957  1
  Ni  Ni170  1  0.38212392  0.01736261  0.73091502  1
  Ni  Ni171  1  -0.02912440  0.70403870  0.08361114  1
  Ni  Ni172  1  0.84696515  0.43156753  0.28472926  1
  Ni  Ni173  1  0.12066681  -0.06801337  0.86721278  1
  Ni  Ni174  1  0.53986200  0.51302645  0.47040244  1
  Ni  Ni175  1  0.35835177  0.80024536  0.89600182  1
  Ni  Ni176  1  0.75907586  0.37734488  -0.00923890  1
  Ni  Ni177  1  0.60273894  0.71961869  0.30283740  1
  Ni  Ni178  1  0.78466557  0.38762025  0.54482104  1
  Ni  Ni179  1  0.31416452  0.46540839  0.90466335  1
  Ni  Ni180  1  0.76941435  0.10502805  0.01571521  1
  Ni  Ni181  1  0.78911149  -0.08878847  0.52842258  1
  Ni  Ni182  1  0.61761252  0.54963309  0.32966817  1
  Ni  Ni183  1  0.72769457  0.09198689  0.48452205  1
  Ni  Ni184  1  0.85108313  0.13913238  0.59144263  1
  Ni  Ni185  1  0.20793568  0.46022152  0.60204684  1
  Ni  Ni186  1  -0.05047618  0.08482112  0.25939778  1
  Ni  Ni187  1  0.75999937  0.86792602  0.87431660  1
  Ni  Ni188  1  0.88261546  0.76392152  0.59991446  1
  Ni  Ni189  1  0.20308967  0.70231461  0.51646253  1
  Ni  Ni190  1  0.60856205  0.02521569  0.25315205  1
  Ni  Ni191  1  0.82633728  0.85567361  0.28824296  1
  Ni  Ni192  1  -0.00327546  0.37007855  0.32511486  1
  Ni  Ni193  1  0.47913143  0.47177632  0.30965821  1
  Ni  Ni194  1  -0.02317893  0.89303695  0.51598282  1
  Ni  Ni195  1  0.43902733  -0.06852862  -0.02025007  1
  Ni  Ni196  1  0.78171873  0.46219524  0.69785496  1
  Ni  Ni197  1  0.19437061  0.15893392  0.03535876  1
  Ni  Ni198  1  0.45533950  -0.05565468  0.26894090  1
  Ni  Ni199  1  0.11574728  -0.02217621  0.55927706  1
  Ni  Ni200  1  0.14506145  0.45607011  -0.10461565  1
  Ni  Ni201  1  0.14146060  0.67844654  0.72714310  1
  Ni  Ni202  1  0.44274436  0.44011591  0.15252384  1
  Ni  Ni203  1  0.41493104  0.69937774  0.13849697  1
  Ni  Ni204  1  0.76480549  0.41889654  0.14908595  1
  Ni  Ni205  1  0.28161529  0.85039445  0.30085082  1
  Ni  Ni206  1  0.48954068  0.72507028  0.82956268  1
  Ni  Ni207  1  0.19920587  0.57082805  0.16301815  1
  Ni  Ni208  1  0.06352789  0.24343390  0.24713516  1
  Ni  Ni209  1  0.04170400  0.45953895  0.06844635  1
  Ni  Ni210  1  0.20676948  0.80966948  0.64100176  1
  Ni  Ni211  1  0.55719361  0.21112059  0.27545890  1
  Ni  Ni212  1  0.67755250  0.18333666  0.78599648  1
  Ni  Ni213  1  0.82579425  0.94368237  0.00993044  1
  Ni  Ni214  1  0.91490342  0.66138836  0.85559568  1
