# generated using pymatgen
data_Ti108Co54Ni53
_symmetry_space_group_name_H-M   'P 1'
_cell_length_a   14.61080303
_cell_length_b   14.60098391
_cell_length_c   14.62749004
_cell_angle_alpha   90.30869634
_cell_angle_beta   90.05476370
_cell_angle_gamma   90.10487234
_symmetry_Int_Tables_number   1
_chemical_formula_structural   Ti108Co54Ni53
_chemical_formula_sum   'Ti108 Co54 Ni53'
_cell_volume   3120.46119529
_cell_formula_units_Z   1
loop_
 _symmetry_equiv_pos_site_id
 _symmetry_equiv_pos_as_xyz
  1  'x, y, z'
loop_
 _atom_site_type_symbol
 _atom_site_label
 _atom_site_symmetry_multiplicity
 _atom_site_fract_x
 _atom_site_fract_y
 _atom_site_fract_z
 _atom_site_occupancy
  Ti  Ti0  1  0.13493929  0.16493824  0.24457677  1
  Ti  Ti1  1  0.14659406  0.04762231  0.55061147  1
  Ti  Ti2  1  0.11366119  0.10076170  0.92951195  1
  Ti  Ti3  1  0.00913047  0.42837365  0.22642679  1
  Ti  Ti4  1  0.10401969  0.37963109  0.60484459  1
  Ti  Ti5  1  0.10495785  0.46223632  0.95000410  1
  Ti  Ti6  1  0.05574209  0.77774064  0.33959049  1
  Ti  Ti7  1  0.06946700  0.81127377  0.53449138  1
  Ti  Ti8  1  0.07483304  0.81383687  0.87902283  1
  Ti  Ti9  1  0.39534876  0.18161242  0.28698082  1
  Ti  Ti10  1  0.35378550  0.06968935  0.59115023  1
  Ti  Ti11  1  0.42758483  0.06540587  0.92709052  1
  Ti  Ti12  1  0.43421050  0.38864228  0.17706252  1
  Ti  Ti13  1  0.44624339  0.33888451  0.63316456  1
  Ti  Ti14  1  0.37749323  0.42517194  0.89292723  1
  Ti  Ti15  1  0.41795663  0.78719805  0.13956193  1
  Ti  Ti16  1  0.51830935  0.72573042  0.65974224  1
  Ti  Ti17  1  0.42863981  0.75150049  0.84190684  1
  Ti  Ti18  1  0.71886758  0.13479613  0.28008347  1
  Ti  Ti19  1  0.82383948  0.09836788  0.60971789  1
  Ti  Ti20  1  0.74374185  0.06118423  0.94733783  1
  Ti  Ti21  1  0.67699467  0.45809873  0.22170694  1
  Ti  Ti22  1  0.75348808  0.34697522  0.65011724  1
  Ti  Ti23  1  0.77500201  0.35700265  0.94519074  1
  Ti  Ti24  1  0.71733996  0.67848375  0.23620126  1
  Ti  Ti25  1  0.68863191  0.72704864  0.56340668  1
  Ti  Ti26  1  0.77392089  0.71548364  0.92848763  1
  Ti  Ti27  1  0.08570339  0.23303848  0.06382060  1
  Ti  Ti28  1  0.06595614  0.18479290  0.41260238  1
  Ti  Ti29  1  0.03694999  0.24492908  0.74257228  1
  Ti  Ti30  1  0.08853224  0.57716933  0.11519158  1
  Ti  Ti31  1  0.06657637  0.51266528  0.41438065  1
  Ti  Ti32  1  0.05947476  0.63637895  0.80234946  1
  Ti  Ti33  1  0.07041144  0.90114206  0.15782150  1
  Ti  Ti34  1  0.04626820  0.97077877  0.39172444  1
  Ti  Ti35  1  0.00442489  0.97480570  0.80998501  1
  Ti  Ti36  1  0.39065809  0.28006538  0.00395750  1
  Ti  Ti37  1  0.47318758  0.23834000  0.46121532  1
  Ti  Ti38  1  0.39662012  0.19940324  0.77661966  1
  Ti  Ti39  1  0.37737158  0.59707644  0.14038783  1
  Ti  Ti40  1  0.45415138  0.64303133  0.34886830  1
  Ti  Ti41  1  0.39804623  0.53694304  0.70638888  1
  Ti  Ti42  1  0.42299913  0.96455661  0.07897336  1
  Ti  Ti43  1  0.39819138  0.90695577  0.46431586  1
  Ti  Ti44  1  0.41801315  0.88697718  0.67832341  1
  Ti  Ti45  1  0.73061217  0.28275386  0.12851568  1
  Ti  Ti46  1  0.73403498  0.28724689  0.45958373  1
  Ti  Ti47  1  0.72167056  0.22178299  0.80695609  1
  Ti  Ti48  1  0.77871430  0.60191125  0.08861352  1
  Ti  Ti49  1  0.73500797  0.58744299  0.42826844  1
  Ti  Ti50  1  0.70091773  0.57813934  0.66991267  1
  Ti  Ti51  1  0.73149761  0.94262197  0.09437810  1
  Ti  Ti52  1  0.71985519  0.95350518  0.36618450  1
  Ti  Ti53  1  0.77526707  0.89780807  0.64812273  1
  Ti  Ti54  1  0.27312455  0.06636617  0.15066405  1
  Ti  Ti55  1  0.26222144  0.06758654  0.38980001  1
  Ti  Ti56  1  0.16541278  0.10129256  0.73208138  1
  Ti  Ti57  1  0.25065163  0.46063338  0.13465319  1
  Ti  Ti58  1  0.26045780  0.38861691  0.34907119  1
  Ti  Ti59  1  0.22105266  0.47747861  0.79139203  1
  Ti  Ti60  1  0.22892218  0.72346718  0.12232166  1
  Ti  Ti61  1  0.26541751  0.75839015  0.42078560  1
  Ti  Ti62  1  0.24418173  0.81434776  0.77186512  1
  Ti  Ti63  1  0.57406531  0.11132833  0.12690312  1
  Ti  Ti64  1  0.59461086  0.09207639  0.44710312  1
  Ti  Ti65  1  0.63766335  0.05056285  0.72465965  1
  Ti  Ti66  1  0.59600215  0.40755263  0.02338622  1
  Ti  Ti67  1  0.59457925  0.42280749  0.39916400  1
  Ti  Ti68  1  0.65979985  0.44098285  0.80217717  1
  Ti  Ti69  1  0.60797058  0.79216668  0.05823375  1
  Ti  Ti70  1  0.62113229  0.76751459  0.37534430  1
  Ti  Ti71  1  0.69221327  0.77092083  0.76426515  1
  Ti  Ti72  1  0.92288573  0.06763838  0.09582043  1
  Ti  Ti73  1  0.89116047  0.07502000  0.36504083  1
  Ti  Ti74  1  0.84182821  0.06058370  0.78734464  1
  Ti  Ti75  1  0.93461291  0.36690525  0.05927771  1
  Ti  Ti76  1  0.94537546  0.36489188  0.39726453  1
  Ti  Ti77  1  0.95978737  0.48936268  0.75460359  1
  Ti  Ti78  1  0.94986101  0.73174210  0.06487003  1
  Ti  Ti79  1  0.92368826  0.67298325  0.42384827  1
  Ti  Ti80  1  0.91961393  0.78746265  0.74324052  1
  Ti  Ti81  1  0.28284377  0.26799435  0.16412713  1
  Ti  Ti82  1  0.25368249  0.24309959  0.63276853  1
  Ti  Ti83  1  0.22736752  0.27410479  0.84607408  1
  Ti  Ti84  1  0.18094232  0.63700247  0.29430510  1
  Ti  Ti85  1  0.20805233  0.67274277  0.60401459  1
  Ti  Ti86  1  0.21717052  0.66488517  0.92662197  1
  Ti  Ti87  1  0.32620656  0.90206219  0.27657289  1
  Ti  Ti88  1  0.24167577  0.87796147  0.58462933  1
  Ti  Ti89  1  0.28927119  0.84849337  0.97070933  1
  Ti  Ti90  1  0.56064554  0.26696942  0.27454391  1
  Ti  Ti91  1  0.65064202  0.18487140  0.60160988  1
  Ti  Ti92  1  0.54895179  0.28331613  0.87055624  1
  Ti  Ti93  1  0.55773517  0.58372675  0.14870091  1
  Ti  Ti94  1  0.55279467  0.57704973  0.52493942  1
  Ti  Ti95  1  0.52372237  0.56880893  0.89877591  1
  Ti  Ti96  1  0.56009643  0.92224359  0.21815886  1
  Ti  Ti97  1  0.58139682  0.88032499  0.51457831  1
  Ti  Ti98  1  0.56009390  0.91696342  0.85830313  1
  Ti  Ti99  1  0.95826672  0.23202736  0.22052578  1
  Ti  Ti100  1  0.92183358  0.23674477  0.54150276  1
  Ti  Ti101  1  0.91401160  0.23414471  0.88344083  1
  Ti  Ti102  1  0.85898608  0.53752087  0.27555499  1
  Ti  Ti103  1  0.99594076  0.64159946  0.61184030  1
  Ti  Ti104  1  0.90405451  0.54529768  0.94934545  1
  Ti  Ti105  1  0.89056395  0.85810052  0.25688844  1
  Ti  Ti106  1  0.96686024  0.94125976  0.61188534  1
  Ti  Ti107  1  0.88433740  0.88485752  0.94629015  1
  Co  Co108  1  0.41985372  0.34003840  0.34651406  1
  Co  Co109  1  0.09850130  0.32579739  0.33350668  1
  Co  Co110  1  0.81208555  0.00017457  0.22577913  1
  Co  Co111  1  0.51949657  0.18058907  -0.00809814  1
  Co  Co112  1  0.54739157  0.28204673  0.11216638  1
  Co  Co113  1  0.32085301  0.19381250  0.48556521  1
  Co  Co114  1  0.60862604  0.59015464  0.32611048  1
  Co  Co115  1  0.50536976  0.73233804  0.48771049  1
  Co  Co116  1  0.68599596  0.61405697  0.83546298  1
  Co  Co117  1  0.70164136  0.46731338  0.53131469  1
  Co  Co118  1  0.40526051  0.15101348  0.10588757  1
  Co  Co119  1  0.10332754  0.77358043  0.69592131  1
  Co  Co120  1  -0.06014004  0.35452639  0.65655648  1
  Co  Co121  1  0.58984529  0.29503715  0.71183348  1
  Co  Co122  1  0.24627895  0.22727087  0.34082000  1
  Co  Co123  1  0.24713885  0.90073740  0.12240257  1
  Co  Co124  1  0.33442271  0.35933159  0.74455142  1
  Co  Co125  1  0.49649210  0.42179152  0.78202567  1
  Co  Co126  1  -0.04300064  0.39779282  0.89557014  1
  Co  Co127  1  0.55533551  0.09799831  0.29436487  1
  Co  Co128  1  0.06275988  0.64710307  -0.02862598  1
  Co  Co129  1  0.55117995  0.59257424  0.73823893  1
  Co  Co130  1  0.86555479  0.21951574  0.71558793  1
  Co  Co131  1  0.21762399  0.63768601  0.75824099  1
  Co  Co132  1  0.83137184  0.37246931  0.79075920  1
  Co  Co133  1  0.78988254  0.44140872  0.09316415  1
  Co  Co134  1  -0.06767491  0.71155262  0.89077135  1
  Co  Co135  1  0.67762431  0.21934132  -0.01612070  1
  Co  Co136  1  -0.06770970  0.54234654  0.11578945  1
  Co  Co137  1  -0.09037829  0.90897028  0.10408759  1
  Co  Co138  1  0.01480393  0.59718712  0.27840410  1
  Co  Co139  1  0.45018631  0.81091204  0.33569410  1
  Co  Co140  1  0.80939466  -0.09511028  0.80771160  1
  Co  Co141  1  0.35461363  0.70554997  0.70632796  1
  Co  Co142  1  0.42491378  0.06761613  0.42392437  1
  Co  Co143  1  -0.01520836  0.07799070  0.51387143  1
  Co  Co144  1  0.58203868  -0.02877200  0.01331391  1
  Co  Co145  1  0.83843736  0.49207047  0.65251429  1
  Co  Co146  1  0.70837512  0.87071860  0.93696607  1
  Co  Co147  1  0.18940427  0.81702263  0.26079465  1
  Co  Co148  1  0.09061502  0.19752188  0.58853732  1
  Co  Co149  1  0.11337077  0.53081104  0.67184114  1
  Co  Co150  1  0.46754009  0.84185237  -0.02244004  1
  Co  Co151  1  0.15387273  0.48323878  0.26805646  1
  Co  Co152  1  0.35137386  0.60131130  0.84937213  1
  Co  Co153  1  0.89479451  0.69302707  0.22082974  1
  Co  Co154  1  0.06508929  0.72998963  0.18441595  1
  Co  Co155  1  0.77921340  0.43594807  0.37830447  1
  Co  Co156  1  0.08706486  0.39371486  0.78259886  1
  Co  Co157  1  0.37501264  0.92481023  0.85401181  1
  Co  Co158  1  0.84960255  0.40008362  0.52109330  1
  Co  Co159  1  0.27316304  0.01012642  -0.00652585  1
  Co  Co160  1  0.76246790  0.12397441  0.45657965  1
  Co  Co161  1  0.53064108  -0.04900257  0.37060709  1
  Ni  Ni162  1  0.12003239  0.80344787  0.03266979  1
  Ni  Ni163  1  0.44235420  0.48118368  0.03738175  1
  Ni  Ni164  1  0.75843380  0.84574395  0.48240100  1
  Ni  Ni165  1  0.46200537  0.03647399  0.75110706  1
  Ni  Ni166  1  0.48777698  0.48643406  0.29066361  1
  Ni  Ni167  1  0.19807976  -0.08959155  0.41855452  1
  Ni  Ni168  1  0.28632333  -0.01495282  0.72636889  1
  Ni  Ni169  1  0.16487734  -0.00959380  0.26209259  1
  Ni  Ni170  1  -0.07402493  0.85373136  0.42759780  1
  Ni  Ni171  1  0.84985965  0.36560592  0.23327900  1
  Ni  Ni172  1  0.18288290  0.29029940  0.47981736  1
  Ni  Ni173  1  0.42137244  0.02659326  0.24071752  1
  Ni  Ni174  1  0.57737699  0.45604058  0.64470028  1
  Ni  Ni175  1  0.68728102  0.00760981  0.55856628  1
  Ni  Ni176  1  0.51446883  0.01476106  0.58779791  1
  Ni  Ni177  1  0.70550860  0.84570875  0.23172684  1
  Ni  Ni178  1  0.58897609  0.74315214  0.89109486  1
  Ni  Ni179  1  0.27806271  0.52588047  -0.01354338  1
  Ni  Ni180  1  0.32293238  0.53631493  0.28378068  1
  Ni  Ni181  1  0.10949835  0.06512295  0.10029833  1
  Ni  Ni182  1  0.48911808  0.16936767  0.64190183  1
  Ni  Ni183  1  0.07833905  0.28959784  -0.08631397  1
  Ni  Ni184  1  0.32771568  0.71502531  0.26557910  1
  Ni  Ni185  1  0.12149878  0.94003851  0.68769469  1
  Ni  Ni186  1  0.83192486  0.62920494  0.56944351  1
  Ni  Ni187  1  0.04169242  -0.04698274  -0.01184025  1
  Ni  Ni188  1  0.36335174  0.75994603  0.55837059  1
  Ni  Ni189  1  0.59450998  0.09470273  0.87921137  1
  Ni  Ni190  1  0.74864149  0.11192747  0.11300529  1
  Ni  Ni191  1  0.71169288  0.31169521  0.29911954  1
  Ni  Ni192  1  0.22410052  0.34545373  0.00529933  1
  Ni  Ni193  1  0.84630384  -0.02038610  0.49654865  1
  Ni  Ni194  1  0.85279541  0.23418887  0.35086295  1
  Ni  Ni195  1  0.17726694  -0.04212771  0.85720186  1
  Ni  Ni196  1  -0.01158617  0.09467528  0.68249442  1
  Ni  Ni197  1  0.11277875  0.66589235  0.45898540  1
  Ni  Ni198  1  0.25072391  0.17630002  0.01197355  1
  Ni  Ni199  1  0.55695617  0.73926856  0.22168849  1
  Ni  Ni200  1  -0.01715036  0.48410967  0.55898577  1
  Ni  Ni201  1  0.13685922  0.34256678  0.17266781  1
  Ni  Ni202  1  0.00117061  0.04759462  0.24138996  1
  Ni  Ni203  1  0.27689415  0.10204681  0.85649641  1
  Ni  Ni204  1  0.59251260  0.33247355  0.54173271  1
  Ni  Ni205  1  0.79042420  0.78101522  0.09815811  1
  Ni  Ni206  1  0.59604504  0.89203157  0.68221679  1
  Ni  Ni207  1  0.89013146  0.78490784  0.57257523  1
  Ni  Ni208  1  0.71933330  0.51182855  -0.04369324  1
  Ni  Ni209  1  -0.06775655  0.07368627  0.93139343  1
  Ni  Ni210  1  0.79954146  0.75711982  0.35483109  1
  Ni  Ni211  1  0.37582182  0.68943908  -0.00272081  1
  Ni  Ni212  1  0.85245230  0.20784909  0.03174972  1
  Ni  Ni213  1  0.63038610  0.63436221  0.00857888  1
  Ni  Ni214  1  0.85001252  0.63544521  0.75928097  1
