# generated using pymatgen
data_Ti108Co54Ni53
_symmetry_space_group_name_H-M   'P 1'
_cell_length_a   14.69839440
_cell_length_b   14.69032519
_cell_length_c   14.68954589
_cell_angle_alpha   90.36599908
_cell_angle_beta   90.02571034
_cell_angle_gamma   90.15222303
_symmetry_Int_Tables_number   1
_chemical_formula_structural   Ti108Co54Ni53
_chemical_formula_sum   'Ti108 Co54 Ni53'
_cell_volume   3171.75209744
_cell_formula_units_Z   1
loop_
 _symmetry_equiv_pos_site_id
 _symmetry_equiv_pos_as_xyz
  1  'x, y, z'
loop_
 _atom_site_type_symbol
 _atom_site_label
 _atom_site_symmetry_multiplicity
 _atom_site_fract_x
 _atom_site_fract_y
 _atom_site_fract_z
 _atom_site_occupancy
  Ti  Ti0  1  0.07809675  0.17559106  0.29278729  1
  Ti  Ti1  1  0.13899177  0.05796919  0.58236694  1
  Ti  Ti2  1  0.01573210  0.01991136  0.87410597  1
  Ti  Ti3  1  0.14445597  0.37226121  0.28889195  1
  Ti  Ti4  1  0.07453973  0.39369579  0.61358062  1
  Ti  Ti5  1  0.10999230  0.37592704  0.95936028  1
  Ti  Ti6  1  0.04264568  0.73225036  0.28428048  1
  Ti  Ti7  1  0.08044400  0.73774914  0.61527233  1
  Ti  Ti8  1  0.04582418  0.81127048  0.89156785  1
  Ti  Ti9  1  0.41272588  0.04497030  0.26396828  1
  Ti  Ti10  1  0.45358228  0.09271598  0.62163711  1
  Ti  Ti11  1  0.46267165  0.15485027  0.92423758  1
  Ti  Ti12  1  0.35610887  0.39994408  0.22440848  1
  Ti  Ti13  1  0.40797540  0.29458597  0.62556251  1
  Ti  Ti14  1  0.38765483  0.47726961  0.93485954  1
  Ti  Ti15  1  0.34329083  0.72173913  0.23727273  1
  Ti  Ti16  1  0.39885295  0.74102781  0.53471735  1
  Ti  Ti17  1  0.47544076  0.65382159  1.00353023  1
  Ti  Ti18  1  0.88769696  0.11030661  0.24414304  1
  Ti  Ti19  1  0.79507725  0.12613527  0.55817175  1
  Ti  Ti20  1  0.82125935  0.16105490  0.89900306  1
  Ti  Ti21  1  0.70723341  0.47158946  0.21504025  1
  Ti  Ti22  1  0.76682701  0.45513510  0.60932857  1
  Ti  Ti23  1  0.71468416  0.41854397  0.81896014  1
  Ti  Ti24  1  0.72042492  0.80857970  0.20950247  1
  Ti  Ti25  1  0.71597992  0.75818441  0.56744945  1
  Ti  Ti26  1  0.74571982  0.72330887  0.87198838  1
  Ti  Ti27  1  0.11497247  0.21894615  0.09401567  1
  Ti  Ti28  1  0.04520562  0.25369865  0.47220406  1
  Ti  Ti29  1  0.13747220  0.30653253  0.77948771  1
  Ti  Ti30  1  0.13781806  0.62047691  0.08006437  1
  Ti  Ti31  1  0.12007581  0.60739528  0.43818061  1
  Ti  Ti32  1  0.08989637  0.51386934  0.78490714  1
  Ti  Ti33  1  0.08487470  0.92590018  0.04062149  1
  Ti  Ti34  1  0.06967466  0.93499372  0.43799313  1
  Ti  Ti35  1  0.13952310  0.92036141  0.74819592  1
  Ti  Ti36  1  0.38019552  0.22072965  0.11428419  1
  Ti  Ti37  1  0.39169780  0.21000200  0.44141147  1
  Ti  Ti38  1  0.39344397  0.31063963  0.82708414  1
  Ti  Ti39  1  0.31410383  0.56083887  0.10814962  1
  Ti  Ti40  1  0.42094970  0.56159684  0.30972482  1
  Ti  Ti41  1  0.40253005  0.63123378  0.69659984  1
  Ti  Ti42  1  0.42907017  0.93183028  0.09668738  1
  Ti  Ti43  1  0.42744580  0.88945395  0.41393951  1
  Ti  Ti44  1  0.37785847  0.91324066  0.76877096  1
  Ti  Ti45  1  0.72981983  0.17595068  0.07558013  1
  Ti  Ti46  1  0.74258785  0.14947227  0.38125566  1
  Ti  Ti47  1  0.67058909  0.17918178  0.75511952  1
  Ti  Ti48  1  0.74702745  0.64510354  0.05476958  1
  Ti  Ti49  1  0.70802578  0.57060925  0.46956733  1
  Ti  Ti50  1  0.69886203  0.58549619  0.72793740  1
  Ti  Ti51  1  0.78511926  0.97548248  0.11925744  1
  Ti  Ti52  1  0.74466755  0.86071922  0.40334443  1
  Ti  Ti53  1  0.74042087  0.88007760  0.71408897  1
  Ti  Ti54  1  0.26083248  0.06904986  0.10423737  1
  Ti  Ti55  1  0.31310002  0.04336172  0.46427262  1
  Ti  Ti56  1  0.28279960  0.16872743  0.73537378  1
  Ti  Ti57  1  0.28472134  0.36312648  0.03631593  1
  Ti  Ti58  1  0.38253739  0.42079848  0.43027687  1
  Ti  Ti59  1  0.27087583  0.45368015  0.68859803  1
  Ti  Ti60  1  0.33944343  0.77044308  0.06073505  1
  Ti  Ti61  1  0.24323678  0.77561267  0.38929349  1
  Ti  Ti62  1  0.23843594  0.76618067  0.82717867  1
  Ti  Ti63  1  0.59375527  0.03819726  0.04958059  1
  Ti  Ti64  1  0.55148952  0.15173372  0.36539484  1
  Ti  Ti65  1  0.55405785  0.02784072  0.79009653  1
  Ti  Ti66  1  0.60994189  0.40730286  0.04819497  1
  Ti  Ti67  1  0.57630486  0.45722505  0.38554418  1
  Ti  Ti68  1  0.56235453  0.38125647  0.70236777  1
  Ti  Ti69  1  0.53229356  0.77113170  0.15046004  1
  Ti  Ti70  1  0.57163470  0.71369034  0.45523664  1
  Ti  Ti71  1  0.54210944  0.73429406  0.81988912  1
  Ti  Ti72  1  0.94816445  0.10030322  0.04352738  1
  Ti  Ti73  1  0.95634556  0.08778222  0.42915052  1
  Ti  Ti74  1  0.86409682  0.03397481  0.73992165  1
  Ti  Ti75  1  0.92258167  0.34747006  -0.06208680  1
  Ti  Ti76  1  0.90297800  0.40952260  0.45258015  1
  Ti  Ti77  1  0.88875472  0.53069741  0.78735651  1
  Ti  Ti78  1  0.89796486  0.79584461  0.13246341  1
  Ti  Ti79  1  0.96485927  0.78390662  0.46369550  1
  Ti  Ti80  1  0.93496100  0.71643146  0.76159393  1
  Ti  Ti81  1  0.26144901  0.14275512  0.28096702  1
  Ti  Ti82  1  0.22279523  0.32760132  0.50085065  1
  Ti  Ti83  1  0.22708372  0.20876902  0.92383559  1
  Ti  Ti84  1  0.20779837  0.57294057  0.27008230  1
  Ti  Ti85  1  0.31210680  0.55640831  0.53807708  1
  Ti  Ti86  1  0.25311940  0.56843759  0.83586558  1
  Ti  Ti87  1  0.23536990  0.89736698  0.17576353  1
  Ti  Ti88  1  0.25926781  0.85473907  0.61201843  1
  Ti  Ti89  1  0.28902070  0.92485910  0.95018913  1
  Ti  Ti90  1  0.62108725  0.28679112  0.23356269  1
  Ti  Ti91  1  0.61396089  0.21683181  0.56362619  1
  Ti  Ti92  1  0.60869863  0.27147147  0.90260214  1
  Ti  Ti93  1  0.60849494  0.62854611  0.25651068  1
  Ti  Ti94  1  0.56507434  0.54712572  0.58500450  1
  Ti  Ti95  1  0.61019052  0.56523181  0.91352263  1
  Ti  Ti96  1  0.59395575  0.96834544  0.24228747  1
  Ti  Ti97  1  0.56636954  0.90562828  0.58491843  1
  Ti  Ti98  1  0.64133090  0.89892273  0.91899729  1
  Ti  Ti99  1  0.82452009  0.29540379  0.26020519  1
  Ti  Ti100  1  0.89671321  0.29257410  0.61520761  1
  Ti  Ti101  1  0.97727403  0.20171829  0.77698763  1
  Ti  Ti102  1  0.82633763  0.57320898  0.33481227  1
  Ti  Ti103  1  0.87717938  0.61911367  0.58684839  1
  Ti  Ti104  1  0.93222207  0.65640958  0.95073891  1
  Ti  Ti105  1  0.91275336  0.90741979  0.30723938  1
  Ti  Ti106  1  0.91327910  0.95251063  0.57278206  1
  Ti  Ti107  1  0.85271745  0.88502717  0.87384280  1
  Co  Co108  1  0.40778604  0.92276033  0.57620472  1
  Co  Co109  1  0.08080502  0.41823639  0.44048194  1
  Co  Co110  1  0.82372340  0.70484065  0.46287996  1
  Co  Co111  1  0.29634382  -0.05791455  0.31884994  1
  Co  Co112  1  0.74071346  0.33415401  0.11628472  1
  Co  Co113  1  0.49922225  0.20788705  0.74371549  1
  Co  Co114  1  0.02391822  0.02614174  0.70143497  1
  Co  Co115  1  0.46063425  0.58338345  0.46746354  1
  Co  Co116  1  0.22338211  -0.08285315  0.47109136  1
  Co  Co117  1  0.64694308  0.11097684  0.91856476  1
  Co  Co118  1  0.11066339  0.64695445  0.92619750  1
  Co  Co119  1  -0.07583557  -0.07509314  0.00283190  1
  Co  Co120  1  0.78010342  0.65529644  0.20438295  1
  Co  Co121  1  0.72638181  0.00818285  0.81983701  1
  Co  Co122  1  0.77932697  0.02091479  -0.02771948  1
  Co  Co123  1  0.88903052  0.79646024  0.60815432  1
  Co  Co124  1  0.24930549  0.39387687  0.85794583  1
  Co  Co125  1  0.23150357  0.47123129  0.39936014  1
  Co  Co126  1  0.56816245  0.21828104  0.05328860  1
  Co  Co127  1  0.87032817  0.75164187  0.31039788  1
  Co  Co128  1  0.05832196  0.86122703  0.18472236  1
  Co  Co129  1  0.82128278  0.00612211  0.42937103  1
  Co  Co130  1  0.54525515  0.55448072  0.75861933  1
  Co  Co131  1  0.58085495  0.87443686  0.74330887  1
  Co  Co132  1  0.30361308  0.62720204  0.39825172  1
  Co  Co133  1  -0.00451877  0.52932090  0.51791133  1
  Co  Co134  1  0.28922690  0.17275662  0.57129025  1
  Co  Co135  1  0.48850041  0.83252028  -0.01626949  1
  Co  Co136  1  0.02206057  0.59184306  0.66502227  1
  Co  Co137  1  0.82660596  0.17942241  0.71034736  1
  Co  Co138  1  0.39518298  0.07387990  0.79637741  1
  Co  Co139  1  0.60693827  0.57317778  0.09070974  1
  Co  Co140  1  0.54399864  0.46868736  0.22105449  1
  Co  Co141  1  0.46139496  -0.01680071  0.92576023  1
  Co  Co142  1  0.88502990  0.22847232  0.41211444  1
  Co  Co143  1  0.42316019  0.23337311  0.27575724  1
  Co  Co144  1  0.49235965  0.32907497  0.15506880  1
  Co  Co145  1  0.14372494  0.87039882  0.31450839  1
  Co  Co146  1  0.62723361  0.88396232  0.08735629  1
  Co  Co147  1  0.43648838  0.73150562  0.36849044  1
  Co  Co148  1  0.06876035  0.89624274  0.59578574  1
  Co  Co149  1  0.64176471  0.06543597  0.50417865  1
  Co  Co150  1  0.23567795  0.27854137  0.18234296  1
  Co  Co151  1  0.43791466  0.79557813  0.68816340  1
  Co  Co152  1  0.38507145  0.76920229  0.87951701  1
  Co  Co153  1  0.87423815  0.24618847  0.05805553  1
  Co  Co154  1  0.64288156  0.39780607  0.53573273  1
  Co  Co155  1  0.20209414  0.50568316  -0.02209205  1
  Co  Co156  1  0.32098976  0.08452655  -0.04547779  1
  Co  Co157  1  0.40562081  0.46478873  0.76780027  1
  Co  Co158  1  0.43749584  0.08191953  0.07151490  1
  Co  Co159  1  0.24586839  0.30850680  0.65889747  1
  Co  Co160  1  0.43429113  0.45888941  0.59726976  1
  Co  Co161  1  0.77176947  0.29503402  0.50601115  1
  Ni  Ni162  1  0.18388507  0.78700741  0.00099123  1
  Ni  Ni163  1  0.15141352  0.53035032  0.57680504  1
  Ni  Ni164  1  0.29705026  0.02011985  0.65308202  1
  Ni  Ni165  1  -0.04043651  0.63094799  0.40028945  1
  Ni  Ni166  1  0.42244940  0.61087370  0.85469562  1
  Ni  Ni167  1  0.03525309  0.20290109  -0.06372223  1
  Ni  Ni168  1  0.00489192  0.50601450  0.92798143  1
  Ni  Ni169  1  0.72303106  0.30800133  0.66633645  1
  Ni  Ni170  1  0.53965253  0.42001877  0.86694968  1
  Ni  Ni171  1  0.62400806  0.73994127  -0.00939301  1
  Ni  Ni172  1  0.22499528  0.63376471  0.68532258  1
  Ni  Ni173  1  0.28714517  0.65192715  -0.03309077  1
  Ni  Ni174  1  0.78356004  0.71805299  0.71063395  1
  Ni  Ni175  1  0.11661613  0.21643899  0.62736044  1
  Ni  Ni176  1  0.70989020  0.70543507  0.35289912  1
  Ni  Ni177  1  0.03280705  0.75195937  0.05160723  1
  Ni  Ni178  1  0.57440670  0.70987568  0.65135547  1
  Ni  Ni179  1  0.74080032  0.93566761  0.55403993  1
  Ni  Ni180  1  0.23893742  0.02513654  0.82487153  1
  Ni  Ni181  1  0.09960133  0.69176273  0.77459963  1
  Ni  Ni182  1  0.77409173  0.82313549  0.01682964  1
  Ni  Ni183  1  0.75594009  -0.01938428  0.28496267  1
  Ni  Ni184  1  0.83760180  0.31706218  0.79406339  1
  Ni  Ni185  1  0.75869405  0.31952322  -0.04698894  1
  Ni  Ni186  1  -0.01095550  0.38297952  0.78694121  1
  Ni  Ni187  1  0.63923716  0.29183568  0.40449671  1
  Ni  Ni188  1  0.50260680  0.32945676  0.49297099  1
  Ni  Ni189  1  0.48412293  0.03951173  0.46507255  1
  Ni  Ni190  1  -0.01454462  0.32529440  0.32698934  1
  Ni  Ni191  1  0.18109775  0.74154601  0.19156243  1
  Ni  Ni192  1  0.45604663  0.32759090  -0.01104247  1
  Ni  Ni193  1  0.28513171  0.30110270  0.34313074  1
  Ni  Ni194  1  0.22728187  0.70168071  0.53904784  1
  Ni  Ni195  1  0.46342712  0.61623192  0.16280665  1
  Ni  Ni196  1  0.14282017  0.07387898  -0.02478767  1
  Ni  Ni197  1  0.67729562  0.04003824  0.66351405  1
  Ni  Ni198  1  0.45426142  0.47216071  0.08354136  1
  Ni  Ni199  1  -0.02686368  0.24295377  0.18206265  1
  Ni  Ni200  1  -0.03563132  0.13740406  0.59859782  1
  Ni  Ni201  1  0.19475126  0.17321694  0.43229534  1
  Ni  Ni202  1  0.18580418  0.45204707  0.14207284  1
  Ni  Ni203  1  0.69783571  0.11741149  0.22368197  1
  Ni  Ni204  1  0.58139021  0.81231749  0.31685159  1
  Ni  Ni205  1  -0.03186720  0.87707692  0.73906373  1
  Ni  Ni206  1  0.09995450  0.06003821  0.14808880  1
  Ni  Ni207  1  0.53839626  0.13573423  0.19321818  1
  Ni  Ni208  1  0.12482123  0.12882328  0.78501930  1
  Ni  Ni209  1  0.04310276  0.01001257  0.28909984  1
  Ni  Ni210  1  0.92689861  0.45547877  0.64688721  1
  Ni  Ni211  1  0.74458553  0.41855599  0.38389826  1
  Ni  Ni212  1  0.95001941  -0.02554083  0.15663632  1
  Ni  Ni213  1  0.43164132  0.86475655  0.24987736  1
  Ni  Ni214  1  0.77879412  0.56114053  -0.09769484  1
