# generated using pymatgen
data_Ti108Co54Ni53
_symmetry_space_group_name_H-M   'P 1'
_cell_length_a   14.61436269
_cell_length_b   14.61530570
_cell_length_c   14.62337468
_cell_angle_alpha   89.94296887
_cell_angle_beta   89.81748192
_cell_angle_gamma   89.97377342
_symmetry_Int_Tables_number   1
_chemical_formula_structural   Ti108Co54Ni53
_chemical_formula_sum   'Ti108 Co54 Ni53'
_cell_volume   3123.43828323
_cell_formula_units_Z   1
loop_
 _symmetry_equiv_pos_site_id
 _symmetry_equiv_pos_as_xyz
  1  'x, y, z'
loop_
 _atom_site_type_symbol
 _atom_site_label
 _atom_site_symmetry_multiplicity
 _atom_site_fract_x
 _atom_site_fract_y
 _atom_site_fract_z
 _atom_site_occupancy
  Ti  Ti0  1  0.09194063  0.11544500  0.23991556  1
  Ti  Ti1  1  0.17441252  0.13391041  0.56216669  1
  Ti  Ti2  1  0.10473632  0.10287265  0.98915553  1
  Ti  Ti3  1  0.05710229  0.43596509  0.27222368  1
  Ti  Ti4  1  0.11531440  0.38809063  0.62099418  1
  Ti  Ti5  1  0.11844207  0.50711689  0.93070128  1
  Ti  Ti6  1  0.07328516  0.73813243  0.17194305  1
  Ti  Ti7  1  0.06583941  0.68507823  0.53499701  1
  Ti  Ti8  1  0.16633982  0.71120798  0.99226863  1
  Ti  Ti9  1  0.44143467  0.06805168  0.26760619  1
  Ti  Ti10  1  0.44942823  0.09063131  0.65627223  1
  Ti  Ti11  1  0.37434095  0.14282326  0.97346882  1
  Ti  Ti12  1  0.41785308  0.41684917  0.24197472  1
  Ti  Ti13  1  0.39380766  0.43798298  0.54021261  1
  Ti  Ti14  1  0.45513377  0.43231561  0.90292019  1
  Ti  Ti15  1  0.40175085  0.61117235  0.27935944  1
  Ti  Ti16  1  0.44505524  0.65023036  0.56257045  1
  Ti  Ti17  1  0.43222185  0.73885201  0.86088281  1
  Ti  Ti18  1  0.77085977  0.01473426  0.28021848  1
  Ti  Ti19  1  0.76543931  0.11995906  0.61824535  1
  Ti  Ti20  1  0.77932992  0.09904550  0.98040287  1
  Ti  Ti21  1  0.72568505  0.35149235  0.26211191  1
  Ti  Ti22  1  0.79546615  0.46434494  0.58881135  1
  Ti  Ti23  1  0.77724996  0.38257666  0.86383362  1
  Ti  Ti24  1  0.78810744  0.73146523  0.29135204  1
  Ti  Ti25  1  0.75655750  0.71707337  0.50998999  1
  Ti  Ti26  1  0.71834787  0.78721960  0.87440586  1
  Ti  Ti27  1  0.09619020  0.31204176  -0.02026727  1
  Ti  Ti28  1  0.02825072  0.14306349  0.40857039  1
  Ti  Ti29  1  0.10991266  0.22466903  0.71886608  1
  Ti  Ti30  1  -0.01301825  0.61924432  0.01062068  1
  Ti  Ti31  1  0.04847780  0.51848320  0.45727545  1
  Ti  Ti32  1  0.13986954  0.54864382  0.72144914  1
  Ti  Ti33  1  0.11785393  0.90474264  0.02158698  1
  Ti  Ti34  1  0.09940901  0.93937587  0.35476628  1
  Ti  Ti35  1  0.07141578  0.88697428  0.69019785  1
  Ti  Ti36  1  0.41859032  0.29142175  0.08610560  1
  Ti  Ti37  1  0.45848116  0.20573258  0.44485148  1
  Ti  Ti38  1  0.39280179  0.27843503  0.78641094  1
  Ti  Ti39  1  0.43004810  0.63063975  0.06245067  1
  Ti  Ti40  1  0.52949118  0.54052085  0.40778552  1
  Ti  Ti41  1  0.50422563  0.56420195  0.76326574  1
  Ti  Ti42  1  0.38303144  0.97369668  0.09622414  1
  Ti  Ti43  1  0.37998471  0.85665854  0.43457230  1
  Ti  Ti44  1  0.41590782  0.86567549  0.70685037  1
  Ti  Ti45  1  0.68747410  0.23454813  0.11560764  1
  Ti  Ti46  1  0.67672510  0.20880250  0.45890780  1
  Ti  Ti47  1  0.71819289  0.21240266  0.79961905  1
  Ti  Ti48  1  0.81655219  0.60213342  0.12255357  1
  Ti  Ti49  1  0.73872642  0.54601157  0.31997716  1
  Ti  Ti50  1  0.70078941  0.59565340  0.81971428  1
  Ti  Ti51  1  0.70160395  0.92764108  0.09214790  1
  Ti  Ti52  1  0.71242741  0.99745027  0.46229058  1
  Ti  Ti53  1  0.69763582  0.94377286  0.77363676  1
  Ti  Ti54  1  0.21867438  0.05392259  0.12937007  1
  Ti  Ti55  1  0.23227982  0.11696863  0.38034328  1
  Ti  Ti56  1  0.19669467  0.05585322  0.78995600  1
  Ti  Ti57  1  0.23061972  0.41776184  0.08949507  1
  Ti  Ti58  1  0.19584239  0.41352508  0.41401877  1
  Ti  Ti59  1  0.24036152  0.40369550  0.81205515  1
  Ti  Ti60  1  0.28689698  0.71796948  0.15021444  1
  Ti  Ti61  1  0.21251648  0.76866690  0.42821408  1
  Ti  Ti62  1  0.22739471  0.74002352  0.75954136  1
  Ti  Ti63  1  0.56160922  0.06701338  0.02468002  1
  Ti  Ti64  1  0.51330978  0.00145840  0.44887513  1
  Ti  Ti65  1  0.51208121  0.14011488  0.83662399  1
  Ti  Ti66  1  0.57346121  0.41620546  0.08965214  1
  Ti  Ti67  1  0.67457131  0.39450790  0.43862888  1
  Ti  Ti68  1  0.65078499  0.42600718  0.73319742  1
  Ti  Ti69  1  0.57333022  0.78114778  0.02765398  1
  Ti  Ti70  1  0.51087403  0.74302876  0.37754170  1
  Ti  Ti71  1  0.58503846  0.73113634  0.68985237  1
  Ti  Ti72  1  0.88202887  0.13961705  0.13390407  1
  Ti  Ti73  1  0.85174911  0.24853194  0.38205447  1
  Ti  Ti74  1  0.96702113  0.05711505  0.77209808  1
  Ti  Ti75  1  0.96982890  0.41854704  0.09397472  1
  Ti  Ti76  1  0.87329500  0.43944432  0.40363055  1
  Ti  Ti77  1  0.95960087  0.44817075  0.76598541  1
  Ti  Ti78  1  0.84152423  0.80175704  0.03386266  1
  Ti  Ti79  1  0.93610200  0.76681030  0.41862299  1
  Ti  Ti80  1  0.95459938  0.77524344  0.81895760  1
  Ti  Ti81  1  0.26569701  0.25817447  0.23028275  1
  Ti  Ti82  1  0.27776226  0.28153667  0.52115411  1
  Ti  Ti83  1  0.22803778  0.22082571  0.88045381  1
  Ti  Ti84  1  0.17859624  0.58969246  0.27190021  1
  Ti  Ti85  1  0.25888623  0.63889268  0.58785198  1
  Ti  Ti86  1  0.30456356  0.58937982  0.84418299  1
  Ti  Ti87  1  0.28358481  0.93313360  0.26731164  1
  Ti  Ti88  1  0.22972053  0.94789916  0.53437045  1
  Ti  Ti89  1  0.27189543  0.87758039  0.89487913  1
  Ti  Ti90  1  0.60380127  0.17894569  0.29343094  1
  Ti  Ti91  1  0.56992307  0.24304781  0.65601361  1
  Ti  Ti92  1  0.59772962  0.26827209  0.96089811  1
  Ti  Ti93  1  0.60139577  0.63934270  0.19781288  1
  Ti  Ti94  1  0.58212890  0.50467814  0.58297022  1
  Ti  Ti95  1  0.59598051  0.56671331  0.99084447  1
  Ti  Ti96  1  0.62447380  0.84715783  0.26507669  1
  Ti  Ti97  1  0.59220461  0.93894178  0.61874733  1
  Ti  Ti98  1  0.45821883  0.93203772  0.92348617  1
  Ti  Ti99  1  0.96475766  0.27686278  0.23994811  1
  Ti  Ti100  1  0.97439771  0.19522343  0.57045696  1
  Ti  Ti101  1  0.92177874  0.25500012  0.85044363  1
  Ti  Ti102  1  0.94303604  0.60817873  0.31629352  1
  Ti  Ti103  1  0.94594167  0.57382547  0.62458416  1
  Ti  Ti104  1  0.82680645  0.53234428  0.94598565  1
  Ti  Ti105  1  0.92479827  0.90280280  0.25421840  1
  Ti  Ti106  1  0.91991674  0.96542123  0.44786138  1
  Ti  Ti107  1  0.94343818  0.96250946  0.95669216  1
  Co  Co108  1  0.71108918  0.56044353  0.47837901  1
  Co  Co109  1  0.11687628  -0.07107834  0.19607413  1
  Co  Co110  1  0.07826329  0.70146697  0.35831351  1
  Co  Co111  1  0.08934066  0.04355178  0.66294941  1
  Co  Co112  1  0.08706633  0.35373046  0.81856533  1
  Co  Co113  1  0.34241764  0.12009323  0.52601083  1
  Co  Co114  1  0.11103141  0.27497372  0.50086486  1
  Co  Co115  1  0.80819236  0.33752408  0.71184079  1
  Co  Co116  1  0.46120306  0.90283322  0.28407656  1
  Co  Co117  1  0.84950060  -0.01921770  0.10165547  1
  Co  Co118  1  0.77990746  0.18431319  0.25414485  1
  Co  Co119  1  0.31608762  0.72326598  -0.03251318  1
  Co  Co120  1  0.11343385  0.82513266  0.85258199  1
  Co  Co121  1  0.48305403  0.75153519  0.19513726  1
  Co  Co122  1  0.55917770  0.31660167  0.20456649  1
  Co  Co123  1  0.42863829  0.24036383  0.27011392  1
  Co  Co124  1  0.87511940  0.18081177  0.71011371  1
  Co  Co125  1  0.24629076  0.42353382  0.26076265  1
  Co  Co126  1  0.05784038  0.17299891  0.86276773  1
  Co  Co127  1  0.33806777  0.79162831  0.58267372  1
  Co  Co128  1  0.30705349  0.54612869  0.16471080  1
  Co  Co129  1  0.41203038  0.25865002  0.61247845  1
  Co  Co130  1  0.24949927  0.86480632  0.09586606  1
  Co  Co131  1  0.35688276  0.01880623  0.40278750  1
  Co  Co132  1  0.68634572  0.60267057  0.65385487  1
  Co  Co133  1  0.29106848  0.36487637  0.66592093  1
  Co  Co134  1  0.63518949  0.09052049  0.71476575  1
  Co  Co135  1  0.12106660  0.32664308  0.17187208  1
  Co  Co136  1  0.53411918  0.34568997  0.52879788  1
  Co  Co137  1  0.40240346  -0.04507764  0.56741456  1
  Co  Co138  1  0.87889379  0.60277657  0.47129189  1
  Co  Co139  1  0.22717903  0.48361158  0.56032376  1
  Co  Co140  1  0.59946749  0.67468970  0.52058342  1
  Co  Co141  1  0.81614835  0.51703351  0.74184741  1
  Co  Co142  1  -0.06408975  0.04191958  0.59894905  1
  Co  Co143  1  0.38746191  0.68094790  0.71340407  1
  Co  Co144  1  0.77551075  0.25370199  -0.02633579  1
  Co  Co145  1  0.58073808  0.68521645  0.88044908  1
  Co  Co146  1  0.83385907  0.31322167  0.14335129  1
  Co  Co147  1  0.65689253  0.67977212  0.36696716  1
  Co  Co148  1  0.56377627  0.83343348  0.81356050  1
  Co  Co149  1  0.53312971  -0.07870159  0.11521207  1
  Co  Co150  1  0.33928529  0.51507259  0.40581284  1
  Co  Co151  1  0.22769605  0.22841398  0.06084653  1
  Co  Co152  1  0.61738905  -0.07938640  -0.05454157  1
  Co  Co153  1  0.14352186  0.58332316  0.09774387  1
  Co  Co154  1  0.35133495  0.76900795  0.29542773  1
  Co  Co155  1  0.08846943  -0.01985217  0.86701451  1
  Co  Co156  1  0.19181944  0.59672975  0.43576369  1
  Co  Co157  1  0.62613113  0.43807399  0.90464864  1
  Co  Co158  1  0.35133513  0.67486585  0.43479823  1
  Co  Co159  1  0.85420180  0.68966627  0.91793137  1
  Co  Co160  1  0.00410384  0.34117967  0.40241972  1
  Co  Co161  1  0.07501126  0.01726166  0.50347508  1
  Ni  Ni162  1  0.18833461  0.79568057  0.26714628  1
  Ni  Ni163  1  0.83293260  0.28876552  0.54482966  1
  Ni  Ni164  1  0.60193438  0.00482800  0.31093387  1
  Ni  Ni165  1  0.27829756  0.19926174  0.69707133  1
  Ni  Ni166  1  0.58351754  0.47150819  0.26965684  1
  Ni  Ni167  1  0.27743029  0.55973071  0.00295869  1
  Ni  Ni168  1  0.41161516  0.81429896  0.05497473  1
  Ni  Ni169  1  0.70487449  0.49306423  0.16128414  1
  Ni  Ni170  1  -0.04048876  0.59500398  0.83301494  1
  Ni  Ni171  1  0.35572846  0.34526205  0.38042627  1
  Ni  Ni172  1  0.36667768  0.03709703  0.81902074  1
  Ni  Ni173  1  0.05070520  0.19974198  0.10627074  1
  Ni  Ni174  1  0.78248016  0.93760280  -0.07092087  1
  Ni  Ni175  1  -0.02215195  0.86928708  0.10757543  1
  Ni  Ni176  1  0.10744871  0.65613799  0.85294793  1
  Ni  Ni177  1  0.79425057  0.86452400  0.38861838  1
  Ni  Ni178  1  0.93174533  0.26449740  0.01600889  1
  Ni  Ni179  1  0.50705856  0.81685983  0.54620323  1
  Ni  Ni180  1  0.65964328  0.07465638  0.16639574  1
  Ni  Ni181  1  0.00575214  0.77893136  -0.02393777  1
  Ni  Ni182  1  0.51932828  0.17006370  0.14012593  1
  Ni  Ni183  1  0.05162309  0.69421522  0.70320986  1
  Ni  Ni184  1  0.35675674  0.14484262  0.14461377  1
  Ni  Ni185  1  0.68749211  0.33099766  0.59349777  1
  Ni  Ni186  1  0.29367140  0.03998304  0.65960881  1
  Ni  Ni187  1  0.46772324  0.40636868  0.69675291  1
  Ni  Ni188  1  0.80527700  0.06739195  0.81162895  1
  Ni  Ni189  1  0.40798759  0.46175485  0.05975308  1
  Ni  Ni190  1  0.63925244  0.83962000  0.44702850  1
  Ni  Ni191  1  0.73254074  0.40256915  0.03053706  1
  Ni  Ni192  1  0.13351173  0.26129755  0.33332946  1
  Ni  Ni193  1  0.91147389  0.72746840  0.17168970  1
  Ni  Ni194  1  -0.07493827  0.08068643  0.29488344  1
  Ni  Ni195  1  0.17674049  0.79462097  0.60313847  1
  Ni  Ni196  1  0.71392840  0.67616294  0.00129479  1
  Ni  Ni197  1  0.71856555  0.75929606  0.14384402  1
  Ni  Ni198  1  0.86952610  0.45911187  0.22848463  1
  Ni  Ni199  1  -0.04249801  0.40267441  0.55368280  1
  Ni  Ni200  1  0.52710966  -0.01580900  0.77652881  1
  Ni  Ni201  1  0.84456263  0.11165764  0.46751793  1
  Ni  Ni202  1  0.25758546  0.02608370  -0.04166794  1
  Ni  Ni203  1  0.53357654  0.33879445  0.36464456  1
  Ni  Ni204  1  0.24765285  0.89912160  0.71973193  1
  Ni  Ni205  1  0.33864610  0.52080361  0.69234270  1
  Ni  Ni206  1  -0.00322999  0.56798545  0.17060684  1
  Ni  Ni207  1  0.01293054  0.02929478  0.11614978  1
  Ni  Ni208  1  -0.03074925  0.31045638  0.68922017  1
  Ni  Ni209  1  0.59546816  0.10227304  0.55319091  1
  Ni  Ni210  1  0.06115366  0.85250489  0.49536816  1
  Ni  Ni211  1  0.31827245  0.34048020  -0.04444942  1
  Ni  Ni212  1  0.55566638  0.31544731  0.81245812  1
  Ni  Ni213  1  0.65215266  0.06759792  0.88048149  1
  Ni  Ni214  1  -0.03549802  0.42396976  -0.07106375  1
