# generated using pymatgen
data_Ti108Co54Ni53
_symmetry_space_group_name_H-M   'P 1'
_cell_length_a   14.65905618
_cell_length_b   14.58298651
_cell_length_c   14.68339694
_cell_angle_alpha   90.28867050
_cell_angle_beta   89.80951205
_cell_angle_gamma   90.08189518
_symmetry_Int_Tables_number   1
_chemical_formula_structural   Ti108Co54Ni53
_chemical_formula_sum   'Ti108 Co54 Ni53'
_cell_volume   3138.85083122
_cell_formula_units_Z   1
loop_
 _symmetry_equiv_pos_site_id
 _symmetry_equiv_pos_as_xyz
  1  'x, y, z'
loop_
 _atom_site_type_symbol
 _atom_site_label
 _atom_site_symmetry_multiplicity
 _atom_site_fract_x
 _atom_site_fract_y
 _atom_site_fract_z
 _atom_site_occupancy
  Ti  Ti0  1  0.11488141  0.08801333  0.25815565  1
  Ti  Ti1  1  0.03164375  0.06238941  0.59323898  1
  Ti  Ti2  1  0.07156932  -0.04322649  0.85601599  1
  Ti  Ti3  1  0.15857830  0.49669775  0.24538866  1
  Ti  Ti4  1  0.13042288  0.41312419  0.61154722  1
  Ti  Ti5  1  0.12091757  0.45825770  0.90771117  1
  Ti  Ti6  1  0.14857736  0.71327622  0.26522246  1
  Ti  Ti7  1  0.04165142  0.71293401  0.52159182  1
  Ti  Ti8  1  0.04122568  0.75676097  0.86828470  1
  Ti  Ti9  1  0.45246970  0.15835033  0.25745999  1
  Ti  Ti10  1  0.40548895  0.19318640  0.54475430  1
  Ti  Ti11  1  0.54765872  0.11580854  0.86315860  1
  Ti  Ti12  1  0.49191250  0.44252194  0.31924579  1
  Ti  Ti13  1  0.47291878  0.37915509  0.62222148  1
  Ti  Ti14  1  0.45644970  0.44750934  0.96744605  1
  Ti  Ti15  1  0.34477734  0.73342251  0.21049390  1
  Ti  Ti16  1  0.37736124  0.75052361  0.61649665  1
  Ti  Ti17  1  0.39531049  0.79940241  0.95461553  1
  Ti  Ti18  1  0.79533319  0.07805148  0.24039073  1
  Ti  Ti19  1  0.66603288  0.04388587  0.54606952  1
  Ti  Ti20  1  0.76936795  0.10127960  0.87066402  1
  Ti  Ti21  1  0.73502794  0.46428776  0.30624363  1
  Ti  Ti22  1  0.81248306  0.38610546  0.59093033  1
  Ti  Ti23  1  0.77478619  0.37749417  0.91093594  1
  Ti  Ti24  1  0.77288800  0.76935298  0.16162760  1
  Ti  Ti25  1  0.69840352  0.69555876  0.57422790  1
  Ti  Ti26  1  0.71807705  0.79157597  0.84270611  1
  Ti  Ti27  1  -0.00117863  0.29634332  0.14012585  1
  Ti  Ti28  1  0.08379939  0.31038163  0.45001790  1
  Ti  Ti29  1  0.07382066  0.24917850  0.74775764  1
  Ti  Ti30  1  0.05115338  0.60735227  0.11820795  1
  Ti  Ti31  1  0.10218300  0.53125943  0.44278418  1
  Ti  Ti32  1  0.04108012  0.56953972  0.77900419  1
  Ti  Ti33  1  0.04708310  0.91750992  0.18330527  1
  Ti  Ti34  1  0.05597208  0.97129538  0.41435036  1
  Ti  Ti35  1  0.10816045  0.88849184  0.66229196  1
  Ti  Ti36  1  0.43735168  0.25935539  0.10011380  1
  Ti  Ti37  1  0.32510151  0.21188775  0.37908874  1
  Ti  Ti38  1  0.50612227  0.21973481  0.71230063  1
  Ti  Ti39  1  0.41478274  0.62713061  0.05371325  1
  Ti  Ti40  1  0.41300982  0.51501840  0.47130003  1
  Ti  Ti41  1  0.46082857  0.51519221  0.78491915  1
  Ti  Ti42  1  0.44120303  0.87318989  0.11730189  1
  Ti  Ti43  1  0.39593490  0.89057862  0.34797601  1
  Ti  Ti44  1  0.37671943  0.97263546  0.80608216  1
  Ti  Ti45  1  0.79874786  0.26572234  0.11938405  1
  Ti  Ti46  1  0.75042313  0.30790839  0.42831719  1
  Ti  Ti47  1  0.80804187  0.26387092  0.74433627  1
  Ti  Ti48  1  0.72600614  0.57071799  0.12939041  1
  Ti  Ti49  1  0.76887726  0.63646575  0.40935443  1
  Ti  Ti50  1  0.73307286  0.59672420  0.79239952  1
  Ti  Ti51  1  0.70958376  0.89763265  0.00611210  1
  Ti  Ti52  1  0.72886366  0.94595708  0.38827833  1
  Ti  Ti53  1  0.80205626  0.94851738  0.74288853  1
  Ti  Ti54  1  0.35136652  0.05914740  0.10934366  1
  Ti  Ti55  1  0.26578704  0.03058592  0.40990545  1
  Ti  Ti56  1  0.22569618  0.06079987  0.68765405  1
  Ti  Ti57  1  0.27468275  0.45808270  0.07113939  1
  Ti  Ti58  1  0.25873522  0.41119368  0.39719794  1
  Ti  Ti59  1  0.24567400  0.51498082  0.73315258  1
  Ti  Ti60  1  0.23211543  0.84045641  0.09868715  1
  Ti  Ti61  1  0.35262233  0.71311734  0.40576135  1
  Ti  Ti62  1  0.21261939  0.71736308  0.74518821  1
  Ti  Ti63  1  0.58816913  0.05168540  0.13276918  1
  Ti  Ti64  1  0.50679468  0.03814033  0.42770648  1
  Ti  Ti65  1  0.66644861  0.10920328  0.71068646  1
  Ti  Ti66  1  0.64325356  0.38707638  0.07919261  1
  Ti  Ti67  1  0.59444383  0.41600527  0.49156212  1
  Ti  Ti68  1  0.65822051  0.43387824  0.72757434  1
  Ti  Ti69  1  0.57531155  0.72461531  0.11590696  1
  Ti  Ti70  1  0.57554420  0.75267375  0.43169613  1
  Ti  Ti71  1  0.52854444  0.81810126  0.78449725  1
  Ti  Ti72  1  0.86894337  -0.03271721  0.08475022  1
  Ti  Ti73  1  0.85410318  0.09682205  0.44862232  1
  Ti  Ti74  1  0.84613610  0.09503843  0.64656046  1
  Ti  Ti75  1  0.88390787  0.46560517  0.07562657  1
  Ti  Ti76  1  0.92817165  0.42785193  0.36812906  1
  Ti  Ti77  1  0.86787802  0.46945323  0.76917245  1
  Ti  Ti78  1  0.97146366  0.78966982  0.05401492  1
  Ti  Ti79  1  0.91341742  0.75340631  0.38192892  1
  Ti  Ti80  1  0.88962484  0.68643338  0.70726334  1
  Ti  Ti81  1  0.18408624  0.26791490  0.27456802  1
  Ti  Ti82  1  0.27096556  0.25834672  0.67383612  1
  Ti  Ti83  1  0.38049636  0.25912926  0.86433306  1
  Ti  Ti84  1  0.35258664  0.52909081  0.23852286  1
  Ti  Ti85  1  0.26236483  0.59584441  0.55123101  1
  Ti  Ti86  1  0.30971269  0.59803874  0.89734373  1
  Ti  Ti87  1  0.19823931  0.89251565  0.29452217  1
  Ti  Ti88  1  0.24756213  0.86101422  0.48777302  1
  Ti  Ti89  1  0.22137726  0.81771263  0.90958623  1
  Ti  Ti90  1  0.64601715  0.21479581  0.25992486  1
  Ti  Ti91  1  0.59472083  0.21912990  0.51285084  1
  Ti  Ti92  1  0.56336866  0.27628015  0.95185195  1
  Ti  Ti93  1  0.62309587  0.63232455  0.28702364  1
  Ti  Ti94  1  0.56802649  0.57548175  0.62381508  1
  Ti  Ti95  1  0.58793659  0.61657088  0.90369057  1
  Ti  Ti96  1  0.58967251  0.87904923  0.27692390  1
  Ti  Ti97  1  0.48407610  0.92559447  0.61929201  1
  Ti  Ti98  1  0.53104893  0.94366880  0.94764744  1
  Ti  Ti99  1  0.97223515  0.21740828  0.30487846  1
  Ti  Ti100  1  0.95123928  0.24846718  0.59673417  1
  Ti  Ti101  1  0.91988277  0.16589327  0.97724219  1
  Ti  Ti102  1  0.88144916  0.58781344  0.24946282  1
  Ti  Ti103  1  0.95885880  0.54540157  0.59754744  1
  Ti  Ti104  1  0.85632493  0.60168735  0.93993344  1
  Ti  Ti105  1  0.88031658  0.89255467  0.26667240  1
  Ti  Ti106  1  0.92982853  0.87077444  0.58039731  1
  Ti  Ti107  1  0.88656086  0.89228418  0.90570191  1
  Co  Co108  1  0.17481849  -0.00287210  0.54522605  1
  Co  Co109  1  0.26363696  0.13193299  0.54350620  1
  Co  Co110  1  0.76653441  0.21061927  0.56249867  1
  Co  Co111  1  0.15609095  0.63816160  0.87717416  1
  Co  Co112  1  -0.06754258  0.15965368  0.77118790  1
  Co  Co113  1  0.63805899  0.70961486  0.72842256  1
  Co  Co114  1  0.18595251  -0.00257744  0.14140203  1
  Co  Co115  1  0.44936029  0.44316842  0.12811902  1
  Co  Co116  1  0.78567599  -0.05165022  0.56290798  1
  Co  Co117  1  0.82138335  0.77461611  0.00100461  1
  Co  Co118  1  0.06692265  0.37336435  0.29999469  1
  Co  Co119  1  0.62403243  0.35487581  0.33948803  1
  Co  Co120  1  0.00080219  0.46776636  0.19238009  1
  Co  Co121  1  0.34210910  0.32706187  0.00591554  1
  Co  Co122  1  0.90189043  0.27796657  0.44883318  1
  Co  Co123  1  0.62326873  0.20840594  0.09253143  1
  Co  Co124  1  0.46502704  0.61348829  0.35352332  1
  Co  Co125  1  0.44542147  0.84315583  0.48880483  1
  Co  Co126  1  0.32164159  0.92619338  0.20824695  1
  Co  Co127  1  0.53567193  0.32174181  0.20859217  1
  Co  Co128  1  0.17045890  0.56727258  0.01805703  1
  Co  Co129  1  0.11914265  0.59212299  0.62449079  1
  Co  Co130  1  0.01639088  0.60890173  -0.04028803  1
  Co  Co131  1  0.73210028  0.23243589  -0.03247520  1
  Co  Co132  1  0.35848440  0.64329026  0.73499988  1
  Co  Co133  1  0.59845710  0.88681238  0.10999603  1
  Co  Co134  1  0.92275937  0.04063881  0.87432018  1
  Co  Co135  1  0.40613096  0.53942225  0.63195803  1
  Co  Co136  1  0.30287373  -0.09504788  0.63622983  1
  Co  Co137  1  0.60225007  0.57609430  0.44584928  1
  Co  Co138  1  0.55019791  0.77089416  0.60823380  1
  Co  Co139  1  0.19497140  0.36559613  0.77413355  1
  Co  Co140  1  0.72753377  -0.07036304  0.20565258  1
  Co  Co141  1  0.46980010  0.66043468  0.51855518  1
  Co  Co142  1  0.77869159  0.80915785  0.47557583  1
  Co  Co143  1  -0.05296618  0.84296669  0.75636167  1
  Co  Co144  1  0.24025285  0.28989092  0.50487692  1
  Co  Co145  1  0.49143002  0.59668876  0.19390564  1
  Co  Co146  1  -0.10511745  0.93734353  0.43099934  1
  Co  Co147  1  0.55845368  0.78044649  -0.03569582  1
  Co  Co148  1  0.87945596  0.72778460  0.85585992  1
  Co  Co149  1  0.26889284  0.69928150  0.02180191  1
  Co  Co150  1  0.66971247  0.96102832  0.84711537  1
  Co  Co151  1  -0.04734421  0.46443306  0.90787299  1
  Co  Co152  1  0.60431359  0.47462105  0.20795447  1
  Co  Co153  1  -0.02563818  0.40881255  0.52361377  1
  Co  Co154  1  0.57706637  0.54530045  0.05824883  1
  Co  Co155  1  0.29935810  0.21437385  0.18031627  1
  Co  Co156  1  0.72231216  0.51904105  -0.02426508  1
  Co  Co157  1  0.64715909  0.06914357  -0.01831794  1
  Co  Co158  1  0.65187987  -0.10739442  0.68171589  1
  Co  Co159  1  0.62185894  0.88820296  0.51005490  1
  Co  Co160  1  0.37416967  0.00777320  0.52159193  1
  Co  Co161  1  0.86778654  0.69429206  0.54328233  1
  Ni  Ni162  1  0.93493066  0.58599430  0.43691574  1
  Ni  Ni163  1  0.36657756  0.33985384  0.26831945  1
  Ni  Ni164  1  0.49148528  0.75072727  0.27087740  1
  Ni  Ni165  1  0.45155522  0.68168204  0.85845381  1
  Ni  Ni166  1  0.69305451  0.68383418  0.00681504  1
  Ni  Ni167  1  0.06865781  0.81376857  0.37900329  1
  Ni  Ni168  1  0.19004958  0.75130925  0.59057835  1
  Ni  Ni169  1  0.81387128  0.23929032  0.29411577  1
  Ni  Ni170  1  0.35555141  0.80647335  0.78061578  1
  Ni  Ni171  1  -0.04757722  0.04441692  0.30019622  1
  Ni  Ni172  1  0.14710330  0.36889883  0.14012594  1
  Ni  Ni173  1  0.30240117  0.41741835  0.58764972  1
  Ni  Ni174  1  0.12297025  0.20362490  0.58804774  1
  Ni  Ni175  1  -0.08416369  0.32859280  -0.00673922  1
  Ni  Ni176  1  0.53992412  -0.00300697  0.75444134  1
  Ni  Ni177  1  0.73930015  0.49198950  0.48695238  1
  Ni  Ni178  1  0.78430426  0.55259951  0.63632580  1
  Ni  Ni179  1  0.48421263  0.11920197  0.01391796  1
  Ni  Ni180  1  0.03261874  0.60284984  0.30629587  1
  Ni  Ni181  1  0.22139903  -0.08943369  0.77666982  1
  Ni  Ni182  1  0.30343218  0.43209096  0.88677361  1
  Ni  Ni183  1  0.51571581  0.35507627  0.80308784  1
  Ni  Ni184  1  0.23718436  0.62074875  0.15546405  1
  Ni  Ni185  1  0.77936848  0.10888026  0.06804257  1
  Ni  Ni186  1  0.36277592  0.37884730  0.74358295  1
  Ni  Ni187  1  0.36714974  -0.03340807  -0.02576331  1
  Ni  Ni188  1  0.28637855  0.07678856  0.26107251  1
  Ni  Ni189  1  0.86048253  0.38520153  0.22423945  1
  Ni  Ni190  1  0.40215493  0.34777762  0.46496115  1
  Ni  Ni191  1  0.16095889  0.16148969  0.41470167  1
  Ni  Ni192  1  -0.02218156  0.74636132  0.21794996  1
  Ni  Ni193  1  0.18298796  0.70537653  0.42930099  1
  Ni  Ni194  1  0.61250071  0.44466662  0.89390899  1
  Ni  Ni195  1  0.88690576  0.65071959  0.09805683  1
  Ni  Ni196  1  0.65280695  0.29550816  0.64777173  1
  Ni  Ni197  1  0.51320141  0.08851480  0.61011686  1
  Ni  Ni198  1  0.73123618  0.78546390  0.31983908  1
  Ni  Ni199  1  -0.02781709  -0.00325122  0.72578993  1
  Ni  Ni200  1  0.09827628  0.88392492  0.00607281  1
  Ni  Ni201  1  0.26062331  0.57758352  0.36880681  1
  Ni  Ni202  1  0.50007275  0.25485907  0.38094850  1
  Ni  Ni203  1  0.65489846  0.25394275  0.81386028  1
  Ni  Ni204  1  0.61752179  0.04835318  0.29775391  1
  Ni  Ni205  1  -0.01744756  0.38699516  0.69048220  1
  Ni  Ni206  1  0.00738068  0.01488897  0.01609727  1
  Ni  Ni207  1  0.70216264  0.13614507  0.40457749  1
  Ni  Ni208  1  0.46640294  -0.00247320  0.24374303  1
  Ni  Ni209  1  0.05218615  0.73087605  0.69026434  1
  Ni  Ni210  1  0.00823468  0.14767633  0.45331392  1
  Ni  Ni211  1  0.79016968  0.80599428  0.65405439  1
  Ni  Ni212  1  -0.06286405  0.12875952  0.14843784  1
  Ni  Ni213  1  0.94003245  0.31440286  0.83359056  1
  Ni  Ni214  1  0.37143832  0.12933857  0.75023727  1
