# generated using pymatgen
data_Ti108Co54Ni53
_symmetry_space_group_name_H-M   'P 1'
_cell_length_a   14.75506190
_cell_length_b   14.69553343
_cell_length_c   14.69587447
_cell_angle_alpha   89.69635279
_cell_angle_beta   89.93523525
_cell_angle_gamma   89.86561650
_symmetry_Int_Tables_number   1
_chemical_formula_structural   Ti108Co54Ni53
_chemical_formula_sum   'Ti108 Co54 Ni53'
_cell_volume   3186.50247238
_cell_formula_units_Z   1
loop_
 _symmetry_equiv_pos_site_id
 _symmetry_equiv_pos_as_xyz
  1  'x, y, z'
loop_
 _atom_site_type_symbol
 _atom_site_label
 _atom_site_symmetry_multiplicity
 _atom_site_fract_x
 _atom_site_fract_y
 _atom_site_fract_z
 _atom_site_occupancy
  Ti  Ti0  1  0.01108230  0.03008068  0.21171255  1
  Ti  Ti1  1  0.09097811  0.13142093  0.57555065  1
  Ti  Ti2  1  0.04872255  0.16879369  0.95956504  1
  Ti  Ti3  1  0.10205912  0.46648767  0.24076342  1
  Ti  Ti4  1  0.16703965  0.42647424  0.54961238  1
  Ti  Ti5  1  0.13054639  0.46192197  0.89880110  1
  Ti  Ti6  1  0.14426342  0.78880860  0.31983883  1
  Ti  Ti7  1  0.04650945  0.86425011  0.63240362  1
  Ti  Ti8  1  0.14570073  0.76236296  0.94653869  1
  Ti  Ti9  1  0.37782395  0.03620606  0.23164749  1
  Ti  Ti10  1  0.45710649  0.13010722  0.53989650  1
  Ti  Ti11  1  0.45063665  0.03664671  0.86959564  1
  Ti  Ti12  1  0.52334176  0.39091772  0.22632156  1
  Ti  Ti13  1  0.51717660  0.33994949  0.59181162  1
  Ti  Ti14  1  0.39060722  0.37056040  0.87727015  1
  Ti  Ti15  1  0.37472873  0.73479971  0.29372420  1
  Ti  Ti16  1  0.40000411  0.73831143  0.59799142  1
  Ti  Ti17  1  0.42447509  0.71741211  0.96865621  1
  Ti  Ti18  1  0.79534248  0.19099284  0.25671253  1
  Ti  Ti19  1  0.73592855  0.07886860  0.55789272  1
  Ti  Ti20  1  0.70404926  0.04117920  0.96550441  1
  Ti  Ti21  1  0.71124085  0.37665872  0.17035626  1
  Ti  Ti22  1  0.76100395  0.42536215  0.64790489  1
  Ti  Ti23  1  0.79628285  0.41602651  0.97724744  1
  Ti  Ti24  1  0.78091529  0.69649622  0.31786568  1
  Ti  Ti25  1  0.85144054  0.82898444  0.56522883  1
  Ti  Ti26  1  0.83096424  0.74706756  0.98236153  1
  Ti  Ti27  1  0.14731237  0.32401712  0.06150798  1
  Ti  Ti28  1  0.11592460  0.16531353  0.35782207  1
  Ti  Ti29  1  0.02508944  0.31835712  0.62051433  1
  Ti  Ti30  1  0.17596725  0.55899165  0.06163293  1
  Ti  Ti31  1  0.07358783  0.60534381  0.51154069  1
  Ti  Ti32  1  0.07336092  0.52624302  0.69185487  1
  Ti  Ti33  1  0.14928421  0.95367366  0.05239308  1
  Ti  Ti34  1  0.13778960  0.96987057  0.39365884  1
  Ti  Ti35  1  0.06373463  0.90134312  0.83628672  1
  Ti  Ti36  1  0.43300704  0.31480932  0.07079634  1
  Ti  Ti37  1  0.48236665  0.29690061  0.40987564  1
  Ti  Ti38  1  0.37480507  0.26214705  0.67878382  1
  Ti  Ti39  1  0.39033983  0.54735261  0.07529032  1
  Ti  Ti40  1  0.45397895  0.62431588  0.43637977  1
  Ti  Ti41  1  0.39864503  0.60099322  0.74988449  1
  Ti  Ti42  1  0.43426182  0.87003761  0.09798093  1
  Ti  Ti43  1  0.37606582  0.97086958  0.44344380  1
  Ti  Ti44  1  0.37293539  0.89505960  0.73710435  1
  Ti  Ti45  1  0.75234063  0.21238724  0.05496091  1
  Ti  Ti46  1  0.64333489  0.18644143  0.39545494  1
  Ti  Ti47  1  0.72484553  0.18049661  0.80603767  1
  Ti  Ti48  1  0.73047017  0.57674865  0.05919993  1
  Ti  Ti49  1  0.70645471  0.61399285  0.52219773  1
  Ti  Ti50  1  0.70811245  0.60533781  0.73473247  1
  Ti  Ti51  1  0.75039420  0.89431468  0.08196765  1
  Ti  Ti52  1  0.70806826  0.95016688  0.38676950  1
  Ti  Ti53  1  0.72665945  0.91067030  0.73433848  1
  Ti  Ti54  1  0.23011395  0.13038513  0.06444253  1
  Ti  Ti55  1  0.26067465  0.12437106  0.49169927  1
  Ti  Ti56  1  0.24289711  0.07798656  0.73724838  1
  Ti  Ti57  1  0.27871110  0.39948064  0.15933593  1
  Ti  Ti58  1  0.27231515  0.38543528  0.37678937  1
  Ti  Ti59  1  0.26042023  0.43307473  0.73872722  1
  Ti  Ti60  1  0.15709044  0.74940729  0.13227970  1
  Ti  Ti61  1  0.24706614  0.69468994  0.44262467  1
  Ti  Ti62  1  0.11651946  0.72388008  0.75321123  1
  Ti  Ti63  1  0.57752168  0.13611174  0.07595631  1
  Ti  Ti64  1  0.52746703  0.04621799  0.35695602  1
  Ti  Ti65  1  0.55875893  -0.00714190  0.65958909  1
  Ti  Ti66  1  0.56271848  0.44017355  -0.03163842  1
  Ti  Ti67  1  0.59156508  0.47149565  0.41591449  1
  Ti  Ti68  1  0.57345683  0.44824002  0.75632523  1
  Ti  Ti69  1  0.61751266  0.76172844  0.10819627  1
  Ti  Ti70  1  0.57107022  0.77829081  0.32536464  1
  Ti  Ti71  1  0.56620292  0.78447876  0.68415058  1
  Ti  Ti72  1  0.85059515  0.04848914  0.12171429  1
  Ti  Ti73  1  0.95212859  0.07841919  0.39842415  1
  Ti  Ti74  1  0.95641886  0.09039002  0.80142322  1
  Ti  Ti75  1  0.97288640  0.35903028  0.04590360  1
  Ti  Ti76  1  1.02513223  0.34843931  0.40788648  1
  Ti  Ti77  1  0.95540965  0.41300083  0.82467430  1
  Ti  Ti78  1  0.99263992  0.83205895  0.06707159  1
  Ti  Ti79  1  0.99481891  0.76278999  0.43807564  1
  Ti  Ti80  1  0.89277263  0.77507901  0.75775009  1
  Ti  Ti81  1  0.27137470  0.20701995  0.25841364  1
  Ti  Ti82  1  0.20685780  0.26279973  0.64323863  1
  Ti  Ti83  1  0.21854784  0.26020898  0.85587375  1
  Ti  Ti84  1  0.24119528  0.60392075  0.25062874  1
  Ti  Ti85  1  0.29548398  0.56788241  0.58183418  1
  Ti  Ti86  1  0.27268278  0.59592445  0.88239998  1
  Ti  Ti87  1  0.26254297  0.89860763  0.21267095  1
  Ti  Ti88  1  0.24571860  0.84926735  0.55885852  1
  Ti  Ti89  1  0.25688644  0.94230868  0.88661171  1
  Ti  Ti90  1  0.49496387  0.19732279  0.24158560  1
  Ti  Ti91  1  0.54742306  0.16678586  0.71945035  1
  Ti  Ti92  1  0.54732537  0.22700286  0.90814626  1
  Ti  Ti93  1  0.51828484  0.58364368  0.24549759  1
  Ti  Ti94  1  0.53873658  0.59893198  0.62581866  1
  Ti  Ti95  1  0.56065124  0.62766086  0.85224153  1
  Ti  Ti96  1  0.58334940  0.94570070  0.20680946  1
  Ti  Ti97  1  0.56325670  0.87647796  0.49386197  1
  Ti  Ti98  1  0.58890256  0.84255426  0.92727941  1
  Ti  Ti99  1  0.97823794  0.23000232  0.23853812  1
  Ti  Ti100  1  0.85037260  0.24946779  0.66763230  1
  Ti  Ti101  1  0.87679514  0.25238483  0.91045732  1
  Ti  Ti102  1  0.91814669  0.63424320  0.14712487  1
  Ti  Ti103  1  0.87766246  0.60455771  0.63811648  1
  Ti  Ti104  1  0.92942414  0.56778986  0.94662770  1
  Ti  Ti105  1  0.88167550  0.85177181  0.20945729  1
  Ti  Ti106  1  0.93770161  1.03791422  0.59408410  1
  Ti  Ti107  1  0.90014423  0.93096455  0.93159933  1
  Co  Co108  1  0.58994944  0.03990970  0.50454555  1
  Co  Co109  1  0.03319986  0.66520343  0.03213989  1
  Co  Co110  1  0.27228472  0.10831545  -0.09177787  1
  Co  Co111  1  0.09555767  0.63988819  0.34798157  1
  Co  Co112  1  0.09049590  0.61518724  0.87794034  1
  Co  Co113  1  0.29107040  0.26964586  0.00565466  1
  Co  Co114  1  0.07562800  0.01335312  0.71345262  1
  Co  Co115  1  0.59851104  0.31087115  0.06743984  1
  Co  Co116  1  0.70261999  -0.08699919  0.56921883  1
  Co  Co117  1  0.56692147  0.71638152  0.51319072  1
  Co  Co118  1  0.64111319  0.33054552  0.32420888  1
  Co  Co119  1  0.32263089  0.39748864  0.57963852  1
  Co  Co120  1  0.17465663  0.69988932  0.59962870  1
  Co  Co121  1  0.84910086  0.83307496  0.37972473  1
  Co  Co122  1  0.28266046  0.86035788  0.37529347  1
  Co  Co123  1  0.30828883  0.55523971  0.39313828  1
  Co  Co124  1  0.31773347  0.73553606  0.15060467  1
  Co  Co125  1  0.09106582  -0.10942641  0.19821949  1
  Co  Co126  1  0.20189874  0.89558568  0.72093591  1
  Co  Co127  1  0.46906842  0.03641151  0.10324024  1
  Co  Co128  1  0.41412290  0.88085357  -0.08302415  1
  Co  Co129  1  0.37428380  0.17813910  0.13277347  1
  Co  Co130  1  0.38265112  0.32781413  0.26140714  1
  Co  Co131  1  0.28717026  0.77935790  0.86439031  1
  Co  Co132  1  0.66111805  0.29969326  0.69123814  1
  Co  Co133  1  0.37007931  0.50552906  0.24012445  1
  Co  Co134  1  0.64604012  0.22014067  0.20367234  1
  Co  Co135  1  0.40861192  0.07711494  0.69250551  1
  Co  Co136  1  -0.00250009  0.70888261  0.62017491  1
  Co  Co137  1  0.59522812  -0.05475217  0.04907396  1
  Co  Co138  1  0.43318293  0.91089292  0.58838897  1
  Co  Co139  1  0.41845694  0.44566607  0.69970642  1
  Co  Co140  1  -0.03094297  0.25540283  0.77846458  1
  Co  Co141  1  0.39619502  0.15351310  0.37930563  1
  Co  Co142  1  0.07616725  0.62550053  0.19055811  1
  Co  Co143  1  -0.03617920  0.60247360  0.77999894  1
  Co  Co144  1  -0.08299521  0.44356511  0.67264685  1
  Co  Co145  1  0.43063706  0.52942227  0.90552972  1
  Co  Co146  1  0.27407383  0.68073699  0.01390998  1
  Co  Co147  1  0.26265805  0.05344438  0.34502868  1
  Co  Co148  1  0.50229387  0.31091951  0.77413499  1
  Co  Co149  1  0.53903633  -0.09920818  0.79303282  1
  Co  Co150  1  0.05854531  0.31518000  -0.09393008  1
  Co  Co151  1  0.82177541  0.65956161  0.84459186  1
  Co  Co152  1  0.14114181  -0.01909710  0.56448056  1
  Co  Co153  1  0.82864411  0.50865447  0.79892123  1
  Co  Co154  1  0.70672552  0.77765440  0.44809950  1
  Co  Co155  1  0.84345630  -0.03230101  0.47225674  1
  Co  Co156  1  -0.00070493  0.46462328  0.53404875  1
  Co  Co157  1  -0.02315884  0.21059893  0.49109504  1
  Co  Co158  1  0.28917510  0.73657557  0.71151144  1
  Co  Co159  1  0.75005281  0.87249665  -0.09451363  1
  Co  Co160  1  0.11514952  0.35839825  0.75274315  1
  Co  Co161  1  0.21507222  0.59067661  0.73040808  1
  Ni  Ni162  1  0.42165346  0.79923722  0.44497673  1
  Ni  Ni163  1  0.77434055  0.72877620  0.14714046  1
  Ni  Ni164  1  0.38491906  0.19110351  0.82337082  1
  Ni  Ni165  1  0.61987019  0.04485250  0.82163863  1
  Ni  Ni166  1  0.59953344  0.49263880  0.12317354  1
  Ni  Ni167  1  0.33286021  0.00088169  0.03067992  1
  Ni  Ni168  1  0.81728952  0.08512551  0.69529735  1
  Ni  Ni169  1  -0.03658661  0.39419337  0.21961610  1
  Ni  Ni170  1  0.14632297  0.49822642  0.39962838  1
  Ni  Ni171  1  0.47294413  0.70256148  0.14580213  1
  Ni  Ni172  1  0.88200905  0.35221799  0.53732610  1
  Ni  Ni173  1  0.69136818  0.30101989  -0.07472179  1
  Ni  Ni174  1  0.62867889  0.63514705  0.37586699  1
  Ni  Ni175  1  0.00264864  0.92664298  0.48468853  1
  Ni  Ni176  1  0.67321990  0.69491654  -0.04570997  1
  Ni  Ni177  1  0.54543456  0.60743360  0.02404469  1
  Ni  Ni178  1  -0.02070530  0.75107007  0.89772978  1
  Ni  Ni179  1  0.61249550  0.19746710  0.56562025  1
  Ni  Ni180  1  0.34188845  0.26462609  0.49874200  1
  Ni  Ni181  1  0.44345320  0.89192763  0.30271967  1
  Ni  Ni182  1  0.85081965  0.68717106  0.47787112  1
  Ni  Ni183  1  0.68721458  0.48838677  0.87043640  1
  Ni  Ni184  1  0.07683100  0.16646155  0.12541644  1
  Ni  Ni185  1  0.10449140  0.17795284  0.75190104  1
  Ni  Ni186  1  -0.01346982  0.74106948  0.26570804  1
  Ni  Ni187  1  0.79768974  0.01887994  0.83408729  1
  Ni  Ni188  1  0.28237949  0.84440138  0.02737499  1
  Ni  Ni189  1  0.85814074  0.47628122  0.12040914  1
  Ni  Ni190  1  0.71642212  0.74716823  0.62623343  1
  Ni  Ni191  1  0.43393917  0.45410585  0.37416123  1
  Ni  Ni192  1  0.78422244  0.34853708  0.80021599  1
  Ni  Ni193  1  0.78826240  0.10715411  0.40014279  1
  Ni  Ni194  1  0.27826071  0.43598998  -0.01532355  1
  Ni  Ni195  1  0.15650703  0.26916174  0.48137939  1
  Ni  Ni196  1  0.29839444  0.00382923  0.60073793  1
  Ni  Ni197  1  0.86979256  0.09926507  -0.03751854  1
  Ni  Ni198  1  0.84689293  -0.00262622  0.29045781  1
  Ni  Ni199  1  0.44473652  0.75611787  0.80121431  1
  Ni  Ni200  1  0.17490209  0.05298563  0.21027582  1
  Ni  Ni201  1  0.65960628  0.33455165  0.49108030  1
  Ni  Ni202  1  0.41414097  0.15309266  -0.01711032  1
  Ni  Ni203  1  0.71766316  0.84599531  0.25468909  1
  Ni  Ni204  1  0.69149393  0.75978974  0.80178978  1
  Ni  Ni205  1  0.12135449  0.05015660  0.87707490  1
  Ni  Ni206  1  0.85511931  0.30213916  0.13980156  1
  Ni  Ni207  1  0.91480502  0.93927475  0.73309395  1
  Ni  Ni208  1  0.00279102  0.02235308  0.03141790  1
  Ni  Ni209  1  0.69076585  0.06148691  0.25432215  1
  Ni  Ni210  1  -0.00704923  -0.10023993  0.32722356  1
  Ni  Ni211  1  0.62249902  0.46876077  0.58328210  1
  Ni  Ni212  1  0.45226034  0.48650867  0.53659870  1
  Ni  Ni213  1  0.13151182  0.30134747  0.24207325  1
  Ni  Ni214  1  0.02158206  0.50537831  0.09120503  1
