# generated using pymatgen
data_Ti108Co54Ni53
_symmetry_space_group_name_H-M   'P 1'
_cell_length_a   14.60381049
_cell_length_b   14.57353982
_cell_length_c   14.55885428
_cell_angle_alpha   89.85012634
_cell_angle_beta   89.86711306
_cell_angle_gamma   89.79094469
_symmetry_Int_Tables_number   1
_chemical_formula_structural   Ti108Co54Ni53
_chemical_formula_sum   'Ti108 Co54 Ni53'
_cell_volume   3098.51001570
_cell_formula_units_Z   1
loop_
 _symmetry_equiv_pos_site_id
 _symmetry_equiv_pos_as_xyz
  1  'x, y, z'
loop_
 _atom_site_type_symbol
 _atom_site_label
 _atom_site_symmetry_multiplicity
 _atom_site_fract_x
 _atom_site_fract_y
 _atom_site_fract_z
 _atom_site_occupancy
  Ti  Ti0  1  0.11482562  0.04540961  0.20471323  1
  Ti  Ti1  1  0.14329735  0.05426938  0.55218628  1
  Ti  Ti2  1  0.09344335  0.06584414  0.95703409  1
  Ti  Ti3  1  0.09367048  0.38755298  0.29823758  1
  Ti  Ti4  1  0.08588201  0.40323135  0.49512485  1
  Ti  Ti5  1  0.10832137  0.38323052  0.87786605  1
  Ti  Ti6  1  0.10302608  0.73285447  0.27276059  1
  Ti  Ti7  1  0.02624932  0.72572301  0.56928561  1
  Ti  Ti8  1  0.12344524  0.80515173  0.89677056  1
  Ti  Ti9  1  0.37687336  0.12898354  0.32811927  1
  Ti  Ti10  1  0.35120132  0.04021515  0.54839674  1
  Ti  Ti11  1  0.45513558  0.04676985  0.94095179  1
  Ti  Ti12  1  0.43618071  0.41653362  0.18161116  1
  Ti  Ti13  1  0.40388083  0.41304475  0.52996791  1
  Ti  Ti14  1  0.37723590  0.47951976  0.95394568  1
  Ti  Ti15  1  0.38168524  0.78087473  0.20604660  1
  Ti  Ti16  1  0.35277932  0.70869167  0.53962965  1
  Ti  Ti17  1  0.44275451  0.79917319  0.91054509  1
  Ti  Ti18  1  0.69119849  0.10962028  0.28251606  1
  Ti  Ti19  1  0.72199224  0.10482565  0.63996118  1
  Ti  Ti20  1  0.77118807  0.00396008  0.95645251  1
  Ti  Ti21  1  0.76969397  0.43594804  0.23335773  1
  Ti  Ti22  1  0.77773876  0.46746401  0.60479958  1
  Ti  Ti23  1  0.78173847  0.42204436  0.92497773  1
  Ti  Ti24  1  0.74503103  0.78020988  0.25105583  1
  Ti  Ti25  1  0.70426303  0.72465847  0.56339361  1
  Ti  Ti26  1  0.76065782  0.71970953  0.93105293  1
  Ti  Ti27  1  0.01717022  0.27677541  0.15669193  1
  Ti  Ti28  1  0.06037095  0.21183885  0.45331247  1
  Ti  Ti29  1  0.02445606  0.23543965  0.76464029  1
  Ti  Ti30  1  0.09841802  0.59741970  0.14375347  1
  Ti  Ti31  1  0.15875199  0.59533958  0.45133799  1
  Ti  Ti32  1  0.09263070  0.62988334  0.73027874  1
  Ti  Ti33  1  0.06100589  0.89398248  0.04335651  1
  Ti  Ti34  1  0.06346057  0.90133252  0.38966120  1
  Ti  Ti35  1  0.11380229  0.95254535  0.70693335  1
  Ti  Ti36  1  0.38110969  0.30514292  0.02879826  1
  Ti  Ti37  1  0.43432480  0.29500415  0.38221384  1
  Ti  Ti38  1  0.33373769  0.33037180  0.82283346  1
  Ti  Ti39  1  0.37571107  0.59505725  0.10728601  1
  Ti  Ti40  1  0.47813840  0.58441617  0.42474259  1
  Ti  Ti41  1  0.40723407  0.51128074  0.76574945  1
  Ti  Ti42  1  0.41567339  0.92057574  0.08939948  1
  Ti  Ti43  1  0.42589782  0.82590512  0.39727977  1
  Ti  Ti44  1  0.38672251  0.91642751  0.75610075  1
  Ti  Ti45  1  0.76397088  0.23510315  -0.02720039  1
  Ti  Ti46  1  0.81554277  0.23680012  0.36997272  1
  Ti  Ti47  1  0.76713002  0.30770216  0.73895710  1
  Ti  Ti48  1  0.70994189  0.56523377  0.06736621  1
  Ti  Ti49  1  0.69056633  0.54361280  0.43636951  1
  Ti  Ti50  1  0.71406897  0.62855450  0.73471291  1
  Ti  Ti51  1  0.74405501  0.94816725  0.14536170  1
  Ti  Ti52  1  0.82730661  0.93473740  0.34346908  1
  Ti  Ti53  1  0.76407509  0.89534786  0.66340732  1
  Ti  Ti54  1  0.29787662  0.11884494  0.05408002  1
  Ti  Ti55  1  0.20164745  0.08345417  0.38284171  1
  Ti  Ti56  1  0.27748193  0.11227782  0.82638322  1
  Ti  Ti57  1  0.14098130  0.41927919  0.10221972  1
  Ti  Ti58  1  0.24981504  0.41886629  0.40414977  1
  Ti  Ti59  1  0.11655380  0.42510852  0.68968552  1
  Ti  Ti60  1  0.27040987  0.73890993  0.01761504  1
  Ti  Ti61  1  0.19833745  0.77471679  0.44194855  1
  Ti  Ti62  1  0.30113072  0.67898643  0.73503304  1
  Ti  Ti63  1  0.60408001  0.07374876  0.07070546  1
  Ti  Ti64  1  0.65385748  0.01268068  0.45276213  1
  Ti  Ti65  1  0.56878665  0.12224326  0.76437188  1
  Ti  Ti66  1  0.56042467  0.44236233  -0.00097623  1
  Ti  Ti67  1  0.55801495  0.42880428  0.35533005  1
  Ti  Ti68  1  0.61982452  0.44488130  0.77669205  1
  Ti  Ti69  1  0.57958694  0.75148537  0.15065783  1
  Ti  Ti70  1  0.61362321  0.72573601  0.39910123  1
  Ti  Ti71  1  0.60930477  0.79468850  0.79816143  1
  Ti  Ti72  1  0.94291993  0.07595651  0.10855449  1
  Ti  Ti73  1  0.93814705  0.07560411  0.43064694  1
  Ti  Ti74  1  0.92012058  -0.00538208  0.74146336  1
  Ti  Ti75  1  0.96103129  0.38915097  -0.00519019  1
  Ti  Ti76  1  0.89194313  0.38848968  0.45342312  1
  Ti  Ti77  1  0.93913634  0.42879180  0.76455360  1
  Ti  Ti78  1  0.91937156  0.69740478  0.08093744  1
  Ti  Ti79  1  0.86087207  0.78184875  0.44568444  1
  Ti  Ti80  1  0.98235713  0.79711085  0.73378929  1
  Ti  Ti81  1  0.27717118  0.29734700  0.25170446  1
  Ti  Ti82  1  0.22798531  0.27073966  0.57794795  1
  Ti  Ti83  1  0.20513449  0.23546462  0.93780907  1
  Ti  Ti84  1  0.26545113  0.57546893  0.27978348  1
  Ti  Ti85  1  0.25300312  0.53169237  0.61636649  1
  Ti  Ti86  1  0.18629193  0.56050368  0.97352904  1
  Ti  Ti87  1  0.28560412  0.96851790  0.23649785  1
  Ti  Ti88  1  0.26567490  0.86146996  0.62526314  1
  Ti  Ti89  1  0.29187402  0.93056012  0.95544444  1
  Ti  Ti90  1  0.62721802  0.29155929  0.25348520  1
  Ti  Ti91  1  0.63653897  0.23911404  0.46797930  1
  Ti  Ti92  1  0.57170312  0.23842694  0.93711155  1
  Ti  Ti93  1  0.63977175  0.59390632  0.25487775  1
  Ti  Ti94  1  0.59159549  0.55082040  0.59366620  1
  Ti  Ti95  1  0.52697708  0.60845680  0.91124373  1
  Ti  Ti96  1  0.50735943  0.99400485  0.28983275  1
  Ti  Ti97  1  0.56956170  0.87350777  0.58986380  1
  Ti  Ti98  1  0.60750228  0.88608614  0.98499052  1
  Ti  Ti99  1  0.82416750  0.23488297  0.18653047  1
  Ti  Ti100  1  0.90365300  0.23994531  0.58211100  1
  Ti  Ti101  1  0.90582805  0.12310970  0.89084406  1
  Ti  Ti102  1  0.94105978  0.60773502  0.27471097  1
  Ti  Ti103  1  0.96032792  0.57285646  0.46849795  1
  Ti  Ti104  1  0.91226934  0.62468293  0.82548239  1
  Ti  Ti105  1  0.92756892  0.87985310  0.17107958  1
  Ti  Ti106  1  0.95840963  0.92444917  0.56522279  1
  Ti  Ti107  1  0.90642097  0.82888544  0.89640931  1
  Co  Co108  1  0.18584347  0.66233868  0.85518879  1
  Co  Co109  1  0.02863700  0.93282259  0.85500164  1
  Co  Co110  1  0.40736548  0.88114404  0.54662285  1
  Co  Co111  1  0.67092020  0.21305024  0.11423671  1
  Co  Co112  1  0.19602415  -0.02903571  0.84436275  1
  Co  Co113  1  0.15507225  0.78904455  0.73321473  1
  Co  Co114  1  0.45616658  0.68203296  0.78892545  1
  Co  Co115  1  -0.06723511  -0.02321497  -0.02401435  1
  Co  Co116  1  0.19675336  -0.00285270  0.06874497  1
  Co  Co117  1  0.19088435  0.29413980  0.75729247  1
  Co  Co118  1  0.75849444  0.30547344  0.54904739  1
  Co  Co119  1  0.77888940  0.67107917  0.36862829  1
  Co  Co120  1  0.51809871  0.72362061  0.52836158  1
  Co  Co121  1  0.23909624  0.70020919  0.17756839  1
  Co  Co122  1  0.71495435  0.17530172  0.82569819  1
  Co  Co123  1  0.62536433  0.05042810  -0.10283532  1
  Co  Co124  1  0.07825751  0.55510801  0.58678773  1
  Co  Co125  1  0.27132476  0.44711435  0.19472100  1
  Co  Co126  1  0.55800341  0.83415274  0.29084586  1
  Co  Co127  1  0.76606407  0.03003493  0.78674228  1
  Co  Co128  1  0.90830058  0.76697120  0.27940930  1
  Co  Co129  1  0.69972143  0.85362073  0.43673203  1
  Co  Co130  1  0.06511700  0.27778478  0.61192083  1
  Co  Co131  1  0.40376053  0.19868834  0.90408480  1
  Co  Co132  1  0.48495358  0.69443355  0.29718802  1
  Co  Co133  1  0.01550730  0.73374160  0.40971980  1
  Co  Co134  1  0.63114132  0.31099518  0.65432150  1
  Co  Co135  1  0.39115865  0.45510793  0.34265971  1
  Co  Co136  1  0.24892986  0.82592812  0.29857010  1
  Co  Co137  1  0.43371791  0.78443138  0.66989962  1
  Co  Co138  1  0.63136537  -0.03463763  0.72628491  1
  Co  Co139  1  0.02576910  0.68619935  -0.05518884  1
  Co  Co140  1  0.10008472  0.74887605  0.08861810  1
  Co  Co141  1  0.28988195  0.79912729  0.84425738  1
  Co  Co142  1  0.11378802  0.15984617  0.09208834  1
  Co  Co143  1  0.23634545  0.85577375  0.12418919  1
  Co  Co144  1  0.77856268  0.10002372  0.09815233  1
  Co  Co145  1  -0.01421942  0.15183881  0.26320292  1
  Co  Co146  1  -0.04528274  0.43983548  0.60170095  1
  Co  Co147  1  0.54350281  0.59023444  0.08875719  1
  Co  Co148  1  0.24270262  0.39747693  -0.03309688  1
  Co  Co149  1  0.81704721  0.61194460  0.52724433  1
  Co  Co150  1  0.90819825  0.21797773  0.03662289  1
  Co  Co151  1  0.46809084  0.16862088  0.05693393  1
  Co  Co152  1  -0.07937534  0.60458155  0.66208861  1
  Co  Co153  1  0.54255234  0.30601846  0.10051796  1
  Co  Co154  1  -0.12413310  0.06702027  0.59347855  1
  Co  Co155  1  0.48041160  0.55539077  0.23860279  1
  Co  Co156  1  0.24018568  0.49602510  0.80709000  1
  Co  Co157  1  0.90449787  0.29671091  0.87216842  1
  Co  Co158  1  0.01767477  0.11175871  0.63502306  1
  Co  Co159  1  0.73442321  0.88129083  0.85067573  1
  Co  Co160  1  0.45316039  0.73237756  0.05192974  1
  Co  Co161  1  0.10219259  0.88272318  0.21640853  1
  Ni  Ni162  1  0.49033213  0.37645572  0.85569509  1
  Ni  Ni163  1  0.40826537  0.07355647  0.16971229  1
  Ni  Ni164  1  0.18957479  0.69555872  0.59818177  1
  Ni  Ni165  1  0.22316831  0.27933893  0.10075173  1
  Ni  Ni166  1  0.66805696  -0.05658740  0.29303636  1
  Ni  Ni167  1  0.26926644  0.02019758  0.69165734  1
  Ni  Ni168  1  0.32754905  0.69310285  0.36764624  1
  Ni  Ni169  1  0.85934383  0.16157703  0.73133090  1
  Ni  Ni170  1  0.80514511  -0.04662300  0.50752173  1
  Ni  Ni171  1  0.49261439  0.27039446  0.54527210  1
  Ni  Ni172  1  -0.02894560  0.28524181  0.33983280  1
  Ni  Ni173  1  0.72252370  0.37897790  0.39416546  1
  Ni  Ni174  1  0.32426659  0.55457334  0.46683973  1
  Ni  Ni175  1  0.82262259  0.84158664  0.03982402  1
  Ni  Ni176  1  0.60407719  0.45241711  0.17245770  1
  Ni  Ni177  1  0.53888212  0.14250186  0.38108207  1
  Ni  Ni178  1  0.52352443  -0.06138366  0.83893618  1
  Ni  Ni179  1  0.54512384  0.15039240  0.21311694  1
  Ni  Ni180  1  0.42628835  0.24987586  0.20895268  1
  Ni  Ni181  1  0.01557944  0.53914058  0.01578874  1
  Ni  Ni182  1  0.49688981  0.41317131  0.65921200  1
  Ni  Ni183  1  -0.01508329  0.46230861  0.17230430  1
  Ni  Ni184  1  0.69258272  0.36937545  0.06078958  1
  Ni  Ni185  1  0.57007764  0.69387408  0.67479211  1
  Ni  Ni186  1  0.33698007  0.19288167  0.48386125  1
  Ni  Ni187  1  0.36314270  -0.02459028  0.38511611  1
  Ni  Ni188  1  0.61230871  0.71779886  -0.01168966  1
  Ni  Ni189  1  0.16917586  0.15123045  0.69089007  1
  Ni  Ni190  1  0.69284949  0.56266551  0.89411183  1
  Ni  Ni191  1  0.79737948  0.61437113  0.20409814  1
  Ni  Ni192  1  0.79024729  0.49188036  0.77243737  1
  Ni  Ni193  1  0.57252482  0.92102332  0.15085366  1
  Ni  Ni194  1  0.84880934  0.37247734  0.10304036  1
  Ni  Ni195  1  0.43391529  0.58809021  0.61861949  1
  Ni  Ni196  1  0.80847242  0.75821276  0.76243494  1
  Ni  Ni197  1  0.11302658  0.86741958  0.55844440  1
  Ni  Ni198  1  0.85298445  0.56893991  -0.02921516  1
  Ni  Ni199  1  0.23255713  -0.06612100  0.45749848  1
  Ni  Ni200  1  0.77583187  0.12497309  0.47913646  1
  Ni  Ni201  1  0.34259128  0.63300950  -0.09938652  1
  Ni  Ni202  1  0.04197061  0.23854390  -0.04451616  1
  Ni  Ni203  1  0.05862308  0.53605471  0.85568312  1
  Ni  Ni204  1  0.09009689  0.54843706  0.31296137  1
  Ni  Ni205  1  0.49557358  -0.00425588  0.47275288  1
  Ni  Ni206  1  0.13813062  0.20465811  0.26692974  1
  Ni  Ni207  1  0.84628532  0.07404834  0.25312612  1
  Ni  Ni208  1  0.86572549  0.76054216  0.60934751  1
  Ni  Ni209  1  0.60815918  0.40305865  0.51872941  1
  Ni  Ni210  1  -0.01914932  -0.00947293  0.28225911  1
  Ni  Ni211  1  0.20922852  0.26054153  0.40344509  1
  Ni  Ni212  1  0.06413646  0.08302531  0.79894523  1
  Ni  Ni213  1  0.83249993  0.51558098  0.36381329  1
  Ni  Ni214  1  0.30306032  0.38894706  0.67285265  1
