# generated using pymatgen
data_Ti108Co54Ni53
_symmetry_space_group_name_H-M   'P 1'
_cell_length_a   14.64074955
_cell_length_b   14.60831260
_cell_length_c   14.63130292
_cell_angle_alpha   90.13740390
_cell_angle_beta   90.02693528
_cell_angle_gamma   90.13198268
_symmetry_Int_Tables_number   1
_chemical_formula_structural   Ti108Co54Ni53
_chemical_formula_sum   'Ti108 Co54 Ni53'
_cell_volume   3129.27634224
_cell_formula_units_Z   1
loop_
 _symmetry_equiv_pos_site_id
 _symmetry_equiv_pos_as_xyz
  1  'x, y, z'
loop_
 _atom_site_type_symbol
 _atom_site_label
 _atom_site_symmetry_multiplicity
 _atom_site_fract_x
 _atom_site_fract_y
 _atom_site_fract_z
 _atom_site_occupancy
  Ti  Ti0  1  0.09528817  0.08357636  0.28444233  1
  Ti  Ti1  1  -0.02320449  0.13692259  0.57761744  1
  Ti  Ti2  1  0.06644207  0.12847837  0.88311233  1
  Ti  Ti3  1  0.09887973  0.38124633  0.28777340  1
  Ti  Ti4  1  0.09791934  0.43876690  0.61064542  1
  Ti  Ti5  1  0.09752004  0.40310250  0.96019965  1
  Ti  Ti6  1  0.05709700  0.66114718  0.30279496  1
  Ti  Ti7  1  0.02907023  0.76164669  0.62927194  1
  Ti  Ti8  1  0.06622000  0.75238102  0.98553565  1
  Ti  Ti9  1  0.40865139  0.06199910  0.23402173  1
  Ti  Ti10  1  0.46955873  0.05839069  0.64135091  1
  Ti  Ti11  1  0.35435472  0.11985064  0.90560020  1
  Ti  Ti12  1  0.43299014  0.43968273  0.25037370  1
  Ti  Ti13  1  0.44117094  0.49061043  0.53643315  1
  Ti  Ti14  1  0.39714026  0.46176594  0.93305445  1
  Ti  Ti15  1  0.33902613  0.77730443  0.30866287  1
  Ti  Ti16  1  0.34168892  0.75631592  0.57551557  1
  Ti  Ti17  1  0.41297663  0.69782805  0.92448607  1
  Ti  Ti18  1  0.66282004  0.06303972  0.24276629  1
  Ti  Ti19  1  0.77002255  0.08294972  0.47466025  1
  Ti  Ti20  1  0.80254125  0.08851796  0.95396577  1
  Ti  Ti21  1  0.75762702  0.42918012  0.28683252  1
  Ti  Ti22  1  0.71357731  0.37008307  0.52566282  1
  Ti  Ti23  1  0.74758233  0.45354149  0.95508881  1
  Ti  Ti24  1  0.75766864  0.76386238  0.18410612  1
  Ti  Ti25  1  0.83059643  0.74999135  0.63287948  1
  Ti  Ti26  1  0.76165417  0.69806847  0.99448404  1
  Ti  Ti27  1  0.08740942  0.19497833  0.07919614  1
  Ti  Ti28  1  0.12081765  0.22397957  0.41113200  1
  Ti  Ti29  1  0.10155612  0.21809779  0.71025402  1
  Ti  Ti30  1  0.01966282  0.56910924  0.08405744  1
  Ti  Ti31  1  0.07152451  0.59212720  0.49512244  1
  Ti  Ti32  1  0.07772189  0.60178196  0.71374995  1
  Ti  Ti33  1  0.03372300  0.94536484  0.00279891  1
  Ti  Ti34  1  0.10142209  0.91284606  0.39356797  1
  Ti  Ti35  1  0.07433141  0.96958100  0.74865373  1
  Ti  Ti36  1  0.39789050  0.18759012  0.08877582  1
  Ti  Ti37  1  0.44654030  0.21874967  0.51821892  1
  Ti  Ti38  1  0.40119033  0.28637939  0.79557132  1
  Ti  Ti39  1  0.46356551  0.56007057  0.08989374  1
  Ti  Ti40  1  0.41631551  0.65279728  0.42373423  1
  Ti  Ti41  1  0.37764750  0.47042542  0.73363645  1
  Ti  Ti42  1  0.41475986  0.87550950  0.16021268  1
  Ti  Ti43  1  0.43604689  0.87793536  0.47717770  1
  Ti  Ti44  1  0.39736236  0.88744078  0.69884631  1
  Ti  Ti45  1  0.74344704  0.25199197  0.03771696  1
  Ti  Ti46  1  0.72300426  0.24119575  0.36938944  1
  Ti  Ti47  1  0.73067075  0.19367706  0.79062506  1
  Ti  Ti48  1  0.74836846  0.56774271  0.15598021  1
  Ti  Ti49  1  0.78409736  0.65564915  0.46482011  1
  Ti  Ti50  1  0.72671865  0.60603327  0.72793519  1
  Ti  Ti51  1  0.82661585  0.93438072  0.07199439  1
  Ti  Ti52  1  0.71875628  0.93283984  0.37797323  1
  Ti  Ti53  1  0.76522906  0.93536915  0.66738385  1
  Ti  Ti54  1  0.22944452  -0.03693962  0.04957722  1
  Ti  Ti55  1  0.27778538  0.04270471  0.43821027  1
  Ti  Ti56  1  0.26563821  0.03834897  0.75302217  1
  Ti  Ti57  1  0.24814773  0.47501260  0.08166776  1
  Ti  Ti58  1  0.24992580  0.39031874  0.43257028  1
  Ti  Ti59  1  0.23517927  0.35492817  0.70721675  1
  Ti  Ti60  1  0.25293840  0.75911138  0.01697708  1
  Ti  Ti61  1  0.21436712  0.70489542  0.43051392  1
  Ti  Ti62  1  0.28626878  0.71584027  0.76595455  1
  Ti  Ti63  1  0.58602485  0.16196896  0.09663988  1
  Ti  Ti64  1  0.57367220  0.10054045  0.40690425  1
  Ti  Ti65  1  0.54990446  0.13866515  0.80216887  1
  Ti  Ti66  1  0.65537064  0.39676268  0.11611686  1
  Ti  Ti67  1  0.57480120  0.43798499  0.40169330  1
  Ti  Ti68  1  0.56681422  0.41916212  0.69106445  1
  Ti  Ti69  1  0.56466414  0.74611231  0.03435736  1
  Ti  Ti70  1  0.60696889  0.75628647  0.43579467  1
  Ti  Ti71  1  0.51992542  0.72829424  0.72438415  1
  Ti  Ti72  1  0.94373713  0.06931207  0.17285231  1
  Ti  Ti73  1  0.93467906  0.15243333  0.38247027  1
  Ti  Ti74  1  0.91559068  0.15959761  0.77316798  1
  Ti  Ti75  1  0.98839385  0.36937927  0.12357338  1
  Ti  Ti76  1  0.91702995  0.35840127  0.38614232  1
  Ti  Ti77  1  0.90860754  0.46028237  0.76471217  1
  Ti  Ti78  1  0.96349941  0.79643253  0.13953747  1
  Ti  Ti79  1  0.90956517  0.81582897  0.44133460  1
  Ti  Ti80  1  0.91627902  0.72720440  0.82231570  1
  Ti  Ti81  1  0.30524102  0.28384045  0.24248479  1
  Ti  Ti82  1  0.27634655  0.17687037  0.61078059  1
  Ti  Ti83  1  0.26305929  0.28916295  1.00092799  1
  Ti  Ti84  1  0.26555795  0.61981786  0.22693109  1
  Ti  Ti85  1  0.26213757  0.55037813  0.54213292  1
  Ti  Ti86  1  0.23298484  0.54749963  0.86659389  1
  Ti  Ti87  1  0.23656727  0.94754426  0.24984677  1
  Ti  Ti88  1  0.19763332  0.88805422  0.58456941  1
  Ti  Ti89  1  0.33521370  0.90819980  0.89125063  1
  Ti  Ti90  1  0.50664965  0.23153971  0.26964341  1
  Ti  Ti91  1  0.64552985  0.19471699  0.58543768  1
  Ti  Ti92  1  0.51500757  0.28479690  0.96052570  1
  Ti  Ti93  1  0.56746569  0.68828146  0.21881256  1
  Ti  Ti94  1  0.63291794  0.55945472  0.54330784  1
  Ti  Ti95  1  0.58686031  0.57011914  0.88395053  1
  Ti  Ti96  1  0.61234700  0.88566716  0.19838292  1
  Ti  Ti97  1  0.61154855  0.96169727  0.53929208  1
  Ti  Ti98  1  0.55190472  0.93881762  0.96396754  1
  Ti  Ti99  1  0.84655375  0.25700743  0.22638504  1
  Ti  Ti100  1  0.84352407  0.29250358  0.65076684  1
  Ti  Ti101  1  0.90254172  0.26514059  0.94265470  1
  Ti  Ti102  1  0.92673293  0.51062461  0.24509903  1
  Ti  Ti103  1  0.90515857  0.47223545  0.55952576  1
  Ti  Ti104  1  1.01065180  0.56975464  0.89474673  1
  Ti  Ti105  1  0.86891395  0.91187787  0.27102175  1
  Ti  Ti106  1  1.01592031  0.94521874  0.56329354  1
  Ti  Ti107  1  0.90671739  0.95968077  0.85294203  1
  Co  Co108  1  -0.08401619  0.01990118  0.68627077  1
  Co  Co109  1  -0.08031750  0.67635058  -0.00471620  1
  Co  Co110  1  0.91800237  0.21448580  0.09024959  1
  Co  Co111  1  -0.04657738  -0.00793434  0.38863221  1
  Co  Co112  1  0.50545120  0.67951164  0.55278832  1
  Co  Co113  1  0.90628337  0.83273289  -0.03075421  1
  Co  Co114  1  0.26431644  0.80335554  0.16957257  1
  Co  Co115  1  0.38793971  -0.05877155  0.33262319  1
  Co  Co116  1  0.26466631  0.38472773  0.86672441  1
  Co  Co117  1  0.15090975  0.35886944  0.12534045  1
  Co  Co118  1  0.77794389  0.04275774  0.78545939  1
  Co  Co119  1  0.40324105  0.71272847  0.12345747  1
  Co  Co120  1  0.80474160  0.12134006  0.63194303  1
  Co  Co121  1  0.52778538  0.41551949  0.84613468  1
  Co  Co122  1  0.15207534  0.59948571  -0.00272997  1
  Co  Co123  1  -0.00406508  0.33521793  0.67296484  1
  Co  Co124  1  0.93537363  0.66644404  0.51822020  1
  Co  Co125  1  0.55033628  0.57767578  0.68180429  1
  Co  Co126  1  0.14466315  0.27224391  0.87751946  1
  Co  Co127  1  -0.04675818  0.08383316  -0.00622888  1
  Co  Co128  1  0.15643566  0.23008056  0.22251852  1
  Co  Co129  1  0.55766787  -0.05153399  0.36352368  1
  Co  Co130  1  0.92802001  0.86159874  0.70857392  1
  Co  Co131  1  0.66220257  0.71146205  0.60243788  1
  Co  Co132  1  0.42829504  0.60623561  0.25271313  1
  Co  Co133  1  0.25676517  0.44011512  0.24993231  1
  Co  Co134  1  0.57711250  0.26747205  0.42065750  1
  Co  Co135  1  0.81859469  0.34019313  0.82035542  1
  Co  Co136  1  0.26346946  0.86580028  0.42848061  1
  Co  Co137  1  0.03186466  0.84042773  0.84535556  1
  Co  Co138  1  0.69864860  0.46479304  0.80104295  1
  Co  Co139  1  0.86159983  0.53983452  0.04981690  1
  Co  Co140  1  0.31745899  0.00018624  0.59263255  1
  Co  Co141  1  0.64899619  0.06158640  0.67401080  1
  Co  Co142  1  0.18955242  0.69055594  0.60895248  1
  Co  Co143  1  0.35513864  0.50910003  0.37964199  1
  Co  Co144  1  0.51986948  0.31683273  0.13362404  1
  Co  Co145  1  0.68555975  0.32147538  0.70389002  1
  Co  Co146  1  0.53881070  0.35903496  0.54418547  1
  Co  Co147  1  0.00210347  0.23229249  0.25522706  1
  Co  Co148  1  0.07488036  0.77358437  0.47256788  1
  Co  Co149  1  0.44346180  0.03985930  0.47884814  1
  Co  Co150  1  0.15020665  0.06153183  0.63486796  1
  Co  Co151  1  0.81509232  0.07251341  0.30329389  1
  Co  Co152  1  0.27968228  0.23285821  0.44554730  1
  Co  Co153  1  0.19204935  0.83665961  -0.11385241  1
  Co  Co154  1  0.76472374  0.46441677  0.65118279  1
  Co  Co155  1  0.55697527  0.44458614  0.00187847  1
  Co  Co156  1  0.42247609  0.83891204  0.00692926  1
  Co  Co157  1  0.15297363  0.79316176  0.28896913  1
  Co  Co158  1  0.22802462  0.54250576  0.69835646  1
  Co  Co159  1  0.68708856  0.85266086  0.04944663  1
  Co  Co160  1  0.53317464  0.83350877  0.59937093  1
  Co  Co161  1  0.25846520  0.19982762  0.79670438  1
  Ni  Ni162  1  0.40051710  0.16482010  0.36842232  1
  Ni  Ni163  1  -0.07775180  0.43169357  -0.05430972  1
  Ni  Ni164  1  0.15341577  0.80750501  0.72803114  1
  Ni  Ni165  1  0.50835683  0.24087710  0.67317874  1
  Ni  Ni166  1  0.48319779  0.83590917  0.84786275  1
  Ni  Ni167  1  0.71049147  0.61699380  0.31130963  1
  Ni  Ni168  1  0.11846322  0.52446527  0.20353019  1
  Ni  Ni169  1  0.75913066  0.77804965  0.34805941  1
  Ni  Ni170  1  0.74092985  0.83164073  0.51485797  1
  Ni  Ni171  1  0.60636716  0.35855603  0.27107620  1
  Ni  Ni172  1  0.16205042  0.29648366  0.55445994  1
  Ni  Ni173  1  0.45211115  0.00353719  0.81320414  1
  Ni  Ni174  1  0.62510415  0.58897763  0.05373627  1
  Ni  Ni175  1  0.13078639  0.69163564  0.14548203  1
  Ni  Ni176  1  0.78659006  0.11246525  0.13579927  1
  Ni  Ni177  1  0.38858316  0.37835358  0.08213216  1
  Ni  Ni178  1  0.38343653  0.61649061  0.64923051  1
  Ni  Ni179  1  0.83305634  0.57965289  0.87874113  1
  Ni  Ni180  1  -0.00256070  0.32330206  0.82999083  1
  Ni  Ni181  1  0.38527014  0.34475407  0.61964249  1
  Ni  Ni182  1  0.76057107  0.49547058  0.43221048  1
  Ni  Ni183  1  0.31613629  0.60734367  0.02115567  1
  Ni  Ni184  1  0.38422413  0.01028705  0.04719425  1
  Ni  Ni185  1  0.03406481  0.93174376  0.23663402  1
  Ni  Ni186  1  0.25309622  0.11664589  0.13090078  1
  Ni  Ni187  1  0.49982030  0.80440619  0.31727978  1
  Ni  Ni188  1  0.92924810  0.53660257  0.40662580  1
  Ni  Ni189  1  0.43993731  0.59684282  0.80544981  1
  Ni  Ni190  1  0.50126502  0.09532811  -0.03221582  1
  Ni  Ni191  1  0.20589945  0.13122928  -0.02536685  1
  Ni  Ni192  1  0.10229744  0.06989095  0.47295878  1
  Ni  Ni193  1  0.11008457  0.43987903  0.78726330  1
  Ni  Ni194  1  -0.09697189  0.60480406  0.67451748  1
  Ni  Ni195  1  0.64701085  0.15605221  0.93689199  1
  Ni  Ni196  1  0.13137896  0.68846047  0.84676696  1
  Ni  Ni197  1  0.66078483  0.32064072  -0.11407223  1
  Ni  Ni198  1  0.18025181  0.53991169  0.36768458  1
  Ni  Ni199  1  0.83066927  0.38603706  0.09622756  1
  Ni  Ni200  1  0.67554186  0.02197509  0.05166144  1
  Ni  Ni201  1  0.83481274  0.23843676  0.49706818  1
  Ni  Ni202  1  0.55596862  0.59597912  0.36872728  1
  Ni  Ni203  1  0.12119587  -0.14335743  0.12449119  1
  Ni  Ni204  1  0.06664804  0.42562719  0.44589476  1
  Ni  Ni205  1  0.58478857  0.51936089  0.21952637  1
  Ni  Ni206  1  0.85593385  -0.04236739  0.53062539  1
  Ni  Ni207  1  0.68411996  0.23368278  0.20532752  1
  Ni  Ni208  1  0.52685515  0.01022330  0.12595413  1
  Ni  Ni209  1  -0.00628338  0.29490117  0.51805389  1
  Ni  Ni210  1  -0.10882214  0.68562790  0.32294012  1
  Ni  Ni211  1  0.41662051  0.34387974  0.39925896  1
  Ni  Ni212  1  0.89000847  0.65568773  0.16356299  1
  Ni  Ni213  1  0.17098024  -0.00703993  0.89223837  1
  Ni  Ni214  1  0.25803002  0.12843982  0.29586330  1
