# generated using pymatgen
data_Ti108Co54Ni53
_symmetry_space_group_name_H-M   'P 1'
_cell_length_a   14.61420559
_cell_length_b   14.57019699
_cell_length_c   14.58734528
_cell_angle_alpha   90.07582452
_cell_angle_beta   90.09272559
_cell_angle_gamma   90.23643934
_symmetry_Int_Tables_number   1
_chemical_formula_structural   Ti108Co54Ni53
_chemical_formula_sum   'Ti108 Co54 Ni53'
_cell_volume   3106.07721662
_cell_formula_units_Z   1
loop_
 _symmetry_equiv_pos_site_id
 _symmetry_equiv_pos_as_xyz
  1  'x, y, z'
loop_
 _atom_site_type_symbol
 _atom_site_label
 _atom_site_symmetry_multiplicity
 _atom_site_fract_x
 _atom_site_fract_y
 _atom_site_fract_z
 _atom_site_occupancy
  Ti  Ti0  1  0.13559670  0.10420812  0.20985934  1
  Ti  Ti1  1  0.03592583  0.11724166  0.55685286  1
  Ti  Ti2  1  0.10520229  0.03663056  0.96626274  1
  Ti  Ti3  1  0.03328113  0.44369782  0.26199259  1
  Ti  Ti4  1  0.00071423  0.47258412  0.59142533  1
  Ti  Ti5  1  0.12917004  0.37648809  0.98796619  1
  Ti  Ti6  1  -0.00824930  0.74619048  0.27039564  1
  Ti  Ti7  1  0.02723895  0.67574012  0.59729995  1
  Ti  Ti8  1  0.08925065  0.81308227  0.90768106  1
  Ti  Ti9  1  0.45883195  0.11155531  0.19638031  1
  Ti  Ti10  1  0.34757941  0.03752810  0.57384686  1
  Ti  Ti11  1  0.45378751  0.05646305  0.97128934  1
  Ti  Ti12  1  0.42952082  0.35749649  0.31953369  1
  Ti  Ti13  1  0.45087535  0.37437899  0.57628565  1
  Ti  Ti14  1  0.34353848  0.39097124  0.96528407  1
  Ti  Ti15  1  0.42501092  0.72615518  0.27735607  1
  Ti  Ti16  1  0.37278480  0.71042121  0.61640239  1
  Ti  Ti17  1  0.53235715  0.73009331  0.95053728  1
  Ti  Ti18  1  0.80311123  0.09591250  0.20182717  1
  Ti  Ti19  1  0.75089296  0.15406902  0.56157799  1
  Ti  Ti20  1  0.72230235  0.10932983  0.90743222  1
  Ti  Ti21  1  0.77286189  0.40826732  0.18384970  1
  Ti  Ti22  1  0.77399183  0.35049554  0.62314097  1
  Ti  Ti23  1  0.73966651  0.48588434  0.89684233  1
  Ti  Ti24  1  0.81769723  0.85681299  0.25722068  1
  Ti  Ti25  1  0.80306932  0.77673820  0.60411430  1
  Ti  Ti26  1  0.75625116  0.71678931  0.93990964  1
  Ti  Ti27  1  0.06600796  0.27822106  0.13634378  1
  Ti  Ti28  1  0.12724584  0.25974119  0.45761920  1
  Ti  Ti29  1  0.06456481  0.28514063  0.79280738  1
  Ti  Ti30  1  0.07291790  0.54558169  0.05990179  1
  Ti  Ti31  1  0.08266797  0.60018584  0.39522141  1
  Ti  Ti32  1  0.09982579  0.57522353  0.74124667  1
  Ti  Ti33  1  0.09610495  0.85448477  0.10581160  1
  Ti  Ti34  1  0.09145402  0.90536695  0.39947055  1
  Ti  Ti35  1  0.12440224  0.86910285  0.72224486  1
  Ti  Ti36  1  0.36068512  0.20381858  0.04360931  1
  Ti  Ti37  1  0.37546029  0.16635224  0.35585865  1
  Ti  Ti38  1  0.37112543  0.32231017  0.75717951  1
  Ti  Ti39  1  0.37807229  0.62362464  0.05182700  1
  Ti  Ti40  1  0.43308333  0.54974699  0.47443214  1
  Ti  Ti41  1  0.44365289  0.63476762  0.78213026  1
  Ti  Ti42  1  0.43236840  0.80146248  0.10307330  1
  Ti  Ti43  1  0.41427429  0.97263467  0.38835689  1
  Ti  Ti44  1  0.44490654  0.90051094  0.67894887  1
  Ti  Ti45  1  0.72220636  0.26156000  0.05045352  1
  Ti  Ti46  1  0.76676124  0.31721644  0.41345661  1
  Ti  Ti47  1  0.71351021  0.22238664  0.74571950  1
  Ti  Ti48  1  0.71942460  0.61026022  0.12235077  1
  Ti  Ti49  1  0.75826177  0.54208757  0.46194763  1
  Ti  Ti50  1  0.71536208  0.61128626  0.68380717  1
  Ti  Ti51  1  0.72804904  0.93312738  -0.00603518  1
  Ti  Ti52  1  0.78838768  0.90819247  0.45937400  1
  Ti  Ti53  1  0.78091608  0.91230476  0.81197225  1
  Ti  Ti54  1  0.29614555  0.00548568  0.11215519  1
  Ti  Ti55  1  0.22247100  0.04445000  0.43379629  1
  Ti  Ti56  1  0.17531860  0.09568131  0.74028080  1
  Ti  Ti57  1  0.32648509  0.46105449  0.19279848  1
  Ti  Ti58  1  0.27360833  0.45690036  0.43050844  1
  Ti  Ti59  1  0.22482320  0.44689298  0.71620251  1
  Ti  Ti60  1  0.22008097  0.72385252  0.01324793  1
  Ti  Ti61  1  0.31111175  0.71215971  0.43000228  1
  Ti  Ti62  1  0.29796793  0.81374935  0.77824925  1
  Ti  Ti63  1  0.62130646  0.05903644  0.08906070  1
  Ti  Ti64  1  0.64706487  0.03937441  0.44932971  1
  Ti  Ti65  1  0.45227650  0.10281867  0.72767947  1
  Ti  Ti66  1  0.54386568  0.33979927  0.02038172  1
  Ti  Ti67  1  0.58977281  0.40261351  0.43829596  1
  Ti  Ti68  1  0.63799618  0.40129480  0.74564496  1
  Ti  Ti69  1  0.62626250  0.79624632  0.11313452  1
  Ti  Ti70  1  0.56265477  0.83431078  0.42634757  1
  Ti  Ti71  1  0.63671232  0.81277228  0.70908742  1
  Ti  Ti72  1  0.96567906  0.10664590  0.07439482  1
  Ti  Ti73  1  0.89512918  0.04787269  0.38441130  1
  Ti  Ti74  1  0.89889775  0.04941818  0.73946174  1
  Ti  Ti75  1  0.92594337  0.36627144  -0.04130121  1
  Ti  Ti76  1  0.96586101  0.36432784  0.40994268  1
  Ti  Ti77  1  0.91608737  0.40736965  0.75524097  1
  Ti  Ti78  1  0.91718631  0.68168530  0.05178731  1
  Ti  Ti79  1  0.94494358  0.74687826  0.45256997  1
  Ti  Ti80  1  0.93333071  0.83192481  0.73580739  1
  Ti  Ti81  1  0.20794212  0.33168883  0.27311777  1
  Ti  Ti82  1  0.26841319  0.31375076  0.58015897  1
  Ti  Ti83  1  0.21461272  0.21539877  0.90858982  1
  Ti  Ti84  1  0.23868844  0.64763926  0.19508474  1
  Ti  Ti85  1  0.21929182  0.59622964  0.56573250  1
  Ti  Ti86  1  0.23058318  0.55556312  0.89761003  1
  Ti  Ti87  1  0.26094276  0.85967099  0.31350218  1
  Ti  Ti88  1  0.24617683  0.86359337  0.56190502  1
  Ti  Ti89  1  0.35843218  0.87817539  0.95467522  1
  Ti  Ti90  1  0.61752056  0.27826767  0.27925741  1
  Ti  Ti91  1  0.60759844  0.27160279  0.58430024  1
  Ti  Ti92  1  0.46509926  0.22728490  0.88055756  1
  Ti  Ti93  1  0.56764524  0.46278079  0.18908183  1
  Ti  Ti94  1  0.54491160  0.61496460  0.61711279  1
  Ti  Ti95  1  0.51029952  0.52707108  0.93603782  1
  Ti  Ti96  1  0.56730456  0.95193815  0.25764037  1
  Ti  Ti97  1  0.61352687  1.02432951  0.64751654  1
  Ti  Ti98  1  0.57684243  0.97579883  0.84315492  1
  Ti  Ti99  1  0.88835667  0.28199590  0.25392933  1
  Ti  Ti100  1  0.93207558  0.27262547  0.57049117  1
  Ti  Ti101  1  0.89486194  0.19102498  0.88813674  1
  Ti  Ti102  1  0.91035050  0.55893793  0.19498200  1
  Ti  Ti103  1  0.90414212  0.62223292  0.73245288  1
  Ti  Ti104  1  0.92921524  0.54891692  0.90685473  1
  Ti  Ti105  1  0.98802539  0.96604169  0.22876498  1
  Ti  Ti106  1  0.95145330  0.92672688  0.56179561  1
  Ti  Ti107  1  0.91268861  0.86754295  0.96354429  1
  Co  Co108  1  0.52385146  0.78939042  0.59418353  1
  Co  Co109  1  0.64998511  0.83574901  0.88520269  1
  Co  Co110  1  0.85189320  0.45877508  0.33030120  1
  Co  Co111  1  0.04480129  0.71858292  0.76943662  1
  Co  Co112  1  0.05996185  0.26000169  0.30437284  1
  Co  Co113  1  0.18719383  0.73030442  0.65479744  1
  Co  Co114  1  -0.10979859  0.63062273  0.34579695  1
  Co  Co115  1  0.21953339  0.25624572  0.73374904  1
  Co  Co116  1  0.43958536  0.58405846  0.19941271  1
  Co  Co117  1  0.14047785  -0.00853921  0.56040753  1
  Co  Co118  1  0.25162174  0.51871608  0.05419590  1
  Co  Co119  1  0.32567345  0.13845082  0.81564616  1
  Co  Co120  1  0.18401546  0.16026584  0.06297679  1
  Co  Co121  1  0.93356243  0.88618196  0.37337430  1
  Co  Co122  1  0.33591335  0.18241418  0.51148615  1
  Co  Co123  1  0.85974586  0.63666971  0.54801064  1
  Co  Co124  1  0.88329907  0.02504630  0.92566638  1
  Co  Co125  1  0.03461608  0.11546876  0.83572491  1
  Co  Co126  1  0.24688677  0.31698920  0.09424725  1
  Co  Co127  1  0.36146678  0.48625155  0.82030642  1
  Co  Co128  1  0.18625336  -0.04938372  0.84918014  1
  Co  Co129  1  0.20847104  0.90479192  0.00544931  1
  Co  Co130  1  0.60369599  0.54535505  0.80269160  1
  Co  Co131  1  -0.06475902  0.20124680  0.41885907  1
  Co  Co132  1  0.47194651  -0.03183928  0.10828661  1
  Co  Co133  1  0.62227293  0.69456090  0.81624072  1
  Co  Co134  1  0.47808139  0.70343448  0.46356361  1
  Co  Co135  1  0.28341464  0.61656865  0.73470549  1
  Co  Co136  1  0.16082052  -0.05635156  0.22007771  1
  Co  Co137  1  0.54566758  0.64388619  0.09678694  1
  Co  Co138  1  0.06606801  0.09039215  0.38512370  1
  Co  Co139  1  -0.02823831  0.41400411  0.10765954  1
  Co  Co140  1  0.15113606  0.43717819  0.14812529  1
  Co  Co141  1  0.64860238  0.60183578  -0.02783611  1
  Co  Co142  1  -0.04548238  0.53992871  0.45270147  1
  Co  Co143  1  0.19408341  0.70517870  0.83299013  1
  Co  Co144  1  0.11127801  0.43476197  0.41259702  1
  Co  Co145  1  0.78445264  0.80244318  0.08261238  1
  Co  Co146  1  0.47597994  0.17790648  0.58880614  1
  Co  Co147  1  0.64402013  0.11696423  0.24802627  1
  Co  Co148  1  0.52645624  0.27514341  0.72845161  1
  Co  Co149  1  0.54499381  0.89818273  -0.00891516  1
  Co  Co150  1  0.40363041  -0.02806792  0.83457729  1
  Co  Co151  1  0.50251524  0.38917309  0.85306537  1
  Co  Co152  1  0.30263245  0.30201273  0.41279565  1
  Co  Co153  1  0.27792386  0.81648365  0.14415674  1
  Co  Co154  1  0.22166801  0.37671764  0.85500760  1
  Co  Co155  1  0.85388646  0.42316482  0.50507171  1
  Co  Co156  1  0.59043458  0.13602666  0.80961312  1
  Co  Co157  1  0.48877292  0.50468404  0.33092284  1
  Co  Co158  1  0.80367508  0.11458895  0.04109713  1
  Co  Co159  1  0.47609943  0.26813641  0.45137588  1
  Co  Co160  1  0.82806061  0.70338347  0.20632767  1
  Co  Co161  1  0.58148919  0.16936877  -0.02385197  1
  Ni  Ni162  1  0.35697904  0.70995278  -0.09450315  1
  Ni  Ni163  1  0.83003257  0.50320324  0.64077050  1
  Ni  Ni164  1  0.50838441  -0.02899959  0.53072804  1
  Ni  Ni165  1  0.18903681  0.51338615  0.29077498  1
  Ni  Ni166  1  0.62996703  0.20869828  0.43333868  1
  Ni  Ni167  1  0.65605717  0.88417996  0.55564428  1
  Ni  Ni168  1  0.27594889  0.05578586  -0.05333932  1
  Ni  Ni169  1  0.56838644  0.21932707  0.13234205  1
  Ni  Ni170  1  0.08993533  0.29995393  0.62760050  1
  Ni  Ni171  1  0.44612207  0.46817397  0.07688718  1
  Ni  Ni172  1  0.19493065  0.15981298  0.58868622  1
  Ni  Ni173  1  0.15353556  0.73386218  0.30519636  1
  Ni  Ni174  1  0.35759430  0.51328372  0.62491389  1
  Ni  Ni175  1  0.07450706  0.69067755  0.13703743  1
  Ni  Ni176  1  0.40019415  0.90227793  0.23560995  1
  Ni  Ni177  1  0.87887260  0.07318222  0.54940030  1
  Ni  Ni178  1  0.04409482  0.00478544  0.69315622  1
  Ni  Ni179  1  0.67322452  0.44937635  0.04913495  1
  Ni  Ni180  1  0.33659441  0.58012845  0.32689342  1
  Ni  Ni181  1  0.88095557  0.21247650  0.70930464  1
  Ni  Ni182  1  -0.06341557  0.82294130  0.13399040  1
  Ni  Ni183  1  0.52665768  0.10201153  0.35945196  1
  Ni  Ni184  1  0.73401855  0.06129221  0.74532190  1
  Ni  Ni185  1  0.47707592  0.81128210  0.81713274  1
  Ni  Ni186  1  0.65982289  0.71114625  0.53603006  1
  Ni  Ni187  1  0.06223302  0.45648336  0.85185291  1
  Ni  Ni188  1  0.79623000  0.33609588  0.83712803  1
  Ni  Ni189  1  0.15805990  0.44261025  0.56361353  1
  Ni  Ni190  1  0.77038928  0.16124745  0.35800730  1
  Ni  Ni191  1  0.83558647  0.50187289  0.04397649  1
  Ni  Ni192  1  0.73083376  -0.00740757  0.31867417  1
  Ni  Ni193  1  0.62651012  0.46748603  0.58900913  1
  Ni  Ni194  1  0.04418068  0.22149989  -0.03178192  1
  Ni  Ni195  1  0.29500992  0.03564206  0.27584235  1
  Ni  Ni196  1  0.29819985  0.19059934  0.19677420  1
  Ni  Ni197  1  0.79197316  0.95030026  0.63434317  1
  Ni  Ni198  1  -0.03067853  0.13578515  0.25161590  1
  Ni  Ni199  1  0.78578425  0.74102319  0.77729345  1
  Ni  Ni200  1  0.71020186  0.94031731  0.16462443  1
  Ni  Ni201  1  0.48899182  0.47410436  0.71063708  1
  Ni  Ni202  1  0.15254015  0.73129577  0.47421172  1
  Ni  Ni203  1  -0.07753406  0.72010149  0.88006607  1
  Ni  Ni204  1  0.39812271  0.85124275  0.50333205  1
  Ni  Ni205  1  0.06979498  0.64010862  -0.07550550  1
  Ni  Ni206  1  0.88786939  0.25748027  0.08266276  1
  Ni  Ni207  1  0.86429789  -0.03354613  0.09804413  1
  Ni  Ni208  1  0.68293333  0.46183196  0.31685848  1
  Ni  Ni209  1  0.64642885  0.29333631  -0.11044624  1
  Ni  Ni210  1  0.00632713  -0.04976856  -0.15476086  1
  Ni  Ni211  1  0.43005135  0.31424663  0.15615477  1
  Ni  Ni212  1  0.07665696  0.83405431  0.56429440  1
  Ni  Ni213  1  0.29103659  -0.02168737  0.71858292  1
  Ni  Ni214  1  0.20755640  0.17666715  0.33821821  1
