# generated using pymatgen
data_Ti108Co54Ni53
_symmetry_space_group_name_H-M   'P 1'
_cell_length_a   14.61635684
_cell_length_b   14.68143802
_cell_length_c   14.63084700
_cell_angle_alpha   89.73430153
_cell_angle_beta   90.08158708
_cell_angle_gamma   90.24294929
_symmetry_Int_Tables_number   1
_chemical_formula_structural   Ti108Co54Ni53
_chemical_formula_sum   'Ti108 Co54 Ni53'
_cell_volume   3139.55575266
_cell_formula_units_Z   1
loop_
 _symmetry_equiv_pos_site_id
 _symmetry_equiv_pos_as_xyz
  1  'x, y, z'
loop_
 _atom_site_type_symbol
 _atom_site_label
 _atom_site_symmetry_multiplicity
 _atom_site_fract_x
 _atom_site_fract_y
 _atom_site_fract_z
 _atom_site_occupancy
  Ti  Ti0  1  0.09705265  0.11491644  0.16283971  1
  Ti  Ti1  1  0.11023488  0.14543816  0.55602251  1
  Ti  Ti2  1  0.07562773  0.16729957  0.97179450  1
  Ti  Ti3  1  0.06417032  0.33614392  0.29829496  1
  Ti  Ti4  1  0.01879311  0.40709417  0.54684546  1
  Ti  Ti5  1  0.07827977  0.42284787  0.99599384  1
  Ti  Ti6  1  0.15022904  0.79045153  0.29245978  1
  Ti  Ti7  1  0.10551321  0.82284240  0.61282613  1
  Ti  Ti8  1  0.13561797  0.75432459  0.93891804  1
  Ti  Ti9  1  0.38922082  0.00936658  0.24253467  1
  Ti  Ti10  1  0.44423096  0.06434367  0.65789813  1
  Ti  Ti11  1  0.45456098  0.01865880  0.95731720  1
  Ti  Ti12  1  0.44992647  0.46592918  0.24006767  1
  Ti  Ti13  1  0.41531965  0.40725781  0.57732589  1
  Ti  Ti14  1  0.44898493  0.39536227  0.91369458  1
  Ti  Ti15  1  0.40360775  0.77444010  0.27739672  1
  Ti  Ti16  1  0.41072033  0.66803415  0.56176466  1
  Ti  Ti17  1  0.41685673  0.82350865  0.90954971  1
  Ti  Ti18  1  0.73100088  0.10927099  0.33798460  1
  Ti  Ti19  1  0.78574155  0.02297541  0.61269498  1
  Ti  Ti20  1  0.77604535  0.02131344  0.90524853  1
  Ti  Ti21  1  0.76365245  0.39610015  0.21349017  1
  Ti  Ti22  1  0.73509387  0.45290702  0.53210837  1
  Ti  Ti23  1  0.73443954  0.41130771  0.93261778  1
  Ti  Ti24  1  0.81552820  0.85236740  0.19280932  1
  Ti  Ti25  1  0.78100791  0.71961101  0.64004528  1
  Ti  Ti26  1  0.65225704  0.71125977  0.85706109  1
  Ti  Ti27  1  -0.00348546  0.26977995  0.10270563  1
  Ti  Ti28  1  -0.02786855  0.22388971  0.43982146  1
  Ti  Ti29  1  0.07061972  0.19351704  0.76140980  1
  Ti  Ti30  1  0.20283528  0.57570195  0.02465195  1
  Ti  Ti31  1  0.14840963  0.60494519  0.38639496  1
  Ti  Ti32  1  0.09392144  0.52643627  0.68921167  1
  Ti  Ti33  1  0.15064114  0.89618390  0.10734380  1
  Ti  Ti34  1  0.03683316  0.90879157  0.43586045  1
  Ti  Ti35  1  0.15466916  0.97042563  0.73688007  1
  Ti  Ti36  1  0.46277922  0.30886313  0.11431978  1
  Ti  Ti37  1  0.46174625  0.25506003  0.45455570  1
  Ti  Ti38  1  0.49450471  0.21808710  0.79241658  1
  Ti  Ti39  1  0.40683196  0.67052153  0.05137071  1
  Ti  Ti40  1  0.39808639  0.58721425  0.38271841  1
  Ti  Ti41  1  0.38107064  0.49341852  0.75575759  1
  Ti  Ti42  1  0.45928710  0.85758296  0.10229152  1
  Ti  Ti43  1  0.39918684  0.98267196  0.44751856  1
  Ti  Ti44  1  0.37765096  0.79611011  0.71369425  1
  Ti  Ti45  1  0.73544851  0.17542043  0.01039584  1
  Ti  Ti46  1  0.68697187  0.25460547  0.46087878  1
  Ti  Ti47  1  0.73313380  0.29758663  0.66966317  1
  Ti  Ti48  1  0.76904277  0.59638877  0.18035007  1
  Ti  Ti49  1  0.77367771  0.57205534  0.37031508  1
  Ti  Ti50  1  0.76265146  0.49902914  0.72554601  1
  Ti  Ti51  1  0.69324925  0.98999703  0.08008512  1
  Ti  Ti52  1  0.74564813  0.91665673  0.39101141  1
  Ti  Ti53  1  0.70616567  0.88207817  0.74353812  1
  Ti  Ti54  1  0.30473054  0.14682830  0.04865225  1
  Ti  Ti55  1  0.23621911  0.07855582  0.41623027  1
  Ti  Ti56  1  0.26221394  0.14067367  0.69302129  1
  Ti  Ti57  1  0.28815841  0.40713329  0.09345555  1
  Ti  Ti58  1  0.24638259  0.41069626  0.38653062  1
  Ti  Ti59  1  0.20432319  0.37720338  0.74166235  1
  Ti  Ti60  1  0.24979417  0.71754936  0.14533440  1
  Ti  Ti61  1  0.28436769  0.74784189  0.42805142  1
  Ti  Ti62  1  0.19137727  0.71737793  0.74580672  1
  Ti  Ti63  1  0.51991122  0.12165355  0.10011026  1
  Ti  Ti64  1  0.55689289  0.04169042  0.34134236  1
  Ti  Ti65  1  0.60401559  0.03949292  0.79291473  1
  Ti  Ti66  1  0.61886954  0.45447681  0.08938617  1
  Ti  Ti67  1  0.56702914  0.44655085  0.41504174  1
  Ti  Ti68  1  0.58794151  0.50161689  0.82423246  1
  Ti  Ti69  1  0.59254134  0.66065451  0.12674249  1
  Ti  Ti70  1  0.68344701  0.73876230  0.44378148  1
  Ti  Ti71  1  0.58043959  0.75788910  0.61260824  1
  Ti  Ti72  1  0.92058785  0.03566489  0.04473554  1
  Ti  Ti73  1  0.89483835  0.05089292  0.36999875  1
  Ti  Ti74  1  0.82679762  0.17086361  0.79491513  1
  Ti  Ti75  1  0.90869754  0.47269907  0.09084680  1
  Ti  Ti76  1  0.88947544  0.40965211  0.39326866  1
  Ti  Ti77  1  0.94347876  0.49704076  0.79141551  1
  Ti  Ti78  1  0.93972941  0.67978720  0.11129649  1
  Ti  Ti79  1  0.96912019  0.72406653  0.38518317  1
  Ti  Ti80  1  0.94054017  0.78573122  0.75702889  1
  Ti  Ti81  1  0.23709932  0.25123139  0.21358344  1
  Ti  Ti82  1  0.27338423  0.28445667  0.55027447  1
  Ti  Ti83  1  0.27307292  0.22867332  0.86811473  1
  Ti  Ti84  1  0.17613958  0.51586440  0.22912246  1
  Ti  Ti85  1  0.18572264  0.61819119  0.56813767  1
  Ti  Ti86  1  0.22476497  0.56371004  0.83898374  1
  Ti  Ti87  1  0.17123810  0.97013900  0.28769563  1
  Ti  Ti88  1  0.28012731  0.95304514  0.58517840  1
  Ti  Ti89  1  0.25354397  0.97517048  0.92465879  1
  Ti  Ti90  1  0.53191738  0.21334352  0.27404295  1
  Ti  Ti91  1  0.61411190  0.16152950  0.62589143  1
  Ti  Ti92  1  0.58703281  0.27229803  0.96137251  1
  Ti  Ti93  1  0.57665149  0.63991991  0.31344671  1
  Ti  Ti94  1  0.54652233  0.53957459  0.61864676  1
  Ti  Ti95  1  0.46290086  0.62640709  0.88354149  1
  Ti  Ti96  1  0.58307012  0.84834176  0.28781662  1
  Ti  Ti97  1  0.56354515  0.91331981  0.49525264  1
  Ti  Ti98  1  0.60688468  0.89828545  0.93304419  1
  Ti  Ti99  1  0.83412580  0.19295708  0.18466456  1
  Ti  Ti100  1  0.93341825  0.24991236  0.63496285  1
  Ti  Ti101  1  0.94738538  0.30620972  0.89782946  1
  Ti  Ti102  1  0.96272029  0.53156352  0.26875550  1
  Ti  Ti103  1  0.90974958  0.57821520  0.59447290  1
  Ti  Ti104  1  0.89050370  0.64571794  0.91873852  1
  Ti  Ti105  1  0.98267396  0.97388087  0.22353378  1
  Ti  Ti106  1  0.98100287  0.95111066  0.64432913  1
  Ti  Ti107  1  0.99755399  0.95689691  0.87050574  1
  Co  Co108  1  0.09399057  0.47138153  0.84770253  1
  Co  Co109  1  0.44795746  0.18942063  -0.04890684  1
  Co  Co110  1  0.09687589  0.72459318  0.09434403  1
  Co  Co111  1  0.70440339  0.60604465  0.55209317  1
  Co  Co112  1  0.40136402  0.41708094  0.41097002  1
  Co  Co113  1  0.63941360  0.34500965  0.81408419  1
  Co  Co114  1  0.87325193  0.63994292  0.75360909  1
  Co  Co115  1  0.57868822  0.33449322  0.55334018  1
  Co  Co116  1  -0.04730942  0.78113846  0.55986409  1
  Co  Co117  1  0.01928218  0.36021574  0.73947776  1
  Co  Co118  1  0.35099396  0.52439860  0.94748779  1
  Co  Co119  1  0.44646530  0.63552126  0.20756450  1
  Co  Co120  1  0.37967036  0.17114721  0.20079364  1
  Co  Co121  1  0.63208514  0.42623777  0.66890776  1
  Co  Co122  1  0.12130289  -0.00651260  0.55506054  1
  Co  Co123  1  0.30859368  -0.10475634  0.34482092  1
  Co  Co124  1  -0.11200260  0.46361478  -0.06511115  1
  Co  Co125  1  0.39571794  0.83375284  0.51900858  1
  Co  Co126  1  0.82734103  0.03215906  0.18595213  1
  Co  Co127  1  0.54749048  -0.02477956  0.17125512  1
  Co  Co128  1  0.23936454  0.41234848  -0.07709102  1
  Co  Co129  1  0.83903333  0.31612170  0.51061789  1
  Co  Co130  1  0.08726093  0.83452788  0.79506859  1
  Co  Co131  1  0.84142122  0.25280135  0.34817041  1
  Co  Co132  1  0.34600321  0.30213280  -0.00966141  1
  Co  Co133  1  0.50843732  0.10181298  0.50508362  1
  Co  Co134  1  -0.04324336  0.10701739  0.86475714  1
  Co  Co135  1  0.64256463  0.51277224  0.25093497  1
  Co  Co136  1  0.29095586  0.82654708  0.01725135  1
  Co  Co137  1  0.69037757  -0.03376373  0.24689784  1
  Co  Co138  1  0.84390395  0.86704955  0.65145189  1
  Co  Co139  1  0.40016281  0.13323282  0.36589220  1
  Co  Co140  1  0.46775824  0.90891642  0.63736602  1
  Co  Co141  1  0.60804403  0.08501497  -0.04822380  1
  Co  Co142  1  0.74803958  0.58019509  0.86206498  1
  Co  Co143  1  0.27891120  0.64043589  0.28614294  1
  Co  Co144  1  0.04793184  0.64871790  0.81425410  1
  Co  Co145  1  0.45166431  0.23219664  0.61668356  1
  Co  Co146  1  0.02902068  0.67569345  0.65731288  1
  Co  Co147  1  0.34013120  -0.02541126  0.06618611  1
  Co  Co148  1  0.60471184  0.57893374  -0.02453412  1
  Co  Co149  1  0.30948447  0.61420802  0.67858746  1
  Co  Co150  1  0.72007930  0.39774173  0.36947397  1
  Co  Co151  1  0.61410492  -0.01138987  0.63290862  1
  Co  Co152  1  0.57684445  0.36868692  0.24301507  1
  Co  Co153  1  0.87191348  0.69975703  0.26140684  1
  Co  Co154  1  0.89336145  0.18255609  -0.00715212  1
  Co  Co155  1  0.29323127  0.87472825  0.18364600  1
  Co  Co156  1  0.24658877  0.05877603  0.17354391  1
  Co  Co157  1  0.20113387  0.89080563  0.45656112  1
  Co  Co158  1  0.13034480  0.30787952  0.46117935  1
  Co  Co159  1  0.25773252  0.83661280  0.84273302  1
  Co  Co160  1  0.90019085  0.87162167  0.33399848  1
  Co  Co161  1  0.79823213  0.17343475  0.57409954  1
  Ni  Ni162  1  0.14702237  0.08276072  0.85286291  1
  Ni  Ni163  1  0.63528081  0.83546895  0.12180216  1
  Ni  Ni164  1  -0.05412135  0.09843991  0.69680899  1
  Ni  Ni165  1  0.77554050  0.56194305  0.02047553  1
  Ni  Ni166  1  0.87687484  -0.08287420  0.49601206  1
  Ni  Ni167  1  0.31689609  0.52970055  0.51405111  1
  Ni  Ni168  1  0.50438358  0.76015468  0.42187784  1
  Ni  Ni169  1  -0.04406715  0.56131631  0.43736732  1
  Ni  Ni170  1  0.34723367  0.29938389  0.72428193  1
  Ni  Ni171  1  0.37528051  0.09626192  0.82730797  1
  Ni  Ni172  1  0.06441784  0.65774131  0.24247874  1
  Ni  Ni173  1  0.11884319  0.29365344  0.62597008  1
  Ni  Ni174  1  0.11384252  0.74641524  0.47117384  1
  Ni  Ni175  1  0.18706625  0.43793978  0.55721602  1
  Ni  Ni176  1  0.65903434  0.28321077  0.11895615  1
  Ni  Ni177  1  0.18323118  0.27757337  0.03865041  1
  Ni  Ni178  1  0.11862782  0.30852734  0.87530096  1
  Ni  Ni179  1  0.09398406  0.00473447  -0.00034094  1
  Ni  Ni180  1  0.69345301  0.25992948  0.28092431  1
  Ni  Ni181  1  0.87864329  0.41038658  0.64267665  1
  Ni  Ni182  1  0.70814563  0.73956282  0.25829996  1
  Ni  Ni183  1  0.85459841  -0.02020180  0.77142225  1
  Ni  Ni184  1  0.31927629  -0.03485735  0.74681990  1
  Ni  Ni185  1  0.83008954  0.35368458  0.79519255  1
  Ni  Ni186  1  0.71247664  0.86797897  0.55694228  1
  Ni  Ni187  1  0.05836720  0.06604606  0.38340707  1
  Ni  Ni188  1  0.05721623  0.55064584  0.11873308  1
  Ni  Ni189  1  0.65560683  0.62813824  0.71612295  1
  Ni  Ni190  1  0.82997791  0.32448101  0.06104797  1
  Ni  Ni191  1  0.48549874  0.65524124  0.72397503  1
  Ni  Ni192  1  -0.00176042  0.80769948  0.21136789  1
  Ni  Ni193  1  0.14031171  0.19596868  0.34109702  1
  Ni  Ni194  1  0.49443789  0.37286749  0.73011366  1
  Ni  Ni195  1  0.55511119  0.74668969  -0.00971026  1
  Ni  Ni196  1  0.33864307  0.12967318  0.53693409  1
  Ni  Ni197  1  0.29982533  0.69170546  -0.07970759  1
  Ni  Ni198  1  0.46702136  -0.05214231  0.80563843  1
  Ni  Ni199  1  -0.01984361  0.18188074  0.27011226  1
  Ni  Ni200  1  0.38221102  0.31362642  0.28303841  1
  Ni  Ni201  1  0.46627575  0.51068723  0.06574719  1
  Ni  Ni202  1  0.67073388  0.06711551  0.48984564  1
  Ni  Ni203  1  0.54634301  0.81180677  0.76947421  1
  Ni  Ni204  1  0.07987597  0.45979291  0.40168371  1
  Ni  Ni205  1  0.66945547  0.18659319  0.83430828  1
  Ni  Ni206  1  0.11876705  0.38455097  0.14991368  1
  Ni  Ni207  1  0.55869010  0.61541793  0.47523298  1
  Ni  Ni208  1  0.66453600  0.12219018  0.18487596  1
  Ni  Ni209  1  -0.08262606  0.34806414  0.22392284  1
  Ni  Ni210  1  0.32266147  0.55374868  0.14822240  1
  Ni  Ni211  1  0.83916769  0.67941388  0.47957849  1
  Ni  Ni212  1  0.26390128  0.76934839  0.59406225  1
  Ni  Ni213  1  0.04230920  0.59577934  -0.03469319  1
  Ni  Ni214  1  -0.04958215  0.07658337  0.52967761  1
