# generated using pymatgen
data_Ti108Co54Ni53
_symmetry_space_group_name_H-M   'P 1'
_cell_length_a   14.72292442
_cell_length_b   14.62165212
_cell_length_c   14.59296217
_cell_angle_alpha   89.86610945
_cell_angle_beta   90.18901540
_cell_angle_gamma   89.77389784
_symmetry_Int_Tables_number   1
_chemical_formula_structural   Ti108Co54Ni53
_chemical_formula_sum   'Ti108 Co54 Ni53'
_cell_volume   3141.42750974
_cell_formula_units_Z   1
loop_
 _symmetry_equiv_pos_site_id
 _symmetry_equiv_pos_as_xyz
  1  'x, y, z'
loop_
 _atom_site_type_symbol
 _atom_site_label
 _atom_site_symmetry_multiplicity
 _atom_site_fract_x
 _atom_site_fract_y
 _atom_site_fract_z
 _atom_site_occupancy
  Ti  Ti0  1  0.08100593  0.08313004  0.25835730  1
  Ti  Ti1  1  0.06516335  0.05724587  0.57885397  1
  Ti  Ti2  1  0.05316643  0.10229480  0.94711715  1
  Ti  Ti3  1  0.08916997  0.45762230  0.36122480  1
  Ti  Ti4  1  -0.02485205  0.37688700  0.53599985  1
  Ti  Ti5  1  0.09362628  0.47769698  0.90309644  1
  Ti  Ti6  1  0.16475443  0.76231262  0.22684571  1
  Ti  Ti7  1  0.04596367  0.75780576  0.55345948  1
  Ti  Ti8  1  0.07248425  0.70534981  0.98569599  1
  Ti  Ti9  1  0.42907214  0.06941942  0.27114718  1
  Ti  Ti10  1  0.35347412  0.02575568  0.59400096  1
  Ti  Ti11  1  0.42384972  0.16366683  0.80506931  1
  Ti  Ti12  1  0.45180814  0.51569814  0.24962174  1
  Ti  Ti13  1  0.39618869  0.37015785  0.54777298  1
  Ti  Ti14  1  0.38817134  0.34204146  0.92353101  1
  Ti  Ti15  1  0.45878657  0.72884814  0.23417489  1
  Ti  Ti16  1  0.47397469  0.84054084  0.61872516  1
  Ti  Ti17  1  0.48175404  0.83190272  0.89489512  1
  Ti  Ti18  1  0.79381513  0.00457518  0.23268454  1
  Ti  Ti19  1  0.77159141  0.11769035  0.52612377  1
  Ti  Ti20  1  0.76711832  0.09295962  0.89564112  1
  Ti  Ti21  1  0.71992138  0.42949857  0.28880137  1
  Ti  Ti22  1  0.79178231  0.42838851  0.58360214  1
  Ti  Ti23  1  0.66573116  0.39875547  0.90271909  1
  Ti  Ti24  1  0.76912711  0.76935402  0.23063251  1
  Ti  Ti25  1  0.70358225  0.75152545  0.61967186  1
  Ti  Ti26  1  0.77784855  0.72281981  0.92140066  1
  Ti  Ti27  1  0.12378162  0.34206770  0.05871728  1
  Ti  Ti28  1  0.09968777  0.25242686  0.38535396  1
  Ti  Ti29  1  0.06615169  0.31771429  0.75724197  1
  Ti  Ti30  1  0.03225887  0.60096886  0.13840915  1
  Ti  Ti31  1  0.07642756  0.64272012  0.37709954  1
  Ti  Ti32  1  0.14338685  0.58061777  0.70236784  1
  Ti  Ti33  1  0.18991398  0.86970385  0.04618787  1
  Ti  Ti34  1  0.02961928  0.93028753  0.40935358  1
  Ti  Ti35  1  0.03572654  0.99766997  0.77608377  1
  Ti  Ti36  1  0.46511016  0.22426491  0.08550600  1
  Ti  Ti37  1  0.38717774  0.19826159  0.45561638  1
  Ti  Ti38  1  0.36420804  0.31901396  0.72740373  1
  Ti  Ti39  1  0.36758319  0.54508180  0.01839389  1
  Ti  Ti40  1  0.49399473  0.63586642  0.41822586  1
  Ti  Ti41  1  0.40531553  0.54078777  0.81437125  1
  Ti  Ti42  1  0.37909233  0.94376414  0.06177921  1
  Ti  Ti43  1  0.36180197  0.84620060  0.34852774  1
  Ti  Ti44  1  0.37482363  0.96315084  0.78708612  1
  Ti  Ti45  1  0.78398035  0.27663181  0.09896926  1
  Ti  Ti46  1  0.66962696  0.23730524  0.40624078  1
  Ti  Ti47  1  0.73521307  0.25762317  0.75955950  1
  Ti  Ti48  1  0.79916293  0.50110843  0.09967576  1
  Ti  Ti49  1  0.69349305  0.58566336  0.48821661  1
  Ti  Ti50  1  0.74166631  0.58041913  0.77881401  1
  Ti  Ti51  1  0.71732891  0.86724850  0.08127601  1
  Ti  Ti52  1  0.71690967  0.97334847  0.42446664  1
  Ti  Ti53  1  0.79786767  0.84641094  0.76517521  1
  Ti  Ti54  1  0.19028278  0.05802923  0.09257829  1
  Ti  Ti55  1  0.29535602  0.02363503  0.41126413  1
  Ti  Ti56  1  0.20864771  0.01750725  0.71567600  1
  Ti  Ti57  1  0.32483530  0.39598876  0.13699673  1
  Ti  Ti58  1  0.28713665  0.37319408  0.35711938  1
  Ti  Ti59  1  0.23808665  0.42891580  0.79793343  1
  Ti  Ti60  1  0.36690199  0.73990462  0.02445411  1
  Ti  Ti61  1  0.24603805  0.72554721  0.42644343  1
  Ti  Ti62  1  0.19273864  0.84541216  0.79994593  1
  Ti  Ti63  1  0.59273320  0.01929225  0.15882715  1
  Ti  Ti64  1  0.54745553  0.08417468  0.48014328  1
  Ti  Ti65  1  0.51950118  0.04054971  0.67445271  1
  Ti  Ti66  1  0.52836300  0.41719487  0.08786972  1
  Ti  Ti67  1  0.50654216  0.36924820  0.37363017  1
  Ti  Ti68  1  0.64645819  0.42412264  0.70076950  1
  Ti  Ti69  1  0.59067525  0.72627399  0.04817465  1
  Ti  Ti70  1  0.65531588  0.76807905  0.39888225  1
  Ti  Ti71  1  0.55683658  0.69849865  0.76369144  1
  Ti  Ti72  1  0.89834230  0.09483172  0.09138700  1
  Ti  Ti73  1  0.95051020  0.15542483  0.44746309  1
  Ti  Ti74  1  0.93714287  0.16525882  0.78289072  1
  Ti  Ti75  1  0.96253128  0.44158353  0.03328247  1
  Ti  Ti76  1  0.92147627  0.34867630  0.35251552  1
  Ti  Ti77  1  0.94182080  0.49991068  0.68975565  1
  Ti  Ti78  1  0.89509254  0.76616345  0.06923364  1
  Ti  Ti79  1  0.90463695  0.72294533  0.35456149  1
  Ti  Ti80  1  0.99316816  0.79966787  0.76870988  1
  Ti  Ti81  1  0.21546234  0.23418787  0.19332553  1
  Ti  Ti82  1  0.22844412  0.26598500  0.58797971  1
  Ti  Ti83  1  0.21209645  0.17731440  0.83655333  1
  Ti  Ti84  1  0.21243309  0.55642914  0.21862487  1
  Ti  Ti85  1  0.23961823  0.49859620  0.52865927  1
  Ti  Ti86  1  0.22883784  0.60128602  0.90836446  1
  Ti  Ti87  1  0.26790833  0.94689455  0.22461806  1
  Ti  Ti88  1  0.19080438  0.91592049  0.53011871  1
  Ti  Ti89  1  0.32639548  1.08742481  0.95267963  1
  Ti  Ti90  1  0.61408797  0.24622795  0.20671101  1
  Ti  Ti91  1  0.54902159  0.26498337  0.68596244  1
  Ti  Ti92  1  0.57798571  0.20386013  0.91386064  1
  Ti  Ti93  1  0.62902528  0.63009749  0.24591244  1
  Ti  Ti94  1  0.54647612  0.47714411  0.53489699  1
  Ti  Ti95  1  0.64457701  0.57374256  0.95882331  1
  Ti  Ti96  1  0.54111783  0.92182209  0.34483167  1
  Ti  Ti97  1  0.68883801  0.96485576  0.63462805  1
  Ti  Ti98  1  0.61694567  0.97536117  0.95945399  1
  Ti  Ti99  1  0.91291418  0.19781496  0.24333220  1
  Ti  Ti100  1  0.87007300  0.24248195  0.61095642  1
  Ti  Ti101  1  0.85033927  0.32591752  0.91273431  1
  Ti  Ti102  1  0.91550971  0.52810758  0.29185169  1
  Ti  Ti103  1  0.91203209  0.59021446  0.50141665  1
  Ti  Ti104  1  0.95036805  0.61350765  0.85567000  1
  Ti  Ti105  1  0.95262825  0.89138409  0.22958111  1
  Ti  Ti106  1  0.92335407  0.91910879  0.61942086  1
  Ti  Ti107  1  0.92599313  0.94760762  0.94075562  1
  Co  Co108  1  0.82552671  0.46338008  0.42642784  1
  Co  Co109  1  0.57153590  0.53522604  0.80542616  1
  Co  Co110  1  0.66960044  0.39810729  0.46033300  1
  Co  Co111  1  0.59433085  0.51208070  0.36094829  1
  Co  Co112  1  -0.08004157  0.83138056  0.47442333  1
  Co  Co113  1  0.30155146  0.15111903  0.69570900  1
  Co  Co114  1  0.77201180  0.27602795  0.27842276  1
  Co  Co115  1  0.03607397  0.84185368  0.08780249  1
  Co  Co116  1  0.79108150  0.42490645  0.78051177  1
  Co  Co117  1  0.22109392  0.75887292  -0.07122818  1
  Co  Co118  1  0.31455625  0.79593161  0.16865023  1
  Co  Co119  1  0.81670643  0.28454920  0.45586905  1
  Co  Co120  1  0.10834040  -0.07015525  0.21296209  1
  Co  Co121  1  0.17072123  0.19062246  0.00275552  1
  Co  Co122  1  -0.09309382  0.33129624  0.73038592  1
  Co  Co123  1  0.18446925  0.39369085  0.22922414  1
  Co  Co124  1  0.18165872  0.31643145  0.89857186  1
  Co  Co125  1  0.03653200  0.45411932  0.19781427  1
  Co  Co126  1  0.74212528  0.66926742  0.07488712  1
  Co  Co127  1  0.16241188  0.64607387  0.53444849  1
  Co  Co128  1  0.03359196  0.00201680  0.08378424  1
  Co  Co129  1  0.87101122  -0.07440970  0.09255421  1
  Co  Co130  1  0.14713408  0.51397877  0.06858025  1
  Co  Co131  1  0.79155881  0.72270696  0.47605630  1
  Co  Co132  1  0.49660461  0.64940376  0.92261453  1
  Co  Co133  1  0.74892645  0.02928871  0.05222079  1
  Co  Co134  1  0.24390114  0.20551429  0.39326175  1
  Co  Co135  1  0.88457233  0.37983414  0.19094358  1
  Co  Co136  1  0.09633929  0.89179475  0.65850600  1
  Co  Co137  1  0.02223276  0.29401318  0.91943770  1
  Co  Co138  1  0.68454550  -0.09475224  0.27699784  1
  Co  Co139  1  0.25679220  0.10071759  0.27063452  1
  Co  Co140  1  0.77666122  0.90451317  -0.07046226  1
  Co  Co141  1  0.20688770  0.67945503  0.08146592  1
  Co  Co142  1  0.69629637  0.29199782  0.58696093  1
  Co  Co143  1  0.56215588  0.70480453  0.55985906  1
  Co  Co144  1  -0.00595722  0.65251513  0.67121728  1
  Co  Co145  1  0.31965740  0.89104522  0.91939184  1
  Co  Co146  1  0.05647485  0.23499471  0.56192521  1
  Co  Co147  1  0.63442038  0.14006608  0.05809467  1
  Co  Co148  1  0.87970567  0.75924644  0.61253439  1
  Co  Co149  1  0.10016354  0.68711336  0.81903312  1
  Co  Co150  1  0.43325826  0.18584929  0.61119057  1
  Co  Co151  1  0.82766892  0.87539611  0.35367048  1
  Co  Co152  1  0.85056709  0.69358320  0.75497433  1
  Co  Co153  1  0.22237007  0.11132363  0.54478894  1
  Co  Co154  1  -0.05649298  0.28367421  0.06978688  1
  Co  Co155  1  0.80230465  0.60937544  0.62086880  1
  Co  Co156  1  0.48201936  0.79192837  0.44353439  1
  Co  Co157  1  0.22099150  0.56068831  0.38377387  1
  Co  Co158  1  0.55091085  0.88994773  0.75202681  1
  Co  Co159  1  -0.08383645  0.08444562  0.62590206  1
  Co  Co160  1  0.80319064  0.13354988  0.36152721  1
  Co  Co161  1  0.74071605  0.14413174  0.18781834  1
  Ni  Ni162  1  0.77316285  0.10524190  0.70293125  1
  Ni  Ni163  1  0.05503624  0.17187802  0.11618136  1
  Ni  Ni164  1  0.51079906  0.02760633  0.84991827  1
  Ni  Ni165  1  0.13629232  0.37163134  0.49592054  1
  Ni  Ni166  1  0.48396212  0.07249225  0.01370168  1
  Ni  Ni167  1  0.05920799  0.52534904  0.54737537  1
  Ni  Ni168  1  0.81127483  0.50870857  -0.07328708  1
  Ni  Ni169  1  0.68803197  -0.02716345  0.80174493  1
  Ni  Ni170  1  0.32066806  0.47957185  0.66867413  1
  Ni  Ni171  1  -0.05198121  0.44009652  0.84762164  1
  Ni  Ni172  1  0.36136220  0.70663421  -0.14817174  1
  Ni  Ni173  1  0.35031172  0.63583369  0.32698730  1
  Ni  Ni174  1  0.13838844  0.42040477  0.65379039  1
  Ni  Ni175  1  0.53000654  0.87944217  0.06701769  1
  Ni  Ni176  1  0.29377316  -0.12564293  0.66737374  1
  Ni  Ni177  1  -0.06837050  0.03814127  0.31986974  1
  Ni  Ni178  1  0.44593435  -0.09828533  0.20833543  1
  Ni  Ni179  1  0.64452622  0.52435578  0.12831863  1
  Ni  Ni180  1  0.18337810  0.87820435  0.36026470  1
  Ni  Ni181  1  0.36376307  0.22866307  0.27462292  1
  Ni  Ni182  1  0.07014228  0.86878885  0.91701108  1
  Ni  Ni183  1  0.54109450  0.27292015  0.51222695  1
  Ni  Ni184  1  0.33608702  0.83907677  0.51611299  1
  Ni  Ni185  1  0.47828543  0.44375583  0.68920285  1
  Ni  Ni186  1  -0.00170054  0.73307784  0.22150775  1
  Ni  Ni187  1  0.86699403  -0.00345925  0.77637405  1
  Ni  Ni188  1  0.88059341  -0.00249181  0.47239791  1
  Ni  Ni189  1  0.50129817  0.59878417  0.09903167  1
  Ni  Ni190  1  0.39022520  0.49672907  0.42686451  1
  Ni  Ni191  1  0.30426272  0.25878638  0.03583601  1
  Ni  Ni192  1  0.59594281  0.80425220  0.20168056  1
  Ni  Ni193  1  0.25510763  0.43370763  0.97639046  1
  Ni  Ni194  1  0.04793184  0.29617820  0.22710541  1
  Ni  Ni195  1  0.51689476  0.19407749  0.33855782  1
  Ni  Ni196  1  0.63494029  0.14300228  0.60810822  1
  Ni  Ni197  1  0.18735744  0.00115777  0.89476474  1
  Ni  Ni198  1  -0.09639764  0.61297799  0.01696267  1
  Ni  Ni199  1  0.85963376  0.63713666  0.18645567  1
  Ni  Ni200  1  0.62572720  0.12433920  0.77684765  1
  Ni  Ni201  1  0.46284971  0.34031074  0.22072450  1
  Ni  Ni202  1  0.63229820  0.30227239  0.03762917  1
  Ni  Ni203  1  0.76857404  0.61232332  0.33992710  1
  Ni  Ni204  1  0.44601920  -0.04496148  0.47703811  1
  Ni  Ni205  1  0.52192627  0.35628053  0.82611689  1
  Ni  Ni206  1  0.62611869  0.58551943  0.65112928  1
  Ni  Ni207  1  0.13146056  0.07075846  0.41659357  1
  Ni  Ni208  1  0.34760717  0.62711251  0.16054774  1
  Ni  Ni209  1  0.90019966  0.17507404  -0.05127562  1
  Ni  Ni210  1  0.60139981  0.88167110  0.51625603  1
  Ni  Ni211  1  0.50211686  0.47963432  -0.05952584  1
  Ni  Ni212  1  0.12659563  0.16688719  0.69329782  1
  Ni  Ni213  1  0.35057321  0.11095086  0.12758900  1
  Ni  Ni214  1  0.64914005  0.81042536  0.86347631  1
