# generated using pymatgen
data_Ti108Co54Ni53
_symmetry_space_group_name_H-M   'P 1'
_cell_length_a   14.65780138
_cell_length_b   14.63695693
_cell_length_c   14.65925868
_cell_angle_alpha   90.16619979
_cell_angle_beta   90.03438745
_cell_angle_gamma   90.04894372
_symmetry_Int_Tables_number   1
_chemical_formula_structural   Ti108Co54Ni53
_chemical_formula_sum   'Ti108 Co54 Ni53'
_cell_volume   3145.06460860
_cell_formula_units_Z   1
loop_
 _symmetry_equiv_pos_site_id
 _symmetry_equiv_pos_as_xyz
  1  'x, y, z'
loop_
 _atom_site_type_symbol
 _atom_site_label
 _atom_site_symmetry_multiplicity
 _atom_site_fract_x
 _atom_site_fract_y
 _atom_site_fract_z
 _atom_site_occupancy
  Ti  Ti0  1  0.03539121  0.07419940  0.31948769  1
  Ti  Ti1  1  0.01954721  0.05051196  0.58597700  1
  Ti  Ti2  1  0.01521951  0.06281563  0.91788547  1
  Ti  Ti3  1  0.08410042  0.38203701  0.29046785  1
  Ti  Ti4  1  0.11000096  0.45451967  0.59664921  1
  Ti  Ti5  1  0.09423761  0.47555223  0.86278814  1
  Ti  Ti6  1  0.09360637  0.70528890  0.25440702  1
  Ti  Ti7  1  0.08750042  0.76030988  0.55487823  1
  Ti  Ti8  1  0.15849493  0.72978087  0.86293937  1
  Ti  Ti9  1  0.32593175  0.13305095  0.26315100  1
  Ti  Ti10  1  0.41410439  0.10621956  0.62048580  1
  Ti  Ti11  1  0.38847837  0.12763670  0.91578753  1
  Ti  Ti12  1  0.40629566  0.38167602  0.18777386  1
  Ti  Ti13  1  0.45540863  0.46520630  0.57666769  1
  Ti  Ti14  1  0.28600880  0.43566637  0.89823228  1
  Ti  Ti15  1  0.33819582  0.72137189  0.26193662  1
  Ti  Ti16  1  0.40792423  0.75032302  0.56752793  1
  Ti  Ti17  1  0.33409011  0.81879545  0.93240804  1
  Ti  Ti18  1  0.74801955  0.04825743  0.19086475  1
  Ti  Ti19  1  0.71829849  0.05851471  0.63099263  1
  Ti  Ti20  1  0.71931250  0.06803764  0.99533049  1
  Ti  Ti21  1  0.62522355  0.38879070  0.23792374  1
  Ti  Ti22  1  0.78316786  0.42215138  0.58314993  1
  Ti  Ti23  1  0.78801734  0.39862180  0.93588899  1
  Ti  Ti24  1  0.77248391  0.74973226  0.21991630  1
  Ti  Ti25  1  0.75779766  0.72573220  0.61078417  1
  Ti  Ti26  1  0.75234910  0.75818745  0.91996162  1
  Ti  Ti27  1  0.13436320  0.20288205  0.18186484  1
  Ti  Ti28  1  0.13095438  0.21832006  0.42182218  1
  Ti  Ti29  1  0.08146123  0.28900723  0.74082805  1
  Ti  Ti30  1  0.04054750  0.57644679  0.09669852  1
  Ti  Ti31  1  0.03276264  0.58654324  0.43022408  1
  Ti  Ti32  1  0.13444022  0.62377412  0.71250875  1
  Ti  Ti33  1  0.12176822  0.91673262  0.14191733  1
  Ti  Ti34  1  0.12397939  0.93817210  0.43615471  1
  Ti  Ti35  1  0.11979849  0.98300213  0.76130677  1
  Ti  Ti36  1  0.43695976  0.19052304  0.09001708  1
  Ti  Ti37  1  0.42410314  0.19394308  0.42153946  1
  Ti  Ti38  1  0.51935518  0.29841627  0.66679855  1
  Ti  Ti39  1  0.48748731  0.62532289  0.08102494  1
  Ti  Ti40  1  0.41006193  0.53336298  0.35974023  1
  Ti  Ti41  1  0.48999853  0.63578606  0.69228661  1
  Ti  Ti42  1  0.37617112  0.87506712  0.12327517  1
  Ti  Ti43  1  0.40920012  0.86659751  0.42294189  1
  Ti  Ti44  1  0.37934023  0.98129300  0.77707899  1
  Ti  Ti45  1  0.71888155  0.26278010  0.06729979  1
  Ti  Ti46  1  0.72508894  0.31101259  0.40637115  1
  Ti  Ti47  1  0.70535092  0.25453494  0.66344538  1
  Ti  Ti48  1  0.71218049  0.59216957  0.03284024  1
  Ti  Ti49  1  0.73729511  0.66399660  0.38605196  1
  Ti  Ti50  1  0.67323772  0.56440293  0.71644343  1
  Ti  Ti51  1  0.80114321  0.88688881  0.06477963  1
  Ti  Ti52  1  0.77702504  0.91932532  0.34753846  1
  Ti  Ti53  1  0.69399368  0.89497644  0.72941159  1
  Ti  Ti54  1  0.25639860  0.07370914  0.07950710  1
  Ti  Ti55  1  0.33033257  0.02279320  0.47246552  1
  Ti  Ti56  1  0.22430131  0.13391741  0.72506425  1
  Ti  Ti57  1  0.29348729  0.50788081  0.07557338  1
  Ti  Ti58  1  0.32062863  0.38558013  0.46819043  1
  Ti  Ti59  1  0.37284262  0.37983565  0.74429681  1
  Ti  Ti60  1  0.18288550  0.72805730  0.04523650  1
  Ti  Ti61  1  0.22629928  0.68903103  0.42241372  1
  Ti  Ti62  1  0.32483139  0.73678187  0.75627993  1
  Ti  Ti63  1  0.52547929  0.00931330  0.00631416  1
  Ti  Ti64  1  0.59976018  0.07873582  0.35567014  1
  Ti  Ti65  1  0.67366720  0.08344049  0.81854160  1
  Ti  Ti66  1  0.56164016  0.44813024  0.06259238  1
  Ti  Ti67  1  0.57187137  0.44103589  0.41899633  1
  Ti  Ti68  1  0.65694055  0.39838785  0.80022516  1
  Ti  Ti69  1  0.57767766  0.77645239  0.14254951  1
  Ti  Ti70  1  0.56564074  0.74602465  0.42090727  1
  Ti  Ti71  1  0.62640006  0.73325697  0.78655215  1
  Ti  Ti72  1  0.89839273  0.07744424  0.06952759  1
  Ti  Ti73  1  0.86911983  0.05985929  0.45757322  1
  Ti  Ti74  1  0.89300420  0.01529432  0.72847349  1
  Ti  Ti75  1  0.91293616  0.43609119  0.18556488  1
  Ti  Ti76  1  0.88787090  0.44540121  0.38216236  1
  Ti  Ti77  1  0.93724507  0.42292484  0.71299564  1
  Ti  Ti78  1  0.89804132  0.71186435  0.08238573  1
  Ti  Ti79  1  0.88682377  0.76475289  0.43951424  1
  Ti  Ti80  1  0.97200306  0.73100697  0.77955917  1
  Ti  Ti81  1  0.26656083  0.30749868  0.30772224  1
  Ti  Ti82  1  0.23061866  0.30556910  0.61926345  1
  Ti  Ti83  1  0.23449164  0.23395126  0.97089680  1
  Ti  Ti84  1  0.23912737  0.50332783  0.27077548  1
  Ti  Ti85  1  0.30359017  0.54942454  0.66307780  1
  Ti  Ti86  1  0.34306735  0.63161228  0.94181193  1
  Ti  Ti87  1  0.28735377  0.94393010  0.27954705  1
  Ti  Ti88  1  0.27045017  0.90161802  0.63505100  1
  Ti  Ti89  1  0.17157434  0.94561020  0.95630315  1
  Ti  Ti90  1  0.67271249  0.21188154  0.24101526  1
  Ti  Ti91  1  0.58687446  0.16000413  0.52977416  1
  Ti  Ti92  1  0.54075760  0.25076021  0.84671036  1
  Ti  Ti93  1  0.65506622  0.58847737  0.21561438  1
  Ti  Ti94  1  0.64641752  0.58451897  0.54035439  1
  Ti  Ti95  1  0.55775319  0.57038537  0.89197721  1
  Ti  Ti96  1  0.54939630  0.97220827  0.19875269  1
  Ti  Ti97  1  0.58818695  0.89962649  0.55691318  1
  Ti  Ti98  1  0.53753949  0.89398015  0.86015768  1
  Ti  Ti99  1  0.89925888  0.23580910  0.32233995  1
  Ti  Ti100  1  0.90638063  0.21853219  0.63672465  1
  Ti  Ti101  1  0.91439628  0.25124282  0.84582409  1
  Ti  Ti102  1  0.90640464  0.61855495  0.28346375  1
  Ti  Ti103  1  0.97257324  0.59920931  0.61582359  1
  Ti  Ti104  1  0.88813213  0.59754156  0.91098708  1
  Ti  Ti105  1  0.93488976  0.92904116  0.19315750  1
  Ti  Ti106  1  0.82108575  0.90635343  0.56943290  1
  Ti  Ti107  1  0.85889841  0.93592592  0.89242349  1
  Co  Co108  1  0.06891819  0.06172326  0.08636140  1
  Co  Co109  1  0.42311218  -0.06890546  0.59661019  1
  Co  Co110  1  0.69604173  0.00898782  0.47401263  1
  Co  Co111  1  0.25456763  0.84563920  0.48457699  1
  Co  Co112  1  0.51391180  0.50498830  0.23431494  1
  Co  Co113  1  0.48762758  0.60992257  0.51864913  1
  Co  Co114  1  0.73725912  0.43605690  0.10578616  1
  Co  Co115  1  -0.02604329  -0.07297760  0.03066350  1
  Co  Co116  1  0.51132103  0.07063886  0.83408068  1
  Co  Co117  1  0.55024955  -0.01254065  0.69162890  1
  Co  Co118  1  0.58246873  0.16552970  -0.03079297  1
  Co  Co119  1  0.57105915  0.14749078  0.70050577  1
  Co  Co120  1  -0.02814939  0.89469987  0.52147551  1
  Co  Co121  1  0.19973669  0.43613429  0.73849044  1
  Co  Co122  1  0.55965319  0.28808302  0.11711625  1
  Co  Co123  1  0.47571344  0.82157060  0.00649597  1
  Co  Co124  1  -0.05831420  0.45549816  0.53835910  1
  Co  Co125  1  0.02372302  0.31987754  0.57831906  1
  Co  Co126  1  0.71467036  0.82056778  0.46138188  1
  Co  Co127  1  0.40946386  0.69226563  0.40593709  1
  Co  Co128  1  0.69905610  0.91647118  0.89247757  1
  Co  Co129  1  0.79516978  0.32574955  0.23431046  1
  Co  Co130  1  0.75329237  0.12841669  0.35924391  1
  Co  Co131  1  0.58582738  0.59088123  0.37263834  1
  Co  Co132  1  0.00422023  0.34157757  0.42125131  1
  Co  Co133  1  0.04856471  0.53598338  0.26636427  1
  Co  Co134  1  0.82059337  0.56510969  0.64490668  1
  Co  Co135  1  0.27779829  0.18924263  0.49065691  1
  Co  Co136  1  0.24538386  0.06354019  0.87637058  1
  Co  Co137  1  0.03265144  0.65548152  -0.05000910  1
  Co  Co138  1  0.34987261  0.71070705  0.09002639  1
  Co  Co139  1  0.49467736  0.15944850  0.25054739  1
  Co  Co140  1  0.37602861  0.57355650  0.19457566  1
  Co  Co141  1  0.72679104  0.23500667  0.88369841  1
  Co  Co142  1  0.62263474  0.34417920  -0.03972982  1
  Co  Co143  1  0.59679200  0.73495462  0.60946415  1
  Co  Co144  1  0.24955239  0.89219197  0.81288564  1
  Co  Co145  1  -0.00762085  0.56476240  0.78404011  1
  Co  Co146  1  0.57632081  0.25857545  0.36309117  1
  Co  Co147  1  0.80691621  0.33883636  0.75842414  1
  Co  Co148  1  0.22952886  0.80260081  0.17729260  1
  Co  Co149  1  0.50235015  0.02383007  0.48417693  1
  Co  Co150  1  0.24137770  0.57932618  0.82127931  1
  Co  Co151  1  0.15467081  0.60161006  0.55189892  1
  Co  Co152  1  0.16097722  0.36596991  0.45900876  1
  Co  Co153  1  0.03207230  0.77502004  0.12169397  1
  Co  Co154  1  0.85276116  0.09842300  0.88985259  1
  Co  Co155  1  0.87668653  0.05731799  0.28580132  1
  Co  Co156  1  0.29091149  0.24296562  0.13861115  1
  Co  Co157  1  0.40908358  0.03826409  0.15017266  1
  Co  Co158  1  0.80770025  0.16477852  0.75331026  1
  Co  Co159  1  0.82391554  0.58229415  0.15040308  1
  Co  Co160  1  0.16666629  0.04748455  0.22860827  1
  Co  Co161  1  0.38238659  0.27256129  0.58855035  1
  Ni  Ni162  1  0.62006686  0.41553914  0.59949115  1
  Ni  Ni163  1  0.59948757  0.11687398  0.12314595  1
  Ni  Ni164  1  0.46733069  0.72149584  0.85547555  1
  Ni  Ni165  1  0.25056721  0.72044239  0.60601857  1
  Ni  Ni166  1  0.40265924  0.55313382  0.80964824  1
  Ni  Ni167  1  0.10862724  0.18761873  0.60114712  1
  Ni  Ni168  1  0.86674210  0.30080546  0.49549551  1
  Ni  Ni169  1  0.50393478  0.67199387  0.25687712  1
  Ni  Ni170  1  0.52229951  0.46943290  0.73564570  1
  Ni  Ni171  1  0.75810718  0.17711598  0.51525103  1
  Ni  Ni172  1  0.44068444  0.00758664  0.32449877  1
  Ni  Ni173  1  0.21254140  0.37930050  0.15725174  1
  Ni  Ni174  1  0.10878020  -0.08320182  0.60653907  1
  Ni  Ni175  1  -0.07640211  0.75574424  0.60835716  1
  Ni  Ni176  1  0.49030182  0.82589452  0.71285784  1
  Ni  Ni177  1  0.51196022  0.31543871  0.50128588  1
  Ni  Ni178  1  0.63546812  -0.11328746  0.03323488  1
  Ni  Ni179  1  0.44042330  0.35635756  0.34650165  1
  Ni  Ni180  1  0.19098344  0.82328881  0.33264292  1
  Ni  Ni181  1  0.69452459  0.89194997  0.19956186  1
  Ni  Ni182  1  0.47019610  0.83624575  0.27197924  1
  Ni  Ni183  1  0.37986638  0.29032433  0.88728161  1
  Ni  Ni184  1  -0.01820790  0.18112022  0.47878913  1
  Ni  Ni185  1  0.93263581  0.78427759  0.26874859  1
  Ni  Ni186  1  0.46734375  0.42990570  -0.08742430  1
  Ni  Ni187  1  0.32036558  0.57551833  0.50066774  1
  Ni  Ni188  1  0.06817819  0.81951936  -0.03179638  1
  Ni  Ni189  1  0.01849615  0.12964272  0.75203508  1
  Ni  Ni190  1  0.23699982  0.28811692  0.80682913  1
  Ni  Ni191  1  0.72837933  0.55960273  0.87055574  1
  Ni  Ni192  1  0.17474390  0.56982115  -0.02599459  1
  Ni  Ni193  1  0.85750116  0.22019176  -0.00557210  1
  Ni  Ni194  1  0.85866968  0.59387806  0.48181455  1
  Ni  Ni195  1  0.76995159  0.48251298  0.26802234  1
  Ni  Ni196  1  0.91670800  0.78248633  -0.06490113  1
  Ni  Ni197  1  0.59677474  0.71951853  -0.02779090  1
  Ni  Ni198  1  0.72952724  0.49416679  0.42448171  1
  Ni  Ni199  1  0.38066473  0.19829039  0.75070922  1
  Ni  Ni200  1  0.18141328  0.51568601  0.41629278  1
  Ni  Ni201  1  0.35763846  0.35251410  0.03144703  1
  Ni  Ni202  1  0.13804732  0.80214312  0.71847999  1
  Ni  Ni203  1  0.79958925  0.68232773  0.77167842  1
  Ni  Ni204  1  0.85276124  0.84398118  0.73173069  1
  Ni  Ni205  1  0.59030583  -0.09023387  0.37040243  1
  Ni  Ni206  1  0.00713784  0.88977297  0.82842815  1
  Ni  Ni207  1  0.19587449  0.05374311  0.56689385  1
  Ni  Ni208  1  0.20596923  0.07818325  0.38239441  1
  Ni  Ni209  1  -0.02895512  0.15873666  0.19040543  1
  Ni  Ni210  1  0.21722712  0.62853243  0.16832806  1
  Ni  Ni211  1  0.36125048  -0.02604752  -0.02028211  1
  Ni  Ni212  1  -0.04680809  -0.07266064  0.36614904  1
  Ni  Ni213  1  0.04291489  0.78560789  0.39381428  1
  Ni  Ni214  1  0.88891515  0.49148233  0.03310712  1
