# generated using pymatgen
data_Ti108Co54Ni53
_symmetry_space_group_name_H-M   'P 1'
_cell_length_a   14.67969398
_cell_length_b   14.69890229
_cell_length_c   14.71118159
_cell_angle_alpha   89.73769125
_cell_angle_beta   90.35563914
_cell_angle_gamma   90.02233357
_symmetry_Int_Tables_number   1
_chemical_formula_structural   Ti108Co54Ni53
_chemical_formula_sum   'Ti108 Co54 Ni53'
_cell_volume   3174.21628566
_cell_formula_units_Z   1
loop_
 _symmetry_equiv_pos_site_id
 _symmetry_equiv_pos_as_xyz
  1  'x, y, z'
loop_
 _atom_site_type_symbol
 _atom_site_label
 _atom_site_symmetry_multiplicity
 _atom_site_fract_x
 _atom_site_fract_y
 _atom_site_fract_z
 _atom_site_occupancy
  Ti  Ti0  1  0.13467726  0.05829488  0.28861816  1
  Ti  Ti1  1  0.01793694  0.13765971  0.58106754  1
  Ti  Ti2  1  0.11672301  0.09735702  0.95125341  1
  Ti  Ti3  1  0.09457715  0.46130362  0.24539247  1
  Ti  Ti4  1  0.06125246  0.43684235  0.55725316  1
  Ti  Ti5  1  0.15392234  0.44464566  0.84589197  1
  Ti  Ti6  1  0.14083397  0.76737953  0.30756722  1
  Ti  Ti7  1  0.02460246  0.76332143  0.60469933  1
  Ti  Ti8  1  0.10020967  0.73603062  0.93890379  1
  Ti  Ti9  1  0.44383785  0.06539744  0.27240332  1
  Ti  Ti10  1  0.37819562  0.11828249  0.57330571  1
  Ti  Ti11  1  0.33689861  0.04177635  0.94978362  1
  Ti  Ti12  1  0.46137520  0.38057251  0.14634994  1
  Ti  Ti13  1  0.40757860  0.33758594  0.55425419  1
  Ti  Ti14  1  0.34379301  0.48909178  0.88063246  1
  Ti  Ti15  1  0.45942870  0.79989558  0.23328338  1
  Ti  Ti16  1  0.39137180  0.80125617  0.55845073  1
  Ti  Ti17  1  0.39771064  0.68351731  0.93206498  1
  Ti  Ti18  1  0.70092561  0.04952120  0.28095818  1
  Ti  Ti19  1  0.69013427  0.03496327  0.59526574  1
  Ti  Ti20  1  0.82997486  -0.01023887  1.01068315  1
  Ti  Ti21  1  0.78118633  0.47005127  0.21136240  1
  Ti  Ti22  1  0.72129264  0.46298232  0.53736085  1
  Ti  Ti23  1  0.74039325  0.36650402  0.93395069  1
  Ti  Ti24  1  0.80765266  0.73415525  0.22651506  1
  Ti  Ti25  1  0.72193712  0.68463988  0.55057457  1
  Ti  Ti26  1  0.75137336  0.71540230  0.96078071  1
  Ti  Ti27  1  0.03893542  0.23639451  0.05868552  1
  Ti  Ti28  1  0.17528156  0.39152404  0.40153233  1
  Ti  Ti29  1  0.06391682  0.27440395  0.76700789  1
  Ti  Ti30  1  0.06110489  0.56548722  0.05646095  1
  Ti  Ti31  1  0.03260142  0.65531205  0.41677826  1
  Ti  Ti32  1  0.09941598  0.58503028  0.70203609  1
  Ti  Ti33  1  0.02650631  0.95332095  0.08841912  1
  Ti  Ti34  1  0.04435300  0.95924055  0.49395181  1
  Ti  Ti35  1  0.03721056  0.88845805  0.77769694  1
  Ti  Ti36  1  0.36738167  0.23069605  0.13536534  1
  Ti  Ti37  1  0.43400903  0.26490231  0.31301286  1
  Ti  Ti38  1  0.47085107  0.24604457  0.70116402  1
  Ti  Ti39  1  0.41132299  0.53388881  0.05722503  1
  Ti  Ti40  1  0.44229634  0.59978193  0.47054692  1
  Ti  Ti41  1  0.44909098  0.59346890  0.75437314  1
  Ti  Ti42  1  0.39286705  0.93827226  0.11481579  1
  Ti  Ti43  1  0.40634047  0.96395347  0.43599335  1
  Ti  Ti44  1  0.36949287  0.79259380  0.75244036  1
  Ti  Ti45  1  0.83697997  0.20443811  0.03735114  1
  Ti  Ti46  1  0.71760914  0.24976163  0.37235642  1
  Ti  Ti47  1  0.85507978  0.27240214  0.70917224  1
  Ti  Ti48  1  0.72876889  0.52451245  0.03552563  1
  Ti  Ti49  1  0.83042535  0.58065832  0.38430422  1
  Ti  Ti50  1  0.75968214  0.55427044  0.70452339  1
  Ti  Ti51  1  0.68114619  0.86286268  0.12187355  1
  Ti  Ti52  1  0.74589191  0.86482252  0.49034301  1
  Ti  Ti53  1  0.80172352  0.82910128  0.72235182  1
  Ti  Ti54  1  0.27574552  0.08023877  0.14474667  1
  Ti  Ti55  1  0.24614954  0.09441165  0.42985980  1
  Ti  Ti56  1  0.26974199  0.04365902  0.72926493  1
  Ti  Ti57  1  0.26540128  0.42325594  0.14425735  1
  Ti  Ti58  1  0.36398388  0.44723203  0.39065054  1
  Ti  Ti59  1  0.28843483  0.33647475  0.73542481  1
  Ti  Ti60  1  0.25551672  0.81743062  0.03275765  1
  Ti  Ti61  1  0.26430393  0.69005997  0.43788739  1
  Ti  Ti62  1  0.22166013  0.71625736  0.62497665  1
  Ti  Ti63  1  0.55905166  0.14568440  0.12888292  1
  Ti  Ti64  1  0.51839434  0.14802539  0.45064715  1
  Ti  Ti65  1  0.51310623  0.04994330  0.73007711  1
  Ti  Ti66  1  0.59429567  0.50386463  0.15963612  1
  Ti  Ti67  1  0.66049551  0.44886111  0.36211643  1
  Ti  Ti68  1  0.59486245  0.43736277  0.79476365  1
  Ti  Ti69  1  0.55245841  0.68476015  0.10416960  1
  Ti  Ti70  1  0.59118896  0.73117885  0.39219834  1
  Ti  Ti71  1  0.58395412  0.74294719  0.68451541  1
  Ti  Ti72  1  0.98419743  0.13297061  0.22469464  1
  Ti  Ti73  1  0.85597661  0.01865316  0.45750264  1
  Ti  Ti74  1  0.97588643  0.09371377  0.77438507  1
  Ti  Ti75  1  0.95288289  0.38094455  0.12779363  1
  Ti  Ti76  1  0.87493889  0.39258599  0.45191353  1
  Ti  Ti77  1  0.98061782  0.43324652  0.74780500  1
  Ti  Ti78  1  0.99057608  0.75523110  0.12652985  1
  Ti  Ti79  1  0.91366018  0.84262384  0.38219575  1
  Ti  Ti80  1  0.95843724  0.71430234  0.79109917  1
  Ti  Ti81  1  0.17402821  0.24451760  0.19948866  1
  Ti  Ti82  1  0.17320090  0.25554962  0.56027994  1
  Ti  Ti83  1  0.24300074  0.20482466  0.85776432  1
  Ti  Ti84  1  0.25174984  0.60245894  0.24860019  1
  Ti  Ti85  1  0.28805076  0.50696956  0.66433580  1
  Ti  Ti86  1  0.25269968  0.62605515  1.04983743  1
  Ti  Ti87  1  0.19427766  0.90581556  0.19199216  1
  Ti  Ti88  1  0.23095884  0.92481950  0.54262512  1
  Ti  Ti89  1  0.23591081  0.89711725  0.85950004  1
  Ti  Ti90  1  0.62631874  0.31465252  0.21216993  1
  Ti  Ti91  1  0.63129144  0.28166040  0.55134246  1
  Ti  Ti92  1  0.44232845  0.31171192  0.87408358  1
  Ti  Ti93  1  0.51005334  0.58938754  0.29160306  1
  Ti  Ti94  1  0.57080340  0.55068819  0.61863928  1
  Ti  Ti95  1  0.56863977  0.58917449  0.92854324  1
  Ti  Ti96  1  0.57814130  0.91093137  0.32424943  1
  Ti  Ti97  1  0.56805792  0.86725192  0.52667059  1
  Ti  Ti98  1  0.48847820  0.87340375  0.91285991  1
  Ti  Ti99  1  0.85357107  0.27147389  0.24515068  1
  Ti  Ti100  1  0.89681553  0.20409342  0.44636440  1
  Ti  Ti101  1  0.92710151  0.34202830  0.91516764  1
  Ti  Ti102  1  0.93572400  0.57246977  0.21301732  1
  Ti  Ti103  1  0.92536910  0.56764728  0.55854933  1
  Ti  Ti104  1  0.88674704  0.54264365  0.89505080  1
  Ti  Ti105  1  0.86457079  0.93976225  0.20985532  1
  Ti  Ti106  1  0.90033101  0.97869655  0.64427805  1
  Ti  Ti107  1  0.92318512  0.84764014  0.92813322  1
  Co  Co108  1  0.12129430  0.61232487  0.54169617  1
  Co  Co109  1  -0.02407791  -0.00165376  0.33593129  1
  Co  Co110  1  0.38046870  0.49986852  0.23630163  1
  Co  Co111  1  0.84397693  0.09143839  0.15305249  1
  Co  Co112  1  0.25328051  0.39247367  0.54676806  1
  Co  Co113  1  0.89776855  -0.14789265  0.55125252  1
  Co  Co114  1  0.75195032  0.72717690  0.38216737  1
  Co  Co115  1  0.50922662  0.42508651  0.30151634  1
  Co  Co116  1  0.38027174  0.67999774  0.32778536  1
  Co  Co117  1  0.66526280  -0.11370409  0.65893904  1
  Co  Co118  1  0.42756479  0.42471735  0.73564231  1
  Co  Co119  1  0.56438265  0.14716598  0.60647104  1
  Co  Co120  1  0.59013598  0.75573832  -0.02923967  1
  Co  Co121  1  0.39831831  0.64652420  0.16826818  1
  Co  Co122  1  0.14637519  0.40194003  0.68483758  1
  Co  Co123  1  0.58718757  0.16844216  0.29951979  1
  Co  Co124  1  -0.07833444  0.57463551  0.72354434  1
  Co  Co125  1  0.87372113  -0.04990696  0.80927072  1
  Co  Co126  1  0.53761121  0.70048255  0.54227452  1
  Co  Co127  1  0.87822646  0.71054856  0.47560934  1
  Co  Co128  1  0.72248103  0.18868434  0.18932243  1
  Co  Co129  1  0.40261866  0.76996838  0.06676343  1
  Co  Co130  1  0.09189863  0.89878907  -0.05080695  1
  Co  Co131  1  0.96104869  0.09530484  0.04746662  1
  Co  Co132  1  0.03872730  0.11858446  0.42050726  1
  Co  Co133  1  0.38220901  0.65118144  0.61801902  1
  Co  Co134  1  0.21908251  0.47453185  -0.00245326  1
  Co  Co135  1  0.19311475  0.08593938  0.57763010  1
  Co  Co136  1  0.04008854  0.58106031  0.85866013  1
  Co  Co137  1  0.79623046  0.67965969  0.80624181  1
  Co  Co138  1  0.63040265  0.58462394  0.45205754  1
  Co  Co139  1  0.70305050  0.64614464  0.13400876  1
  Co  Co140  1  0.50457762  0.27172784  0.03684393  1
  Co  Co141  1  0.30060314  0.16190264  0.29045320  1
  Co  Co142  1  -0.04308944  0.72232682  0.28879549  1
  Co  Co143  1  0.79233609  0.29036603  0.54991601  1
  Co  Co144  1  0.29313144  0.19738154  0.67499962  1
  Co  Co145  1  0.16636689  0.56022531  0.37971254  1
  Co  Co146  1  0.03573654  0.44351241  -0.04302551  1
  Co  Co147  1  0.13246869  0.01531018  0.81920631  1
  Co  Co148  1  0.08372571  0.62557402  0.24066969  1
  Co  Co149  1  0.14336024  0.92512975  0.37428136  1
  Co  Co150  1  0.88379095  0.48375602  0.04427242  1
  Co  Co151  1  0.51347693  0.73272439  0.83091403  1
  Co  Co152  1  -0.02276049  0.00941122  -0.08556082  1
  Co  Co153  1  0.73650941  0.13400829  0.47161147  1
  Co  Co154  1  0.13255254  0.72919828  0.77171407  1
  Co  Co155  1  -0.03613804  0.18756836  0.90689166  1
  Co  Co156  1  0.62269690  0.61620162  0.77611560  1
  Co  Co157  1  0.26184099  0.74501088  0.88270445  1
  Co  Co158  1  0.86438639  0.42876117  0.62727192  1
  Co  Co159  1  0.44696013  0.80344040  0.40837089  1
  Co  Co160  1  0.53058122  0.86209505  0.07092123  1
  Co  Co161  1  0.11688652  0.09323850  0.12192172  1
  Ni  Ni162  1  0.03043926  0.29534036  0.26710293  1
  Ni  Ni163  1  -0.05569252  0.68309973  -0.03808982  1
  Ni  Ni164  1  0.19837306  0.59964495  0.89188498  1
  Ni  Ni165  1  0.29681729  -0.01176968  0.29800416  1
  Ni  Ni166  1  0.36910881  -0.05388922  0.64106086  1
  Ni  Ni167  1  0.84225130  0.13562420  0.59926008  1
  Ni  Ni168  1  0.20003830  0.86949349  0.69830860  1
  Ni  Ni169  1  0.15026354  0.72791601  0.13101655  1
  Ni  Ni170  1  0.39456208  0.14325064  0.81335089  1
  Ni  Ni171  1  0.74301747  0.87710673  0.31135715  1
  Ni  Ni172  1  0.81567636  0.41701935  0.79355230  1
  Ni  Ni173  1  0.70991257  0.37433943  0.67910679  1
  Ni  Ni174  1  0.39495326  -0.03545327  0.81011106  1
  Ni  Ni175  1  0.29412870  0.77173162  0.20962296  1
  Ni  Ni176  1  0.50557209  0.88609497  0.71000780  1
  Ni  Ni177  1  0.62540998  0.37816613  0.05474547  1
  Ni  Ni178  1  0.11498820  0.29560909  0.92431405  1
  Ni  Ni179  1  0.11636488  0.38255707  0.08898807  1
  Ni  Ni180  1  0.66852106  0.78740608  0.82794270  1
  Ni  Ni181  1  0.08296133  -0.00675403  0.65618281  1
  Ni  Ni182  1  0.86511080  0.70281494  0.63987339  1
  Ni  Ni183  1  0.21958882  0.22088979  0.03469599  1
  Ni  Ni184  1  0.13584552  0.79179243  0.48275723  1
  Ni  Ni185  1  0.69910770  0.03586965  0.11147465  1
  Ni  Ni186  1  0.56573817  0.30906311  0.39944996  1
  Ni  Ni187  1  0.03121769  0.87855463  0.24453731  1
  Ni  Ni188  1  0.21015660  -0.02448123  0.03438340  1
  Ni  Ni189  1  0.35074713  0.36257146  0.00749784  1
  Ni  Ni190  1  0.13440084  0.14345187  0.71648909  1
  Ni  Ni191  1  0.50638769  0.43406180  -0.03634596  1
  Ni  Ni192  1  0.27999804  0.54718601  0.50847996  1
  Ni  Ni193  1  -0.03256942  0.29892880  0.58988321  1
  Ni  Ni194  1  0.84543785  0.11069900  0.31722139  1
  Ni  Ni195  1  0.52635201  0.44792385  0.47748807  1
  Ni  Ni196  1  0.61627473  0.01941981  0.43766803  1
  Ni  Ni197  1  0.68985397  0.60121167  0.28955845  1
  Ni  Ni198  1  0.92554461  0.42166889  0.29305586  1
  Ni  Ni199  1  0.55010107  0.39163097  0.63775304  1
  Ni  Ni200  1  0.85735896  0.64230338  0.08624227  1
  Ni  Ni201  1  0.15555891  0.22409739  0.36526794  1
  Ni  Ni202  1  0.28534290  0.33355749  0.28404474  1
  Ni  Ni203  1  0.55318486  -0.01951074  0.17430139  1
  Ni  Ni204  1  0.71967824  0.53326852  0.87144040  1
  Ni  Ni205  1  0.28679049  0.84705375  0.38715262  1
  Ni  Ni206  1  0.30724643  0.26493566  0.43959764  1
  Ni  Ni207  1  0.28499226  0.63882695  0.76237396  1
  Ni  Ni208  1  0.63777116  0.75600595  0.24046556  1
  Ni  Ni209  1  0.84429055  0.82590982  0.07312448  1
  Ni  Ni210  1  0.77655471  0.34532948  0.10141994  1
  Ni  Ni211  1  0.03086665  0.30806218  0.43615917  1
  Ni  Ni212  1  0.37343566  0.19615084  -0.02496037  1
  Ni  Ni213  1  0.50467277  0.00432970  0.56865585  1
  Ni  Ni214  1  0.01565895  0.49131565  0.40476555  1
