# generated using pymatgen
data_Ti108Co54Ni53
_symmetry_space_group_name_H-M   'P 1'
_cell_length_a   14.49928167
_cell_length_b   14.54859091
_cell_length_c   14.45844986
_cell_angle_alpha   90.05740786
_cell_angle_beta   90.52223226
_cell_angle_gamma   90.07824786
_symmetry_Int_Tables_number   1
_chemical_formula_structural   Ti108Co54Ni53
_chemical_formula_sum   'Ti108 Co54 Ni53'
_cell_volume   3049.79384629
_cell_formula_units_Z   1
loop_
 _symmetry_equiv_pos_site_id
 _symmetry_equiv_pos_as_xyz
  1  'x, y, z'
loop_
 _atom_site_type_symbol
 _atom_site_label
 _atom_site_symmetry_multiplicity
 _atom_site_fract_x
 _atom_site_fract_y
 _atom_site_fract_z
 _atom_site_occupancy
  Ti  Ti0  1  0.02676840  0.11110215  0.22435463  1
  Ti  Ti1  1  0.13483310  0.08853335  0.53176396  1
  Ti  Ti2  1  0.09310187  0.12778794  0.90380849  1
  Ti  Ti3  1  0.05060313  0.39404223  0.21324362  1
  Ti  Ti4  1  0.07475983  0.40550777  0.54249362  1
  Ti  Ti5  1  0.04481004  0.43864364  1.00599315  1
  Ti  Ti6  1  0.13017437  0.75322368  0.20424378  1
  Ti  Ti7  1  0.04590548  0.69505940  0.55270658  1
  Ti  Ti8  1  0.11407714  0.74374276  0.99987521  1
  Ti  Ti9  1  0.39918620  -0.01756426  0.26560314  1
  Ti  Ti10  1  0.51297393  0.06538355  0.58231654  1
  Ti  Ti11  1  0.39197798  0.06793066  0.93550012  1
  Ti  Ti12  1  0.42126736  0.46195526  0.21103715  1
  Ti  Ti13  1  0.40718340  0.42575301  0.57347157  1
  Ti  Ti14  1  0.37930399  0.48256510  0.88929071  1
  Ti  Ti15  1  0.45577393  0.76332603  0.21987188  1
  Ti  Ti16  1  0.43791813  0.72198143  0.64376157  1
  Ti  Ti17  1  0.43723760  0.70592368  0.86609708  1
  Ti  Ti18  1  0.70941330  0.04407488  0.22002152  1
  Ti  Ti19  1  0.72319275  0.10705032  0.53034632  1
  Ti  Ti20  1  0.77957716  0.10096456  0.99628693  1
  Ti  Ti21  1  0.71937772  0.44293029  0.26094508  1
  Ti  Ti22  1  0.82210090  0.29881878  0.64371578  1
  Ti  Ti23  1  0.70237464  0.39433412  0.94127629  1
  Ti  Ti24  1  0.77421819  0.74140743  0.28668230  1
  Ti  Ti25  1  0.81279143  0.78446140  0.64747263  1
  Ti  Ti26  1  0.63854916  0.66379856  0.89344613  1
  Ti  Ti27  1  0.09505307  0.22945599  0.08782228  1
  Ti  Ti28  1  0.12034146  0.30424233  0.39711838  1
  Ti  Ti29  1  0.13095753  0.25562693  0.74938213  1
  Ti  Ti30  1  0.14153930  0.56564628  0.09634935  1
  Ti  Ti31  1  0.04976315  0.56097982  0.42137904  1
  Ti  Ti32  1  0.08918429  0.63703164  0.74111171  1
  Ti  Ti33  1  0.07047868  0.98533625  0.05806161  1
  Ti  Ti34  1  0.05385030  0.89422535  0.47728863  1
  Ti  Ti35  1  0.08399777  0.85964736  0.74571022  1
  Ti  Ti36  1  0.38994843  0.26931481  0.19966765  1
  Ti  Ti37  1  0.44527012  0.29158695  0.42499523  1
  Ti  Ti38  1  0.46277323  0.37895054  0.76773984  1
  Ti  Ti39  1  0.49384831  0.63067858  0.09751198  1
  Ti  Ti40  1  0.39233099  0.67040435  0.41359984  1
  Ti  Ti41  1  0.36554941  0.56251520  0.70676580  1
  Ti  Ti42  1  0.47428934  0.93229348  0.10227958  1
  Ti  Ti43  1  0.43415758  0.96628824  0.46141665  1
  Ti  Ti44  1  0.37235200  0.97643899  0.69794409  1
  Ti  Ti45  1  0.82327933  0.27313489  -0.01183939  1
  Ti  Ti46  1  0.73109736  0.22732813  0.34547450  1
  Ti  Ti47  1  0.78886331  0.17597487  0.80284239  1
  Ti  Ti48  1  0.77754937  0.56792389  0.01786050  1
  Ti  Ti49  1  0.73836834  0.59606752  0.40784143  1
  Ti  Ti50  1  0.79914044  0.48613249  0.69968188  1
  Ti  Ti51  1  0.73635590  0.92994351  0.03191107  1
  Ti  Ti52  1  0.72909404  0.81880813  0.47280628  1
  Ti  Ti53  1  0.74767055  0.89389913  0.77589581  1
  Ti  Ti54  1  0.27901036  0.18809762  0.02604471  1
  Ti  Ti55  1  0.31070846  0.12158007  0.39807462  1
  Ti  Ti56  1  0.25994963  0.13193686  0.66989774  1
  Ti  Ti57  1  0.22556948  0.37163919  0.08241399  1
  Ti  Ti58  1  0.29503082  0.42981906  0.40268190  1
  Ti  Ti59  1  0.25612204  0.40874106  0.72254123  1
  Ti  Ti60  1  0.29085203  0.70630371  0.11871166  1
  Ti  Ti61  1  0.21570030  0.75300396  0.43011605  1
  Ti  Ti62  1  0.27650713  0.74866039  0.73378411  1
  Ti  Ti63  1  0.57482191  0.09224939  0.04582565  1
  Ti  Ti64  1  0.58410049  0.09068768  0.37587843  1
  Ti  Ti65  1  0.60975289  0.09771456  0.72574881  1
  Ti  Ti66  1  0.53516232  0.35366494  0.07455818  1
  Ti  Ti67  1  0.58107083  0.44802858  0.43845329  1
  Ti  Ti68  1  0.66567593  0.32269496  0.77100547  1
  Ti  Ti69  1  0.57892221  0.78958914  0.02853448  1
  Ti  Ti70  1  0.53441836  0.79799544  0.49506056  1
  Ti  Ti71  1  0.59315947  0.74826865  0.74496920  1
  Ti  Ti72  1  0.88585713  0.01419256  0.14629842  1
  Ti  Ti73  1  0.92747259  0.06128674  0.45073027  1
  Ti  Ti74  1  0.95656480  0.03671919  0.76033772  1
  Ti  Ti75  1  0.85691059  0.43611416  0.11501018  1
  Ti  Ti76  1  0.88459958  0.46090583  0.49787904  1
  Ti  Ti77  1  0.97118600  0.50408115  0.81339165  1
  Ti  Ti78  1  0.86307381  0.77443905  0.10286840  1
  Ti  Ti79  1  0.90377391  0.78338253  0.45824243  1
  Ti  Ti80  1  0.81944574  0.70194404  0.82896436  1
  Ti  Ti81  1  0.20042067  0.22179538  0.23538359  1
  Ti  Ti82  1  0.27007857  0.29027697  0.54130624  1
  Ti  Ti83  1  0.28239018  0.30173920  0.87644989  1
  Ti  Ti84  1  0.26379659  0.58902834  0.27553096  1
  Ti  Ti85  1  0.19948601  0.56132435  0.60176310  1
  Ti  Ti86  1  0.28171787  0.63308311  0.94704967  1
  Ti  Ti87  1  0.21265943  0.95183129  0.21177904  1
  Ti  Ti88  1  0.23062643  0.91412306  0.56424698  1
  Ti  Ti89  1  0.28057026  0.85816992  0.92597296  1
  Ti  Ti90  1  0.58794548  0.21988207  0.20380784  1
  Ti  Ti91  1  0.53132201  0.26833116  0.63211865  1
  Ti  Ti92  1  0.54366674  0.20839531  0.87303282  1
  Ti  Ti93  1  0.56636596  0.58803982  0.28713300  1
  Ti  Ti94  1  0.58324851  0.58204793  0.61733163  1
  Ti  Ti95  1  0.57682650  0.52362828  0.96601224  1
  Ti  Ti96  1  0.55709158  0.89305969  0.31352042  1
  Ti  Ti97  1  0.65734103  0.93088653  0.61642324  1
  Ti  Ti98  1  0.55460826  0.91128201  0.80412326  1
  Ti  Ti99  1  0.86413147  0.28090012  0.21126547  1
  Ti  Ti100  1  0.87715085  0.26903708  0.45804052  1
  Ti  Ti101  1  0.98173094  0.30817386  0.86658690  1
  Ti  Ti102  1  0.94646057  0.67166985  0.24909550  1
  Ti  Ti103  1  0.84888092  0.62912711  0.56940723  1
  Ti  Ti104  1  0.94898770  0.61353581  0.97130143  1
  Ti  Ti105  1  0.97951003  0.87096318  0.25861541  1
  Ti  Ti106  1  0.86777258  0.95716826  0.59226781  1
  Ti  Ti107  1  0.90514622  0.84975930  0.92755809  1
  Co  Co108  1  0.36498903  0.82925460  0.53497447  1
  Co  Co109  1  0.57876957  -0.04365913  -0.02822622  1
  Co  Co110  1  0.10792526  0.59091707  0.91830138  1
  Co  Co111  1  0.00541309  0.68321486  0.10206692  1
  Co  Co112  1  0.56214412  0.62778637  0.46349208  1
  Co  Co113  1  0.52924084  0.36811530  0.91182023  1
  Co  Co114  1  -0.00157874  0.54750978  0.60671689  1
  Co  Co115  1  0.91019759  0.86565656  0.76415078  1
  Co  Co116  1  0.62474283  0.72280472  0.20477316  1
  Co  Co117  1  0.01269951  0.84503023  0.09682368  1
  Co  Co118  1  0.28644229  0.77295537  0.27340363  1
  Co  Co119  1  0.94600633  0.40565878  0.68246756  1
  Co  Co120  1  0.76845611  0.04255826  0.70727350  1
  Co  Co121  1  0.69114349  0.20554036  0.64918009  1
  Co  Co122  1  0.42612774  0.57431596  0.53947872  1
  Co  Co123  1  0.14167987  0.45728776  0.34552838  1
  Co  Co124  1  0.15653206  0.78421871  0.61481664  1
  Co  Co125  1  0.04870172  -0.02024827  0.61996164  1
  Co  Co126  1  0.66380339  0.65477024  0.07452561  1
  Co  Co127  1  0.44935001  0.15828147  0.31272092  1
  Co  Co128  1  -0.07160701  0.67182708  0.71032703  1
  Co  Co129  1  0.59495972  0.29510920  0.36531574  1
  Co  Co130  1  -0.04601785  0.20445160  0.74704291  1
  Co  Co131  1  0.18908959  0.87204529  0.06206933  1
  Co  Co132  1  0.29529196  0.27387818  0.35388878  1
  Co  Co133  1  -0.01951312  0.82939936  0.61938689  1
  Co  Co134  1  -0.02107983  0.27504172  0.60126773  1
  Co  Co135  1  0.74843027  0.18465988  0.15111726  1
  Co  Co136  1  0.83315606  0.35343311  0.80673431  1
  Co  Co137  1  0.72200763  0.50247801  0.54536102  1
  Co  Co138  1  0.92117044  0.14143823  -0.10048129  1
  Co  Co139  1  0.86448792  0.13653541  0.61331397  1
  Co  Co140  1  0.58267039  0.20023230  0.49686872  1
  Co  Co141  1  0.43505388  0.14689260  0.72952179  1
  Co  Co142  1  0.90243722  0.63750153  0.40740565  1
  Co  Co143  1  0.54557330  0.04521780  0.21272785  1
  Co  Co144  1  0.43021210  0.90633314  -0.05639287  1
  Co  Co145  1  0.13444268  0.24864782  0.58685778  1
  Co  Co146  1  0.13100085  0.28780157  -0.05521797  1
  Co  Co147  1  0.33345474  0.86227812  0.13118835  1
  Co  Co148  1  0.41006325  0.84808164  0.78980303  1
  Co  Co149  1  0.17830557  0.00650701  0.40572926  1
  Co  Co150  1  0.12827538  0.14594040  0.35735169  1
  Co  Co151  1  -0.07975579  -0.00976275  -0.01036403  1
  Co  Co152  1  0.22730894  0.46776062  -0.04352869  1
  Co  Co153  1  0.31661401  0.00207309  0.06048054  1
  Co  Co154  1  0.12224520  0.41414905  0.84920370  1
  Co  Co155  1  0.83265319  -0.00211260  0.85944196  1
  Co  Co156  1  0.49910997  0.04602079  0.83587221  1
  Co  Co157  1  0.56309398  0.38566445  0.23983803  1
  Co  Co158  1  0.31461913  0.04875026  0.54110283  1
  Co  Co159  1  0.62600876  -0.04223317  0.46293654  1
  Co  Co160  1  0.03051215  0.00348128  0.34095136  1
  Co  Co161  1  0.28873738  0.68856058  0.56987578  1
  Ni  Ni162  1  0.72721285  0.63649073  0.70365255  1
  Ni  Ni163  1  0.50927736  0.58087781  0.78058283  1
  Ni  Ni164  1  0.16462973  0.74454480  0.84841693  1
  Ni  Ni165  1  0.29179923  -0.08694524  0.37676524  1
  Ni  Ni166  1  0.09926019  0.45791974  0.70029396  1
  Ni  Ni167  1  0.18203788  0.08820249  0.11457536  1
  Ni  Ni168  1  0.32222909  0.11065178  0.20256527  1
  Ni  Ni169  1  0.65205898  0.23515589  0.01825348  1
  Ni  Ni170  1  0.87635327  0.43827542  -0.05660636  1
  Ni  Ni171  1  0.67264362  0.83780112  0.90124944  1
  Ni  Ni172  1  0.75805610  0.39657040  0.40846063  1
  Ni  Ni173  1  0.41478497  0.82133725  0.36950104  1
  Ni  Ni174  1  0.62218787  0.51190938  0.13705327  1
  Ni  Ni175  1  0.67286761  0.04050499  0.87160320  1
  Ni  Ni176  1  0.64880485  0.73807961  0.59623389  1
  Ni  Ni177  1  -0.02734865  0.53628386  0.14985882  1
  Ni  Ni178  1  0.62411319  0.47746642  0.80376674  1
  Ni  Ni179  1  0.63616633  0.88805888  0.16521184  1
  Ni  Ni180  1  0.76642996  0.74408488  -0.01802314  1
  Ni  Ni181  1  0.76502652  0.54417632  0.85133656  1
  Ni  Ni182  1  0.13643744  0.86725337  0.32927795  1
  Ni  Ni183  1  0.77350805  0.59473957  0.19327060  1
  Ni  Ni184  1  0.62121214  0.73594624  0.36298460  1
  Ni  Ni185  1  0.43422561  0.51438297  0.37334291  1
  Ni  Ni186  1  0.68140307  0.33604945  0.53758798  1
  Ni  Ni187  1  0.34430481  0.27661458  0.69973591  1
  Ni  Ni188  1  0.49940669  0.88231255  0.64146023  1
  Ni  Ni189  1  -0.03643552  0.39203652  0.36375156  1
  Ni  Ni190  1  0.22357276  0.55668481  0.80463709  1
  Ni  Ni191  1  0.37080952  0.34830555  0.01427471  1
  Ni  Ni192  1  0.86216326  0.12597333  0.28615446  1
  Ni  Ni193  1  0.44043769  0.49161768  0.04033272  1
  Ni  Ni194  1  0.40439765  0.18839339  0.55940662  1
  Ni  Ni195  1  0.25782202  0.39687088  0.23885523  1
  Ni  Ni196  1  -0.01614963  0.23679879  0.31939556  1
  Ni  Ni197  1  -0.03822764  0.30633386  0.05848879  1
  Ni  Ni198  1  0.09333901  0.58413919  0.25494825  1
  Ni  Ni199  1  0.57975230  0.42675548  0.64757659  1
  Ni  Ni200  1  0.71115715  -0.10217343  0.33204600  1
  Ni  Ni201  1  -0.02847756  0.13404649  0.05012404  1
  Ni  Ni202  1  0.87819086  0.51537264  0.29709387  1
  Ni  Ni203  1  0.02182295  0.19498330  0.47490105  1
  Ni  Ni204  1  0.28542364  0.14428337  0.83081390  1
  Ni  Ni205  1  0.76332820  0.04095840  0.38873380  1
  Ni  Ni206  1  0.24577085  0.57685913  0.44772140  1
  Ni  Ni207  1  -0.00221538  0.72427074  0.85271287  1
  Ni  Ni208  1  0.45326293  0.20804979  0.02769639  1
  Ni  Ni209  1  0.80802015  -0.11255884  0.20800769  1
  Ni  Ni210  1  0.05282229  0.73095369  0.37640111  1
  Ni  Ni211  1  0.86984112  0.91702385  0.37551101  1
  Ni  Ni212  1  0.30259045  0.53303452  0.10792927  1
  Ni  Ni213  1  0.70310839  0.35726448  0.11627525  1
  Ni  Ni214  1  0.41041202  0.76131251  0.01982770  1
