# generated using pymatgen
data_Ti108Co54Ni53
_symmetry_space_group_name_H-M   'P 1'
_cell_length_a   14.65970746
_cell_length_b   14.57788606
_cell_length_c   14.64543849
_cell_angle_alpha   90.27707824
_cell_angle_beta   90.17092283
_cell_angle_gamma   90.06938431
_symmetry_Int_Tables_number   1
_chemical_formula_structural   Ti108Co54Ni53
_chemical_formula_sum   'Ti108 Co54 Ni53'
_cell_volume   3129.78783165
_cell_formula_units_Z   1
loop_
 _symmetry_equiv_pos_site_id
 _symmetry_equiv_pos_as_xyz
  1  'x, y, z'
loop_
 _atom_site_type_symbol
 _atom_site_label
 _atom_site_symmetry_multiplicity
 _atom_site_fract_x
 _atom_site_fract_y
 _atom_site_fract_z
 _atom_site_occupancy
  Ti  Ti0  1  0.15444459  0.03603814  0.34096032  1
  Ti  Ti1  1  0.08881496  0.11020614  0.67916730  1
  Ti  Ti2  1  0.07182966  0.00352140  0.85216249  1
  Ti  Ti3  1  0.01989204  0.39216772  0.28821010  1
  Ti  Ti4  1  0.02026324  0.44396868  0.58716704  1
  Ti  Ti5  1  0.07777623  0.43225681  1.03193278  1
  Ti  Ti6  1  0.03512830  0.73658196  0.31594905  1
  Ti  Ti7  1  0.00940883  0.72828845  0.65922434  1
  Ti  Ti8  1  0.02602168  0.70802793  0.86318863  1
  Ti  Ti9  1  0.41462059  0.02769103  0.27334133  1
  Ti  Ti10  1  0.37801659  0.17814121  0.55726817  1
  Ti  Ti11  1  0.41282576  0.00838536  0.88580657  1
  Ti  Ti12  1  0.41384434  0.47045243  0.20634751  1
  Ti  Ti13  1  0.42247511  0.33834782  0.66511294  1
  Ti  Ti14  1  0.40704687  0.47045035  0.91776618  1
  Ti  Ti15  1  0.44424499  0.83584070  0.23607162  1
  Ti  Ti16  1  0.42413743  0.69012540  0.56632093  1
  Ti  Ti17  1  0.41526960  0.78481674  0.94650340  1
  Ti  Ti18  1  0.82144807  0.04303226  0.23057513  1
  Ti  Ti19  1  0.77977062  0.01812812  0.57870502  1
  Ti  Ti20  1  0.79037925  0.10215135  0.92000252  1
  Ti  Ti21  1  0.71503105  0.45286991  0.24551681  1
  Ti  Ti22  1  0.73832488  0.35343379  0.57006608  1
  Ti  Ti23  1  0.75025676  0.43605671  0.96853465  1
  Ti  Ti24  1  0.76060676  0.79730762  0.19892784  1
  Ti  Ti25  1  0.79987137  0.72616202  0.64271990  1
  Ti  Ti26  1  0.74341248  0.79106152  0.87711415  1
  Ti  Ti27  1  0.05115721  0.25134402  0.02534883  1
  Ti  Ti28  1  0.11128092  0.22427052  0.32360839  1
  Ti  Ti29  1  0.11684822  0.28894754  0.71691798  1
  Ti  Ti30  1  0.01103745  0.62508788  0.04296217  1
  Ti  Ti31  1  0.04678854  0.62857314  0.47881098  1
  Ti  Ti32  1  0.12500930  0.55534595  0.76263486  1
  Ti  Ti33  1  0.10421488  0.95568187  0.04722401  1
  Ti  Ti34  1  0.02847940  0.92700587  0.40712698  1
  Ti  Ti35  1  0.16152600  0.90835194  0.65058898  1
  Ti  Ti36  1  0.42541599  0.32252368  0.06528708  1
  Ti  Ti37  1  0.37292552  0.32215258  0.40723833  1
  Ti  Ti38  1  0.44728300  0.20417595  0.80225575  1
  Ti  Ti39  1  0.47820986  0.57922327  0.04787044  1
  Ti  Ti40  1  0.44150706  0.50951928  0.43021437  1
  Ti  Ti41  1  0.44601318  0.54572266  0.74166517  1
  Ti  Ti42  1  0.39716003  0.98203540  0.07498623  1
  Ti  Ti43  1  0.41859620  0.86868641  0.45333823  1
  Ti  Ti44  1  0.35381395  0.87115603  0.76227423  1
  Ti  Ti45  1  0.74222948  0.24748526  0.11464295  1
  Ti  Ti46  1  0.77913135  0.27328326  0.39610857  1
  Ti  Ti47  1  0.75620207  0.25042946  0.74558955  1
  Ti  Ti48  1  0.81086406  0.66451927  0.07149784  1
  Ti  Ti49  1  0.69629034  0.57540962  0.40015877  1
  Ti  Ti50  1  0.77067154  0.52770946  0.73368863  1
  Ti  Ti51  1  0.69435167  0.97124174  0.09373144  1
  Ti  Ti52  1  0.72488279  0.85527662  0.38907526  1
  Ti  Ti53  1  0.69669200  0.88927886  0.71914274  1
  Ti  Ti54  1  0.26710128  0.14244852  0.10048671  1
  Ti  Ti55  1  0.31151856  0.04003865  0.42938254  1
  Ti  Ti56  1  0.26706052  0.07577120  0.75904885  1
  Ti  Ti57  1  0.24745470  0.33927363  0.03897514  1
  Ti  Ti58  1  0.19350884  0.48039441  0.46730356  1
  Ti  Ti59  1  0.27642937  0.41075183  0.76481068  1
  Ti  Ti60  1  0.18382128  0.73945052  0.05972429  1
  Ti  Ti61  1  0.20199334  0.85515010  0.45666026  1
  Ti  Ti62  1  0.20152355  0.72877140  0.72340030  1
  Ti  Ti63  1  0.51336285  0.14214704  0.09942804  1
  Ti  Ti64  1  0.50886969  0.05195947  0.45787797  1
  Ti  Ti65  1  0.58559889  0.06913371  0.76387246  1
  Ti  Ti66  1  0.58940154  0.40563943  0.12073988  1
  Ti  Ti67  1  0.60018746  0.37761496  0.38780790  1
  Ti  Ti68  1  0.59739839  0.43374788  0.67707273  1
  Ti  Ti69  1  0.62116540  0.72250979  0.02105416  1
  Ti  Ti70  1  0.59000553  0.78780318  0.51196943  1
  Ti  Ti71  1  0.53846226  0.73879770  0.74293998  1
  Ti  Ti72  1  0.95323762  0.07282398  0.08976025  1
  Ti  Ti73  1  0.90269178  0.10881366  0.40049980  1
  Ti  Ti74  1  0.90627133  0.09096981  0.74832822  1
  Ti  Ti75  1  0.90399803  0.36814129  0.10529298  1
  Ti  Ti76  1  0.84904174  0.45307645  0.38279162  1
  Ti  Ti77  1  0.99312588  0.41699336  0.77842358  1
  Ti  Ti78  1  0.98594669  0.80160033  0.10734608  1
  Ti  Ti79  1  0.90734808  0.76401667  0.48657511  1
  Ti  Ti80  1  0.90839730  0.85352290  0.78201500  1
  Ti  Ti81  1  0.29129554  0.31052135  0.22994238  1
  Ti  Ti82  1  0.22706660  0.30169780  0.55778335  1
  Ti  Ti83  1  0.21260590  0.22128472  0.88709726  1
  Ti  Ti84  1  0.20303194  0.49708629  0.20502282  1
  Ti  Ti85  1  0.28895791  0.57531794  0.63238147  1
  Ti  Ti86  1  0.22302882  0.49352120  0.92734542  1
  Ti  Ti87  1  0.25929430  0.89834054  0.18138255  1
  Ti  Ti88  1  0.33784366  0.97758550  0.59521171  1
  Ti  Ti89  1  0.26603884  0.89627970  0.97749658  1
  Ti  Ti90  1  0.56148811  0.18062083  0.31408417  1
  Ti  Ti91  1  0.57236602  0.23304675  0.52084651  1
  Ti  Ti92  1  0.57968405  0.28858669  0.94287993  1
  Ti  Ti93  1  0.60613427  0.63218314  0.20095366  1
  Ti  Ti94  1  0.63091842  0.61706846  0.60472943  1
  Ti  Ti95  1  0.60440777  0.56517917  0.85891811  1
  Ti  Ti96  1  0.63005245  0.99734503  0.29697742  1
  Ti  Ti97  1  0.56439808  0.96580748  0.60280821  1
  Ti  Ti98  1  0.61628516  0.97119476  0.92503472  1
  Ti  Ti99  1  0.92801211  0.20963783  0.22446774  1
  Ti  Ti100  1  0.95688860  0.23586102  0.55611978  1
  Ti  Ti101  1  0.92655628  0.25195926  0.87673157  1
  Ti  Ti102  1  0.90471620  0.54143264  0.21141819  1
  Ti  Ti103  1  0.85110554  0.55348388  0.54438775  1
  Ti  Ti104  1  0.89759699  0.54996484  0.88093907  1
  Ti  Ti105  1  0.90366802  0.88499280  0.28643970  1
  Ti  Ti106  1  0.97404924  1.03114531  0.55827796  1
  Ti  Ti107  1  0.91580927  0.91678427  0.96220324  1
  Co  Co108  1  0.87667110  0.87378861  0.62691966  1
  Co  Co109  1  0.29905499  0.80765050  0.60154390  1
  Co  Co110  1  0.08481047  0.65483091  0.18503872  1
  Co  Co111  1  0.74954866  0.07445009  0.74140263  1
  Co  Co112  1  -0.04330240  0.09022545  -0.07110904  1
  Co  Co113  1  0.56770957  0.45074835  -0.03367529  1
  Co  Co114  1  0.72885973  0.86047914  0.55860154  1
  Co  Co115  1  0.63978821  0.72642492  0.33399036  1
  Co  Co116  1  0.16501914  0.65032687  0.91315352  1
  Co  Co117  1  0.81534182  0.17858736  0.60799445  1
  Co  Co118  1  0.08397158  0.83606649  0.78591470  1
  Co  Co119  1  0.65615539  0.11481402  0.17299357  1
  Co  Co120  1  0.03313489  0.86239772  0.55368514  1
  Co  Co121  1  0.37500735  0.71210893  0.73346432  1
  Co  Co122  1  0.41070298  0.16779650  0.38361596  1
  Co  Co123  1  0.65403947  0.17776602  0.85071606  1
  Co  Co124  1  0.09737287  0.83341858  -0.05408318  1
  Co  Co125  1  0.89229828  0.37384197  0.50816599  1
  Co  Co126  1  0.48843416  0.72324197  0.11650200  1
  Co  Co127  1  0.33515498  0.43740308  0.56166834  1
  Co  Co128  1  0.55057516  0.87619402  0.36276389  1
  Co  Co129  1  0.86055148  -0.07312417  0.11969671  1
  Co  Co130  1  0.29543897  0.59045382  0.81254699  1
  Co  Co131  1  0.17901953  0.37576982  0.33972001  1
  Co  Co132  1  0.01399683  0.94808000  0.18463679  1
  Co  Co133  1  0.17830846  0.57554985  0.06413233  1
  Co  Co134  1  0.42171743  0.03148591  0.71797347  1
  Co  Co135  1  -0.05736910  0.39454903  -0.05520891  1
  Co  Co136  1  0.73564522  0.14969372  0.30757315  1
  Co  Co137  1  0.32169640  0.63977254  -0.01480089  1
  Co  Co138  1  0.91561399  0.70219231  0.21118121  1
  Co  Co139  1  0.26007405  0.76661358  0.87428408  1
  Co  Co140  1  0.01235053  0.47305213  0.42795063  1
  Co  Co141  1  0.05403376  0.52665035  0.90513638  1
  Co  Co142  1  0.00177836  0.07184113  0.27843828  1
  Co  Co143  1  0.10966952  0.35291011  0.88428622  1
  Co  Co144  1  0.09070911  0.32809095  0.46810313  1
  Co  Co145  1  0.62180687  0.47724478  0.51646775  1
  Co  Co146  1  0.49528974  0.38362045  0.81100608  1
  Co  Co147  1  0.47916831  0.53262448  0.58820959  1
  Co  Co148  1  0.88598992  0.51373683  0.04419241  1
  Co  Co149  1  0.06406910  0.17877394  0.83261757  1
  Co  Co150  1  0.83482581  0.74200078  0.34351808  1
  Co  Co151  1  0.46126801  0.64457412  0.88021524  1
  Co  Co152  1  0.30106832  -0.09796183  0.33483053  1
  Co  Co153  1  0.12426148  0.59082824  0.60671332  1
  Co  Co154  1  0.04549051  0.49947048  0.16185523  1
  Co  Co155  1  0.49817716  0.14778487  0.64138319  1
  Co  Co156  1  -0.04930890  0.27724165  0.38581291  1
  Co  Co157  1  0.75727066  0.27747829  -0.06766746  1
  Co  Co158  1  0.86296865  0.41548753  0.66077162  1
  Co  Co159  1  0.15123739  0.74232012  0.56249392  1
  Co  Co160  1  0.34808217  0.79260024  0.09548741  1
  Co  Co161  1  0.32568043  0.48225551  0.07086855  1
  Ni  Ni162  1  0.16890296  0.03312972  0.18033950  1
  Ni  Ni163  1  -0.08794261  0.60741594  0.37669989  1
  Ni  Ni164  1  0.76745554  0.82946350  0.03152496  1
  Ni  Ni165  1  0.35294263  0.31523494  -0.12128919  1
  Ni  Ni166  1  0.58906997  0.26733229  0.71515046  1
  Ni  Ni167  1  0.12835052  0.33356361  0.17148837  1
  Ni  Ni168  1  0.22374579  0.13052219  0.59229660  1
  Ni  Ni169  1  0.86456794  0.68546866  0.78893302  1
  Ni  Ni170  1  0.31110866  0.46538758  0.33624417  1
  Ni  Ni171  1  0.84051982  0.34495075  0.25554950  1
  Ni  Ni172  1  0.28648257  0.23766910  0.71686084  1
  Ni  Ni173  1  0.48829206  0.37625251  0.52231655  1
  Ni  Ni174  1  0.25685334  0.05876319  -0.06486136  1
  Ni  Ni175  1  0.55212925  0.50269381  0.28857660  1
  Ni  Ni176  1  0.52217448  0.12080092  -0.06753045  1
  Ni  Ni177  1  0.69319645  0.68274472  0.76202518  1
  Ni  Ni178  1  0.08920635  0.16717305  0.16302711  1
  Ni  Ni179  1  0.74184566  0.70531739  0.48383763  1
  Ni  Ni180  1  0.37252616  0.17596286  0.97654753  1
  Ni  Ni181  1  0.00592267  -0.04727413  0.69852483  1
  Ni  Ni182  1  0.07910269  0.15241244  0.47603261  1
  Ni  Ni183  1  0.49989891  0.33258204  0.24784929  1
  Ni  Ni184  1  0.23836681  0.19538230  0.42998471  1
  Ni  Ni185  1  0.71243280  0.14835348  0.47216729  1
  Ni  Ni186  1  0.12504255  0.87296337  0.27715952  1
  Ni  Ni187  1  0.66683620  0.28863568  0.24963897  1
  Ni  Ni188  1  0.11397780  0.11174343  -0.00857764  1
  Ni  Ni189  1  0.45781361  0.84057364  0.62990474  1
  Ni  Ni190  1  0.27045954  0.14106952  0.27525864  1
  Ni  Ni191  1  0.88188974  0.21383736  0.03334887  1
  Ni  Ni192  1  -0.06260108  0.26324537  0.71386944  1
  Ni  Ni193  1  0.66067203  0.38878669  0.82802987  1
  Ni  Ni194  1  0.75205140  0.62271293  -0.08867171  1
  Ni  Ni195  1  0.65269528  0.12203163  0.61815029  1
  Ni  Ni196  1  0.53817643  -0.01628444  0.16360949  1
  Ni  Ni197  1  0.66255703  0.14295991  0.01272447  1
  Ni  Ni198  1  0.76379782  0.01580926  0.39868306  1
  Ni  Ni199  1  0.76779885  0.62494921  0.25132531  1
  Ni  Ni200  1  0.41199468  0.19623843  0.21520351  1
  Ni  Ni201  1  0.87385126  -0.07763197  0.46720925  1
  Ni  Ni202  1  0.21295188  -0.07330181  0.82593579  1
  Ni  Ni203  1  0.78678517  -0.04478176  0.84747199  1
  Ni  Ni204  1  0.52425224  -0.08980878  0.77159347  1
  Ni  Ni205  1  0.60508501  0.82602286  0.18899856  1
  Ni  Ni206  1  0.17846803  0.43901571  0.63953528  1
  Ni  Ni207  1  0.14864051  0.00687293  0.51625888  1
  Ni  Ni208  1  0.57361273  0.81053013  0.88977054  1
  Ni  Ni209  1  -0.11011907  0.74163448  -0.05167993  1
  Ni  Ni210  1  0.54839968  0.63348007  0.44850486  1
  Ni  Ni211  1  0.52808319  0.87222919  0.04512026  1
  Ni  Ni212  1  0.72072247  0.53196806  0.10247960  1
  Ni  Ni213  1  -0.05461196  0.57223154  0.68555261  1
  Ni  Ni214  1  0.82733753  0.38883459  0.82015050  1
