# generated using pymatgen
data_Ti108Co54Ni53
_symmetry_space_group_name_H-M   'P 1'
_cell_length_a   14.64521310
_cell_length_b   14.68662683
_cell_length_c   14.75549638
_cell_angle_alpha   90.12328304
_cell_angle_beta   89.56318751
_cell_angle_gamma   89.77236058
_symmetry_Int_Tables_number   1
_chemical_formula_structural   Ti108Co54Ni53
_chemical_formula_sum   'Ti108 Co54 Ni53'
_cell_volume   3173.61686999
_cell_formula_units_Z   1
loop_
 _symmetry_equiv_pos_site_id
 _symmetry_equiv_pos_as_xyz
  1  'x, y, z'
loop_
 _atom_site_type_symbol
 _atom_site_label
 _atom_site_symmetry_multiplicity
 _atom_site_fract_x
 _atom_site_fract_y
 _atom_site_fract_z
 _atom_site_occupancy
  Ti  Ti0  1  0.08589712  0.05875668  0.14407434  1
  Ti  Ti1  1  0.08834907  0.09213516  0.55170170  1
  Ti  Ti2  1  0.12665861  -0.02636538  0.95218408  1
  Ti  Ti3  1  0.11742731  0.48163493  0.23445162  1
  Ti  Ti4  1  0.07913154  0.54475188  0.60422475  1
  Ti  Ti5  1  0.05240905  0.42233544  0.83987199  1
  Ti  Ti6  1  0.07805947  0.70245343  0.26788431  1
  Ti  Ti7  1  0.04277500  0.76178213  0.59900939  1
  Ti  Ti8  1  0.02263670  0.73898763  0.93158468  1
  Ti  Ti9  1  0.41930047  0.04163738  0.34739238  1
  Ti  Ti10  1  0.45087258  0.06288118  0.57537642  1
  Ti  Ti11  1  0.44823936  0.06090499  0.96078885  1
  Ti  Ti12  1  0.44899891  0.45494512  0.17059860  1
  Ti  Ti13  1  0.45933940  0.43080488  0.50973603  1
  Ti  Ti14  1  0.40529209  0.50523723  0.92306131  1
  Ti  Ti15  1  0.44577512  0.76272144  0.31366265  1
  Ti  Ti16  1  0.32302260  0.74680362  0.58404117  1
  Ti  Ti17  1  0.38353257  0.68181038  0.89607247  1
  Ti  Ti18  1  0.70887177  0.14594851  0.25780225  1
  Ti  Ti19  1  0.76835178  0.07457367  0.56770058  1
  Ti  Ti20  1  0.75355176  0.03404798  0.94837697  1
  Ti  Ti21  1  0.76589272  0.33013995  0.24001969  1
  Ti  Ti22  1  0.75892093  0.44516260  0.62443102  1
  Ti  Ti23  1  0.76884240  0.47066690  0.96015686  1
  Ti  Ti24  1  0.76664344  0.66524071  0.28471073  1
  Ti  Ti25  1  0.74963082  0.77153601  0.62756640  1
  Ti  Ti26  1  0.79519798  0.74011075  0.97183404  1
  Ti  Ti27  1  0.01546471  0.23261454  0.04244337  1
  Ti  Ti28  1  0.02618851  0.19283204  0.38703025  1
  Ti  Ti29  1  0.06354618  0.23270364  0.83680642  1
  Ti  Ti30  1  0.13918749  0.65477398  0.07493009  1
  Ti  Ti31  1  0.10614884  0.61296021  0.43022446  1
  Ti  Ti32  1  0.12302124  0.62646494  0.78192035  1
  Ti  Ti33  1  0.06276853  0.86623013  0.08787704  1
  Ti  Ti34  1  0.05067547  0.96248674  0.37315165  1
  Ti  Ti35  1  0.06791888  0.95849575  0.70790131  1
  Ti  Ti36  1  0.39109739  0.25594016  0.10088208  1
  Ti  Ti37  1  0.47900164  0.22590075  0.47263293  1
  Ti  Ti38  1  0.49713876  0.33519572  0.81932036  1
  Ti  Ti39  1  0.44748099  0.62338092  0.07526348  1
  Ti  Ti40  1  0.44592421  0.61049152  0.43817073  1
  Ti  Ti41  1  0.49104430  0.56049684  0.76374144  1
  Ti  Ti42  1  0.40032778  0.94121338  0.10868519  1
  Ti  Ti43  1  0.42553889  0.88777476  0.48095662  1
  Ti  Ti44  1  0.46815405  0.96450720  0.75361522  1
  Ti  Ti45  1  0.72788912  0.21330383  0.07380331  1
  Ti  Ti46  1  0.77512863  0.22277593  0.44392417  1
  Ti  Ti47  1  0.72615402  0.31041496  0.76904918  1
  Ti  Ti48  1  0.80611166  0.51075881  0.15287583  1
  Ti  Ti49  1  0.79406388  0.55109212  0.45063817  1
  Ti  Ti50  1  0.78376227  0.61016921  0.73305418  1
  Ti  Ti51  1  0.72758704  0.88808670  0.08514767  1
  Ti  Ti52  1  0.74680565  0.89812695  0.45614926  1
  Ti  Ti53  1  0.69735733  0.93693282  0.76040300  1
  Ti  Ti54  1  0.28033504  0.10636560  0.11696493  1
  Ti  Ti55  1  0.22911515  0.00222111  0.43712108  1
  Ti  Ti56  1  0.19581746  0.08165695  0.81359794  1
  Ti  Ti57  1  0.26950621  0.38826676  0.06743336  1
  Ti  Ti58  1  0.32878104  0.45383382  0.35061174  1
  Ti  Ti59  1  0.32610245  0.40859076  0.73678357  1
  Ti  Ti60  1  0.29845736  0.77460459  0.04244326  1
  Ti  Ti61  1  0.27213037  0.72313572  0.39510872  1
  Ti  Ti62  1  0.26202228  0.76242464  0.78194074  1
  Ti  Ti63  1  0.51862647  0.12802300  0.13924931  1
  Ti  Ti64  1  0.62630659  0.05312074  0.40264725  1
  Ti  Ti65  1  0.46224191  0.14407470  0.78471030  1
  Ti  Ti66  1  0.62881306  0.41712027  0.08195465  1
  Ti  Ti67  1  0.63698255  0.40527907  0.37751418  1
  Ti  Ti68  1  0.57898970  0.42960280  0.66537548  1
  Ti  Ti69  1  0.61041796  0.73604890  0.04597412  1
  Ti  Ti70  1  0.62355940  0.76703457  0.36339377  1
  Ti  Ti71  1  0.56108863  0.75718990  0.69592188  1
  Ti  Ti72  1  0.88396977  0.14281769  0.14939123  1
  Ti  Ti73  1  0.84274402  0.04794197  0.36772427  1
  Ti  Ti74  1  0.87280009  0.04289002  0.77816979  1
  Ti  Ti75  1  0.97817207  0.43661287  0.02091251  1
  Ti  Ti76  1  0.91395005  0.38750871  0.39109623  1
  Ti  Ti77  1  0.85185981  0.44100144  0.79524804  1
  Ti  Ti78  1  0.94863125  0.70971182  0.11597835  1
  Ti  Ti79  1  0.93316176  0.72322778  0.41425747  1
  Ti  Ti80  1  0.86222220  0.77769575  0.79627834  1
  Ti  Ti81  1  0.19681078  0.24303104  0.23678903  1
  Ti  Ti82  1  0.21499375  0.21043071  0.67084904  1
  Ti  Ti83  1  0.25722322  0.22255253  0.93699656  1
  Ti  Ti84  1  0.28488059  0.67580396  0.19778001  1
  Ti  Ti85  1  0.31426442  0.56245376  0.62810352  1
  Ti  Ti86  1  0.21717553  0.48771069  0.90062549  1
  Ti  Ti87  1  0.22701272  0.96542028  0.24114148  1
  Ti  Ti88  1  0.27531423  0.94713678  0.63272670  1
  Ti  Ti89  1  0.32867403  0.90691568  0.90624142  1
  Ti  Ti90  1  0.47731580  0.30714476  0.28824080  1
  Ti  Ti91  1  0.57099670  0.23173317  0.64947368  1
  Ti  Ti92  1  0.59700304  0.18353768  0.94948629  1
  Ti  Ti93  1  0.58353259  0.62248721  0.21527979  1
  Ti  Ti94  1  0.62865616  0.64390341  0.52471066  1
  Ti  Ti95  1  0.59508034  0.57568303  0.93358071  1
  Ti  Ti96  1  0.60194889  0.97818130  0.21964263  1
  Ti  Ti97  1  0.59957924  0.94847217  0.57965074  1
  Ti  Ti98  1  0.58468540  0.88025116  0.91458004  1
  Ti  Ti99  1  0.94987243  0.36909821  0.19666050  1
  Ti  Ti100  1  0.90232655  0.21267575  0.64688886  1
  Ti  Ti101  1  0.88676478  0.28624139  0.90897450  1
  Ti  Ti102  1  0.93791966  0.56294459  0.29101607  1
  Ti  Ti103  1  0.89663531  0.62477171  0.58434673  1
  Ti  Ti104  1  0.92471736  0.59198405  0.86971145  1
  Ti  Ti105  1  0.89288036  0.93405333  0.19032199  1
  Ti  Ti106  1  0.93563832  0.91734379  0.52109027  1
  Ti  Ti107  1  0.95084569  0.91658440  0.89177474  1
  Co  Co108  1  0.52869067  0.14548212  0.29692639  1
  Co  Co109  1  -0.01837357  0.51156880  0.72379736  1
  Co  Co110  1  0.10459326  0.34016020  0.13639842  1
  Co  Co111  1  0.62197462  0.81026214  0.52142663  1
  Co  Co112  1  0.55945463  -0.08742473  0.39636989  1
  Co  Co113  1  0.17524055  0.47952164  0.72828649  1
  Co  Co114  1  -0.09802404  0.75233288  0.25535722  1
  Co  Co115  1  0.46550048  0.90903666  0.25800490  1
  Co  Co116  1  0.45326163  0.80645665  -0.01553068  1
  Co  Co117  1  0.62480898  0.14163223  0.53023276  1
  Co  Co118  1  -0.02316429  0.01685347  0.03765006  1
  Co  Co119  1  0.69452711  0.59636614  0.06813558  1
  Co  Co120  1  0.78048737  0.47952237  0.30853730  1
  Co  Co121  1  0.40986181  0.69580968  0.71444686  1
  Co  Co122  1  0.77912387  -0.11366909  0.89690841  1
  Co  Co123  1  0.62759041  0.46596254  0.22807895  1
  Co  Co124  1  0.43637834  0.85910637  0.64219998  1
  Co  Co125  1  0.32748240  -0.10882170  0.35844465  1
  Co  Co126  1  0.07869387  0.78747458  0.44040235  1
  Co  Co127  1  0.30188481  0.58003246  0.78965960  1
  Co  Co128  1  0.63228821  0.79933176  0.20647078  1
  Co  Co129  1  0.13072620  0.33221412  -0.03052274  1
  Co  Co130  1  0.13530042  0.09508168  0.30850241  1
  Co  Co131  1  0.02874445  0.85871936  0.25233449  1
  Co  Co132  1  0.22960508  -0.07256151  0.07662748  1
  Co  Co133  1  0.10118733  -0.06860954  0.54539345  1
  Co  Co134  1  0.48713497  0.57795024  0.60114439  1
  Co  Co135  1  0.77712696  0.73125352  0.13645986  1
  Co  Co136  1  0.61670969  0.27879591  0.21222969  1
  Co  Co137  1  0.63757883  0.58101023  0.36562634  1
  Co  Co138  1  0.17169606  0.79848246  0.17340247  1
  Co  Co139  1  0.62362144  0.48880970  0.51882385  1
  Co  Co140  1  0.17735544  0.81970610  0.65752053  1
  Co  Co141  1  0.17880768  0.83894257  0.32840280  1
  Co  Co142  1  0.55391428  0.27717834  0.06759460  1
  Co  Co143  1  0.63685813  0.59480708  0.67680000  1
  Co  Co144  1  0.19418972  0.32741537  0.81078495  1
  Co  Co145  1  0.61330064  0.32151104  0.52218333  1
  Co  Co146  1  0.21049876  0.65825558  0.91795319  1
  Co  Co147  1  0.17975846  0.67777365  0.56049254  1
  Co  Co148  1  -0.04857436  0.33437391  0.73607368  1
  Co  Co149  1  0.87926668  0.13181456  -0.01660873  1
  Co  Co150  1  0.43079095  0.82309106  0.81301952  1
  Co  Co151  1  -0.00261088  0.55151562  0.13735434  1
  Co  Co152  1  0.55277890  -0.10914656  0.08876032  1
  Co  Co153  1  0.44347928  0.34186156  0.64187450  1
  Co  Co154  1  0.75097861  0.61606296  0.88954757  1
  Co  Co155  1  0.32412428  0.83340633  0.21135258  1
  Co  Co156  1  0.22843505  0.84800350  0.49211979  1
  Co  Co157  1  0.74270367  0.26774410  0.60295249  1
  Co  Co158  1  0.38733678  0.20196333  0.62784462  1
  Co  Co159  1  -0.06287052  0.03424899  0.63397429  1
  Co  Co160  1  0.91081291  0.45248230  0.59436517  1
  Co  Co161  1  0.32258774  0.34309174  0.22873517  1
  Ni  Ni162  1  0.86607660  0.59738026  0.02540041  1
  Ni  Ni163  1  0.27588780  0.56493180  0.47199200  1
  Ni  Ni164  1  0.05617523  0.80303361  0.78243059  1
  Ni  Ni165  1  0.28019319  0.05027852  -0.03300160  1
  Ni  Ni166  1  -0.03215430  0.53202610  0.46145383  1
  Ni  Ni167  1  0.77148425  0.38375862  0.47676829  1
  Ni  Ni168  1  0.74136937  -0.06762927  0.28858642  1
  Ni  Ni169  1  -0.03136601  0.67311730  0.72389866  1
  Ni  Ni170  1  0.59754713  0.06517676  0.68957902  1
  Ni  Ni171  1  0.28472373  0.50341345  0.18711420  1
  Ni  Ni172  1  0.79265244  -0.07091667  0.62752321  1
  Ni  Ni173  1  0.18764567  -0.09102709  0.80521451  1
  Ni  Ni174  1  0.71856584  0.31474193  -0.05535477  1
  Ni  Ni175  1  0.28178834  0.10428282  0.55370850  1
  Ni  Ni176  1  0.05351274  0.12581904  0.71374860  1
  Ni  Ni177  1  0.06717131  0.34107140  0.31195461  1
  Ni  Ni178  1  0.62618892  0.23846932  0.37987431  1
  Ni  Ni179  1  0.36658115  0.17287301  0.24972756  1
  Ni  Ni180  1  0.69416865  0.76421493  0.80590441  1
  Ni  Ni181  1  0.89499748  0.86046735  0.03691842  1
  Ni  Ni182  1  0.33270186  0.23979131  0.78383500  1
  Ni  Ni183  1  0.62511862  0.18859254  0.79661705  1
  Ni  Ni184  1  0.75373957  0.14128144  0.71180297  1
  Ni  Ni185  1  0.13109342  0.13410813  -0.01245507  1
  Ni  Ni186  1  0.83361027  0.34937113  0.07210735  1
  Ni  Ni187  1  0.39886262  0.59624387  0.27511527  1
  Ni  Ni188  1  0.59155965  0.41289380  0.91655933  1
  Ni  Ni189  1  0.14082260  0.48549025  0.06650508  1
  Ni  Ni190  1  0.58974404  0.03686379  0.85676475  1
  Ni  Ni191  1  0.00544108  0.08100157  0.88241164  1
  Ni  Ni192  1  0.74629780  0.04600211  0.13129133  1
  Ni  Ni193  1  0.02994159  0.21250760  0.21392883  1
  Ni  Ni194  1  0.29188564  0.57876780  0.04019876  1
  Ni  Ni195  1  0.45617575  0.38851917  0.01356419  1
  Ni  Ni196  1  0.77099016  0.72728924  0.46609476  1
  Ni  Ni197  1  0.22283710  0.57977390  0.31743022  1
  Ni  Ni198  1  0.49760128  0.48398497  0.33692560  1
  Ni  Ni199  1  0.77258368  0.17578083  0.86986111  1
  Ni  Ni200  1  -0.07513132  0.11447161  0.49532118  1
  Ni  Ni201  1  0.88879611  0.87925036  0.35757223  1
  Ni  Ni202  1  0.92907332  0.87282751  0.68957873  1
  Ni  Ni203  1  -0.02669582  0.07264912  0.27216939  1
  Ni  Ni204  1  0.60791861  0.02863511  0.03103025  1
  Ni  Ni205  1  0.06287357  0.57206102  -0.04734020  1
  Ni  Ni206  1  0.17071408  0.81435084  -0.05643031  1
  Ni  Ni207  1  0.67886453  0.48226656  0.79480262  1
  Ni  Ni208  1  0.33924057  0.35744976  -0.10120918  1
  Ni  Ni209  1  0.48200799  0.73577490  0.53746316  1
  Ni  Ni210  1  0.88103683  0.22030839  0.30424285  1
  Ni  Ni211  1  0.43530833  0.23143452  -0.06057367  1
  Ni  Ni212  1  0.46875908  0.76545187  0.15027475  1
  Ni  Ni213  1  0.32630258  0.07914509  0.71560610  1
  Ni  Ni214  1  0.54575328  0.71827869  0.86677067  1
