# generated using pymatgen
data_Ti108Co54Ni53
_symmetry_space_group_name_H-M   'P 1'
_cell_length_a   14.54906650
_cell_length_b   14.52020941
_cell_length_c   14.58750836
_cell_angle_alpha   90.19849484
_cell_angle_beta   89.93718989
_cell_angle_gamma   90.06764449
_symmetry_Int_Tables_number   1
_chemical_formula_structural   Ti108Co54Ni53
_chemical_formula_sum   'Ti108 Co54 Ni53'
_cell_volume   3081.66878111
_cell_formula_units_Z   1
loop_
 _symmetry_equiv_pos_site_id
 _symmetry_equiv_pos_as_xyz
  1  'x, y, z'
loop_
 _atom_site_type_symbol
 _atom_site_label
 _atom_site_symmetry_multiplicity
 _atom_site_fract_x
 _atom_site_fract_y
 _atom_site_fract_z
 _atom_site_occupancy
  Ti  Ti0  1  0.03875289  0.12028340  0.28261395  1
  Ti  Ti1  1  0.07055674  0.02733952  0.60654017  1
  Ti  Ti2  1  0.08792742  0.09473106  0.92147587  1
  Ti  Ti3  1  0.04038104  0.43954001  0.30762760  1
  Ti  Ti4  1  0.05400611  0.45813637  0.57705248  1
  Ti  Ti5  1  0.07240389  0.42032895  0.97096312  1
  Ti  Ti6  1  0.06952958  0.75362923  0.16669636  1
  Ti  Ti7  1  0.03327306  0.70796854  0.51549437  1
  Ti  Ti8  1  0.05150831  0.73592959  0.96336907  1
  Ti  Ti9  1  0.43329171  0.02590010  0.28278932  1
  Ti  Ti10  1  0.48262120  0.11235317  0.55105063  1
  Ti  Ti11  1  0.44103544  0.07739750  0.85439321  1
  Ti  Ti12  1  0.36618467  0.36523687  0.20786098  1
  Ti  Ti13  1  0.38366813  0.41289079  0.68516866  1
  Ti  Ti14  1  0.42758794  0.36098587  0.86586561  1
  Ti  Ti15  1  0.41883319  0.68496779  0.25609313  1
  Ti  Ti16  1  0.34344439  0.74959781  0.57691179  1
  Ti  Ti17  1  0.41366312  0.82167247  0.93684927  1
  Ti  Ti18  1  0.72268115  0.05946749  0.25056866  1
  Ti  Ti19  1  0.78659879  0.11123644  0.66579366  1
  Ti  Ti20  1  0.80170672  0.07333247  0.97427447  1
  Ti  Ti21  1  0.73749805  0.46104136  0.29611976  1
  Ti  Ti22  1  0.77411474  0.34421960  0.61541822  1
  Ti  Ti23  1  0.73888303  0.35572820  0.84443596  1
  Ti  Ti24  1  0.75165614  0.85676713  0.20884116  1
  Ti  Ti25  1  0.76358854  0.77770605  0.58033933  1
  Ti  Ti26  1  0.70295839  0.73805857  0.95775107  1
  Ti  Ti27  1  0.05943830  0.27845924  0.16742760  1
  Ti  Ti28  1  0.04215473  0.22764996  0.48617553  1
  Ti  Ti29  1  0.10660223  0.30105894  0.67800412  1
  Ti  Ti30  1  0.11933865  0.56462047  0.16115743  1
  Ti  Ti31  1  0.12619332  0.63876058  0.34314138  1
  Ti  Ti32  1  0.09610228  0.60999339  0.66954671  1
  Ti  Ti33  1  0.11921101  0.94002450  0.06215124  1
  Ti  Ti34  1  0.12018426  0.94809774  0.33150654  1
  Ti  Ti35  1  0.03180564  0.87115192  0.70606107  1
  Ti  Ti36  1  0.39118008  0.20984528  0.09872523  1
  Ti  Ti37  1  0.34854543  0.21755139  0.41569222  1
  Ti  Ti38  1  0.43268225  0.22803798  0.71905851  1
  Ti  Ti39  1  0.42963191  0.53191263  0.10090819  1
  Ti  Ti40  1  0.39974243  0.54668036  0.42042341  1
  Ti  Ti41  1  0.37217093  0.54623415  0.82908682  1
  Ti  Ti42  1  0.46781367  0.88363725  0.12096057  1
  Ti  Ti43  1  0.42719081  0.83291378  0.42713642  1
  Ti  Ti44  1  0.39614677  0.87459650  0.74354679  1
  Ti  Ti45  1  0.74520542  0.33764590  0.11356067  1
  Ti  Ti46  1  0.73950497  0.24224535  0.39607492  1
  Ti  Ti47  1  0.72752027  0.17415424  0.84509354  1
  Ti  Ti48  1  0.80073431  0.60254231  0.01361924  1
  Ti  Ti49  1  0.75978086  0.65427793  0.41063750  1
  Ti  Ti50  1  0.75266840  0.54577637  0.72306714  1
  Ti  Ti51  1  0.79891229  0.89487277  0.02585359  1
  Ti  Ti52  1  0.79161271  0.88646354  0.39599239  1
  Ti  Ti53  1  0.69130104  0.91936038  0.69915686  1
  Ti  Ti54  1  0.21691510  0.13586437  0.04858771  1
  Ti  Ti55  1  0.23691369  0.08457981  0.35160640  1
  Ti  Ti56  1  0.26620981  0.09970129  0.71533626  1
  Ti  Ti57  1  0.21762565  0.38601286  0.08473190  1
  Ti  Ti58  1  0.24603219  0.37792039  0.38728979  1
  Ti  Ti59  1  0.20456323  0.46564172  0.80994959  1
  Ti  Ti60  1  0.28085817  0.73953727  0.07975488  1
  Ti  Ti61  1  0.21836783  0.81988740  0.45406524  1
  Ti  Ti62  1  0.26584037  0.68643936  0.72843225  1
  Ti  Ti63  1  0.50603472  0.06680614  0.04882774  1
  Ti  Ti64  1  0.57495070  0.13758898  0.37982603  1
  Ti  Ti65  1  0.59110152  0.09624393  0.72220006  1
  Ti  Ti66  1  0.58856999  0.44422130  0.15506241  1
  Ti  Ti67  1  0.58145547  0.39456576  0.39003293  1
  Ti  Ti68  1  0.58570398  0.38410828  0.74942571  1
  Ti  Ti69  1  0.62663396  0.68398646  0.14511851  1
  Ti  Ti70  1  0.59527817  0.75269577  0.48158257  1
  Ti  Ti71  1  0.57541872  0.78398378  0.80664699  1
  Ti  Ti72  1  0.92290864  0.14633842  0.09711083  1
  Ti  Ti73  1  0.88721789  0.08560415  0.47459253  1
  Ti  Ti74  1  0.93155826  0.08020633  0.81440730  1
  Ti  Ti75  1  0.88033290  0.44002317  0.02985307  1
  Ti  Ti76  1  0.90192350  0.37240283  0.44313544  1
  Ti  Ti77  1  1.02103416  0.44259142  0.76946571  1
  Ti  Ti78  1  0.87026153  0.74028190  0.11959179  1
  Ti  Ti79  1  1.00478895  0.81007535  0.36018459  1
  Ti  Ti80  1  0.94016326  0.72333231  0.78773322  1
  Ti  Ti81  1  0.23774580  0.21113083  0.21924016  1
  Ti  Ti82  1  0.26092082  0.29308634  0.57560347  1
  Ti  Ti83  1  0.25584903  0.29028555  0.92549003  1
  Ti  Ti84  1  0.28934573  0.52956141  0.26434160  1
  Ti  Ti85  1  0.28405391  0.54710451  0.58473968  1
  Ti  Ti86  1  0.22672124  0.65485936  0.91418790  1
  Ti  Ti87  1  0.26960269  0.89202637  0.20177935  1
  Ti  Ti88  1  0.22384075  0.90765504  0.66596983  1
  Ti  Ti89  1  0.24693049  0.96169177  0.87775621  1
  Ti  Ti90  1  0.58705321  0.18529824  0.18585617  1
  Ti  Ti91  1  0.59883457  0.26678269  0.56750056  1
  Ti  Ti92  1  0.56040151  0.28899703  1.00348365  1
  Ti  Ti93  1  0.58161729  0.59711030  0.33431005  1
  Ti  Ti94  1  0.58224456  0.63602866  0.66299203  1
  Ti  Ti95  1  0.53385225  0.63368857  0.92565951  1
  Ti  Ti96  1  0.59403470  0.90306824  0.32270033  1
  Ti  Ti97  1  0.52411889  0.90954810  0.60302935  1
  Ti  Ti98  1  0.62719032  0.92847151  0.93984524  1
  Ti  Ti99  1  0.85111716  0.25175505  0.24638662  1
  Ti  Ti100  1  0.96826581  0.18104573  0.66027511  1
  Ti  Ti101  1  0.95112255  0.27183878  0.89528822  1
  Ti  Ti102  1  0.91422362  0.57427398  0.21706662  1
  Ti  Ti103  1  0.88343146  0.56918700  0.54911520  1
  Ti  Ti104  1  0.95026128  0.56662772  0.89760675  1
  Ti  Ti105  1  0.95451357  0.93693538  0.19994172  1
  Ti  Ti106  1  0.93064667  0.89062787  0.53533162  1
  Ti  Ti107  1  0.91826894  0.90400829  0.87580003  1
  Co  Co108  1  0.12462157  0.56752156  -0.00150889  1
  Co  Co109  1  0.65324423  0.53299649  0.85750375  1
  Co  Co110  1  0.80595985  0.49412005  -0.11667210  1
  Co  Co111  1  0.63522143  0.87657268  0.11261695  1
  Co  Co112  1  0.83142705  0.01484538  0.13670811  1
  Co  Co113  1  0.66264156  0.89749510  0.50358114  1
  Co  Co114  1  0.42568611  0.84845558  0.26816482  1
  Co  Co115  1  0.67093132  0.02683472  0.07216507  1
  Co  Co116  1  0.63154062  0.04338632  0.57146906  1
  Co  Co117  1  0.88957619  0.40706159  0.22849513  1
  Co  Co118  1  0.41685334  0.21395761  -0.06020878  1
  Co  Co119  1  0.67579647  0.30386959  0.26237263  1
  Co  Co120  1  0.71854834  0.16662499  0.53270175  1
  Co  Co121  1  0.47293517  0.50109197  0.26500654  1
  Co  Co122  1  0.27150161  0.14164030  0.86986171  1
  Co  Co123  1  -0.01149834  0.28291039  0.33573861  1
  Co  Co124  1  0.88306284  0.75014050  -0.05071798  1
  Co  Co125  1  0.17698019  0.03577869  0.19955826  1
  Co  Co126  1  0.19223835  0.82161034  -0.03246232  1
  Co  Co127  1  -0.03881232  0.01127931  -0.00080982  1
  Co  Co128  1  0.27508132  0.29042593  0.75245478  1
  Co  Co129  1  -0.05534514  0.34463711  0.62149030  1
  Co  Co130  1  0.52997530  -0.02305407  0.45012180  1
  Co  Co131  1  0.08324483  0.24744941  0.00501521  1
  Co  Co132  1  0.66680319  0.24846000  0.71363747  1
  Co  Co133  1  0.93564882  0.57072862  0.70297023  1
  Co  Co134  1  0.57415161  0.00739671  0.20035206  1
  Co  Co135  1  0.07385531  0.91430438  0.89471453  1
  Co  Co136  1  0.09099594  0.88926548  0.51827539  1
  Co  Co137  1  0.35176224  0.06384917  -0.01290485  1
  Co  Co138  1  0.29674941  0.92118453  0.35756997  1
  Co  Co139  1  0.28687574  0.80303094  0.83909433  1
  Co  Co140  1  0.07461480  0.06961812  0.44391299  1
  Co  Co141  1  0.16736546  0.79730896  0.29224007  1
  Co  Co142  1  0.09597766  0.37506000  0.44979396  1
  Co  Co143  1  0.48477056  0.75917942  0.65370484  1
  Co  Co144  1  0.06913552  0.09908424  0.10749689  1
  Co  Co145  1  0.26859917  0.56904054  0.09482133  1
  Co  Co146  1  0.87519719  0.74779488  0.46675143  1
  Co  Co147  1  0.86376678  0.23855707  0.52864781  1
  Co  Co148  1  0.23848510  0.67867920  0.21772560  1
  Co  Co149  1  0.79123752  -0.02938485  0.56600596  1
  Co  Co150  1  0.41076135  0.60533961  0.66913308  1
  Co  Co151  1  0.49420836  0.26519608  0.44566172  1
  Co  Co152  1  -0.07372822  0.30555328  0.08054799  1
  Co  Co153  1  -0.08203841  0.01041042  0.66325802  1
  Co  Co154  1  0.50947429  0.46686888  -0.03704091  1
  Co  Co155  1  0.11298696  0.00583967  0.76820790  1
  Co  Co156  1  0.42554216  0.70218911  0.80633253  1
  Co  Co157  1  0.19780861  0.43431733  0.65745199  1
  Co  Co158  1  0.55569032  0.23372111  0.84387691  1
  Co  Co159  1  0.15233572  0.24019636  0.35567835  1
  Co  Co160  1  0.02770123  0.43938331  0.12966395  1
  Co  Co161  1  0.20266109  0.52138133  0.43086463  1
  Ni  Ni162  1  0.71718402  0.03906816  0.42184659  1
  Ni  Ni163  1  0.71452204  0.73548479  0.72933759  1
  Ni  Ni164  1  0.37359020  0.63224800  -0.02379082  1
  Ni  Ni165  1  0.42299862  0.03704685  0.68918127  1
  Ni  Ni166  1  0.31792823  0.12409259  0.56199006  1
  Ni  Ni167  1  0.19413056  0.66219322  0.51065266  1
  Ni  Ni168  1  0.33406649  0.04858971  0.14934238  1
  Ni  Ni169  1  -0.08223122  0.72264052  0.62924270  1
  Ni  Ni170  1  0.75613342  0.63882284  0.24273007  1
  Ni  Ni171  1  0.51539187  0.31691488  0.25641787  1
  Ni  Ni172  1  0.41484551  0.38304691  0.36517289  1
  Ni  Ni173  1  0.41322680  0.18888801  0.26746088  1
  Ni  Ni174  1  0.12584478  0.76980233  0.80266710  1
  Ni  Ni175  1  -0.02740748  0.85652727  0.04983761  1
  Ni  Ni176  1  0.09094747  0.60501881  0.82859432  1
  Ni  Ni177  1  0.60768168  0.08901764  0.91682845  1
  Ni  Ni178  1  0.55840843  0.78627174  0.00656294  1
  Ni  Ni179  1  0.35766515  -0.06742725  0.56300514  1
  Ni  Ni180  1  0.12130562  0.16770694  0.77176227  1
  Ni  Ni181  1  0.86287914  0.42311229  0.74403319  1
  Ni  Ni182  1  -0.04443732  -0.02796468  0.37009496  1
  Ni  Ni183  1  0.87405458  0.09304507  0.29585187  1
  Ni  Ni184  1  0.80343586  0.25395026  -0.02363959  1
  Ni  Ni185  1  0.17850399  0.38368238  0.23750515  1
  Ni  Ni186  1  0.63565977  0.56492160  0.03148875  1
  Ni  Ni187  1  0.27796403  0.47821640  0.95865746  1
  Ni  Ni188  1  0.21710975  0.00180702  0.49927104  1
  Ni  Ni189  1  0.11489999  0.31239356  0.84582543  1
  Ni  Ni190  1  0.85101986  0.25561917  0.75035767  1
  Ni  Ni191  1  -0.04524858  0.64963383  0.36283510  1
  Ni  Ni192  1  0.31403030  0.91604214  0.03682980  1
  Ni  Ni193  1  0.36656737  0.40812813  0.51709295  1
  Ni  Ni194  1  0.14834612  0.76750111  0.62860174  1
  Ni  Ni195  1  0.74631192  0.16978970  0.11496384  1
  Ni  Ni196  1  0.29698903  0.68097489  0.37924445  1
  Ni  Ni197  1  -0.02537513  0.60486463  0.06326869  1
  Ni  Ni198  1  0.53815203  -0.04983093  0.79315007  1
  Ni  Ni199  1  0.45600147  0.70500183  0.09894729  1
  Ni  Ni200  1  0.86454029  0.76098957  0.28950556  1
  Ni  Ni201  1  0.79585217  0.65373356  0.84274393  1
  Ni  Ni202  1  0.65119433  0.74871505  0.31214883  1
  Ni  Ni203  1  0.76844228  0.00803414  0.81813171  1
  Ni  Ni204  1  0.47047796  0.65522639  0.51897257  1
  Ni  Ni205  1  0.15764611  0.15865207  0.59125814  1
  Ni  Ni206  1  0.39147635  0.36988529  0.03440093  1
  Ni  Ni207  1  0.76286899  0.84164567  0.84811942  1
  Ni  Ni208  1  0.02841356  0.53371355  0.44161055  1
  Ni  Ni209  1  0.37836722  0.03840221  0.43743483  1
  Ni  Ni210  1  0.86437093  0.51719997  0.38033684  1
  Ni  Ni211  1  0.51766010  0.52808503  0.77231068  1
  Ni  Ni212  1  0.67402366  0.41530784  -0.01621120  1
  Ni  Ni213  1  0.85318661  0.86445322  0.70534259  1
  Ni  Ni214  1  0.75430859  0.50956226  0.13760890  1
