# generated using pymatgen
data_Ti108Co54Ni53
_symmetry_space_group_name_H-M   'P 1'
_cell_length_a   14.65001034
_cell_length_b   14.62074418
_cell_length_c   14.73812053
_cell_angle_alpha   89.93706075
_cell_angle_beta   89.95051745
_cell_angle_gamma   89.60545738
_symmetry_Int_Tables_number   1
_chemical_formula_structural   Ti108Co54Ni53
_chemical_formula_sum   'Ti108 Co54 Ni53'
_cell_volume   3156.73987048
_cell_formula_units_Z   1
loop_
 _symmetry_equiv_pos_site_id
 _symmetry_equiv_pos_as_xyz
  1  'x, y, z'
loop_
 _atom_site_type_symbol
 _atom_site_label
 _atom_site_symmetry_multiplicity
 _atom_site_fract_x
 _atom_site_fract_y
 _atom_site_fract_z
 _atom_site_occupancy
  Ti  Ti0  1  0.05085545  0.01061820  0.27489111  1
  Ti  Ti1  1  0.14894984  0.13723531  0.52217888  1
  Ti  Ti2  1  0.05473590  0.02491345  0.94360927  1
  Ti  Ti3  1  0.03387587  0.46703214  0.29895890  1
  Ti  Ti4  1  0.11871363  0.42376711  0.65920337  1
  Ti  Ti5  1  0.05029849  0.41665647  0.85525357  1
  Ti  Ti6  1  0.08101231  0.79406936  0.25433826  1
  Ti  Ti7  1  0.12914875  0.73583665  0.60809370  1
  Ti  Ti8  1  0.13311021  0.77131389  0.94451254  1
  Ti  Ti9  1  0.51456669  0.05136678  0.19959028  1
  Ti  Ti10  1  0.41310238  0.08227406  0.66397914  1
  Ti  Ti11  1  0.36871994  0.15303508  1.01839961  1
  Ti  Ti12  1  0.36110423  0.47753583  0.22078887  1
  Ti  Ti13  1  0.43038281  0.38386371  0.53652919  1
  Ti  Ti14  1  0.46167366  0.43188386  0.86484036  1
  Ti  Ti15  1  0.38179806  0.69854702  0.25884576  1
  Ti  Ti16  1  0.43521229  0.69752970  0.50431943  1
  Ti  Ti17  1  0.41157914  0.84162950  0.92662449  1
  Ti  Ti18  1  0.70042655  0.05431718  0.31705397  1
  Ti  Ti19  1  0.73578645  0.10523534  0.58822008  1
  Ti  Ti20  1  0.82051711  0.08880840  1.01749705  1
  Ti  Ti21  1  0.69489728  0.41048175  0.22007174  1
  Ti  Ti22  1  0.74238407  0.45421411  0.64928790  1
  Ti  Ti23  1  0.80949584  0.36020023  0.98023451  1
  Ti  Ti24  1  0.75897499  0.74929746  0.23302638  1
  Ti  Ti25  1  0.67933083  0.66209708  0.57862510  1
  Ti  Ti26  1  0.74515171  0.78292628  0.93161935  1
  Ti  Ti27  1  0.06883527  0.22608942  0.08874500  1
  Ti  Ti28  1  0.12998176  0.28324618  0.38288082  1
  Ti  Ti29  1  0.06038277  0.20587263  0.68150676  1
  Ti  Ti30  1  0.11891086  0.58070245  0.00658628  1
  Ti  Ti31  1  0.11735936  0.61110050  0.40837088  1
  Ti  Ti32  1  0.15893884  0.56813165  0.82395337  1
  Ti  Ti33  1  0.11897494  0.90327669  0.11152193  1
  Ti  Ti34  1  0.08164799  0.80453257  0.43255066  1
  Ti  Ti35  1  0.06128373  0.91358458  0.72957485  1
  Ti  Ti36  1  0.40990084  0.29369118  0.14487417  1
  Ti  Ti37  1  0.33527535  0.23594367  0.45083571  1
  Ti  Ti38  1  0.40811196  0.21565649  0.84852245  1
  Ti  Ti39  1  0.43712659  0.62475295  0.06475822  1
  Ti  Ti40  1  0.44229884  0.53475552  0.38939085  1
  Ti  Ti41  1  0.44565987  0.63630999  0.70392996  1
  Ti  Ti42  1  0.37329868  0.95483478  0.12282627  1
  Ti  Ti43  1  0.45342321  0.87134905  0.38688124  1
  Ti  Ti44  1  0.49492355  0.93147829  0.76402585  1
  Ti  Ti45  1  0.72679599  0.24744241  0.11197260  1
  Ti  Ti46  1  0.79501916  0.23592712  0.45433980  1
  Ti  Ti47  1  0.77983665  0.30337248  0.79290417  1
  Ti  Ti48  1  0.73773847  0.54525679  0.00270238  1
  Ti  Ti49  1  0.74235526  0.57535164  0.34952261  1
  Ti  Ti50  1  0.77403166  0.54409311  0.81159701  1
  Ti  Ti51  1  0.68169334  0.95595330  0.06222250  1
  Ti  Ti52  1  0.66286045  0.90215293  0.44212115  1
  Ti  Ti53  1  0.70769415  0.95401567  0.75693543  1
  Ti  Ti54  1  0.21428071  0.06613780  0.07584285  1
  Ti  Ti55  1  0.25196637  0.08813062  0.36179077  1
  Ti  Ti56  1  0.22141970  0.05101001  0.71445410  1
  Ti  Ti57  1  0.20912278  0.39691107  0.11085140  1
  Ti  Ti58  1  0.23900129  0.45082985  0.47225210  1
  Ti  Ti59  1  0.28150553  0.38474645  0.81080380  1
  Ti  Ti60  1  0.24183954  0.71898553  0.11182335  1
  Ti  Ti61  1  0.27255058  0.77632135  0.43089516  1
  Ti  Ti62  1  0.26240442  0.72032839  0.78565576  1
  Ti  Ti63  1  0.56114287  0.17409741  0.05527482  1
  Ti  Ti64  1  0.52490694  0.12004374  0.50085594  1
  Ti  Ti65  1  0.56720348  0.19044642  0.70567958  1
  Ti  Ti66  1  0.56273284  0.45998209  0.04064692  1
  Ti  Ti67  1  0.60145312  0.42772959  0.39157986  1
  Ti  Ti68  1  0.57644120  0.38901602  0.71371092  1
  Ti  Ti69  1  0.56097651  0.76842449  -0.01087869  1
  Ti  Ti70  1  0.57321194  0.72724380  0.33318580  1
  Ti  Ti71  1  0.57852708  0.75268524  0.77974226  1
  Ti  Ti72  1  0.88367354  0.13829858  0.18291522  1
  Ti  Ti73  1  0.88559252  0.07981727  0.34848165  1
  Ti  Ti74  1  0.91421551  0.04949311  0.73387775  1
  Ti  Ti75  1  0.97489798  0.39264020  0.13151025  1
  Ti  Ti76  1  0.87213483  0.44638638  0.46531765  1
  Ti  Ti77  1  0.93229013  0.49083747  0.70361476  1
  Ti  Ti78  1  0.92543413  0.71143288  0.06360879  1
  Ti  Ti79  1  0.89851656  0.73947948  0.37231998  1
  Ti  Ti80  1  0.92602482  0.69879388  0.75031928  1
  Ti  Ti81  1  0.27577879  0.26108481  0.26234619  1
  Ti  Ti82  1  0.27211058  0.25348538  0.64048742  1
  Ti  Ti83  1  0.17984952  0.23513344  0.92764440  1
  Ti  Ti84  1  0.17412315  0.57646792  0.22062670  1
  Ti  Ti85  1  0.24115861  0.57966890  0.64753296  1
  Ti  Ti86  1  0.32118804  0.55343140  0.93456548  1
  Ti  Ti87  1  0.22122861  0.91521983  0.31301729  1
  Ti  Ti88  1  0.21875389  0.94497920  0.54848964  1
  Ti  Ti89  1  0.23896981  0.91659222  0.85313055  1
  Ti  Ti90  1  0.59051485  0.22674478  0.27923243  1
  Ti  Ti91  1  0.62311258  0.30960557  0.53123342  1
  Ti  Ti92  1  0.68138653  0.17364596  0.90438377  1
  Ti  Ti93  1  0.54819922  0.55703514  0.22556365  1
  Ti  Ti94  1  0.55322753  0.52219083  0.57256064  1
  Ti  Ti95  1  0.57332040  0.59194145  0.88820089  1
  Ti  Ti96  1  0.62082203  0.88896886  0.24328944  1
  Ti  Ti97  1  0.51937347  0.93092690  0.56408709  1
  Ti  Ti98  1  0.51733830  1.00794989  0.96444888  1
  Ti  Ti99  1  0.93793899  0.29262245  0.33262268  1
  Ti  Ti100  1  0.96850900  0.23426138  0.52686324  1
  Ti  Ti101  1  0.96072720  0.21719743  0.86567788  1
  Ti  Ti102  1  0.87435537  0.58433185  0.20227240  1
  Ti  Ti103  1  0.98534350  0.58313460  0.54483898  1
  Ti  Ti104  1  0.92831388  0.52415855  0.98812343  1
  Ti  Ti105  1  0.91742487  0.86859640  0.20729189  1
  Ti  Ti106  1  0.95903885  1.02832269  0.51338599  1
  Ti  Ti107  1  0.87662330  0.92598962  0.91683297  1
  Co  Co108  1  0.22071731  0.07713669  0.89989713  1
  Co  Co109  1  0.44815534  0.23416446  0.58388135  1
  Co  Co110  1  0.84129488  0.65307336  0.90676411  1
  Co  Co111  1  0.33017652  0.54551683  0.78021717  1
  Co  Co112  1  0.30802121  0.74450742  0.62327407  1
  Co  Co113  1  -0.00551131  0.85291634  0.02918832  1
  Co  Co114  1  0.66818743  0.79900492  0.10708062  1
  Co  Co115  1  0.17518205  0.12898279  0.22411638  1
  Co  Co116  1  0.37305755  0.05408999  0.81699186  1
  Co  Co117  1  0.60619158  0.56276484  0.72920128  1
  Co  Co118  1  0.25913598  0.18918659  0.78685532  1
  Co  Co119  1  0.43466618  0.66909874  0.87477331  1
  Co  Co120  1  -0.03660562  -0.09605302  0.37139248  1
  Co  Co121  1  0.52854875  -0.10592507  0.09552093  1
  Co  Co122  1  0.14165090  0.30826288  0.54409938  1
  Co  Co123  1  0.60476475  0.88750670  0.87921840  1
  Co  Co124  1  -0.02299036  0.73322314  -0.08788789  1
  Co  Co125  1  0.39823174  0.78196008  0.08436600  1
  Co  Co126  1  0.41919071  0.31407833  0.72268914  1
  Co  Co127  1  0.81838212  0.85570418  0.07214393  1
  Co  Co128  1  0.02980008  0.87949286  0.87400987  1
  Co  Co129  1  0.43951733  0.47328764  0.68995902  1
  Co  Co130  1  0.31542424  0.31971029  -0.02606981  1
  Co  Co131  1  0.20051701  0.85415243  0.69772261  1
  Co  Co132  1  0.58103938  0.77204715  0.50145391  1
  Co  Co133  1  0.59860612  0.03535369  0.65770312  1
  Co  Co134  1  0.48163869  0.79119551  0.63476824  1
  Co  Co135  1  -0.01105843  0.39287780  0.57523055  1
  Co  Co136  1  0.10935978  0.32470551  0.22279065  1
  Co  Co137  1  0.75927710  0.20946331  0.29133107  1
  Co  Co138  1  0.83847423  0.10525776  0.85916121  1
  Co  Co139  1  0.44874155  0.85434541  0.23258518  1
  Co  Co140  1  0.81209697  0.45412481  0.11827218  1
  Co  Co141  1  0.65477899  0.16867625  0.42366966  1
  Co  Co142  1  0.77189756  0.68669574  0.06974157  1
  Co  Co143  1  0.72279108  0.11753474  0.75150072  1
  Co  Co144  1  0.86760406  0.18995393  0.68913934  1
  Co  Co145  1  0.24156992  0.23438606  0.10234518  1
  Co  Co146  1  0.06662695  0.04806245  0.63402689  1
  Co  Co147  1  0.24387061  0.64304949  0.50184219  1
  Co  Co148  1  0.82874442  0.59558892  0.63937515  1
  Co  Co149  1  0.28534197  0.83933689  0.19935860  1
  Co  Co150  1  0.72248390  0.74151581  0.40675912  1
  Co  Co151  1  -0.00713292  0.34202259  -0.02434153  1
  Co  Co152  1  0.30395839  0.11128870  0.55065366  1
  Co  Co153  1  0.40147765  0.79274403  0.77047147  1
  Co  Co154  1  0.02394068  0.18622431  0.24643120  1
  Co  Co155  1  0.87182828  0.45137586  0.29151271  1
  Co  Co156  1  0.08514115  0.09768843  0.80369707  1
  Co  Co157  1  0.88467003  0.41753601  0.85134636  1
  Co  Co158  1  0.34893697  0.12785155  0.18260961  1
  Co  Co159  1  0.20991206  0.72388909  0.29908216  1
  Co  Co160  1  0.75536786  0.37043816  0.36994652  1
  Co  Co161  1  0.09149511  0.74340147  0.78543770  1
  Ni  Ni162  1  0.05271868  0.06919197  0.12096622  1
  Ni  Ni163  1  0.50333813  0.27844960  0.41545203  1
  Ni  Ni164  1  0.59788373  0.60655826  0.43551540  1
  Ni  Ni165  1  0.71218676  0.49810404  0.49745370  1
  Ni  Ni166  1  0.71060205  0.00809265  -0.09113009  1
  Ni  Ni167  1  -0.07427612  -0.01444550  0.08417693  1
  Ni  Ni168  1  0.34463315  -0.07690733  0.68829015  1
  Ni  Ni169  1  0.36811338  0.37911226  0.36544260  1
  Ni  Ni170  1  0.27791179  0.55402159  0.09282349  1
  Ni  Ni171  1  -0.00879035  0.58249172  0.84897699  1
  Ni  Ni172  1  0.43034969  0.15233670  0.32963703  1
  Ni  Ni173  1  0.03962324  0.13706395  0.39741653  1
  Ni  Ni174  1  0.39561001  0.01968022  0.45594086  1
  Ni  Ni175  1  0.25790674  0.87340855  0.02424983  1
  Ni  Ni176  1  0.64423295  0.32231563  -0.01661408  1
  Ni  Ni177  1  0.50245132  0.39086209  0.26726026  1
  Ni  Ni178  1  -0.04544326  0.32538076  0.72841748  1
  Ni  Ni179  1  0.60717575  0.62881614  0.06555618  1
  Ni  Ni180  1  0.89494603  0.23577238  0.04729493  1
  Ni  Ni181  1  0.70975686  0.25976940  0.65685182  1
  Ni  Ni182  1  0.36662048  0.86890212  0.53285068  1
  Ni  Ni183  1  0.84284470  0.33039878  0.60010578  1
  Ni  Ni184  1  0.01229022  0.64970157  0.27558483  1
  Ni  Ni185  1  0.29425023  0.41849454  0.63725614  1
  Ni  Ni186  1  0.78815947  0.01758570  0.46277693  1
  Ni  Ni187  1  0.18782170  0.43099981  -0.05020810  1
  Ni  Ni188  1  0.53252056  0.72922196  0.17154592  1
  Ni  Ni189  1  0.67946459  0.10051209  0.15968552  1
  Ni  Ni190  1  0.37458320  0.54485257  0.54762153  1
  Ni  Ni191  1  0.13474747  0.30089028  0.78311111  1
  Ni  Ni192  1  0.57280097  0.32617915  0.13297834  1
  Ni  Ni193  1  0.21504783  0.43156872  0.30700400  1
  Ni  Ni194  1  0.53943639  0.01593858  0.36681726  1
  Ni  Ni195  1  0.39673892  0.44662308  0.05104366  1
  Ni  Ni196  1  0.79173255  -0.02049068  0.19153301  1
  Ni  Ni197  1  0.79518659  0.89431568  0.33353668  1
  Ni  Ni198  1  0.02534634  0.55832160  0.13852350  1
  Ni  Ni199  1  0.47675291  0.30954296  -0.01046896  1
  Ni  Ni200  1  0.56365669  0.28831921  0.84598308  1
  Ni  Ni201  1  0.29886185  0.72135041  -0.04345136  1
  Ni  Ni202  1  0.82746885  0.62855772  0.48311456  1
  Ni  Ni203  1  0.05121929  0.89466167  0.56535642  1
  Ni  Ni204  1  0.10478680  -0.01788697  0.43134533  1
  Ni  Ni205  1  0.70663915  0.57733643  0.18065830  1
  Ni  Ni206  1  0.57226676  0.06790329  0.82127106  1
  Ni  Ni207  1  0.06606592  0.60181845  0.69408595  1
  Ni  Ni208  1  0.07831539  0.71635993  0.10899186  1
  Ni  Ni209  1  0.07262804  0.44682345  0.45680144  1
  Ni  Ni210  1  0.28776608  0.58564916  0.35407022  1
  Ni  Ni211  1  0.64941243  0.43843423  0.86545898  1
  Ni  Ni212  1  0.37866619  -0.00331202  0.29143100  1
  Ni  Ni213  1  0.84330728  0.31661888  0.20189932  1
  Ni  Ni214  1  0.34678206  -0.00357231  -0.03779343  1
