# generated using pymatgen
data_Ti108Co54Ni53
_symmetry_space_group_name_H-M   'P 1'
_cell_length_a   14.66238410
_cell_length_b   14.60966598
_cell_length_c   14.61623293
_cell_angle_alpha   89.53162585
_cell_angle_beta   90.15191745
_cell_angle_gamma   90.08698387
_symmetry_Int_Tables_number   1
_chemical_formula_structural   Ti108Co54Ni53
_chemical_formula_sum   'Ti108 Co54 Ni53'
_cell_volume   3130.86117229
_cell_formula_units_Z   1
loop_
 _symmetry_equiv_pos_site_id
 _symmetry_equiv_pos_as_xyz
  1  'x, y, z'
loop_
 _atom_site_type_symbol
 _atom_site_label
 _atom_site_symmetry_multiplicity
 _atom_site_fract_x
 _atom_site_fract_y
 _atom_site_fract_z
 _atom_site_occupancy
  Ti  Ti0  1  0.08221623  0.07460093  0.27113514  1
  Ti  Ti1  1  0.09422283  0.04781613  0.51855270  1
  Ti  Ti2  1  0.07851301  0.12373349  0.92089104  1
  Ti  Ti3  1  0.09314730  0.43999039  0.22958687  1
  Ti  Ti4  1  0.06891345  0.44217922  0.66493222  1
  Ti  Ti5  1  0.10374123  0.43682797  0.90917744  1
  Ti  Ti6  1  0.05547566  0.71829206  0.23870360  1
  Ti  Ti7  1  0.09242083  0.72695278  0.55596287  1
  Ti  Ti8  1  0.04419454  0.79043169  0.96569203  1
  Ti  Ti9  1  0.38591416  0.06859379  0.26417796  1
  Ti  Ti10  1  0.44991159  0.12630636  0.61013331  1
  Ti  Ti11  1  0.49722785  0.03913753  0.91019171  1
  Ti  Ti12  1  0.41783546  0.41066392  0.20373086  1
  Ti  Ti13  1  0.42340067  0.33496955  0.54356379  1
  Ti  Ti14  1  0.40199496  0.37783733  0.92442082  1
  Ti  Ti15  1  0.35099433  0.82056624  0.22178063  1
  Ti  Ti16  1  0.41156360  0.70938709  0.51452992  1
  Ti  Ti17  1  0.40272745  0.84134039  0.92535368  1
  Ti  Ti18  1  0.65879890  0.03781829  0.23593264  1
  Ti  Ti19  1  0.76057791  -0.00633281  0.58628111  1
  Ti  Ti20  1  0.70109918  0.05002966  0.90191921  1
  Ti  Ti21  1  0.79749675  0.33115633  0.27083969  1
  Ti  Ti22  1  0.69884910  0.44633574  0.59084521  1
  Ti  Ti23  1  0.79182902  0.38851097  0.94541307  1
  Ti  Ti24  1  0.75742219  0.79139901  0.21871278  1
  Ti  Ti25  1  0.81720936  0.76649036  0.56055542  1
  Ti  Ti26  1  0.78130796  0.73146875  0.85011096  1
  Ti  Ti27  1  0.11594564  0.28715108  0.06535968  1
  Ti  Ti28  1  0.07089179  0.30205766  0.39732754  1
  Ti  Ti29  1  0.11264608  0.19203078  0.70221674  1
  Ti  Ti30  1  0.02112126  0.62668288  0.08253634  1
  Ti  Ti31  1  0.08210640  0.53359998  0.47773579  1
  Ti  Ti32  1  0.18731508  0.56739013  0.78432310  1
  Ti  Ti33  1  0.09283205  0.88624330  0.14408822  1
  Ti  Ti34  1  0.05239378  0.89529920  0.34189798  1
  Ti  Ti35  1  0.09954988  0.87693835  0.80224202  1
  Ti  Ti36  1  0.45582694  0.25790726  0.09104857  1
  Ti  Ti37  1  0.36318739  0.18437069  0.42703668  1
  Ti  Ti38  1  0.40094502  0.27598054  0.75552609  1
  Ti  Ti39  1  0.34974691  0.59722440  0.15481418  1
  Ti  Ti40  1  0.35759587  0.51971757  0.37843928  1
  Ti  Ti41  1  0.38026318  0.53598293  0.75816992  1
  Ti  Ti42  1  0.47865507  0.94363793  0.09378051  1
  Ti  Ti43  1  0.50975600  0.85857657  0.43170697  1
  Ti  Ti44  1  0.39934251  0.83837182  0.71258974  1
  Ti  Ti45  1  0.85501860  0.26347084  0.10110742  1
  Ti  Ti46  1  0.69483599  0.27345550  0.44661628  1
  Ti  Ti47  1  0.70375989  0.25406631  0.82622916  1
  Ti  Ti48  1  0.80290641  0.67353046  0.04543265  1
  Ti  Ti49  1  0.78167390  0.62527164  0.42800930  1
  Ti  Ti50  1  0.74105011  0.53349259  0.74993116  1
  Ti  Ti51  1  0.78241086  0.94778740  0.06814384  1
  Ti  Ti52  1  0.68106344  0.91127116  0.38894204  1
  Ti  Ti53  1  0.81206258  0.99452290  0.76204868  1
  Ti  Ti54  1  0.35792759  0.09657669  0.04491196  1
  Ti  Ti55  1  0.24053957  -0.00170684  0.40027580  1
  Ti  Ti56  1  0.23168966  0.02225722  0.79087641  1
  Ti  Ti57  1  0.25411954  0.43768270  0.05697838  1
  Ti  Ti58  1  0.24149603  0.40683971  0.52392916  1
  Ti  Ti59  1  0.22152933  0.37152762  0.75808840  1
  Ti  Ti60  1  0.20757789  0.73334553  0.10346177  1
  Ti  Ti61  1  0.26634582  0.80296694  0.42659358  1
  Ti  Ti62  1  0.21889676  0.73224354  0.69488329  1
  Ti  Ti63  1  0.61971836  0.09419054  0.06591185  1
  Ti  Ti64  1  0.61544256  0.08725968  0.46365238  1
  Ti  Ti65  1  0.64397823  0.08554392  0.71147101  1
  Ti  Ti66  1  0.61140561  0.44672300  0.18387436  1
  Ti  Ti67  1  0.52610720  0.41655688  0.37325975  1
  Ti  Ti68  1  0.53957828  0.42578974  0.71835014  1
  Ti  Ti69  1  0.62339654  0.68286008  0.12890329  1
  Ti  Ti70  1  0.61919358  0.70667884  0.48420196  1
  Ti  Ti71  1  0.65629793  0.73820275  0.69106961  1
  Ti  Ti72  1  0.90397414  0.09121827  0.02982069  1
  Ti  Ti73  1  0.84119495  0.11967299  0.44916954  1
  Ti  Ti74  1  0.94061623  0.09042483  0.63510686  1
  Ti  Ti75  1  0.88939332  0.46666322  0.14785615  1
  Ti  Ti76  1  0.82249848  0.42292915  0.45554129  1
  Ti  Ti77  1  0.93247908  0.43369653  0.79922332  1
  Ti  Ti78  1  0.92322168  0.80982023  0.12024379  1
  Ti  Ti79  1  0.96075733  0.71388523  0.42398517  1
  Ti  Ti80  1  0.96386172  0.74835869  0.70976535  1
  Ti  Ti81  1  0.25135842  0.31219501  0.28958762  1
  Ti  Ti82  1  0.27876194  0.22065015  0.61794745  1
  Ti  Ti83  1  0.25349887  0.21228189  0.88742481  1
  Ti  Ti84  1  0.20226325  0.61280746  0.30116144  1
  Ti  Ti85  1  0.25047269  0.62021081  0.50357781  1
  Ti  Ti86  1  0.29882012  0.66720739  0.91693686  1
  Ti  Ti87  1  0.23433814  0.99949334  0.18638552  1
  Ti  Ti88  1  0.23453139  0.91180326  0.60881431  1
  Ti  Ti89  1  0.17204111  0.97141341  0.98182300  1
  Ti  Ti90  1  0.58701261  0.26566141  0.26138177  1
  Ti  Ti91  1  0.58452231  0.25927322  0.62406063  1
  Ti  Ti92  1  0.60877590  0.32884840  1.00372480  1
  Ti  Ti93  1  0.63648963  0.59187426  0.30282480  1
  Ti  Ti94  1  0.53375222  0.59456275  0.61972640  1
  Ti  Ti95  1  0.65045073  0.52533299  1.00549577  1
  Ti  Ti96  1  0.54832038  0.83888136  0.24106750  1
  Ti  Ti97  1  0.53625275  0.95842538  0.59859231  1
  Ti  Ti98  1  0.58710451  0.84484347  0.85272135  1
  Ti  Ti99  1  0.92827082  0.17946355  0.27399318  1
  Ti  Ti100  1  0.86595234  0.26899600  0.58564146  1
  Ti  Ti101  1  0.94496553  0.25989180  0.91892451  1
  Ti  Ti102  1  0.88075442  0.63442734  0.24933027  1
  Ti  Ti103  1  0.90429965  0.57030072  0.59886427  1
  Ti  Ti104  1  0.92356465  0.53139998  0.95849129  1
  Ti  Ti105  1  0.84517676  0.96648145  0.28698177  1
  Ti  Ti106  1  0.96158548  0.89732930  0.52848724  1
  Ti  Ti107  1  0.95527348  0.98848836  0.87368663  1
  Co  Co108  1  0.86007086  0.28802592  0.77861788  1
  Co  Co109  1  0.35522072  0.65931315  0.66109944  1
  Co  Co110  1  0.74636427  0.89349663  0.87351490  1
  Co  Co111  1  0.65370384  -0.08107519  0.72269706  1
  Co  Co112  1  0.34068407  0.68526524  0.33237406  1
  Co  Co113  1  0.86691878  0.42175976  0.65190649  1
  Co  Co114  1  -0.07499506  0.69291056  -0.07332409  1
  Co  Co115  1  0.35884920  0.00319070  0.67162237  1
  Co  Co116  1  0.77274203  0.56660744  -0.09593404  1
  Co  Co117  1  0.19966167  0.13915057  0.03831342  1
  Co  Co118  1  0.08852049  0.04542790  0.09879107  1
  Co  Co119  1  -0.04457128  0.37934300  0.01871251  1
  Co  Co120  1  0.12647516  0.87385173  0.47835219  1
  Co  Co121  1  -0.02907486  0.15456316  0.78275477  1
  Co  Co122  1  0.53450957  0.79532868  0.03858488  1
  Co  Co123  1  0.11998129  0.71445316  0.39618406  1
  Co  Co124  1  0.48132219  0.56305987  0.26213006  1
  Co  Co125  1  0.07299499  0.46586904  0.06674752  1
  Co  Co126  1  0.00806156  0.19600680  0.51400820  1
  Co  Co127  1  0.36537831  0.75128496  0.05716755  1
  Co  Co128  1  -0.06026679  -0.07172098  0.68877164  1
  Co  Co129  1  0.89530858  0.27472486  0.41355898  1
  Co  Co130  1  0.65067930  0.88016839  0.12945341  1
  Co  Co131  1  0.80416155  0.50365702  0.30121135  1
  Co  Co132  1  0.30948101  0.06538015  0.52627412  1
  Co  Co133  1  0.26567865  0.84929032  0.80582616  1
  Co  Co134  1  0.68154440  0.41363064  0.34956971  1
  Co  Co135  1  0.22518103  0.53301354  0.63504217  1
  Co  Co136  1  0.50745811  0.12180737  0.17518480  1
  Co  Co137  1  0.98028320  0.32552741  0.18863203  1
  Co  Co138  1  0.49317579  0.71481926  0.34537222  1
  Co  Co139  1  0.79972497  0.15255605  0.70734327  1
  Co  Co140  1  -0.03091452  0.03593712  0.39377402  1
  Co  Co141  1  0.20611576  0.07442275  0.63897807  1
  Co  Co142  1  0.03703538  0.57156853  0.30981713  1
  Co  Co143  1  0.36756044  0.35582454  0.38906687  1
  Co  Co144  1  0.53335438  0.26166960  0.45422877  1
  Co  Co145  1  -0.08368629  0.84127074  0.82895197  1
  Co  Co146  1  0.65139805  0.75041399  0.33194462  1
  Co  Co147  1  0.18945972  0.45583746  0.37838636  1
  Co  Co148  1  -0.00830057  0.29919915  0.68362322  1
  Co  Co149  1  0.71960898  0.16263749  0.57137795  1
  Co  Co150  1  0.61622139  -0.06753269  -0.01577556  1
  Co  Co151  1  0.65654704  0.53209162  0.46069870  1
  Co  Co152  1  0.00919691  0.17684758  0.11831626  1
  Co  Co153  1  0.74129833  0.55369881  0.15355944  1
  Co  Co154  1  0.30027588  0.27498710  0.02923939  1
  Co  Co155  1  0.45219556  0.03658556  0.45584362  1
  Co  Co156  1  0.85692071  0.83665437  -0.02410744  1
  Co  Co157  1  -0.01575867  -0.05523954  0.02507024  1
  Co  Co158  1  0.38656137  0.52978453  0.56087546  1
  Co  Co159  1  0.07024493  0.02846145  0.73108189  1
  Co  Co160  1  0.73309844  0.37872093  0.10292373  1
  Co  Co161  1  0.42613879  0.21179224  -0.07388511  1
  Ni  Ni162  1  0.50074602  0.57844896  0.44492762  1
  Ni  Ni163  1  0.38127213  0.90113480  0.53155505  1
  Ni  Ni164  1  0.92622552  0.54591979  0.42399767  1
  Ni  Ni165  1  0.03526446  0.59568279  0.84657104  1
  Ni  Ni166  1  0.51834673  0.14435283  0.34294752  1
  Ni  Ni167  1  0.12068400  0.30609713  0.57248950  1
  Ni  Ni168  1  0.74788971  0.16682070  0.31442391  1
  Ni  Ni169  1  0.49616860  -0.01898369  0.76051602  1
  Ni  Ni170  1  0.37710763  -0.07861149  0.35065722  1
  Ni  Ni171  1  0.15041399  0.72114730  0.85386400  1
  Ni  Ni172  1  0.46852407  0.70486019  0.17630899  1
  Ni  Ni173  1  0.33292949  -0.01228141  -0.07890535  1
  Ni  Ni174  1  0.15369427  0.59079908  -0.02910009  1
  Ni  Ni175  1  0.23027628  0.14318972  0.31830211  1
  Ni  Ni176  1  0.65191845  0.68989795  -0.04497909  1
  Ni  Ni177  1  0.65453184  0.43423366  0.85589669  1
  Ni  Ni178  1  0.83643261  0.13828302  0.86989020  1
  Ni  Ni179  1  0.08828195  0.28348948  0.83792628  1
  Ni  Ni180  1  0.41152646  0.24561868  0.26366807  1
  Ni  Ni181  1  0.22915830  0.81810371  -0.03729406  1
  Ni  Ni182  1  0.79697821  0.83492350  0.70704972  1
  Ni  Ni183  1  0.17481251  0.57323565  0.13608059  1
  Ni  Ni184  1  0.31121984  0.90892029  0.07232266  1
  Ni  Ni185  1  0.74351470  0.20175908  -0.00702738  1
  Ni  Ni186  1  0.54149378  0.31395386  0.84036462  1
  Ni  Ni187  1  0.53864750  0.44443278  0.54112540  1
  Ni  Ni188  1  0.73206069  0.31023077  0.67248166  1
  Ni  Ni189  1  0.79953130  0.78900737  0.39392854  1
  Ni  Ni190  1  0.88992113  0.60730962  0.77647761  1
  Ni  Ni191  1  0.91718538  0.80966262  0.28617412  1
  Ni  Ni192  1  -0.01902415  0.39549909  0.51909043  1
  Ni  Ni193  1  0.72494268  0.61671432  0.59522080  1
  Ni  Ni194  1  0.08226616  0.87413881  0.63998131  1
  Ni  Ni195  1  0.52270259  0.16394508  0.77476119  1
  Ni  Ni196  1  0.26258780  0.46605008  0.22675757  1
  Ni  Ni197  1  0.34786501  0.40744175  0.66481283  1
  Ni  Ni198  1  -0.04770083  1.00812359  0.17748865  1
  Ni  Ni199  1  0.80579256  0.09701373  0.16884033  1
  Ni  Ni200  1  0.28322101  0.18360110  0.17078159  1
  Ni  Ni201  1  0.58828541  0.18014052  0.92622216  1
  Ni  Ni202  1  0.52810493  -0.01393111  0.31627429  1
  Ni  Ni203  1  0.83136250  -0.05811903  0.45049783  1
  Ni  Ni204  1  0.11023361  0.23786676  0.23898360  1
  Ni  Ni205  1  0.27938968  0.48996640  0.89898784  1
  Ni  Ni206  1  0.19471560  0.81256365  0.27001240  1
  Ni  Ni207  1  0.48541275  0.44276162  0.05426973  1
  Ni  Ni208  1  0.06182946  0.60920542  0.67232793  1
  Ni  Ni209  1  0.69340558  0.21937026  0.15243100  1
  Ni  Ni210  1  0.52255818  0.79074999  0.60589555  1
  Ni  Ni211  1  -0.04951117  0.41469241  0.32728161  1
  Ni  Ni212  1  0.18752994  0.18338194  0.47740319  1
  Ni  Ni213  1  0.37265473  0.10874647  0.80302379  1
  Ni  Ni214  1  0.66906308  0.85816413  0.55864387  1
