# generated using pymatgen
data_Ti108Co54Ni53
_symmetry_space_group_name_H-M   'P 1'
_cell_length_a   14.68178815
_cell_length_b   14.71809976
_cell_length_c   14.67843072
_cell_angle_alpha   90.14271666
_cell_angle_beta   89.77918868
_cell_angle_gamma   90.21948414
_symmetry_Int_Tables_number   1
_chemical_formula_structural   Ti108Co54Ni53
_chemical_formula_sum   'Ti108 Co54 Ni53'
_cell_volume   3171.77651983
_cell_formula_units_Z   1
loop_
 _symmetry_equiv_pos_site_id
 _symmetry_equiv_pos_as_xyz
  1  'x, y, z'
loop_
 _atom_site_type_symbol
 _atom_site_label
 _atom_site_symmetry_multiplicity
 _atom_site_fract_x
 _atom_site_fract_y
 _atom_site_fract_z
 _atom_site_occupancy
  Ti  Ti0  1  0.07978038  0.04883816  0.29886058  1
  Ti  Ti1  1  0.07361291  0.10662582  0.59597671  1
  Ti  Ti2  1  0.04969026  0.08264927  0.94420253  1
  Ti  Ti3  1  0.07536577  0.39728085  0.29332321  1
  Ti  Ti4  1  0.02439804  0.35886643  0.66121911  1
  Ti  Ti5  1  0.08461335  0.44120029  0.96057412  1
  Ti  Ti6  1  0.05191823  0.76464480  0.28572802  1
  Ti  Ti7  1  0.12421080  0.75581475  0.55220517  1
  Ti  Ti8  1  0.07790563  0.76866532  0.84609200  1
  Ti  Ti9  1  0.39306937  0.02359322  0.20084613  1
  Ti  Ti10  1  0.41664895  0.06889794  0.52146529  1
  Ti  Ti11  1  0.36287010  0.03684649  0.86958102  1
  Ti  Ti12  1  0.36543925  0.47139477  0.27043198  1
  Ti  Ti13  1  0.47313697  0.40545592  0.54568635  1
  Ti  Ti14  1  0.36940458  0.36993065  0.86275333  1
  Ti  Ti15  1  0.39348730  0.82177503  0.25965960  1
  Ti  Ti16  1  0.46634659  0.75930678  0.62581775  1
  Ti  Ti17  1  0.41472386  0.78997917  0.86949514  1
  Ti  Ti18  1  0.72962548  0.16978111  0.23232367  1
  Ti  Ti19  1  0.81847941  0.04708428  0.58008227  1
  Ti  Ti20  1  0.71765072  0.01566314  0.92322033  1
  Ti  Ti21  1  0.81453954  0.34724747  0.27492942  1
  Ti  Ti22  1  0.82258054  0.39253859  0.58905905  1
  Ti  Ti23  1  0.75233627  0.48093471  0.93529968  1
  Ti  Ti24  1  0.74906600  0.72945450  0.30173189  1
  Ti  Ti25  1  0.69633635  0.80200204  0.68531406  1
  Ti  Ti26  1  0.75365582  0.78761221  0.88597854  1
  Ti  Ti27  1  0.06823022  0.32580369  0.12293253  1
  Ti  Ti28  1  0.12121815  0.21890790  0.40103242  1
  Ti  Ti29  1  0.11887321  0.29149111  0.83291100  1
  Ti  Ti30  1  0.04700825  0.61020358  0.01760714  1
  Ti  Ti31  1  0.06153312  0.58164179  0.37426213  1
  Ti  Ti32  1  0.09790941  0.62591002  0.69371648  1
  Ti  Ti33  1  0.10130719  0.92781118  0.04361916  1
  Ti  Ti34  1  0.11646915  0.89320968  0.42951173  1
  Ti  Ti35  1  0.09326335  0.96181580  0.77009704  1
  Ti  Ti36  1  0.37585366  0.17714946  0.10494610  1
  Ti  Ti37  1  0.47449709  0.32182456  0.35025557  1
  Ti  Ti38  1  0.45324903  0.19918242  0.79100042  1
  Ti  Ti39  1  0.36130235  0.63912606  0.10062089  1
  Ti  Ti40  1  0.35200679  0.56288639  0.44427138  1
  Ti  Ti41  1  0.43731269  0.50782857  0.74430728  1
  Ti  Ti42  1  0.38884368  0.83908643  0.06761289  1
  Ti  Ti43  1  0.49481464  0.83775246  0.41889141  1
  Ti  Ti44  1  0.40986360  0.96020182  0.69738087  1
  Ti  Ti45  1  0.76956813  0.30003745  0.02899824  1
  Ti  Ti46  1  0.74174815  0.23825489  0.51271605  1
  Ti  Ti47  1  0.72097172  0.24517516  0.72185966  1
  Ti  Ti48  1  0.75980234  0.66923098  0.03470551  1
  Ti  Ti49  1  0.86612340  0.54853232  0.46213675  1
  Ti  Ti50  1  0.73325995  0.59031410  0.75293491  1
  Ti  Ti51  1  0.81749121  0.87682978  0.04554443  1
  Ti  Ti52  1  0.68082659  0.91288743  0.38096704  1
  Ti  Ti53  1  0.83717761  0.92951862  0.76991788  1
  Ti  Ti54  1  0.22475622  0.07938217  0.04581661  1
  Ti  Ti55  1  0.30190863  0.14202554  0.37692329  1
  Ti  Ti56  1  0.24298061  0.09485543  0.72152581  1
  Ti  Ti57  1  0.24920703  0.38044056  0.06008663  1
  Ti  Ti58  1  0.20200276  0.43627569  0.46115959  1
  Ti  Ti59  1  0.23558552  0.38972536  0.71164350  1
  Ti  Ti60  1  0.20879004  0.80126467  0.15006585  1
  Ti  Ti61  1  0.31294046  0.77621078  0.45706832  1
  Ti  Ti62  1  0.25497261  0.73294501  0.78735317  1
  Ti  Ti63  1  0.54735231  0.06349424  0.05145598  1
  Ti  Ti64  1  0.59058031  0.17799249  0.42215190  1
  Ti  Ti65  1  0.58833303  0.06145628  0.73525284  1
  Ti  Ti66  1  0.55917916  0.28299025  0.03763525  1
  Ti  Ti67  1  0.68021594  0.42424253  0.43530235  1
  Ti  Ti68  1  0.56219324  0.36693593  0.76876301  1
  Ti  Ti69  1  0.62824034  0.77913630  0.11893047  1
  Ti  Ti70  1  0.64772199  0.75029681  0.49107985  1
  Ti  Ti71  1  0.56231691  0.68564472  0.78664439  1
  Ti  Ti72  1  0.84662569  0.11420456  0.04628547  1
  Ti  Ti73  1  0.85385834  0.03020661  0.36518488  1
  Ti  Ti74  1  0.93314786  0.09985364  0.76067826  1
  Ti  Ti75  1  0.92150570  0.44976208  0.12424921  1
  Ti  Ti76  1  1.00351439  0.42216852  0.47675897  1
  Ti  Ti77  1  0.93265398  0.42259902  0.82557190  1
  Ti  Ti78  1  0.98891295  0.77717821  0.09546968  1
  Ti  Ti79  1  0.83965814  0.74077031  0.48180594  1
  Ti  Ti80  1  0.88461984  0.73054360  0.75564187  1
  Ti  Ti81  1  0.22244386  0.22991822  0.21542566  1
  Ti  Ti82  1  0.29473378  0.28245907  0.55277047  1
  Ti  Ti83  1  0.27964020  0.20942549  0.92105815  1
  Ti  Ti84  1  0.25855868  0.65497450  0.27545112  1
  Ti  Ti85  1  0.27655804  0.63379317  0.60437199  1
  Ti  Ti86  1  0.31560297  0.58117006  0.88811449  1
  Ti  Ti87  1  0.25460447  0.95296877  0.31442884  1
  Ti  Ti88  1  0.24621703  0.95123458  0.57904391  1
  Ti  Ti89  1  0.24788131  0.88655731  0.93889929  1
  Ti  Ti90  1  0.53443280  0.18395816  0.21796186  1
  Ti  Ti91  1  0.54533354  0.23601084  0.61211260  1
  Ti  Ti92  1  0.62434852  0.18755381  0.88782635  1
  Ti  Ti93  1  0.56663564  0.64742541  0.32662970  1
  Ti  Ti94  1  0.57781077  0.56292281  0.51316308  1
  Ti  Ti95  1  0.49200590  0.58211605  0.94141878  1
  Ti  Ti96  1  0.54471137  0.98429942  0.28743586  1
  Ti  Ti97  1  0.57689793  0.92398968  0.58597521  1
  Ti  Ti98  1  0.57114804  0.87134989  0.95264073  1
  Ti  Ti99  1  0.92522152  0.14127553  0.22527312  1
  Ti  Ti100  1  0.94129745  0.23024184  0.50164747  1
  Ti  Ti101  1  0.93661422  0.22716054  0.88403667  1
  Ti  Ti102  1  0.97309077  0.60492312  0.20880078  1
  Ti  Ti103  1  0.91726446  0.54364687  0.65485785  1
  Ti  Ti104  1  0.98676417  0.59883910  0.84272994  1
  Ti  Ti105  1  0.89993271  0.88989128  0.22159619  1
  Ti  Ti106  1  0.94254565  0.89167335  0.51346871  1
  Ti  Ti107  1  0.95817769  0.89466097  0.91202580  1
  Co  Co108  1  0.49065214  0.72836825  0.01861187  1
  Co  Co109  1  0.40313273  0.34167709  0.68377636  1
  Co  Co110  1  0.70830851  -0.03184377  0.66849791  1
  Co  Co111  1  0.80997465  0.20207155  0.37218147  1
  Co  Co112  1  -0.04847967  -0.01310957  0.65052188  1
  Co  Co113  1  0.83058693  0.85794566  0.36979733  1
  Co  Co114  1  0.19610239  0.03477276  0.88292925  1
  Co  Co115  1  0.22612754  0.44273483  0.88187389  1
  Co  Co116  1  -0.01641162  -0.08539244  0.35373578  1
  Co  Co117  1  0.84773464  0.84072825  0.63608681  1
  Co  Co118  1  0.91603261  0.49646773  -0.03437098  1
  Co  Co119  1  0.36480511  0.48376080  0.01167947  1
  Co  Co120  1  -0.10658081  0.61130101  0.06755219  1
  Co  Co121  1  0.09165853  0.13886525  0.79079415  1
  Co  Co122  1  0.24358193  0.13243702  0.55933611  1
  Co  Co123  1  0.88354171  0.03404683  0.90783861  1
  Co  Co124  1  0.60459544  0.51394763  0.84310966  1
  Co  Co125  1  0.58708785  0.51073074  0.68060036  1
  Co  Co126  1  0.30975382  0.80529700  0.63440399  1
  Co  Co127  1  0.80077422  0.66712611  0.61613100  1
  Co  Co128  1  -0.12755507  0.32331787  0.72141471  1
  Co  Co129  1  0.29386159  0.24111610  0.76286806  1
  Co  Co130  1  0.48689562  0.72078248  0.18415035  1
  Co  Co131  1  0.73265448  0.52746082  0.58358003  1
  Co  Co132  1  0.15044896  0.61213642  0.87112909  1
  Co  Co133  1  0.22486734  0.38753154  0.22608980  1
  Co  Co134  1  0.09999895  0.48778957  0.14716160  1
  Co  Co135  1  0.59107327  0.80452001  0.28450986  1
  Co  Co136  1  0.64180934  0.04222384  0.18466236  1
  Co  Co137  1  0.26995512  0.94426042  0.12393199  1
  Co  Co138  1  0.08798226  0.93470180  0.58966396  1
  Co  Co139  1  0.75747278  0.09404163  0.76286166  1
  Co  Co140  1  0.40982022  0.65600335  0.31823359  1
  Co  Co141  1  0.44188198  0.58819232  0.60399979  1
  Co  Co142  1  0.08742279  0.90916692  0.21201352  1
  Co  Co143  1  0.23568411  0.07724212  0.21353354  1
  Co  Co144  1  0.04232065  0.58191375  0.53496455  1
  Co  Co145  1  0.43058505  0.23826876  0.48147587  1
  Co  Co146  1  0.78242133  0.17044580  -0.09474920  1
  Co  Co147  1  0.50355467  0.41697797  0.93176915  1
  Co  Co148  1  0.24532307  0.55155746  0.73794925  1
  Co  Co149  1  0.25961235  0.52706398  0.15860933  1
  Co  Co150  1  0.20755114  0.55177100  0.01466871  1
  Co  Co151  1  0.14116422  0.48001100  0.60795762  1
  Co  Co152  1  0.20483381  0.51441144  0.32322525  1
  Co  Co153  1  0.67600939  -0.05640612  0.06562965  1
  Co  Co154  1  0.84685628  0.36367489  0.43189335  1
  Co  Co155  1  0.08772060  0.07959416  0.13633683  1
  Co  Co156  1  0.06499058  0.21448696  0.23838104  1
  Co  Co157  1  0.45717361  0.12306790  0.34942429  1
  Co  Co158  1  0.19420185  0.65079778  0.43991719  1
  Co  Co159  1  0.39928305  -0.03068503  0.38148704  1
  Co  Co160  1  0.40406212  -0.09439998  0.53974971  1
  Co  Co161  1  0.39821109  0.66547757  0.74937347  1
  Ni  Ni162  1  0.84163792  0.73439261  0.16754126  1
  Ni  Ni163  1  0.26771891  0.91746762  0.77304297  1
  Ni  Ni164  1  0.88774641  0.27960448  0.14186586  1
  Ni  Ni165  1  0.20782543  0.79760229  0.32870334  1
  Ni  Ni166  1  0.86140608  0.19216933  0.64111194  1
  Ni  Ni167  1  0.00359539  0.72675638  0.44038806  1
  Ni  Ni168  1  0.65665402  0.29459769  0.33111796  1
  Ni  Ni169  1  0.64480299  0.37634547  0.59521799  1
  Ni  Ni170  1  0.64639054  0.10555737  0.58515970  1
  Ni  Ni171  1  0.12897889  0.75925905  0.00039498  1
  Ni  Ni172  1  0.62628873  0.69098167  -0.05956388  1
  Ni  Ni173  1  0.63023341  0.66164621  0.63439810  1
  Ni  Ni174  1  0.15503380  0.23600990  0.67161459  1
  Ni  Ni175  1  -0.05002122  0.33836440  -0.00410598  1
  Ni  Ni176  1  0.39908458  0.31867950  0.02069056  1
  Ni  Ni177  1  0.66478732  0.90964516  0.81421731  1
  Ni  Ni178  1  0.52020574  0.86821177  0.77085804  1
  Ni  Ni179  1  0.45267013  0.16955858  -0.04624544  1
  Ni  Ni180  1  0.38018058  0.30969601  0.20962895  1
  Ni  Ni181  1  0.29222366  0.31228540  0.36518329  1
  Ni  Ni182  1  0.13530871  0.65362075  0.15064718  1
  Ni  Ni183  1  0.28487773  0.72270128  -0.02295795  1
  Ni  Ni184  1  -0.00074894  0.83750527  0.70030500  1
  Ni  Ni185  1  -0.04077799  0.27879967  0.34243417  1
  Ni  Ni186  1  -0.00479155  0.05314103  0.45765468  1
  Ni  Ni187  1  -0.04736552  -0.01225809  0.08986452  1
  Ni  Ni188  1  0.12988371  0.24884509  -0.00997584  1
  Ni  Ni189  1  0.71605439  0.07171601  0.44029462  1
  Ni  Ni190  1  0.52728693  0.02234224  0.88305151  1
  Ni  Ni191  1  0.32131782  0.46671975  0.59181231  1
  Ni  Ni192  1  0.72488148  0.88236501  0.21813957  1
  Ni  Ni193  1  0.16360713  0.05165809  0.45039774  1
  Ni  Ni194  1  0.52158327  -0.09034516  0.13573266  1
  Ni  Ni195  1  0.15906675  0.82175487  0.69548593  1
  Ni  Ni196  1  0.64870045  0.35422635  -0.09051338  1
  Ni  Ni197  1  -0.03845180  0.70841426  0.60267806  1
  Ni  Ni198  1  0.09389737  0.47088062  0.77741289  1
  Ni  Ni199  1  0.49677307  0.48718019  0.38516087  1
  Ni  Ni200  1  0.68294559  0.15589739  0.05840187  1
  Ni  Ni201  1  0.55594949  0.01562328  0.45240783  1
  Ni  Ni202  1  0.75395215  0.89803311  0.52094279  1
  Ni  Ni203  1  0.92316785  0.73722587  -0.05627873  1
  Ni  Ni204  1  0.79747542  0.32687326  0.86090687  1
  Ni  Ni205  1  0.80413977  0.01959670  0.17801660  1
  Ni  Ni206  1  0.38740684  0.17019345  0.64403501  1
  Ni  Ni207  1  0.82889198  0.61819837  0.88593180  1
  Ni  Ni208  1  -0.00447593  0.18577554  0.06349727  1
  Ni  Ni209  1  0.39852378  -0.00033473  0.02237920  1
  Ni  Ni210  1  0.71983180  0.61161743  0.42407755  1
  Ni  Ni211  1  0.72863462  0.42693235  0.74468295  1
  Ni  Ni212  1  0.46829455  0.68458654  0.47096366  1
  Ni  Ni213  1  0.11588121  0.30632743  0.53492001  1
  Ni  Ni214  1  0.92537588  0.47116807  0.32036686  1
