# generated using pymatgen
data_Ti108Co54Ni53
_symmetry_space_group_name_H-M   'P 1'
_cell_length_a   14.62768619
_cell_length_b   14.67525781
_cell_length_c   14.61639184
_cell_angle_alpha   89.99451567
_cell_angle_beta   90.01824772
_cell_angle_gamma   89.89786543
_symmetry_Int_Tables_number   1
_chemical_formula_structural   Ti108Co54Ni53
_chemical_formula_sum   'Ti108 Co54 Ni53'
_cell_volume   3137.62355980
_cell_formula_units_Z   1
loop_
 _symmetry_equiv_pos_site_id
 _symmetry_equiv_pos_as_xyz
  1  'x, y, z'
loop_
 _atom_site_type_symbol
 _atom_site_label
 _atom_site_symmetry_multiplicity
 _atom_site_fract_x
 _atom_site_fract_y
 _atom_site_fract_z
 _atom_site_occupancy
  Ti  Ti0  1  0.01877220  0.04334293  0.27386569  1
  Ti  Ti1  1  0.09118200  0.00629766  0.59601823  1
  Ti  Ti2  1  0.02994903  0.14083629  0.89177848  1
  Ti  Ti3  1  0.00236473  0.41232680  0.24719833  1
  Ti  Ti4  1  0.08798398  0.34782889  0.54910637  1
  Ti  Ti5  1  0.06567677  0.39465651  0.84197564  1
  Ti  Ti6  1  0.13660951  0.74218582  0.29859742  1
  Ti  Ti7  1  0.09784524  0.72054662  0.62748488  1
  Ti  Ti8  1  0.01640258  0.80185452  0.94871812  1
  Ti  Ti9  1  0.38189454  0.10193179  0.21657281  1
  Ti  Ti10  1  0.45757538  0.05316963  0.55290313  1
  Ti  Ti11  1  0.33941265  0.14207570  0.87792702  1
  Ti  Ti12  1  0.34423004  0.45657517  0.23145193  1
  Ti  Ti13  1  0.40700446  0.38699341  0.56007380  1
  Ti  Ti14  1  0.36700037  0.44641800  0.99354799  1
  Ti  Ti15  1  0.47272613  0.79934496  0.25963159  1
  Ti  Ti16  1  0.41313420  0.73366117  0.56883258  1
  Ti  Ti17  1  0.41583177  0.76595702  0.88426287  1
  Ti  Ti18  1  0.79793457  0.06520400  0.24905553  1
  Ti  Ti19  1  0.73472891  0.11526195  0.54453348  1
  Ti  Ti20  1  0.80722082  0.10054317  0.89357676  1
  Ti  Ti21  1  0.81898333  0.40684444  0.35517346  1
  Ti  Ti22  1  0.71722717  0.41669572  0.53296868  1
  Ti  Ti23  1  0.72318243  0.45731135  0.83094888  1
  Ti  Ti24  1  0.80836380  0.71492515  0.27810072  1
  Ti  Ti25  1  0.78292955  0.75793734  0.63159649  1
  Ti  Ti26  1  0.72624160  0.73650122  0.85558778  1
  Ti  Ti27  1  -0.04489146  0.29736590  0.10004500  1
  Ti  Ti28  1  0.09183277  0.22868425  0.25786853  1
  Ti  Ti29  1  0.11959079  0.24094413  0.73121108  1
  Ti  Ti30  1  0.13915465  0.63843902  0.08730377  1
  Ti  Ti31  1  0.05311661  0.55056160  0.38636393  1
  Ti  Ti32  1  0.08305001  0.60868942  0.80461825  1
  Ti  Ti33  1  0.04381861  0.93427560  0.10144350  1
  Ti  Ti34  1  0.05973941  0.89134655  0.40140195  1
  Ti  Ti35  1  0.10945635  0.92904080  0.82642482  1
  Ti  Ti36  1  0.39999500  0.23361289  0.05791983  1
  Ti  Ti37  1  0.30155518  0.17716042  0.42618196  1
  Ti  Ti38  1  0.46949573  0.22368088  0.76413241  1
  Ti  Ti39  1  0.47361449  0.53620112  0.12843207  1
  Ti  Ti40  1  0.37667952  0.53141429  0.40383652  1
  Ti  Ti41  1  0.40291074  0.49727742  0.72673441  1
  Ti  Ti42  1  0.34669426  0.90907896  0.13299795  1
  Ti  Ti43  1  0.41687531  0.94408356  0.40210979  1
  Ti  Ti44  1  0.46626151  0.92326034  0.73664966  1
  Ti  Ti45  1  0.78367487  0.30898250  -0.04294132  1
  Ti  Ti46  1  0.69531698  0.25414791  0.40505528  1
  Ti  Ti47  1  0.68678729  0.23002700  0.78995372  1
  Ti  Ti48  1  0.67063738  0.56455517  0.09311239  1
  Ti  Ti49  1  0.71719991  0.56017975  0.39274095  1
  Ti  Ti50  1  0.81892487  0.59645670  0.74730685  1
  Ti  Ti51  1  0.77275792  0.85233885  0.11738515  1
  Ti  Ti52  1  0.73606863  0.87640122  0.47774304  1
  Ti  Ti53  1  0.74880478  0.93896262  0.81365532  1
  Ti  Ti54  1  0.22975904  0.04530141  0.04084264  1
  Ti  Ti55  1  0.19052861  0.02799174  0.43126138  1
  Ti  Ti56  1  0.23314079  0.04909077  0.72398985  1
  Ti  Ti57  1  0.19095761  0.46435460  0.09941693  1
  Ti  Ti58  1  0.22148486  0.44806352  0.44618513  1
  Ti  Ti59  1  0.28374190  0.35042082  0.78256257  1
  Ti  Ti60  1  0.28013405  0.76594863  0.01868420  1
  Ti  Ti61  1  0.32434150  0.72597903  0.40181073  1
  Ti  Ti62  1  0.22962243  0.75665260  0.80635300  1
  Ti  Ti63  1  0.57219259  0.02751030  0.01759168  1
  Ti  Ti64  1  0.59633927  0.09562118  0.34588045  1
  Ti  Ti65  1  0.59749254  0.06521106  0.82402936  1
  Ti  Ti66  1  0.61537426  0.37885343  0.15148795  1
  Ti  Ti67  1  0.54719648  0.45943269  0.45292572  1
  Ti  Ti68  1  0.55681682  0.39477264  0.77355733  1
  Ti  Ti69  1  0.56395900  0.83663446  0.08042950  1
  Ti  Ti70  1  0.62961418  0.74740934  0.37469220  1
  Ti  Ti71  1  0.51216769  0.72040454  0.73016550  1
  Ti  Ti72  1  0.94779878  0.10091051  0.09345105  1
  Ti  Ti73  1  0.99149199  0.07542085  0.45013524  1
  Ti  Ti74  1  0.89207339  0.04409739  0.68068785  1
  Ti  Ti75  1  0.99322096  0.48716599  0.05284451  1
  Ti  Ti76  1  0.92560834  0.43461619  0.50967611  1
  Ti  Ti77  1  0.99479565  0.50301681  0.68622808  1
  Ti  Ti78  1  0.95327498  0.70270064  0.11675122  1
  Ti  Ti79  1  0.90180862  0.78050663  0.41457160  1
  Ti  Ti80  1  0.89812938  0.83348316  0.77802624  1
  Ti  Ti81  1  0.29357234  0.28332952  0.23985443  1
  Ti  Ti82  1  0.25555645  0.28559486  0.58038790  1
  Ti  Ti83  1  0.19242189  0.24884572  0.94400605  1
  Ti  Ti84  1  0.22487681  0.59064136  0.27220082  1
  Ti  Ti85  1  0.23293219  0.55630346  0.61521483  1
  Ti  Ti86  1  0.27750602  0.59117567  0.91450477  1
  Ti  Ti87  1  0.17589417  0.91696468  0.23342951  1
  Ti  Ti88  1  0.29216702  0.91720186  0.57135215  1
  Ti  Ti89  1  0.30698359  0.93042801  0.87824690  1
  Ti  Ti90  1  0.50755960  0.25929250  0.27184113  1
  Ti  Ti91  1  0.58574000  0.29337137  0.59892400  1
  Ti  Ti92  1  0.58520530  0.30665115  0.94900012  1
  Ti  Ti93  1  0.54911962  0.56886300  0.29096396  1
  Ti  Ti94  1  0.59090465  0.62618471  0.56072946  1
  Ti  Ti95  1  0.58338209  0.58687296  0.92187221  1
  Ti  Ti96  1  0.61694161  0.92590057  0.27894042  1
  Ti  Ti97  1  0.62119892  0.96652686  0.62090791  1
  Ti  Ti98  1  0.57517831  0.86575733  0.88669242  1
  Ti  Ti99  1  0.94461275  0.26632866  0.38994236  1
  Ti  Ti100  1  0.96472589  0.20139382  0.58560714  1
  Ti  Ti101  1  0.90086183  0.23622023  0.78790341  1
  Ti  Ti102  1  0.86307104  0.54515623  0.20133539  1
  Ti  Ti103  1  0.91279962  0.62846543  0.54706626  1
  Ti  Ti104  1  0.82600500  0.57622696  0.96966680  1
  Ti  Ti105  1  0.96487207  0.84314816  0.24325847  1
  Ti  Ti106  1  0.94011277  0.86235974  0.56738501  1
  Ti  Ti107  1  0.87904368  0.94349034  0.97608024  1
  Co  Co108  1  0.06151056  0.55955007  0.20794907  1
  Co  Co109  1  -0.05159053  0.52093628  0.86546429  1
  Co  Co110  1  0.20935321  0.30191169  0.38026274  1
  Co  Co111  1  0.22708681  0.51262348  0.78486362  1
  Co  Co112  1  0.49607549  0.80955687  0.43529408  1
  Co  Co113  1  0.08108356  0.54417531  0.54882826  1
  Co  Co114  1  0.71955578  0.47341911  0.22867575  1
  Co  Co115  1  0.68583297  0.44425619  -0.01545806  1
  Co  Co116  1  0.91296176  0.20926523  -0.03120718  1
  Co  Co117  1  0.46961494  0.88813453  0.57680718  1
  Co  Co118  1  0.23552848  0.18596617  0.12737463  1
  Co  Co119  1  0.12122664  0.32662605  0.13718372  1
  Co  Co120  1  0.44316429  0.36285018  0.13688819  1
  Co  Co121  1  -0.05549280  0.69276128  0.69262032  1
  Co  Co122  1  0.54890517  0.46157574  0.61882120  1
  Co  Co123  1  0.21792575  0.41217200  0.92527709  1
  Co  Co124  1  0.68457032  0.62990053  0.23876135  1
  Co  Co125  1  0.48985081  0.41789132  0.29015667  1
  Co  Co126  1  0.14180232  0.70293164  0.93371721  1
  Co  Co127  1  0.11262956  0.52912821  -0.05678958  1
  Co  Co128  1  0.14224735  0.15954170  0.59377475  1
  Co  Co129  1  0.18803402  0.86989900  0.69363375  1
  Co  Co130  1  -0.02342172  0.33943117  0.67548898  1
  Co  Co131  1  0.05950631  0.76777662  0.79039514  1
  Co  Co132  1  0.26936031  0.32863618  0.06128849  1
  Co  Co133  1  0.23321018  0.86806366  0.41515964  1
  Co  Co134  1  0.11855667  0.07687261  0.15561273  1
  Co  Co135  1  0.29964519  0.20216452  0.71268524  1
  Co  Co136  1  0.82320568  0.43591528  0.07241112  1
  Co  Co137  1  -0.00715579  0.63527108  -0.02565954  1
  Co  Co138  1  0.20818237  0.12472591  0.29267156  1
  Co  Co139  1  0.52903630  0.44602352  0.00475586  1
  Co  Co140  1  0.64434494  0.39092676  0.34129997  1
  Co  Co141  1  0.06425973  0.37850330  0.39360227  1
  Co  Co142  1  0.65772075  0.78231791  0.20712626  1
  Co  Co143  1  0.02417541  -0.10367432  0.69204107  1
  Co  Co144  1  0.31522617  0.83178717  0.28324880  1
  Co  Co145  1  0.79007495  0.68376246  0.11263537  1
  Co  Co146  1  0.26428819  0.73569102  0.17698248  1
  Co  Co147  1  0.84407879  0.35320556  0.20807937  1
  Co  Co148  1  0.08703015  0.19310424  0.05211737  1
  Co  Co149  1  0.88563012  -0.04034118  0.16670136  1
  Co  Co150  1  0.18121974  0.89081531  -0.01836471  1
  Co  Co151  1  0.52735226  0.29876225  0.43078428  1
  Co  Co152  1  0.82589400  0.28622364  0.50337018  1
  Co  Co153  1  0.93723148  -0.00589592  0.82648835  1
  Co  Co154  1  0.12555603  -0.14256448  0.54133713  1
  Co  Co155  1  0.90603650  0.68743440  0.85133852  1
  Co  Co156  1  -0.07012098  0.37669762  -0.05379838  1
  Co  Co157  1  0.25037279  0.74888635  0.57005087  1
  Co  Co158  1  0.66798929  0.67959657  0.70402866  1
  Co  Co159  1  0.58555048  -0.04876974  0.45394913  1
  Co  Co160  1  0.60358690  0.78938092  0.56762781  1
  Co  Co161  1  0.14095213  0.41474998  0.68544861  1
  Ni  Ni162  1  -0.08641904  0.18790707  0.24743314  1
  Ni  Ni163  1  0.66635597  0.15970173  0.95753639  1
  Ni  Ni164  1  0.11837999  0.79410167  0.12120027  1
  Ni  Ni165  1  0.43039529  0.34231419  0.88074825  1
  Ni  Ni166  1  0.70487667  -0.08614996  -0.02309643  1
  Ni  Ni167  1  0.29614513  0.09547104  0.57715498  1
  Ni  Ni168  1  0.42388376  0.21683907  0.58465897  1
  Ni  Ni169  1  0.43807882  0.60456350  0.84206743  1
  Ni  Ni170  1  0.73226946  0.01154618  0.39278283  1
  Ni  Ni171  1  0.53838790  0.68449483  0.14932736  1
  Ni  Ni172  1  0.57618678  0.55973961  0.75371791  1
  Ni  Ni173  1  -0.02015482  0.67663321  0.29104807  1
  Ni  Ni174  1  0.88223035  0.58249048  0.38730350  1
  Ni  Ni175  1  -0.10319504  -0.04126607  0.36099801  1
  Ni  Ni176  1  0.80449345  0.21945586  0.65475966  1
  Ni  Ni177  1  0.40553454  0.07559674  0.71880979  1
  Ni  Ni178  1  0.64071509  0.84046260  0.73045603  1
  Ni  Ni179  1  0.04486242  -0.00474155  -0.04132205  1
  Ni  Ni180  1  0.49768323  0.16496455  -0.06347385  1
  Ni  Ni181  1  0.45242856  0.01552003  0.88156400  1
  Ni  Ni182  1  0.78124729  0.92497084  0.64211666  1
  Ni  Ni183  1  0.57290082  0.13122290  0.66722661  1
  Ni  Ni184  1  0.71692386  0.36008132  0.69449787  1
  Ni  Ni185  1  0.17388432  0.42523614  0.27345181  1
  Ni  Ni186  1  0.05089560  0.71588859  0.46140076  1
  Ni  Ni187  1  0.48854050  0.64917977  0.42598593  1
  Ni  Ni188  1  0.42955335  0.63756612  0.00068391  1
  Ni  Ni189  1  0.43325586  0.89817184  -0.00724293  1
  Ni  Ni190  1  0.04775007  0.09033071  0.73192495  1
  Ni  Ni191  1  0.76029427  0.70421946  0.47037497  1
  Ni  Ni192  1  0.83603380  0.13690054  0.40354777  1
  Ni  Ni193  1  0.45135527  0.14853397  0.39131612  1
  Ni  Ni194  1  0.66437912  0.72072238  0.00941017  1
  Ni  Ni195  1  0.19793994  0.62458969  0.45230552  1
  Ni  Ni196  1  0.30113875  -0.00697425  0.30305011  1
  Ni  Ni197  1  0.74904071  0.58214388  0.58437117  1
  Ni  Ni198  1  0.32918886  0.65233567  0.71616911  1
  Ni  Ni199  1  0.77865426  0.87768546  0.28911982  1
  Ni  Ni200  1  0.37091082  0.35271737  0.39025388  1
  Ni  Ni201  1  0.10361017  0.20128795  0.44324140  1
  Ni  Ni202  1  0.87064373  0.39445261  0.79396575  1
  Ni  Ni203  1  0.85672924  0.00393247  0.51368404  1
  Ni  Ni204  1  0.40358918  0.06072493  0.04421478  1
  Ni  Ni205  1  0.34748822  0.81906009  0.70742154  1
  Ni  Ni206  1  0.18433653  0.07124688  0.88367176  1
  Ni  Ni207  1  0.84032612  0.77390949  -0.02435143  1
  Ni  Ni208  1  0.41853415  0.56399731  0.56909810  1
  Ni  Ni209  1  0.83873472  0.45810649  0.64613971  1
  Ni  Ni210  1  0.49669782  -0.02281163  0.16847547  1
  Ni  Ni211  1  0.31018944  0.58923856  0.10659728  1
  Ni  Ni212  1  0.57542278  0.15799968  0.50357598  1
  Ni  Ni213  1  0.73058534  0.08246130  0.71630509  1
  Ni  Ni214  1  0.39112723  0.64534492  0.25112484  1
