# generated using pymatgen
data_Ti108Co54Ni53
_symmetry_space_group_name_H-M   'P 1'
_cell_length_a   14.64668093
_cell_length_b   14.58078940
_cell_length_c   14.58988375
_cell_angle_alpha   89.95450798
_cell_angle_beta   89.90281989
_cell_angle_gamma   89.98079091
_symmetry_Int_Tables_number   1
_chemical_formula_structural   Ti108Co54Ni53
_chemical_formula_sum   'Ti108 Co54 Ni53'
_cell_volume   3115.81241644
_cell_formula_units_Z   1
loop_
 _symmetry_equiv_pos_site_id
 _symmetry_equiv_pos_as_xyz
  1  'x, y, z'
loop_
 _atom_site_type_symbol
 _atom_site_label
 _atom_site_symmetry_multiplicity
 _atom_site_fract_x
 _atom_site_fract_y
 _atom_site_fract_z
 _atom_site_occupancy
  Ti  Ti0  1  0.15049888  -0.00142595  0.21856538  1
  Ti  Ti1  1  0.01168533  0.06546787  0.57126067  1
  Ti  Ti2  1  0.09607029  0.16857211  0.92652780  1
  Ti  Ti3  1  0.04603285  0.41090820  0.30751943  1
  Ti  Ti4  1  0.04660143  0.44027833  0.65406865  1
  Ti  Ti5  1  0.11333209  0.35901743  0.94118974  1
  Ti  Ti6  1  0.00599989  0.70773751  0.25111363  1
  Ti  Ti7  1  0.05449696  0.77166719  0.63366552  1
  Ti  Ti8  1  0.05495193  0.73150712  0.89515483  1
  Ti  Ti9  1  0.40887243  0.06483580  0.16944341  1
  Ti  Ti10  1  0.36399881  0.19203090  0.66242823  1
  Ti  Ti11  1  0.42516786  0.09722214  0.97995975  1
  Ti  Ti12  1  0.51345907  0.42489442  0.25917886  1
  Ti  Ti13  1  0.38638465  0.48666921  0.51634347  1
  Ti  Ti14  1  0.38438705  0.47716424  0.86167272  1
  Ti  Ti15  1  0.43260588  0.75981697  0.28546482  1
  Ti  Ti16  1  0.33309504  0.78885041  0.60203433  1
  Ti  Ti17  1  0.32549673  0.82628510  0.87220823  1
  Ti  Ti18  1  0.74328712  0.09953075  0.28201378  1
  Ti  Ti19  1  0.70765349  0.10254042  0.60999182  1
  Ti  Ti20  1  0.76666016  0.12417218  0.94512050  1
  Ti  Ti21  1  0.74043054  0.45682749  0.19415167  1
  Ti  Ti22  1  0.80033317  0.36101834  0.62071693  1
  Ti  Ti23  1  0.76931024  0.34746722  1.02733115  1
  Ti  Ti24  1  0.73802866  0.78882211  0.25292190  1
  Ti  Ti25  1  0.75418372  0.75153393  0.58034644  1
  Ti  Ti26  1  0.73196859  0.72200327  0.91107444  1
  Ti  Ti27  1  -0.00315024  0.26666943  0.07131749  1
  Ti  Ti28  1  0.10275525  0.25104843  0.46207213  1
  Ti  Ti29  1  0.14180677  0.28863203  0.73915968  1
  Ti  Ti30  1  0.13522946  0.61634714  0.06293641  1
  Ti  Ti31  1  0.12849984  0.59340274  0.37188588  1
  Ti  Ti32  1  -0.01016598  0.60661008  0.74221619  1
  Ti  Ti33  1  0.03897986  0.87626405  0.06473130  1
  Ti  Ti34  1  0.07472004  0.90891981  0.41314337  1
  Ti  Ti35  1  0.09685540  0.93948069  0.71281106  1
  Ti  Ti36  1  0.35182561  0.24811037  0.09042882  1
  Ti  Ti37  1  0.40471684  0.16953655  0.35245725  1
  Ti  Ti38  1  0.43691344  0.19897516  0.83162509  1
  Ti  Ti39  1  0.35521565  0.55929003  0.08028142  1
  Ti  Ti40  1  0.50230299  0.57965988  0.39185110  1
  Ti  Ti41  1  0.40796309  0.67751918  0.75914196  1
  Ti  Ti42  1  0.45339784  0.83909734  -0.00077323  1
  Ti  Ti43  1  0.39310508  0.90321512  0.43738610  1
  Ti  Ti44  1  0.44891858  0.90198225  0.73173750  1
  Ti  Ti45  1  0.82027171  0.20676006  0.14188450  1
  Ti  Ti46  1  0.68429613  0.22986752  0.44594284  1
  Ti  Ti47  1  0.74749972  0.21429893  0.74909340  1
  Ti  Ti48  1  0.83042803  0.62813371  0.06393379  1
  Ti  Ti49  1  0.71871018  0.54444491  0.49738213  1
  Ti  Ti50  1  0.78232032  0.57319782  0.73160022  1
  Ti  Ti51  1  0.71781406  0.86880252  0.04008958  1
  Ti  Ti52  1  0.74930086  0.88030475  0.43367189  1
  Ti  Ti53  1  0.78624306  0.91404642  0.68014834  1
  Ti  Ti54  1  0.22554650  0.08676048  0.05660521  1
  Ti  Ti55  1  0.22943272  0.05437940  0.39674446  1
  Ti  Ti56  1  0.21725478  0.10926080  0.74385710  1
  Ti  Ti57  1  0.21077064  0.42119527  0.11354075  1
  Ti  Ti58  1  0.22179076  0.40692274  0.40494379  1
  Ti  Ti59  1  0.26435572  0.44252601  0.67535124  1
  Ti  Ti60  1  0.30688958  0.75784721  0.08997368  1
  Ti  Ti61  1  0.28593683  0.70969707  0.42081805  1
  Ti  Ti62  1  0.20570018  0.73805344  0.74424632  1
  Ti  Ti63  1  0.63668535  0.05885559  0.13096173  1
  Ti  Ti64  1  0.57857192  0.06737377  0.41686067  1
  Ti  Ti65  1  0.52795147  0.08151177  0.69024562  1
  Ti  Ti66  1  0.54037786  0.33312713  0.06682691  1
  Ti  Ti67  1  0.60034713  0.40804732  0.47377508  1
  Ti  Ti68  1  0.50199148  0.38821217  0.65555250  1
  Ti  Ti69  1  0.56867649  0.82365621  0.14475509  1
  Ti  Ti70  1  0.60453931  0.73292884  0.47833574  1
  Ti  Ti71  1  0.60648720  0.78547921  0.71922898  1
  Ti  Ti72  1  0.97254485  0.07668825  0.11287301  1
  Ti  Ti73  1  0.89262613  0.01394940  0.39680643  1
  Ti  Ti74  1  0.94218399  0.04318648  0.80611627  1
  Ti  Ti75  1  1.02952868  0.44853264  0.08859327  1
  Ti  Ti76  1  0.91012768  0.45992091  0.47548547  1
  Ti  Ti77  1  0.89280638  0.41948597  0.79578115  1
  Ti  Ti78  1  0.87461955  0.80062565  0.13149415  1
  Ti  Ti79  1  0.85039692  0.68027622  0.41510138  1
  Ti  Ti80  1  0.90472754  0.82627728  0.79310835  1
  Ti  Ti81  1  0.25914012  0.28038595  0.25942328  1
  Ti  Ti82  1  0.30850940  0.29544005  0.52586103  1
  Ti  Ti83  1  0.27202050  0.24212990  0.89639222  1
  Ti  Ti84  1  0.24530194  0.64867534  0.23301828  1
  Ti  Ti85  1  0.19707868  0.54301622  0.53527774  1
  Ti  Ti86  1  0.26719977  0.65135426  0.91726317  1
  Ti  Ti87  1  0.26106945  0.85560307  0.26667327  1
  Ti  Ti88  1  0.31072238  0.99313063  0.60561660  1
  Ti  Ti89  1  0.18033212  0.92766439  0.93336286  1
  Ti  Ti90  1  0.63827265  0.26271386  0.21345167  1
  Ti  Ti91  1  0.51242660  0.20119582  0.54060353  1
  Ti  Ti92  1  0.61267512  0.24878667  0.89872616  1
  Ti  Ti93  1  0.58342961  0.63044179  0.21935508  1
  Ti  Ti94  1  0.50761091  0.60943112  0.60036391  1
  Ti  Ti95  1  0.56781894  0.59394358  1.00968240  1
  Ti  Ti96  1  0.52263908  0.95091016  0.27029073  1
  Ti  Ti97  1  0.62069501  0.93310093  0.57329621  1
  Ti  Ti98  1  0.60621684  0.92064902  0.90017616  1
  Ti  Ti99  1  0.97163186  0.21438643  0.27016782  1
  Ti  Ti100  1  0.87046344  0.20133560  0.51614144  1
  Ti  Ti101  1  0.95593015  0.24590897  0.81662675  1
  Ti  Ti102  1  0.92601747  0.52764841  0.21129908  1
  Ti  Ti103  1  1.01011679  0.61206321  0.53916700  1
  Ti  Ti104  1  0.97211724  0.54843377  0.93787547  1
  Ti  Ti105  1  0.87933186  0.95707691  0.22180401  1
  Ti  Ti106  1  0.91676354  0.84285281  0.51767757  1
  Ti  Ti107  1  0.86610899  0.95322092  0.96440723  1
  Co  Co108  1  -0.04559084  0.30750832  0.41696211  1
  Co  Co109  1  0.45586956  0.33833574  0.48518448  1
  Co  Co110  1  0.78075813  0.03269216  0.80705463  1
  Co  Co111  1  0.34768660  -0.01272648  0.30141231  1
  Co  Co112  1  0.46637602  0.69737308  0.11008292  1
  Co  Co113  1  0.45291397  0.26448075  0.21861606  1
  Co  Co114  1  0.91492894  0.17677483  -0.03241706  1
  Co  Co115  1  0.13874313  0.60856527  0.67175789  1
  Co  Co116  1  0.55129382  0.89711269  0.43629144  1
  Co  Co117  1  0.55181356  0.13061615  0.26524764  1
  Co  Co118  1  0.58637495  0.75428960  -0.01882586  1
  Co  Co119  1  -0.05170275  -0.07760549  0.65334918  1
  Co  Co120  1  0.49741246  0.78659595  0.84280897  1
  Co  Co121  1  0.63813498  0.11324942  0.81062577  1
  Co  Co122  1  0.09896735  0.55042788  0.21225203  1
  Co  Co123  1  0.74417638  0.07295533  0.44717903  1
  Co  Co124  1  0.63615485  0.50876385  0.32995601  1
  Co  Co125  1  0.05506676  0.43925326  0.81832760  1
  Co  Co126  1  0.51437481  -0.02631145  0.06651363  1
  Co  Co127  1  -0.00750795  0.14155415  0.41479610  1
  Co  Co128  1  0.75708848  0.73762186  0.75097407  1
  Co  Co129  1  0.54514331  0.24296545  0.72168249  1
  Co  Co130  1  0.60007740  0.48106038  0.12722230  1
  Co  Co131  1  0.12159523  0.59224257  0.84865845  1
  Co  Co132  1  0.31346126  0.63071123  0.60873538  1
  Co  Co133  1  0.11168088  0.03763715  0.83794429  1
  Co  Co134  1  0.21050407  -0.09297871  0.09830258  1
  Co  Co135  1  0.23170832  0.87522674  0.45149161  1
  Co  Co136  1  0.72347637  0.93208348  0.18318588  1
  Co  Co137  1  0.67185452  0.21531859  0.05594880  1
  Co  Co138  1  0.40623227  0.51955743  0.69516791  1
  Co  Co139  1  0.67461860  -0.04164098  0.32999884  1
  Co  Co140  1  -0.05471882  0.36976213  -0.05433677  1
  Co  Co141  1  0.26985161  0.12338743  0.22936845  1
  Co  Co142  1  0.78903945  0.35713112  0.45841488  1
  Co  Co143  1  0.89466098  0.49020720  0.64189686  1
  Co  Co144  1  0.82875016  0.21764089  0.35091092  1
  Co  Co145  1  0.80553355  0.04457949  0.09666111  1
  Co  Co146  1  0.01525438  0.04700325  0.28591939  1
  Co  Co147  1  0.84616948  0.61580142  0.56592951  1
  Co  Co148  1  0.07068626  0.44376234  0.46607328  1
  Co  Co149  1  0.26835292  0.57890986  0.76819394  1
  Co  Co150  1  0.14842163  0.76790626  0.33599502  1
  Co  Co151  1  0.18951520  0.26185282  0.05535122  1
  Co  Co152  1  0.36899290  0.04692708  0.75962227  1
  Co  Co153  1  0.75280302  0.87557369  0.84840697  1
  Co  Co154  1  0.40288988  0.88239171  0.16474655  1
  Co  Co155  1  0.19216169  0.85897731  0.60676208  1
  Co  Co156  1  0.36709048  0.33374037  0.74582233  1
  Co  Co157  1  0.16604282  0.71189539  0.52789065  1
  Co  Co158  1  -0.03036717  0.57413709  0.36350615  1
  Co  Co159  1  0.51720115  0.17292470  0.09339577  1
  Co  Co160  1  0.86782178  0.46978314  0.05859674  1
  Co  Co161  1  0.17462913  0.77643389  -0.00568783  1
  Ni  Ni162  1  0.03260941  0.87649613  0.24698136  1
  Ni  Ni163  1  0.89192793  0.78357112  -0.03614571  1
  Ni  Ni164  1  0.68388000  0.69453715  0.09863727  1
  Ni  Ni165  1  0.01978538  0.02846622  -0.02966765  1
  Ni  Ni166  1  0.69288853  0.65532495  0.35593887  1
  Ni  Ni167  1  0.89969188  0.82464872  0.33578964  1
  Ni  Ni168  1  0.83031782  0.65187318  0.24802767  1
  Ni  Ni169  1  0.01952214  0.89629623  0.88175820  1
  Ni  Ni170  1  0.80217141  0.51303952  0.34787351  1
  Ni  Ni171  1  0.65787194  0.46275296  0.63332601  1
  Ni  Ni172  1  0.25874838  0.92238415  0.75653250  1
  Ni  Ni173  1  0.19077943  0.16986303  0.58833448  1
  Ni  Ni174  1  0.54220855  0.27261464  0.36190996  1
  Ni  Ni175  1  0.32275200  0.55245775  0.38061226  1
  Ni  Ni176  1  0.63886335  -0.03755970  0.74046745  1
  Ni  Ni177  1  0.46383326  0.45750294  0.01186087  1
  Ni  Ni178  1  0.87876320  0.13171394  0.67797690  1
  Ni  Ni179  1  0.05194182  0.14501145  0.71250749  1
  Ni  Ni180  1  0.49806330  0.81405039  0.58535800  1
  Ni  Ni181  1  0.20717412  0.50244540  -0.03844690  1
  Ni  Ni182  1  0.43416468  0.70703474  0.47968655  1
  Ni  Ni183  1  0.37887758  0.36621706  0.34825323  1
  Ni  Ni184  1  0.42977332  0.67104622  -0.05614792  1
  Ni  Ni185  1  0.13390245  0.16973490  0.31912047  1
  Ni  Ni186  1  0.34122616  -0.04043421  0.02066051  1
  Ni  Ni187  1  0.50280383  0.36224390  0.84042311  1
  Ni  Ni188  1  0.01748811  0.73919814  0.42541941  1
  Ni  Ni189  1  -0.03667732  0.28364481  0.64995715  1
  Ni  Ni190  1  0.15821741  0.00543681  0.54126231  1
  Ni  Ni191  1  0.10756105  0.31205780  0.19886898  1
  Ni  Ni192  1  0.27802966  0.06246407  0.89569531  1
  Ni  Ni193  1  0.65382958  0.28342368  0.60922854  1
  Ni  Ni194  1  -0.10318004  0.73059268  0.66285243  1
  Ni  Ni195  1  0.90381716  0.35761994  0.18342144  1
  Ni  Ni196  1  0.69402745  0.35983650  0.33049763  1
  Ni  Ni197  1  0.87698973  0.65988089  0.85109244  1
  Ni  Ni198  1  0.59730480  0.08596748  -0.02900786  1
  Ni  Ni199  1  0.84546400  0.01245373  0.55783358  1
  Ni  Ni200  1  0.37539056  0.40500629  0.16484785  1
  Ni  Ni201  1  0.80434866  0.29458820  0.87964865  1
  Ni  Ni202  1  0.41030940  0.59139037  0.23974112  1
  Ni  Ni203  1  -0.00861933  0.69415971  0.06376529  1
  Ni  Ni204  1  0.15829248  0.34779110  0.57939088  1
  Ni  Ni205  1  0.59405626  0.79094586  0.32368079  1
  Ni  Ni206  1  0.23386332  0.40140869  0.83377992  1
  Ni  Ni207  1  0.13637049  0.77002225  0.16101442  1
  Ni  Ni208  1  0.46818928  0.02072233  0.54274694  1
  Ni  Ni209  1  0.31663647  0.38052569  -0.01139001  1
  Ni  Ni210  1  0.49970748  0.03003153  0.84860080  1
  Ni  Ni211  1  0.11103316  0.15611446  0.15719422  1
  Ni  Ni212  1  0.24766951  0.47928532  0.25817600  1
  Ni  Ni213  1  0.66033114  0.63506290  0.64217589  1
  Ni  Ni214  1  0.33759851  0.12628859  0.50301000  1
