# generated using pymatgen
data_Ti108Co54Ni53
_symmetry_space_group_name_H-M   'P 1'
_cell_length_a   14.63324932
_cell_length_b   14.71370330
_cell_length_c   14.63896384
_cell_angle_alpha   90.05503519
_cell_angle_beta   90.13027781
_cell_angle_gamma   90.07831083
_symmetry_Int_Tables_number   1
_chemical_formula_structural   Ti108Co54Ni53
_chemical_formula_sum   'Ti108 Co54 Ni53'
_cell_volume   3151.89233804
_cell_formula_units_Z   1
loop_
 _symmetry_equiv_pos_site_id
 _symmetry_equiv_pos_as_xyz
  1  'x, y, z'
loop_
 _atom_site_type_symbol
 _atom_site_label
 _atom_site_symmetry_multiplicity
 _atom_site_fract_x
 _atom_site_fract_y
 _atom_site_fract_z
 _atom_site_occupancy
  Ti  Ti0  1  0.04436634  0.08593019  0.22629431  1
  Ti  Ti1  1  0.06844312  0.08226442  0.55379260  1
  Ti  Ti2  1  0.07888399  0.04146621  0.88627873  1
  Ti  Ti3  1  -0.03132817  0.36769185  0.21083656  1
  Ti  Ti4  1  0.06905043  0.41867378  0.60961742  1
  Ti  Ti5  1  0.09820869  0.40938896  0.98593697  1
  Ti  Ti6  1  0.01485180  0.71198330  0.25115392  1
  Ti  Ti7  1  0.08467060  0.73728039  0.64935587  1
  Ti  Ti8  1  0.09838416  0.73153602  0.96008687  1
  Ti  Ti9  1  0.35867610  0.05826596  0.28591499  1
  Ti  Ti10  1  0.38812609  0.11452888  0.59031260  1
  Ti  Ti11  1  0.41771370  0.10016390  0.95033478  1
  Ti  Ti12  1  0.42511249  0.47074751  0.24962092  1
  Ti  Ti13  1  0.44310901  0.43577531  0.65948429  1
  Ti  Ti14  1  0.39202610  0.40393543  0.85312286  1
  Ti  Ti15  1  0.37518905  0.86377125  0.33255108  1
  Ti  Ti16  1  0.47222630  0.75738093  0.64875598  1
  Ti  Ti17  1  0.46149957  0.76867680  0.90948830  1
  Ti  Ti18  1  0.80728694  0.04118931  0.18613183  1
  Ti  Ti19  1  0.82870003  0.01739517  0.53111187  1
  Ti  Ti20  1  0.75237331  0.08258646  0.87417011  1
  Ti  Ti21  1  0.78256002  0.38455911  0.28099256  1
  Ti  Ti22  1  0.77110301  0.45348039  0.51821382  1
  Ti  Ti23  1  0.79329512  0.40404788  0.86204426  1
  Ti  Ti24  1  0.72026810  0.74082673  0.29695756  1
  Ti  Ti25  1  0.73700752  0.72447856  0.49606395  1
  Ti  Ti26  1  0.78100815  0.73134095  0.90711575  1
  Ti  Ti27  1  0.07850006  0.21220671  -0.00806536  1
  Ti  Ti28  1  0.13749377  0.26603186  0.42456393  1
  Ti  Ti29  1  0.13219348  0.24702366  0.81211651  1
  Ti  Ti30  1  0.13192642  0.58084345  0.08947746  1
  Ti  Ti31  1  0.00350217  0.61820033  0.43412201  1
  Ti  Ti32  1  0.02227593  0.61664387  0.77974135  1
  Ti  Ti33  1  0.10964527  0.95064827  0.06805534  1
  Ti  Ti34  1  0.09230155  0.82043163  0.41261408  1
  Ti  Ti35  1  0.05226503  0.93288140  0.73084510  1
  Ti  Ti36  1  0.41859545  0.20741856  0.15234019  1
  Ti  Ti37  1  0.43649548  0.22677417  0.38020201  1
  Ti  Ti38  1  0.35248238  0.27689515  0.67895209  1
  Ti  Ti39  1  0.44906640  0.57263519  0.05220734  1
  Ti  Ti40  1  0.45229535  0.59261958  0.46634416  1
  Ti  Ti41  1  0.38891023  0.60600123  0.76868002  1
  Ti  Ti42  1  0.42632831  0.91449103  0.04449110  1
  Ti  Ti43  1  0.33085255  0.95903025  0.48774806  1
  Ti  Ti44  1  0.36789489  0.93406996  0.69248047  1
  Ti  Ti45  1  0.72182087  0.16420684  0.05876421  1
  Ti  Ti46  1  0.78727316  0.27531732  0.47388805  1
  Ti  Ti47  1  0.74058982  0.25373506  0.69362768  1
  Ti  Ti48  1  0.74757601  0.64177017  0.08108153  1
  Ti  Ti49  1  0.71457488  0.55037070  0.35291949  1
  Ti  Ti50  1  0.71154790  0.55982433  0.77684136  1
  Ti  Ti51  1  0.80105296  0.86302185  0.07821948  1
  Ti  Ti52  1  0.69615948  0.91054529  0.43769526  1
  Ti  Ti53  1  0.75443032  0.92109091  0.73548334  1
  Ti  Ti54  1  0.23175676  0.13605084  0.08980164  1
  Ti  Ti55  1  0.25665402  0.11954102  0.44331192  1
  Ti  Ti56  1  0.29305062  0.12367855  0.77876318  1
  Ti  Ti57  1  0.34966342  0.39983572  0.08085748  1
  Ti  Ti58  1  0.31456422  0.37780363  0.39915756  1
  Ti  Ti59  1  0.23986749  0.42047650  0.70482317  1
  Ti  Ti60  1  0.25318147  0.81005714  0.04429543  1
  Ti  Ti61  1  0.29193791  0.72108300  0.44765034  1
  Ti  Ti62  1  0.21616390  0.69155953  0.80557687  1
  Ti  Ti63  1  0.55491957  0.07747524  0.11007019  1
  Ti  Ti64  1  0.61349598  0.11255408  0.43541691  1
  Ti  Ti65  1  0.58714740  0.01026121  0.73005968  1
  Ti  Ti66  1  0.63263647  0.45227213  0.06756710  1
  Ti  Ti67  1  0.52538096  0.41196667  0.45611328  1
  Ti  Ti68  1  0.61538894  0.39270883  0.74158096  1
  Ti  Ti69  1  0.50605378  0.78116336  0.21599621  1
  Ti  Ti70  1  0.52131914  0.80435461  0.44733835  1
  Ti  Ti71  1  0.68739447  0.73982674  0.70716587  1
  Ti  Ti72  1  0.92969737  0.17928808  0.11448173  1
  Ti  Ti73  1  0.95667333  0.13208631  0.41324951  1
  Ti  Ti74  1  0.93853105  0.15053665  0.79367783  1
  Ti  Ti75  1  0.83046580  0.44536937  0.06303182  1
  Ti  Ti76  1  0.95543626  0.34982897  0.42537502  1
  Ti  Ti77  1  0.92066800  0.45873982  0.72285874  1
  Ti  Ti78  1  0.93960416  0.67459112  0.05995501  1
  Ti  Ti79  1  0.88637992  0.81990734  0.40235621  1
  Ti  Ti80  1  0.89905875  0.80063942  0.73773168  1
  Ti  Ti81  1  0.21532735  0.21704412  0.25935185  1
  Ti  Ti82  1  0.18066419  0.22422606  0.62157468  1
  Ti  Ti83  1  0.27845620  0.25815140  0.95633381  1
  Ti  Ti84  1  0.28854433  0.71380423  0.21949467  1
  Ti  Ti85  1  0.22496487  0.55898698  0.55810790  1
  Ti  Ti86  1  0.29218270  0.63540059  0.97132308  1
  Ti  Ti87  1  0.15208270  0.86461812  0.24044917  1
  Ti  Ti88  1  0.20716450  0.85862828  0.58615850  1
  Ti  Ti89  1  0.29853736  0.91313662  0.87901798  1
  Ti  Ti90  1  0.57586646  0.29947812  0.26418799  1
  Ti  Ti91  1  0.57258723  0.17442321  0.61847949  1
  Ti  Ti92  1  0.57800832  0.27384381  0.90500895  1
  Ti  Ti93  1  0.59200835  0.61249358  0.19625950  1
  Ti  Ti94  1  0.55819937  0.57419311  0.65123977  1
  Ti  Ti95  1  0.60112563  0.60700485  0.93006517  1
  Ti  Ti96  1  0.63233618  0.92910531  0.20851610  1
  Ti  Ti97  1  0.51676828  0.95891294  0.55552926  1
  Ti  Ti98  1  0.59698969  0.94599619  0.91289016  1
  Ti  Ti99  1  0.84460030  0.21217496  0.27991608  1
  Ti  Ti100  1  0.90810249  0.18473126  0.61157983  1
  Ti  Ti101  1  0.86429559  0.25254737  0.94777192  1
  Ti  Ti102  1  0.88504296  0.56408253  0.21605613  1
  Ti  Ti103  1  0.88184896  0.63407519  0.62946688  1
  Ti  Ti104  1  0.94374113  0.52309391  0.92502618  1
  Ti  Ti105  1  0.95400391  0.90851104  0.24515535  1
  Ti  Ti106  1  0.99048309  0.90334480  0.55083243  1
  Ti  Ti107  1  0.95092771  0.88479570  0.93419553  1
  Co  Co108  1  0.01395795  -0.02969558  0.38743661  1
  Co  Co109  1  -0.13630171  0.66947133  0.33725903  1
  Co  Co110  1  0.53562641  0.53325376  0.33450733  1
  Co  Co111  1  0.13845962  0.69709997  0.50526416  1
  Co  Co112  1  0.89419215  0.34617053  0.59691891  1
  Co  Co113  1  0.64414294  0.44464592  0.90308585  1
  Co  Co114  1  -0.01396649  0.50605435  0.09585993  1
  Co  Co115  1  -0.04883408  0.74778156  0.53656485  1
  Co  Co116  1  0.89272582  -0.01447707  0.82586394  1
  Co  Co117  1  0.21116537  0.37770595  0.53968052  1
  Co  Co118  1  0.67010679  0.00939862  0.58378066  1
  Co  Co119  1  0.77377612  0.55801396  -0.05789323  1
  Co  Co120  1  0.14106336  0.89117947  -0.09203214  1
  Co  Co121  1  0.59092788  0.69369369  0.54764862  1
  Co  Co122  1  0.54947286  0.67921234  0.79076849  1
  Co  Co123  1  0.63608780  0.85028709  0.60006040  1
  Co  Co124  1  0.62051460  0.54863304  0.48191155  1
  Co  Co125  1  0.76270447  0.42042531  0.67522566  1
  Co  Co126  1  0.36857844  0.78153668  0.78099676  1
  Co  Co127  1  0.03348166  0.25788437  0.54467985  1
  Co  Co128  1  0.68128605  0.77254998  0.14801874  1
  Co  Co129  1  0.04336007  0.58952274  0.59800965  1
  Co  Co130  1  0.63980162  0.31723328  0.56425484  1
  Co  Co131  1  0.12237560  0.09920434  0.36488007  1
  Co  Co132  1  0.16283300  0.56457827  0.71118151  1
  Co  Co133  1  0.21995701  0.10133422  -0.07636483  1
  Co  Co134  1  0.26542856  0.52656930  0.83477336  1
  Co  Co135  1  0.42458900  0.69927564  0.34327918  1
  Co  Co136  1  0.07813608  0.24601979  0.15020802  1
  Co  Co137  1  -0.01106882  0.32960254  0.87754785  1
  Co  Co138  1  0.37706338  0.60151237  0.60527145  1
  Co  Co139  1  0.42870746  0.62545986  0.20748387  1
  Co  Co140  1  0.02434118  0.23633572  0.30093501  1
  Co  Co141  1  -0.06225213  0.48890112  0.53133792  1
  Co  Co142  1  0.23703158  -0.04964282  0.34670409  1
  Co  Co143  1  0.50887485  0.28230982  0.72673900  1
  Co  Co144  1  0.85157240  0.62860365  0.79176166  1
  Co  Co145  1  0.12665325  0.56950363  0.91229652  1
  Co  Co146  1  0.07305543  0.44676511  0.80221682  1
  Co  Co147  1  0.35865363  0.44795142  0.53396304  1
  Co  Co148  1  0.83457380  0.60317189  0.47532443  1
  Co  Co149  1  0.08092120  0.11288927  0.71512512  1
  Co  Co150  1  0.52472704  0.51514757  0.81345427  1
  Co  Co151  1  -0.03809690  0.34098732  0.04918971  1
  Co  Co152  1  0.37686648  0.82078146  0.53932447  1
  Co  Co153  1  0.76532625  0.89595069  -0.10446010  1
  Co  Co154  1  0.59961128  0.10800475  -0.05633018  1
  Co  Co155  1  0.87282988  0.30128148  0.76337110  1
  Co  Co156  1  0.54128075  0.85873221  0.75407370  1
  Co  Co157  1  0.02279705  0.29421462  0.70833083  1
  Co  Co158  1  0.27082850  0.71596123  0.64378614  1
  Co  Co159  1  0.24970260  0.48036681  -0.00689158  1
  Co  Co160  1  0.72982470  0.15481430  0.55881709  1
  Co  Co161  1  0.37995060  0.05346203  0.11960176  1
  Ni  Ni162  1  0.46913888  -0.04800063  0.21145959  1
  Ni  Ni163  1  0.81492970  0.84044145  0.58938479  1
  Ni  Ni164  1  0.71412041  0.32249162  -0.00394350  1
  Ni  Ni165  1  0.59258680  0.67813304  0.37296987  1
  Ni  Ni166  1  -0.16420355  0.00596902  -0.00591178  1
  Ni  Ni167  1  0.46908354  0.28889975  0.54997194  1
  Ni  Ni168  1  0.58107091  0.87156673  0.06046231  1
  Ni  Ni169  1  0.62562293  0.16801447  0.78543440  1
  Ni  Ni170  1  0.16020316  0.68919268  0.33121357  1
  Ni  Ni171  1  0.68916012  -0.00476959  0.04743972  1
  Ni  Ni172  1  0.44672899  -0.02716392  0.83769832  1
  Ni  Ni173  1  0.35892714  0.31872249  0.24604303  1
  Ni  Ni174  1  0.20881589  0.83994794  0.74878919  1
  Ni  Ni175  1  0.72032369  0.58775083  0.60738644  1
  Ni  Ni176  1  0.26599845  -0.01933450  0.02667299  1
  Ni  Ni177  1  0.49497301  0.43548743  -0.02743383  1
  Ni  Ni178  1  0.12264704  0.74177580  0.12611495  1
  Ni  Ni179  1  -0.05803829  0.71186671  -0.10207457  1
  Ni  Ni180  1  0.85724175  0.74883757  0.18998915  1
  Ni  Ni181  1  0.78431770  0.88601630  0.25945093  1
  Ni  Ni182  1  -0.07079983  0.02220047  0.66764615  1
  Ni  Ni183  1  0.50552472  0.36631745  0.12925430  1
  Ni  Ni184  1  0.80799796  0.29420796  0.13262214  1
  Ni  Ni185  1  0.77343696  0.08509555  0.70546691  1
  Ni  Ni186  1  0.44828478  0.06987291  0.43193517  1
  Ni  Ni187  1  0.23177302  0.04155654  0.61535887  1
  Ni  Ni188  1  -0.01284913  0.83182449  0.10289325  1
  Ni  Ni189  1  0.30848444  0.90336168  0.17911076  1
  Ni  Ni190  1  0.95748151  0.00220376  0.09824105  1
  Ni  Ni191  1  0.15164462  -0.03125544  0.47879302  1
  Ni  Ni192  1  0.29775942  0.56081230  0.13371507  1
  Ni  Ni193  1  0.69321198  0.03030101  0.31441996  1
  Ni  Ni194  1  0.21637582  0.30783635  0.10558025  1
  Ni  Ni195  1  0.94688002  0.10603943  -0.04218410  1
  Ni  Ni196  1  0.40553626  0.23642546  0.84553680  1
  Ni  Ni197  1  0.63267924  0.78831690  0.87711800  1
  Ni  Ni198  1  0.56178491  0.71098156  0.05285924  1
  Ni  Ni199  1  0.46003822  0.11894360  0.74578527  1
  Ni  Ni200  1  0.67925241  0.17190685  0.22282270  1
  Ni  Ni201  1  0.72629428  0.51201355  0.18954810  1
  Ni  Ni202  1  0.20377451  0.03162941  0.21101027  1
  Ni  Ni203  1  0.53217479  0.10580608  0.28001301  1
  Ni  Ni204  1  0.21681634  0.37841489  0.86810630  1
  Ni  Ni205  1  0.66492585  0.35650739  0.39655276  1
  Ni  Ni206  1  0.78077393  0.12753182  0.40546668  1
  Ni  Ni207  1  0.39879280  0.73893472  0.08281260  1
  Ni  Ni208  1  0.31378891  0.25673098  0.51080347  1
  Ni  Ni209  1  0.85472735  -0.00711406  0.35949318  1
  Ni  Ni210  1  0.54304224  0.95197903  0.36481239  1
  Ni  Ni211  1  0.05587095  0.78883808  0.80970226  1
  Ni  Ni212  1  0.44280793  0.27519219  0.00201685  1
  Ni  Ni213  1  0.19793985  -0.00271500  0.77333373  1
  Ni  Ni214  1  0.89122109  0.49127139  0.36667143  1
