# generated using pymatgen
data_Ti108Co54Ni53
_symmetry_space_group_name_H-M   'P 1'
_cell_length_a   14.68377223
_cell_length_b   14.69157972
_cell_length_c   14.63475780
_cell_angle_alpha   89.66572668
_cell_angle_beta   90.27279142
_cell_angle_gamma   89.91916805
_symmetry_Int_Tables_number   1
_chemical_formula_structural   Ti108Co54Ni53
_chemical_formula_sum   'Ti108 Co54 Ni53'
_cell_volume   3157.03147710
_cell_formula_units_Z   1
loop_
 _symmetry_equiv_pos_site_id
 _symmetry_equiv_pos_as_xyz
  1  'x, y, z'
loop_
 _atom_site_type_symbol
 _atom_site_label
 _atom_site_symmetry_multiplicity
 _atom_site_fract_x
 _atom_site_fract_y
 _atom_site_fract_z
 _atom_site_occupancy
  Ti  Ti0  1  0.14774845  0.07992734  0.28539319  1
  Ti  Ti1  1  0.09413722  0.14674778  0.57338676  1
  Ti  Ti2  1  0.10577433  0.15652698  0.89337871  1
  Ti  Ti3  1  0.03320110  0.37439109  0.27240185  1
  Ti  Ti4  1  0.21813742  0.50328291  0.54897572  1
  Ti  Ti5  1  0.12803753  0.37657444  0.91531339  1
  Ti  Ti6  1  0.05025648  0.72513652  0.26942966  1
  Ti  Ti7  1  0.06333041  0.80179178  0.57063210  1
  Ti  Ti8  1  0.09680640  0.74718220  0.95493998  1
  Ti  Ti9  1  0.44822770  0.06938377  0.22799137  1
  Ti  Ti10  1  0.41417707  0.09515171  0.54767544  1
  Ti  Ti11  1  0.35818626  0.10146113  0.90933668  1
  Ti  Ti12  1  0.34213702  0.42606298  0.23881336  1
  Ti  Ti13  1  0.40173956  0.42475828  0.56409613  1
  Ti  Ti14  1  0.43277121  0.47747177  0.86064945  1
  Ti  Ti15  1  0.41775268  0.79493545  0.18926912  1
  Ti  Ti16  1  0.40220729  0.79114528  0.60965958  1
  Ti  Ti17  1  0.43448390  0.79922035  0.98196776  1
  Ti  Ti18  1  0.62778143  0.08280878  0.28779304  1
  Ti  Ti19  1  0.76794963  0.06887922  0.63152410  1
  Ti  Ti20  1  0.76560358  0.05944862  0.84046759  1
  Ti  Ti21  1  0.82230698  0.35575333  0.30243347  1
  Ti  Ti22  1  0.75456921  0.35294203  0.56358753  1
  Ti  Ti23  1  0.74105816  0.33351849  0.90778250  1
  Ti  Ti24  1  0.85470467  0.72149592  0.21363535  1
  Ti  Ti25  1  0.66917762  0.73276477  0.62458713  1
  Ti  Ti26  1  0.76325121  0.60209388  0.96365939  1
  Ti  Ti27  1  0.11177555  0.16093148  0.10005208  1
  Ti  Ti28  1  0.04462041  0.30121530  0.47136206  1
  Ti  Ti29  1  0.04715103  0.34865045  0.67661065  1
  Ti  Ti30  1  0.03632612  0.64042930  0.09583502  1
  Ti  Ti31  1  0.07080139  0.60037541  0.43648420  1
  Ti  Ti32  1  0.11410176  0.55306488  0.74202017  1
  Ti  Ti33  1  0.12248090  0.91462585  0.05094433  1
  Ti  Ti34  1  0.10273545  0.90474374  0.38455082  1
  Ti  Ti35  1  0.04343753  0.94755403  0.71890657  1
  Ti  Ti36  1  0.41905085  0.24516157  0.03454609  1
  Ti  Ti37  1  0.33830540  0.18165084  0.35325992  1
  Ti  Ti38  1  0.49772411  0.23474888  0.83332634  1
  Ti  Ti39  1  0.46306716  0.61037899  0.13840336  1
  Ti  Ti40  1  0.41795301  0.56961722  0.40185818  1
  Ti  Ti41  1  0.43012765  0.67029471  0.74672531  1
  Ti  Ti42  1  0.33137351  0.96140909  0.05264961  1
  Ti  Ti43  1  0.43764652  0.85839018  0.38698368  1
  Ti  Ti44  1  0.44218681  0.96883727  0.70777617  1
  Ti  Ti45  1  0.71033418  0.35704394  0.10286844  1
  Ti  Ti46  1  0.73839111  0.19539044  0.44223175  1
  Ti  Ti47  1  0.65958255  0.30680402  0.72817667  1
  Ti  Ti48  1  0.74382599  0.53553567  0.18628276  1
  Ti  Ti49  1  0.76282567  0.62212906  0.48802479  1
  Ti  Ti50  1  0.73858907  0.53972155  0.68016009  1
  Ti  Ti51  1  0.76930407  0.87676326  0.10700754  1
  Ti  Ti52  1  0.77432522  0.94893934  0.33989968  1
  Ti  Ti53  1  0.68660640  0.91542185  0.69479896  1
  Ti  Ti54  1  0.29795364  0.13993141  0.12733479  1
  Ti  Ti55  1  0.22860505  0.03006709  0.47520357  1
  Ti  Ti56  1  0.25170239  0.06117227  0.67277425  1
  Ti  Ti57  1  0.23929243  0.34018718  0.07650773  1
  Ti  Ti58  1  0.24765270  0.33916179  0.44636757  1
  Ti  Ti59  1  0.27467221  0.43499927  0.72396685  1
  Ti  Ti60  1  0.28703497  0.68736073  0.05773822  1
  Ti  Ti61  1  0.24755685  0.75630327  0.30045294  1
  Ti  Ti62  1  0.24997423  0.72554940  0.82590830  1
  Ti  Ti63  1  0.62203233  0.01820560  0.05002778  1
  Ti  Ti64  1  0.54968354  0.17221288  0.43810490  1
  Ti  Ti65  1  0.59721758  0.09977736  0.72932495  1
  Ti  Ti66  1  0.51924846  0.37908554  0.13542217  1
  Ti  Ti67  1  0.54335293  0.37538381  0.43446202  1
  Ti  Ti68  1  0.60452522  0.46386151  0.80800878  1
  Ti  Ti69  1  0.62774005  0.73892367  0.11009280  1
  Ti  Ti70  1  0.61894821  0.73549506  0.42134504  1
  Ti  Ti71  1  0.69271560  0.74971542  0.81966485  1
  Ti  Ti72  1  0.87900576  0.08942127  0.15746512  1
  Ti  Ti73  1  0.91262036  0.10971528  0.42830566  1
  Ti  Ti74  1  0.94759446  0.12016263  0.74926624  1
  Ti  Ti75  1  0.90211198  0.39125231  0.12767980  1
  Ti  Ti76  1  0.92979947  0.45391485  0.43484838  1
  Ti  Ti77  1  0.86049937  0.34970144  0.75494016  1
  Ti  Ti78  1  0.89175995  0.74266994  0.02188626  1
  Ti  Ti79  1  0.95065651  0.77291562  0.42189584  1
  Ti  Ti80  1  0.96958452  0.70137424  0.71673240  1
  Ti  Ti81  1  0.19708426  0.27607385  0.25629410  1
  Ti  Ti82  1  0.32032499  0.25109613  0.66976483  1
  Ti  Ti83  1  0.32128737  0.31642658  0.87400664  1
  Ti  Ti84  1  0.19370978  0.59224932  0.19941241  1
  Ti  Ti85  1  0.25582220  0.69872439  0.51840813  1
  Ti  Ti86  1  0.26747481  0.51457055  0.94220792  1
  Ti  Ti87  1  0.28700895  0.94754862  0.27444445  1
  Ti  Ti88  1  0.22478588  0.87621703  0.65668022  1
  Ti  Ti89  1  0.27404800  0.92959183  0.85486001  1
  Ti  Ti90  1  0.64258890  0.26843404  0.26920931  1
  Ti  Ti91  1  0.51785641  0.24918323  0.61767199  1
  Ti  Ti92  1  0.60792243  0.21507883  1.01395817  1
  Ti  Ti93  1  0.61823589  0.54303923  0.37356416  1
  Ti  Ti94  1  0.54825908  0.58589263  0.57442663  1
  Ti  Ti95  1  0.57433308  0.62294810  0.93353737  1
  Ti  Ti96  1  0.58581197  0.91519237  0.22401939  1
  Ti  Ti97  1  0.55539147  0.90773284  0.54093924  1
  Ti  Ti98  1  0.57967013  0.92479844  0.85189500  1
  Ti  Ti99  1  0.98331288  0.20456773  0.28855399  1
  Ti  Ti100  1  0.89238259  0.21914393  0.59643332  1
  Ti  Ti101  1  0.94263871  0.30274170  0.96063720  1
  Ti  Ti102  1  0.91929604  0.55036763  0.26284810  1
  Ti  Ti103  1  0.93210606  0.57886964  0.58021244  1
  Ti  Ti104  1  0.98021927  0.50776237  0.97149955  1
  Ti  Ti105  1  0.92873430  0.89049440  0.25112978  1
  Ti  Ti106  1  0.88081052  0.89143835  0.57704136  1
  Ti  Ti107  1  0.89148284  0.81943779  0.84941920  1
  Co  Co108  1  0.59428964  0.62596548  0.23837634  1
  Co  Co109  1  -0.10461397  0.62907301  0.39701882  1
  Co  Co110  1  0.37617201  0.39870007  0.01209666  1
  Co  Co111  1  0.11492632  0.16595291  0.72254683  1
  Co  Co112  1  0.88636951  0.28845208  0.43778133  1
  Co  Co113  1  0.67351880  0.20051625  0.59066890  1
  Co  Co114  1  0.74253780  0.00519894  0.18817717  1
  Co  Co115  1  0.47957232  0.26461106  0.31488423  1
  Co  Co116  1  -0.08872521  0.39126223  0.58818357  1
  Co  Co117  1  0.13144064  0.74870566  0.42492638  1
  Co  Co118  1  0.52912130  0.19507012  0.16622526  1
  Co  Co119  1  0.09675947  0.62939714  0.59339216  1
  Co  Co120  1  0.54681576  0.82064090  0.70197734  1
  Co  Co121  1  0.14545711  0.50089717  0.04591358  1
  Co  Co122  1  0.71265291  0.80633297  0.25142275  1
  Co  Co123  1  0.19695556  0.01494738  0.14739483  1
  Co  Co124  1  0.85286587  0.20399938  0.86372211  1
  Co  Co125  1  0.62895901  -0.11227339  0.38239934  1
  Co  Co126  1  0.11985156  0.43000573  0.40426684  1
  Co  Co127  1  0.11983027  0.89014880  0.22800916  1
  Co  Co128  1  0.77856795  0.20043650  0.72108290  1
  Co  Co129  1  0.54765666  0.76866697  0.28053161  1
  Co  Co130  1  0.09841299  -0.03292198  0.56527774  1
  Co  Co131  1  0.65447634  0.46550217  -0.03178601  1
  Co  Co132  1  0.25267261  0.61950956  0.66268796  1
  Co  Co133  1  0.64793379  0.42878172  0.25330955  1
  Co  Co134  1  0.61347473  -0.13938204  -0.00361028  1
  Co  Co135  1  0.18779994  0.32349952  0.60186083  1
  Co  Co136  1  0.02466157  0.48996238  0.14684780  1
  Co  Co137  1  0.14864480  0.74868518  0.13354227  1
  Co  Co138  1  0.30526390  0.57391770  0.79999161  1
  Co  Co139  1  0.44505384  0.95912351  -0.07296387  1
  Co  Co140  1  0.74304059  0.77223635  -0.02733380  1
  Co  Co141  1  0.24482800  0.82259527  -0.02245032  1
  Co  Co142  1  0.20349841  0.05266275  -0.02286794  1
  Co  Co143  1  0.70044679  0.36436017  0.40702367  1
  Co  Co144  1  0.42003194  0.12863973  0.73105014  1
  Co  Co145  1  0.23510816  0.21648535  -0.02887092  1
  Co  Co146  1  0.38114384  0.59787563  0.56986397  1
  Co  Co147  1  0.26156253  0.15895523  0.80361582  1
  Co  Co148  1  0.75296279  0.89951221  0.86384550  1
  Co  Co149  1  0.07157240  0.35110872  0.07550607  1
  Co  Co150  1  0.38737747  0.40180613  0.38871085  1
  Co  Co151  1  0.26159588  0.18529094  0.53014834  1
  Co  Co152  1  -0.05830674  0.94043376  0.42686107  1
  Co  Co153  1  0.85901408  0.72886232  0.55851196  1
  Co  Co154  1  0.37131974  0.26842631  0.19716407  1
  Co  Co155  1  0.52943349  0.01115875  0.40067301  1
  Co  Co156  1  0.77881292  0.50096362  0.36057496  1
  Co  Co157  1  0.57677604  0.06384168  0.57538015  1
  Co  Co158  1  0.06304312  0.06021424  0.43234932  1
  Co  Co159  1  0.15264510  0.02654486  0.80348293  1
  Co  Co160  1  0.14925775  0.73753447  0.69664975  1
  Co  Co161  1  0.17151006  0.43014471  0.19779181  1
  Ni  Ni162  1  0.81860351  0.44791191  -0.00028416  1
  Ni  Ni163  1  -0.01163565  0.03519942  0.28464275  1
  Ni  Ni164  1  0.87703133  0.58192378  0.09229544  1
  Ni  Ni165  1  0.35945297  -0.05892812  0.55240177  1
  Ni  Ni166  1  0.67408782  0.19117291  0.85970628  1
  Ni  Ni167  1  0.74118725  0.65411299  0.31488105  1
  Ni  Ni168  1  0.77510990  0.48812103  0.83698788  1
  Ni  Ni169  1  0.05933762  0.46591127  0.55967735  1
  Ni  Ni170  1  0.25483217  0.52978217  0.37944189  1
  Ni  Ni171  1  0.44947999  0.35719905  0.73447071  1
  Ni  Ni172  1  0.49058588  0.50345872  0.01516439  1
  Ni  Ni173  1  0.62087039  0.56624574  0.08881711  1
  Ni  Ni174  1  -0.00341976  0.42765394  0.82965032  1
  Ni  Ni175  1  0.26340534  0.85713138  0.44660472  1
  Ni  Ni176  1  0.72107955  0.85903154  0.52623952  1
  Ni  Ni177  1  0.55075526  0.08765880  0.90309299  1
  Ni  Ni178  1  0.31327470  0.52170752  0.10417623  1
  Ni  Ni179  1  0.39886397  0.83535434  0.79674808  1
  Ni  Ni180  1  0.06482215  0.81162950  0.80752443  1
  Ni  Ni181  1  0.18041776  0.30056841  0.77777672  1
  Ni  Ni182  1  0.00679413  0.26413940  0.81153068  1
  Ni  Ni183  1  0.86504442  -0.04048837  0.73942297  1
  Ni  Ni184  1  0.79976033  0.22067191  0.02257061  1
  Ni  Ni185  1  -0.03094187  0.23340654  0.11869517  1
  Ni  Ni186  1  0.45097086  0.51516012  0.69786237  1
  Ni  Ni187  1  0.46486288  0.71347777  0.48135847  1
  Ni  Ni188  1  0.67526082  0.48619438  0.52133170  1
  Ni  Ni189  1  0.49378109  0.48506169  0.27146707  1
  Ni  Ni190  1  0.79290648  0.78818090  0.39553140  1
  Ni  Ni191  1  0.69677965  0.15753729  0.14309794  1
  Ni  Ni192  1  0.59210114  0.62382399  0.74745249  1
  Ni  Ni193  1  0.82585914  0.65116592  0.79447101  1
  Ni  Ni194  1  0.78995537  0.13512180  0.29594778  1
  Ni  Ni195  1  0.82399749  0.24851875  0.18350735  1
  Ni  Ni196  1  0.48866707  -0.08138926  0.09099635  1
  Ni  Ni197  1  0.53100336  0.35474061  0.94859097  1
  Ni  Ni198  1  0.57076691  0.41851440  0.62940591  1
  Ni  Ni199  1  0.46416761  0.08179942  0.05035007  1
  Ni  Ni200  1  0.81404506  0.79781124  0.70303191  1
  Ni  Ni201  1  -0.03421791  0.65831623  -0.11066729  1
  Ni  Ni202  1  0.34681441  0.61731567  0.25502216  1
  Ni  Ni203  1  0.79493985  0.01268570  0.48736922  1
  Ni  Ni204  1  0.40251713  0.64157180  -0.07420637  1
  Ni  Ni205  1  0.90501244  0.51599949  0.72842130  1
  Ni  Ni206  1  0.37331455  0.01780591  0.39286356  1
  Ni  Ni207  1  0.11845511  0.58424805  0.90548710  1
  Ni  Ni208  1  0.26471351  0.84721906  0.14602979  1
  Ni  Ni209  1  -0.05481265  0.04541389  0.58527917  1
  Ni  Ni210  1  0.41014865  0.26553698  0.48441039  1
  Ni  Ni211  1  0.08022038  0.53672208  0.29259716  1
  Ni  Ni212  1  -0.00056718  0.81618639  0.12243243  1
  Ni  Ni213  1  0.15616434  0.19602407  0.40075929  1
  Ni  Ni214  1  0.53101967  0.75679398  0.85440045  1
