# generated using pymatgen
data_Ti108Co54Ni53
_symmetry_space_group_name_H-M   'P 1'
_cell_length_a   14.64121074
_cell_length_b   14.68626528
_cell_length_c   14.61865789
_cell_angle_alpha   89.84715771
_cell_angle_beta   89.90732951
_cell_angle_gamma   89.80782328
_symmetry_Int_Tables_number   1
_chemical_formula_structural   Ti108Co54Ni53
_chemical_formula_sum   'Ti108 Co54 Ni53'
_cell_volume   3143.33966877
_cell_formula_units_Z   1
loop_
 _symmetry_equiv_pos_site_id
 _symmetry_equiv_pos_as_xyz
  1  'x, y, z'
loop_
 _atom_site_type_symbol
 _atom_site_label
 _atom_site_symmetry_multiplicity
 _atom_site_fract_x
 _atom_site_fract_y
 _atom_site_fract_z
 _atom_site_occupancy
  Ti  Ti0  1  0.06066437  0.06582554  0.17700915  1
  Ti  Ti1  1  0.12463654  0.00049254  0.60507406  1
  Ti  Ti2  1  0.10037503  0.13288579  0.95741681  1
  Ti  Ti3  1  0.11913019  0.47753469  0.14739536  1
  Ti  Ti4  1  0.12095696  0.49204807  0.59747412  1
  Ti  Ti5  1  0.18475188  0.43394385  0.95987900  1
  Ti  Ti6  1  0.04228266  0.76687315  0.28471216  1
  Ti  Ti7  1  0.15965886  0.77704571  0.58872663  1
  Ti  Ti8  1  0.05685950  0.75845957  0.88964277  1
  Ti  Ti9  1  0.41130860  0.03713230  0.20324707  1
  Ti  Ti10  1  0.48465331  0.10886704  0.57938390  1
  Ti  Ti11  1  0.38161332  0.10799542  0.82983829  1
  Ti  Ti12  1  0.41448900  0.37734378  0.26274789  1
  Ti  Ti13  1  0.33668913  0.45673983  0.64355132  1
  Ti  Ti14  1  0.38049945  0.47543146  0.97019046  1
  Ti  Ti15  1  0.40246417  0.76031431  0.26807561  1
  Ti  Ti16  1  0.45381321  0.71613114  0.52809750  1
  Ti  Ti17  1  0.48263584  0.79751328  0.88024048  1
  Ti  Ti18  1  0.76950144  0.06662689  0.27242355  1
  Ti  Ti19  1  0.71593610  0.09505470  0.51574228  1
  Ti  Ti20  1  0.76810309  0.02079868  0.97589903  1
  Ti  Ti21  1  0.77694444  0.41877237  0.19631902  1
  Ti  Ti22  1  0.71174714  0.38045450  0.51900883  1
  Ti  Ti23  1  0.75721830  0.44080914  0.98413175  1
  Ti  Ti24  1  0.69839505  0.70204637  0.25036469  1
  Ti  Ti25  1  0.72865993  0.77485877  0.55357607  1
  Ti  Ti26  1  0.75981629  0.80536595  0.91286064  1
  Ti  Ti27  1  0.03437824  0.28882300  0.09251841  1
  Ti  Ti28  1  0.08690377  0.21337982  0.34667887  1
  Ti  Ti29  1  0.07474971  0.22044788  0.75519425  1
  Ti  Ti30  1  0.05423347  0.59446723  -0.00831621  1
  Ti  Ti31  1  0.05555044  0.51211894  0.40501618  1
  Ti  Ti32  1  0.06403753  0.58410412  0.77649581  1
  Ti  Ti33  1  0.12206555  0.84537075  0.09618040  1
  Ti  Ti34  1  0.08475055  0.91777280  0.43325495  1
  Ti  Ti35  1  0.10897978  0.87191836  0.74254955  1
  Ti  Ti36  1  0.47473625  0.24239798  0.10284501  1
  Ti  Ti37  1  0.42992012  0.22964461  0.43705263  1
  Ti  Ti38  1  0.39136811  0.28600035  0.75350699  1
  Ti  Ti39  1  0.41600122  0.59954154  0.10610171  1
  Ti  Ti40  1  0.38355548  0.50363543  0.42041531  1
  Ti  Ti41  1  0.38877190  0.62476446  0.78991206  1
  Ti  Ti42  1  0.34712118  0.89648591  0.00099779  1
  Ti  Ti43  1  0.44778045  0.93821751  0.39100335  1
  Ti  Ti44  1  0.47100851  0.97333879  0.73486398  1
  Ti  Ti45  1  0.70989272  0.22619919  0.09211860  1
  Ti  Ti46  1  0.71263707  0.22302002  0.36766579  1
  Ti  Ti47  1  0.64066917  0.27921219  0.78991113  1
  Ti  Ti48  1  0.69713669  0.56969206  0.10722540  1
  Ti  Ti49  1  0.80618770  0.62064046  0.46629657  1
  Ti  Ti50  1  0.72383093  0.54155399  0.76461660  1
  Ti  Ti51  1  0.78284427  0.86400273  0.14355729  1
  Ti  Ti52  1  0.73609122  0.85817965  0.34078248  1
  Ti  Ti53  1  0.78824452  0.94904346  0.66730064  1
  Ti  Ti54  1  0.23625192  0.02692195  0.10038040  1
  Ti  Ti55  1  0.23888353  0.08689888  0.45358436  1
  Ti  Ti56  1  0.25007802  0.01449236  0.74519766  1
  Ti  Ti57  1  0.27584314  0.33967919  0.11198561  1
  Ti  Ti58  1  0.20705844  0.42122834  0.31947623  1
  Ti  Ti59  1  0.17545341  0.41398903  0.76958616  1
  Ti  Ti60  1  0.27659090  0.73065119  0.07671736  1
  Ti  Ti61  1  0.21083913  0.75635761  0.39824473  1
  Ti  Ti62  1  0.30021513  0.80501930  0.81115386  1
  Ti  Ti63  1  0.56655820  0.07290314  0.05212455  1
  Ti  Ti64  1  0.55296092  0.10780137  0.37058330  1
  Ti  Ti65  1  0.64033183  0.04714868  0.83010976  1
  Ti  Ti66  1  0.57849965  0.36090505  -0.01815018  1
  Ti  Ti67  1  0.54654834  0.38655074  0.41730694  1
  Ti  Ti68  1  0.53692305  0.47335827  0.71140830  1
  Ti  Ti69  1  0.57970279  0.69744283  0.02362155  1
  Ti  Ti70  1  0.57949001  0.82509588  0.45004136  1
  Ti  Ti71  1  0.58880185  0.69115232  0.71499093  1
  Ti  Ti72  1  0.91355036  0.14403930  0.06939660  1
  Ti  Ti73  1  0.93882914  0.05287354  0.52292186  1
  Ti  Ti74  1  0.93815216  0.07566014  0.86362883  1
  Ti  Ti75  1  0.91945439  0.48052562  0.08583694  1
  Ti  Ti76  1  0.86731183  0.46475979  0.37896403  1
  Ti  Ti77  1  0.92470058  0.43580496  0.69195346  1
  Ti  Ti78  1  0.94436617  0.72430718  0.09174559  1
  Ti  Ti79  1  0.88494680  0.80785005  0.43404309  1
  Ti  Ti80  1  0.90499754  0.80786215  0.77031436  1
  Ti  Ti81  1  0.27606820  0.22167476  0.28102595  1
  Ti  Ti82  1  0.21844239  0.27512022  0.52370100  1
  Ti  Ti83  1  0.28363900  0.20505185  0.98180823  1
  Ti  Ti84  1  0.24715364  0.62356818  0.24218891  1
  Ti  Ti85  1  0.27566395  0.61594887  0.54385427  1
  Ti  Ti86  1  0.22937056  0.61157176  0.89272733  1
  Ti  Ti87  1  0.26323443  0.93220888  0.31546336  1
  Ti  Ti88  1  0.34044948  0.87406593  0.61178350  1
  Ti  Ti89  1  0.15242393  0.93664234  0.91753356  1
  Ti  Ti90  1  0.59246602  0.30204232  0.24869477  1
  Ti  Ti91  1  0.53223938  0.30709129  0.61416904  1
  Ti  Ti92  1  0.50864960  0.19899542  0.90892631  1
  Ti  Ti93  1  0.58070647  0.50994907  0.25863016  1
  Ti  Ti94  1  0.63152807  0.58504549  0.56082351  1
  Ti  Ti95  1  0.54395792  0.56376219  0.89216641  1
  Ti  Ti96  1  0.58900565  0.94686835  0.23085887  1
  Ti  Ti97  1  0.58482728  0.86815739  0.64077605  1
  Ti  Ti98  1  0.61814080  0.88947841  1.00744372  1
  Ti  Ti99  1  0.88064234  0.26943409  0.25979874  1
  Ti  Ti100  1  0.97792157  0.25996701  0.52069602  1
  Ti  Ti101  1  0.92389111  0.30978131  0.91311576  1
  Ti  Ti102  1  0.97405006  0.58210420  0.23959548  1
  Ti  Ti103  1  0.96469126  0.61197467  0.57717696  1
  Ti  Ti104  1  0.89714235  0.53319836  0.87517147  1
  Ti  Ti105  1  0.92396142  0.95551313  0.30256222  1
  Ti  Ti106  1  0.97435300  0.87575247  0.59464994  1
  Ti  Ti107  1  0.91447687  0.89158018  0.98336960  1
  Co  Co108  1  -0.04995119  0.42911822  0.52339518  1
  Co  Co109  1  0.23667961  0.29490688  0.69171120  1
  Co  Co110  1  0.81379044  -0.04794162  0.83032562  1
  Co  Co111  1  0.59951137  0.22877947  0.48800952  1
  Co  Co112  1  0.35518584  0.81973042  0.44750717  1
  Co  Co113  1  0.42259824  0.56688143  0.27127386  1
  Co  Co114  1  0.74402141  0.73567365  0.05977505  1
  Co  Co115  1  0.70592056  0.92996545  0.52798014  1
  Co  Co116  1  0.67028272  0.69301942  0.40922603  1
  Co  Co117  1  0.21932470  0.17872991  0.81687801  1
  Co  Co118  1  0.63718755  0.71771449  0.85826701  1
  Co  Co119  1  0.20655776  0.78738886  0.23039043  1
  Co  Co120  1  0.88320579  0.74970250  0.60185255  1
  Co  Co121  1  0.82843556  -0.02241692  0.43500546  1
  Co  Co122  1  0.09877310  0.36902959  0.47559470  1
  Co  Co123  1  0.55227116  0.52590699  0.05317014  1
  Co  Co124  1  0.09679422  0.05844534  0.78146235  1
  Co  Co125  1  0.40441966  0.31738103  -0.02696998  1
  Co  Co126  1  -0.08843174  0.71938606  -0.06981667  1
  Co  Co127  1  0.55468418  -0.01491361  0.51483966  1
  Co  Co128  1  -0.04703459  0.64523443  0.38847225  1
  Co  Co129  1  0.44755627  0.77461803  0.08087497  1
  Co  Co130  1  0.23114315  0.56531017  0.71939281  1
  Co  Co131  1  0.02555871  0.72373142  0.69243657  1
  Co  Co132  1  0.63071089  0.39747520  0.12751701  1
  Co  Co133  1  0.20573401  0.07809148  0.26884908  1
  Co  Co134  1  0.66056377  0.16874377  0.94639970  1
  Co  Co135  1  0.25211815  0.05331135  -0.07639953  1
  Co  Co136  1  0.27824607  0.32302646  0.87029194  1
  Co  Co137  1  0.75536078  0.55237173  0.29370493  1
  Co  Co138  1  0.11229202  0.63811679  0.49854639  1
  Co  Co139  1  0.64932896  0.43048053  0.84904231  1
  Co  Co140  1  0.66252494  0.52162722  0.42017397  1
  Co  Co141  1  -0.03012462  0.41331730  0.22293814  1
  Co  Co142  1  0.45628172  0.40850169  0.11296518  1
  Co  Co143  1  0.48037088  -0.06711185  0.09035145  1
  Co  Co144  1  0.24143040  0.44663847  0.49614665  1
  Co  Co145  1  0.55648733  0.79747343  0.29981283  1
  Co  Co146  1  0.70210031  0.59052663  -0.06911963  1
  Co  Co147  1  -0.00517171  0.92893737  0.84599360  1
  Co  Co148  1  0.20773129  0.77938010  -0.06064845  1
  Co  Co149  1  0.38429925  0.68129436  -0.05021811  1
  Co  Co150  1  0.39388246  0.35509313  0.54185055  1
  Co  Co151  1  0.33451085  0.16446830  0.14218429  1
  Co  Co152  1  0.35797631  0.66524770  0.39253894  1
  Co  Co153  1  0.02759627  0.41869194  -0.00728117  1
  Co  Co154  1  0.03372373  0.76762290  0.47069263  1
  Co  Co155  1  0.35594197  0.94349203  0.84917709  1
  Co  Co156  1  0.81380678  0.39708448  0.80776442  1
  Co  Co157  1  0.45374202  0.78516155  0.70991882  1
  Co  Co158  1  0.73897286  0.30356286  -0.08219750  1
  Co  Co159  1  -0.06536823  0.12121057  0.24970676  1
  Co  Co160  1  0.61216523  0.80900004  0.14786054  1
  Co  Co161  1  0.23727174  -0.07754006  0.49249357  1
  Ni  Ni162  1  0.62927592  0.03373999  0.65577377  1
  Ni  Ni163  1  0.08844920  0.13321108  0.50382173  1
  Ni  Ni164  1  0.23596563  0.56628268  0.05765361  1
  Ni  Ni165  1  0.12205926  0.32150455  0.22516427  1
  Ni  Ni166  1  0.10604602  -0.07357250  0.25914323  1
  Ni  Ni167  1  0.37329012  0.08511024  0.35919130  1
  Ni  Ni168  1  0.60940057  0.13870541  0.21004873  1
  Ni  Ni169  1  0.06791552  0.34083813  0.63893765  1
  Ni  Ni170  1  0.05155356  0.05630276  0.35694970  1
  Ni  Ni171  1  0.45251189  0.19722595  0.26325280  1
  Ni  Ni172  1  0.19416488  0.14553991  0.64156522  1
  Ni  Ni173  1  0.70569537  0.02310836  0.12815241  1
  Ni  Ni174  1  0.17455004  0.71295330  0.76028592  1
  Ni  Ni175  1  0.53981204  0.66424436  0.19678939  1
  Ni  Ni176  1  -0.02749649  0.87971071  0.15759954  1
  Ni  Ni177  1  0.80455131  0.67334406  0.81631703  1
  Ni  Ni178  1  0.10714875  0.66212240  0.14389145  1
  Ni  Ni179  1  0.50352465  -0.02138776  0.91363521  1
  Ni  Ni180  1  0.10957209  0.29124257  0.90785409  1
  Ni  Ni181  1  0.33132090  0.87990012  0.16759962  1
  Ni  Ni182  1  0.87362344  0.00580435  0.13833962  1
  Ni  Ni183  1  -0.04461712  0.00559248  0.70143261  1
  Ni  Ni184  1  0.69099600  0.39921887  0.68239856  1
  Ni  Ni185  1  0.48590756  0.38821636  0.84242307  1
  Ni  Ni186  1  0.83479879  0.63224789  0.17410432  1
  Ni  Ni187  1  0.33423058  0.46779320  0.81288114  1
  Ni  Ni188  1  0.35332711  0.20779641  0.61260881  1
  Ni  Ni189  1  0.32178462  0.03992209  0.59175305  1
  Ni  Ni190  1  0.87219001  0.13800974  0.39595907  1
  Ni  Ni191  1  0.03029839  -0.00445289  0.02689595  1
  Ni  Ni192  1  0.66306514  -0.00596574  0.38669790  1
  Ni  Ni193  1  0.30935985  0.48170567  0.17946885  1
  Ni  Ni194  1  0.50280122  0.48377285  0.54385834  1
  Ni  Ni195  1  0.76827976  0.64850254  0.65019176  1
  Ni  Ni196  1  0.61465204  0.88350695  0.81424204  1
  Ni  Ni197  1  0.02316449  0.42041433  0.83106131  1
  Ni  Ni198  1  0.32017301  0.33989913  0.39938617  1
  Ni  Ni199  1  0.31392255  0.71259419  0.66498660  1
  Ni  Ni200  1  0.44898372  0.60466293  0.64204730  1
  Ni  Ni201  1  0.17170095  0.18952660  0.13240479  1
  Ni  Ni202  1  0.73453381  0.79830294  0.72957786  1
  Ni  Ni203  1  0.52204450  0.61964980  0.39866848  1
  Ni  Ni204  1  -0.01129791  0.34713734  0.36734103  1
  Ni  Ni205  1  0.85575485  0.31013045  0.07169495  1
  Ni  Ni206  1  0.87426085  0.77406463  0.26142745  1
  Ni  Ni207  1  0.39710224  0.07034565  0.01167264  1
  Ni  Ni208  1  0.71499908  0.38800751  0.34464508  1
  Ni  Ni209  1  0.84116911  0.30428255  0.43520725  1
  Ni  Ni210  1  0.82229331  0.17336137  -0.06260238  1
  Ni  Ni211  1  0.21495288  0.57404636  0.39116653  1
  Ni  Ni212  1  0.53061285  0.15060542  0.73731633  1
  Ni  Ni213  1  0.80474061  0.49869711  0.59135289  1
  Ni  Ni214  1  0.84086991  0.60596374  0.01233401  1
