# generated using pymatgen
data_Ti108Co54Ni53
_symmetry_space_group_name_H-M   'P 1'
_cell_length_a   14.70789902
_cell_length_b   14.60482217
_cell_length_c   14.61789309
_cell_angle_alpha   90.03127841
_cell_angle_beta   89.80916649
_cell_angle_gamma   89.91697669
_symmetry_Int_Tables_number   1
_chemical_formula_structural   Ti108Co54Ni53
_chemical_formula_sum   'Ti108 Co54 Ni53'
_cell_volume   3139.99360402
_cell_formula_units_Z   1
loop_
 _symmetry_equiv_pos_site_id
 _symmetry_equiv_pos_as_xyz
  1  'x, y, z'
loop_
 _atom_site_type_symbol
 _atom_site_label
 _atom_site_symmetry_multiplicity
 _atom_site_fract_x
 _atom_site_fract_y
 _atom_site_fract_z
 _atom_site_occupancy
  Ti  Ti0  1  0.14143931  0.04182924  0.23948660  1
  Ti  Ti1  1  0.01086977  0.08912044  0.58955743  1
  Ti  Ti2  1  0.11912599  0.05139472  0.97363921  1
  Ti  Ti3  1  0.03836838  0.36542156  0.28904601  1
  Ti  Ti4  1  0.05884908  0.40910033  0.59117812  1
  Ti  Ti5  1  0.08620821  0.35738168  0.97417758  1
  Ti  Ti6  1  0.12313144  0.75881061  0.19979157  1
  Ti  Ti7  1  0.07710645  0.78168423  0.53236447  1
  Ti  Ti8  1  0.16629709  0.79344644  0.84499115  1
  Ti  Ti9  1  0.47380755  0.10578152  0.21478564  1
  Ti  Ti10  1  0.46840670  0.16026996  0.58761178  1
  Ti  Ti11  1  0.41925597  0.09514633  0.97913321  1
  Ti  Ti12  1  0.45021924  0.42894219  0.19701647  1
  Ti  Ti13  1  0.40617316  0.35339171  0.52927976  1
  Ti  Ti14  1  0.36577806  0.44604630  0.96061801  1
  Ti  Ti15  1  0.40683473  0.74937512  0.20845667  1
  Ti  Ti16  1  0.32822856  0.81810449  0.61950434  1
  Ti  Ti17  1  0.37951593  0.75808571  0.80609614  1
  Ti  Ti18  1  0.78324098  0.04635449  0.26409327  1
  Ti  Ti19  1  0.69026533  0.09196693  0.58016125  1
  Ti  Ti20  1  0.80473345  0.12149955  0.90087859  1
  Ti  Ti21  1  0.81466302  0.37276937  0.23662958  1
  Ti  Ti22  1  0.74247880  0.45566621  0.54745352  1
  Ti  Ti23  1  0.77454555  0.42487358  1.01770976  1
  Ti  Ti24  1  0.65931924  0.74476756  0.25551687  1
  Ti  Ti25  1  0.70275578  0.78328420  0.55832566  1
  Ti  Ti26  1  0.78483265  0.72184180  0.97846572  1
  Ti  Ti27  1  -0.00323257  0.19115293  0.02468339  1
  Ti  Ti28  1  0.05408648  0.24479239  0.46579608  1
  Ti  Ti29  1  0.11490461  0.31452036  0.75155089  1
  Ti  Ti30  1  0.05288273  0.56396885  0.02605943  1
  Ti  Ti31  1  0.09868247  0.62102501  0.38087703  1
  Ti  Ti32  1  0.03720013  0.57358263  0.70890531  1
  Ti  Ti33  1  0.04364181  0.90137708  0.08567922  1
  Ti  Ti34  1  0.09355383  0.89423574  0.36793378  1
  Ti  Ti35  1  0.10817404  0.94481244  0.71132419  1
  Ti  Ti36  1  0.39083541  0.25317286  0.09980948  1
  Ti  Ti37  1  0.40009148  0.20501433  0.38311077  1
  Ti  Ti38  1  0.43987925  0.19702333  0.78884896  1
  Ti  Ti39  1  0.34687965  0.58126260  0.10347243  1
  Ti  Ti40  1  0.42938687  0.56054423  0.46827419  1
  Ti  Ti41  1  0.42114077  0.54919155  0.79166926  1
  Ti  Ti42  1  0.39573242  0.93858424  0.12306045  1
  Ti  Ti43  1  0.40902347  0.88563523  0.45728609  1
  Ti  Ti44  1  0.38485256  0.98985469  0.78536847  1
  Ti  Ti45  1  0.74218493  0.25336373  0.10013858  1
  Ti  Ti46  1  0.75328676  0.28842488  0.41367500  1
  Ti  Ti47  1  0.78157048  0.23872554  0.73293390  1
  Ti  Ti48  1  0.75356089  0.59095468  0.14013663  1
  Ti  Ti49  1  0.77022434  0.61089124  0.42368271  1
  Ti  Ti50  1  0.80764785  0.60984813  0.70606256  1
  Ti  Ti51  1  0.71631129  0.94504892  0.07712143  1
  Ti  Ti52  1  0.74666744  0.94778068  0.43337668  1
  Ti  Ti53  1  0.81002136  0.91966346  0.78498237  1
  Ti  Ti54  1  0.19314670  0.18286691  0.09828689  1
  Ti  Ti55  1  0.22805782  0.05760133  0.41049260  1
  Ti  Ti56  1  0.23565759  0.15862389  0.76359302  1
  Ti  Ti57  1  0.17354920  0.46361954  0.15023439  1
  Ti  Ti58  1  0.20785422  0.36786085  0.42633022  1
  Ti  Ti59  1  0.32958032  0.38692337  0.75464445  1
  Ti  Ti60  1  0.35504662  0.78136807  0.01767646  1
  Ti  Ti61  1  0.26136292  0.69207755  0.49667001  1
  Ti  Ti62  1  0.22909341  0.64878380  0.71741277  1
  Ti  Ti63  1  0.60976212  0.12547880  0.02845082  1
  Ti  Ti64  1  0.53504537  0.04795736  0.44533989  1
  Ti  Ti65  1  0.55816282  0.02164337  0.71100392  1
  Ti  Ti66  1  0.56137354  0.36824468  0.05135088  1
  Ti  Ti67  1  0.54288516  0.37957001  0.38815131  1
  Ti  Ti68  1  0.52881712  0.34284312  0.69209411  1
  Ti  Ti69  1  0.56131686  0.82678518  0.10531279  1
  Ti  Ti70  1  0.58230382  0.70631077  0.44843350  1
  Ti  Ti71  1  0.63396138  0.82821000  0.77132709  1
  Ti  Ti72  1  0.84136121  0.10160454  0.08444280  1
  Ti  Ti73  1  0.88810560  0.10662796  0.40970295  1
  Ti  Ti74  1  0.97282094  0.02227169  0.84333325  1
  Ti  Ti75  1  0.95130776  0.40193624  0.09561647  1
  Ti  Ti76  1  0.89113985  0.44710685  0.40870509  1
  Ti  Ti77  1  0.92777510  0.40654461  0.75836309  1
  Ti  Ti78  1  0.94179548  0.70764815  0.11658256  1
  Ti  Ti79  1  0.91620076  0.78115231  0.40651027  1
  Ti  Ti80  1  0.99235991  0.80289576  0.75562415  1
  Ti  Ti81  1  0.26402128  0.31005366  0.24468056  1
  Ti  Ti82  1  0.26678118  0.19866000  0.53634374  1
  Ti  Ti83  1  0.31404169  0.26621312  0.92230590  1
  Ti  Ti84  1  0.25545183  0.63788383  0.27338378  1
  Ti  Ti85  1  0.27533576  0.50458823  0.58759125  1
  Ti  Ti86  1  0.24378266  0.64895632  0.93784802  1
  Ti  Ti87  1  0.28817640  0.90703235  0.29170322  1
  Ti  Ti88  1  0.25048708  0.99453847  0.60402351  1
  Ti  Ti89  1  0.28019206  0.93852866  0.94558293  1
  Ti  Ti90  1  0.62225218  0.29702755  0.23211069  1
  Ti  Ti91  1  0.59598124  0.24666485  0.50264822  1
  Ti  Ti92  1  0.62606782  0.19177179  0.84095385  1
  Ti  Ti93  1  0.55402653  0.59149558  0.17256262  1
  Ti  Ti94  1  0.54411009  0.60809825  0.63024740  1
  Ti  Ti95  1  0.58796115  0.63868269  0.93362663  1
  Ti  Ti96  1  0.50543962  0.90341196  0.28623169  1
  Ti  Ti97  1  0.57150508  0.90192927  0.55985471  1
  Ti  Ti98  1  0.52532969  0.93705165  0.95943445  1
  Ti  Ti99  1  0.98880343  0.17236743  0.24856681  1
  Ti  Ti100  1  0.84739126  0.20562382  0.56187314  1
  Ti  Ti101  1  0.95478097  0.23613843  0.83984368  1
  Ti  Ti102  1  0.94383142  0.54029229  0.22574626  1
  Ti  Ti103  1  0.96945494  0.59158310  0.51349871  1
  Ti  Ti104  1  0.93173002  0.59838622  0.87757758  1
  Ti  Ti105  1  0.83067790  0.84906077  0.23994228  1
  Ti  Ti106  1  0.89013054  0.86200909  0.58179553  1
  Ti  Ti107  1  0.94237645  0.82194827  0.93163087  1
  Co  Co108  1  0.36575640  0.06190676  0.49610605  1
  Co  Co109  1  0.56087022  -0.00537080  0.13496398  1
  Co  Co110  1  0.71787043  0.12552425  0.42493209  1
  Co  Co111  1  -0.03030256  0.25261389  0.66910740  1
  Co  Co112  1  0.21065606  0.37379845  0.86967320  1
  Co  Co113  1  0.65319378  0.59363666  0.31031751  1
  Co  Co114  1  -0.05205512  0.00579326  -0.00104557  1
  Co  Co115  1  0.61805181  0.03215390  0.31680452  1
  Co  Co116  1  0.79441846  0.20675680  0.27151100  1
  Co  Co117  1  0.60636026  0.19149059  0.68156626  1
  Co  Co118  1  0.69889326  0.62203156  0.58813605  1
  Co  Co119  1  0.84946932  0.73050786  0.82530864  1
  Co  Co120  1  0.65235244  0.70187733  0.07049127  1
  Co  Co121  1  0.44797003  0.72879106  0.53183966  1
  Co  Co122  1  0.46108548  0.36690651  0.85336182  1
  Co  Co123  1  -0.07006272  0.42455781  -0.06897742  1
  Co  Co124  1  0.19183168  0.01500384  0.82764648  1
  Co  Co125  1  0.39460614  0.02647080  0.33550198  1
  Co  Co126  1  0.16667209  0.79092005  0.65812662  1
  Co  Co127  1  0.88671306  0.11681286  0.72258502  1
  Co  Co128  1  0.43140484  -0.03165893  0.61360912  1
  Co  Co129  1  0.90388923  0.26193523  0.15193105  1
  Co  Co130  1  0.08040391  0.90489601  0.90825935  1
  Co  Co131  1  0.56847228  0.41940273  0.55415704  1
  Co  Co132  1  0.75216284  0.78193735  0.39145630  1
  Co  Co133  1  0.06276072  0.12798974  0.75901879  1
  Co  Co134  1  0.14858992  0.48450102  0.30938580  1
  Co  Co135  1  0.27068522  0.80217742  0.16446618  1
  Co  Co136  1  0.26684283  0.11337156  0.93899207  1
  Co  Co137  1  0.08839548  0.59757039  0.19723804  1
  Co  Co138  1  0.35381623  0.10050699  0.66899125  1
  Co  Co139  1  0.79139311  0.77983005  0.69025162  1
  Co  Co140  1  0.25433714  0.52786968  0.83205745  1
  Co  Co141  1  0.60901664  0.86907202  0.40239008  1
  Co  Co142  1  0.61352219  0.54640092  0.46700229  1
  Co  Co143  1  0.24946419  0.34395370  0.06054712  1
  Co  Co144  1  0.20533171  0.76916629  0.35819832  1
  Co  Co145  1  0.20428550  0.65252657  0.09491453  1
  Co  Co146  1  0.24350023  0.88256701  0.46832275  1
  Co  Co147  1  0.52691415  0.06545174  0.86348592  1
  Co  Co148  1  0.67674649  0.01771852  -0.08416519  1
  Co  Co149  1  0.89996861  -0.02590144  0.15411856  1
  Co  Co150  1  0.05213702  0.45038913  0.43548180  1
  Co  Co151  1  0.03491107  0.06878593  0.12490406  1
  Co  Co152  1  0.45639601  0.27623792  0.24867838  1
  Co  Co153  1  0.43283266  0.48078349  0.63138998  1
  Co  Co154  1  0.35634633  0.26590491  0.65906497  1
  Co  Co155  1  0.79441280  0.52301610  0.28185417  1
  Co  Co156  1  0.86372521  0.84409676  0.07595811  1
  Co  Co157  1  0.40581226  0.63266100  -0.07208070  1
  Co  Co158  1  0.86094140  0.27042255  -0.01096142  1
  Co  Co159  1  0.51123260  0.52125495  0.32967378  1
  Co  Co160  1  0.16573733  0.47192330  0.70650240  1
  Co  Co161  1  0.37687257  0.64301552  0.64691593  1
  Ni  Ni162  1  0.82190050  0.68092728  0.27072634  1
  Ni  Ni163  1  0.21543736  0.34449639  0.60124602  1
  Ni  Ni164  1  0.89528101  0.49297905  0.61964453  1
  Ni  Ni165  1  0.13201840  0.60408584  0.56696033  1
  Ni  Ni166  1  0.49542060  0.52235496  0.02787112  1
  Ni  Ni167  1  0.12635890  0.20294808  0.62277601  1
  Ni  Ni168  1  0.48695012  0.81860900  0.67762287  1
  Ni  Ni169  1  -0.03084837  0.00899044  0.29179096  1
  Ni  Ni170  1  0.37067512  0.74455970  0.37933312  1
  Ni  Ni171  1  0.81370768  -0.06386348  0.94722556  1
  Ni  Ni172  1  -0.05291520  -0.03238666  0.68733868  1
  Ni  Ni173  1  0.84772823  0.03072452  0.56294553  1
  Ni  Ni174  1  0.07044465  0.47328308  0.84988112  1
  Ni  Ni175  1  0.50787527  0.68366236  0.31316331  1
  Ni  Ni176  1  0.84038980  0.70047645  0.53923273  1
  Ni  Ni177  1  0.67340301  0.29428344  -0.04505985  1
  Ni  Ni178  1  0.32057769  0.08290137  0.10884446  1
  Ni  Ni179  1  0.69666625  0.43648793  0.37110623  1
  Ni  Ni180  1  0.91113736  0.34802879  0.53622261  1
  Ni  Ni181  1  -0.05429898  0.69716271  0.65263359  1
  Ni  Ni182  1  0.14827319  0.21150155  0.32321976  1
  Ni  Ni183  1  0.30772319  0.48362630  0.25524167  1
  Ni  Ni184  1  0.50128992  0.77922918  -0.08148572  1
  Ni  Ni185  1  0.06469958  0.72589404  -0.00876402  1
  Ni  Ni186  1  0.70499386  0.30769266  0.60286388  1
  Ni  Ni187  1  0.20051354  0.49265943  -0.01181923  1
  Ni  Ni188  1  0.66227138  0.83252196  0.94198592  1
  Ni  Ni189  1  0.09616487  0.63668637  0.85220341  1
  Ni  Ni190  1  0.67277797  0.90912146  0.23784456  1
  Ni  Ni191  1  0.37556364  0.38543898  0.36408210  1
  Ni  Ni192  1  0.13112056  0.21285861  -0.10085725  1
  Ni  Ni193  1  0.53175886  0.69096279  0.77589800  1
  Ni  Ni194  1  0.48222791  0.68638058  0.06115823  1
  Ni  Ni195  1  0.72556855  -0.06574191  0.63755860  1
  Ni  Ni196  1  0.71941177  0.06690297  0.75525873  1
  Ni  Ni197  1  0.06224040  0.07956467  0.40939742  1
  Ni  Ni198  1  0.88191980  0.55799469  0.03661206  1
  Ni  Ni199  1  -0.00767828  0.85631845  0.23807294  1
  Ni  Ni200  1  0.26609215  0.88458165  0.75859746  1
  Ni  Ni201  1  -0.08462429  0.27874999  0.37538837  1
  Ni  Ni202  1  0.80060097  0.34392685  0.86067674  1
  Ni  Ni203  1  -0.05066116  0.95007007  0.44886411  1
  Ni  Ni204  1  0.09425087  0.30330288  0.14640527  1
  Ni  Ni205  1  0.49670430  0.24337581  -0.04509313  1
  Ni  Ni206  1  0.18843496  0.81864099  0.02320282  1
  Ni  Ni207  1  0.21372188  -0.04527619  0.11717030  1
  Ni  Ni208  1  0.65094039  0.45756653  0.20165560  1
  Ni  Ni209  1  0.57574000  0.18974489  0.34296478  1
  Ni  Ni210  1  0.28764703  0.13934477  0.25993399  1
  Ni  Ni211  1  -0.01533160  0.69751299  0.28490813  1
  Ni  Ni212  1  0.26822049  0.52754590  0.41642938  1
  Ni  Ni213  1  0.65800943  0.12836269  0.18830724  1
  Ni  Ni214  1  0.10162144  -0.04509575  0.52823145  1
