# generated using pymatgen
data_Ti108Co54Ni53
_symmetry_space_group_name_H-M   'P 1'
_cell_length_a   14.61784557
_cell_length_b   14.60808089
_cell_length_c   14.60553025
_cell_angle_alpha   89.83752616
_cell_angle_beta   89.87904779
_cell_angle_gamma   90.34943763
_symmetry_Int_Tables_number   1
_chemical_formula_structural   Ti108Co54Ni53
_chemical_formula_sum   'Ti108 Co54 Ni53'
_cell_volume   3118.76790557
_cell_formula_units_Z   1
loop_
 _symmetry_equiv_pos_site_id
 _symmetry_equiv_pos_as_xyz
  1  'x, y, z'
loop_
 _atom_site_type_symbol
 _atom_site_label
 _atom_site_symmetry_multiplicity
 _atom_site_fract_x
 _atom_site_fract_y
 _atom_site_fract_z
 _atom_site_occupancy
  Ti  Ti0  1  0.05650906  0.05369812  0.28129548  1
  Ti  Ti1  1  0.08090560  -0.00318937  0.51590867  1
  Ti  Ti2  1  -0.00435278  0.07777500  0.89617857  1
  Ti  Ti3  1  0.12903838  0.50188387  0.20283583  1
  Ti  Ti4  1  0.07208771  0.43813335  0.58295977  1
  Ti  Ti5  1  0.08701767  0.50448929  1.01273677  1
  Ti  Ti6  1  0.10892003  0.75345793  0.22111023  1
  Ti  Ti7  1  0.09817979  0.81936739  0.57621331  1
  Ti  Ti8  1  0.05635152  0.71666759  0.95321337  1
  Ti  Ti9  1  0.45223015  0.17352110  0.14220736  1
  Ti  Ti10  1  0.45951452  0.12591251  0.61502837  1
  Ti  Ti11  1  0.46662578  0.08750220  0.96332720  1
  Ti  Ti12  1  0.42345719  0.38473139  0.30336508  1
  Ti  Ti13  1  0.42967675  0.42833749  0.60438746  1
  Ti  Ti14  1  0.44805849  0.43291136  0.99554864  1
  Ti  Ti15  1  0.42370266  0.73700001  0.33944176  1
  Ti  Ti16  1  0.38608717  0.65857091  0.58974224  1
  Ti  Ti17  1  0.46150119  0.73544321  0.91867097  1
  Ti  Ti18  1  0.72976762  0.00112648  0.24692182  1
  Ti  Ti19  1  0.73989872  0.05706810  0.53250396  1
  Ti  Ti20  1  0.79199809  0.10753272  0.97371642  1
  Ti  Ti21  1  0.78115617  0.33136417  0.30368789  1
  Ti  Ti22  1  0.78128030  0.39975312  0.57461963  1
  Ti  Ti23  1  0.77151863  0.47902502  0.96579196  1
  Ti  Ti24  1  0.71944556  0.79290974  0.22811654  1
  Ti  Ti25  1  0.67869379  0.74245781  0.58264891  1
  Ti  Ti26  1  0.77351032  0.69719101  0.87332867  1
  Ti  Ti27  1  0.10535193  0.30757472  0.08308293  1
  Ti  Ti28  1  0.04207120  0.27475739  0.36107069  1
  Ti  Ti29  1  0.01846112  0.29847752  0.76067314  1
  Ti  Ti30  1  -0.01163613  0.63747232  0.12406087  1
  Ti  Ti31  1  0.07096294  0.54397683  0.42518594  1
  Ti  Ti32  1  0.06617565  0.56493787  0.75828492  1
  Ti  Ti33  1  0.14555932  0.98151961  0.03406768  1
  Ti  Ti34  1  0.10284094  0.87864824  0.36235214  1
  Ti  Ti35  1  0.05761924  0.89084301  0.79492694  1
  Ti  Ti36  1  0.33560865  0.26859340  -0.02454196  1
  Ti  Ti37  1  0.42400011  0.19464010  0.32426562  1
  Ti  Ti38  1  0.45682269  0.22661848  0.81811292  1
  Ti  Ti39  1  0.42545724  0.60351578  0.06977720  1
  Ti  Ti40  1  0.45820838  0.54298628  0.43827957  1
  Ti  Ti41  1  0.36113691  0.53249625  0.74175578  1
  Ti  Ti42  1  0.38884903  0.90443631  0.03778704  1
  Ti  Ti43  1  0.42634825  0.90127080  0.48812756  1
  Ti  Ti44  1  0.42910996  0.83779045  0.72156382  1
  Ti  Ti45  1  0.78560941  0.28560197  0.11947158  1
  Ti  Ti46  1  0.74172850  0.24379373  0.45912417  1
  Ti  Ti47  1  0.80718781  0.29694360  0.73874735  1
  Ti  Ti48  1  0.71855982  0.62939263  0.07623555  1
  Ti  Ti49  1  0.72880847  0.60007632  0.46109201  1
  Ti  Ti50  1  0.76420772  0.51625050  0.77680790  1
  Ti  Ti51  1  0.73347876  0.93626584  0.06666543  1
  Ti  Ti52  1  0.80806290  0.87760168  0.41009911  1
  Ti  Ti53  1  0.76276836  0.88510886  0.77991389  1
  Ti  Ti54  1  0.29049328  0.10465653  0.05718966  1
  Ti  Ti55  1  0.25145140  0.06981773  0.40586834  1
  Ti  Ti56  1  0.27523705  -0.00194971  0.76457996  1
  Ti  Ti57  1  0.25723896  0.41043875  0.07298344  1
  Ti  Ti58  1  0.25462643  0.46669632  0.32957900  1
  Ti  Ti59  1  0.22042513  0.39851427  0.76138143  1
  Ti  Ti60  1  0.27867768  0.76241191  0.09679066  1
  Ti  Ti61  1  0.19214376  0.71743268  0.45142624  1
  Ti  Ti62  1  0.30952279  0.70902658  0.77693264  1
  Ti  Ti63  1  0.61550728  0.07724069  0.09862584  1
  Ti  Ti64  1  0.58003141  0.13898888  0.42387353  1
  Ti  Ti65  1  0.58711814  0.08091754  0.77730541  1
  Ti  Ti66  1  0.62983467  0.38340101  0.02542054  1
  Ti  Ti67  1  0.62005615  0.45847931  0.34292688  1
  Ti  Ti68  1  0.61490417  0.40481359  0.70132084  1
  Ti  Ti69  1  0.56723237  0.79343128  0.08730262  1
  Ti  Ti70  1  0.59410438  0.83613381  0.40277636  1
  Ti  Ti71  1  0.61474712  0.76151863  0.77368084  1
  Ti  Ti72  1  0.95669163  0.02691709  0.08323152  1
  Ti  Ti73  1  0.84299463  0.08508449  0.37966467  1
  Ti  Ti74  1  0.89638671  0.09561900  0.69432299  1
  Ti  Ti75  1  0.93098701  0.39658309  0.02783869  1
  Ti  Ti76  1  0.94760031  0.44681968  0.33105526  1
  Ti  Ti77  1  0.92210465  0.46297278  0.70936856  1
  Ti  Ti78  1  0.93421144  0.82673671  0.08656354  1
  Ti  Ti79  1  0.98634659  0.72765783  0.42194643  1
  Ti  Ti80  1  0.93251950  0.78671137  0.68889179  1
  Ti  Ti81  1  0.27014073  0.25477379  0.20191380  1
  Ti  Ti82  1  0.37611145  0.25648008  0.49278638  1
  Ti  Ti83  1  0.17124145  0.19626531  0.88477856  1
  Ti  Ti84  1  0.28802101  0.62654628  0.22002621  1
  Ti  Ti85  1  0.24794248  0.52522424  0.53957970  1
  Ti  Ti86  1  0.21867438  0.55330351  0.89313544  1
  Ti  Ti87  1  0.23755368  0.93264417  0.20533963  1
  Ti  Ti88  1  0.27599806  0.88472351  0.60126872  1
  Ti  Ti89  1  0.20953390  0.84754720  0.91719413  1
  Ti  Ti90  1  0.58848461  0.30689557  0.20703349  1
  Ti  Ti91  1  0.59218865  0.28191542  0.56280020  1
  Ti  Ti92  1  0.63282473  0.21742438  0.91426105  1
  Ti  Ti93  1  0.57568903  0.61687963  0.21661225  1
  Ti  Ti94  1  0.56409807  0.57954548  0.60505754  1
  Ti  Ti95  1  0.59682306  0.55819800  0.88765354  1
  Ti  Ti96  1  0.49000011  0.98919803  0.31162782  1
  Ti  Ti97  1  0.59147916  0.93246352  0.66010247  1
  Ti  Ti98  1  0.54427391  0.91012877  0.87436072  1
  Ti  Ti99  1  0.90357453  0.17396749  0.23868445  1
  Ti  Ti100  1  0.90989632  0.19565007  0.53394830  1
  Ti  Ti101  1  0.94327248  0.20695796  1.04292352  1
  Ti  Ti102  1  0.79067354  0.56551096  0.26256404  1
  Ti  Ti103  1  0.94757276  0.62156503  0.58567593  1
  Ti  Ti104  1  0.93294748  0.56446132  0.90647671  1
  Ti  Ti105  1  0.92597248  0.82110199  0.26925616  1
  Ti  Ti106  1  0.82665674  0.90442756  0.60379790  1
  Ti  Ti107  1  0.86860412  0.89363759  0.93306727  1
  Co  Co108  1  0.12270993  0.81708235  0.07158556  1
  Co  Co109  1  0.24205050  0.72291682  0.62033511  1
  Co  Co110  1  0.34332977  0.76373025  0.48331016  1
  Co  Co111  1  0.59855296  0.28708906  0.36330738  1
  Co  Co112  1  0.33711727  -0.05151160  0.33795840  1
  Co  Co113  1  0.03066697  -0.10343088  -0.04487681  1
  Co  Co114  1  0.83178641  0.42658720  0.18187719  1
  Co  Co115  1  0.75584389  0.78184654  0.05136009  1
  Co  Co116  1  0.02809816  0.28070448  -0.07393981  1
  Co  Co117  1  0.27079678  0.56463426  0.05091531  1
  Co  Co118  1  0.26752405  0.29440273  0.36673697  1
  Co  Co119  1  0.78142048  0.72990434  0.70328718  1
  Co  Co120  1  0.16058466  0.69892154  0.83791821  1
  Co  Co121  1  0.30920232  0.61154067  0.40127120  1
  Co  Co122  1  0.65384544  0.03598465  -0.07417377  1
  Co  Co123  1  0.55275401  0.94297516  0.03037278  1
  Co  Co124  1  0.32013385  0.42893880  -0.09893748  1
  Co  Co125  1  0.91312912  0.02730960  0.52668528  1
  Co  Co126  1  -0.04059657  0.86110090  0.51236853  1
  Co  Co127  1  -0.06651144  0.76640756  0.85493755  1
  Co  Co128  1  0.58983920  0.93554321  0.19223901  1
  Co  Co129  1  0.80173931  0.10318533  0.13398876  1
  Co  Co130  1  0.65280543  0.22021810  0.08241631  1
  Co  Co131  1  0.75619305  0.20221545  0.62577090  1
  Co  Co132  1  0.09900749  0.14476724  0.02646766  1
  Co  Co133  1  0.34445591  0.47583232  0.17815963  1
  Co  Co134  1  0.61628977  0.12315938  0.61308398  1
  Co  Co135  1  0.57368851  0.12120526  0.25408124  1
  Co  Co136  1  0.84292851  0.69596003  0.17546945  1
  Co  Co137  1  -0.08704957  0.48420825  0.51694120  1
  Co  Co138  1  -0.12272372  0.69143597  0.00098616  1
  Co  Co139  1  0.43349299  0.71417452  0.17374537  1
  Co  Co140  1  0.14390618  0.39503263  0.42736802  1
  Co  Co141  1  0.85841921  0.54910970  0.08166000  1
  Co  Co142  1  0.44107132  0.01382470  0.14467502  1
  Co  Co143  1  0.33069378  0.41168583  0.46268829  1
  Co  Co144  1  0.46326621  0.28001324  0.66000225  1
  Co  Co145  1  -0.01875389  0.47975762  0.16379435  1
  Co  Co146  1  0.89186069  0.33302337  0.44302520  1
  Co  Co147  1  0.68845666  0.86309393  0.92484217  1
  Co  Co148  1  0.65255750  0.61345298  0.72871311  1
  Co  Co149  1  0.14182832  0.34564479  0.25138716  1
  Co  Co150  1  0.06421967  0.19781294  0.19332628  1
  Co  Co151  1  0.55322369  0.79313482  0.25139564  1
  Co  Co152  1  0.41208576  0.08534654  0.45140703  1
  Co  Co153  1  0.52233687  0.77663047  0.60957173  1
  Co  Co154  1  0.32423697  0.13970231  0.87000489  1
  Co  Co155  1  0.14951480  0.65302327  0.08621208  1
  Co  Co156  1  0.29808463  -0.00216261  -0.06429788  1
  Co  Co157  1  0.51846408  0.50814634  0.75940961  1
  Co  Co158  1  0.16890666  0.08327665  0.16551371  1
  Co  Co159  1  0.61519623  0.24580896  0.73735374  1
  Co  Co160  1  0.17770146  0.17371743  0.31150160  1
  Co  Co161  1  0.72502798  0.17917828  0.27914413  1
  Ni  Ni162  1  0.49506565  0.37568591  0.45375135  1
  Ni  Ni163  1  -0.03626724  0.32509037  0.20212513  1
  Ni  Ni164  1  0.08221957  0.72112267  0.70505232  1
  Ni  Ni165  1  0.14980520  0.02615857  0.86989557  1
  Ni  Ni166  1  -0.05891982  0.33570098  0.60798379  1
  Ni  Ni167  1  0.78989892  0.28087325  -0.04568597  1
  Ni  Ni168  1  0.89922673  0.62788331  0.75470992  1
  Ni  Ni169  1  0.52619188  0.69535725  0.47457081  1
  Ni  Ni170  1  0.41824833  0.33697080  0.13824823  1
  Ni  Ni171  1  0.78137350  0.58099063  0.61795069  1
  Ni  Ni172  1  0.40562086  0.37838183  0.77320952  1
  Ni  Ni173  1  0.04654127  0.43710856  0.86015358  1
  Ni  Ni174  1  0.62979884  0.45208274  0.51545762  1
  Ni  Ni175  1  0.41301182  0.57724928  0.89206816  1
  Ni  Ni176  1  0.29739584  0.69575078  -0.05281558  1
  Ni  Ni177  1  0.70386685  0.37056442  0.84822019  1
  Ni  Ni178  1  -0.04290479  -0.04242450  0.38395673  1
  Ni  Ni179  1  0.39610922  0.86361599  0.21067083  1
  Ni  Ni180  1  0.20512404  0.83500371  0.74143615  1
  Ni  Ni181  1  0.11196439  0.62402938  0.57231329  1
  Ni  Ni182  1  0.64241043  0.68177440  0.34854794  1
  Ni  Ni183  1  0.57955319  0.54117386  0.05521340  1
  Ni  Ni184  1  0.81787227  0.71045919  0.35005592  1
  Ni  Ni185  1  0.55150546  0.00140105  0.51015595  1
  Ni  Ni186  1  0.83968879  0.02802254  0.83254970  1
  Ni  Ni187  1  0.73353607  0.03414217  0.69904878  1
  Ni  Ni188  1  0.54317947  0.36609105  0.87032815  1
  Ni  Ni189  1  0.83948678  0.73579716  0.52407636  1
  Ni  Ni190  1  0.67955336  0.89741279  0.52541699  1
  Ni  Ni191  1  0.41563642  -0.02098847  0.64369334  1
  Ni  Ni192  1  0.66957201  0.46521529  0.17744899  1
  Ni  Ni193  1  0.17551677  0.36086708  0.92515542  1
  Ni  Ni194  1  -0.01084737  -0.04637693  0.65571712  1
  Ni  Ni195  1  0.66730367  -0.00616772  0.38968321  1
  Ni  Ni196  1  0.01852774  0.11932855  0.42592926  1
  Ni  Ni197  1  0.26241596  0.79325606  0.30893776  1
  Ni  Ni198  1  -0.09841557  0.20346275  0.84867025  1
  Ni  Ni199  1  0.77682111  0.45168330  0.41388070  1
  Ni  Ni200  1  0.88618186  0.38435546  0.86219615  1
  Ni  Ni201  1  0.21257126  0.57958535  0.69922620  1
  Ni  Ni202  1  0.42955622  0.01877145  0.81315889  1
  Ni  Ni203  1  0.62242503  0.71486658  -0.04786935  1
  Ni  Ni204  1  0.05488684  0.91920982  0.18338412  1
  Ni  Ni205  1  0.50288663  0.26437463  0.00837289  1
  Ni  Ni206  1  0.43311613  0.56496441  0.27904940  1
  Ni  Ni207  1  -0.03021456  0.62390846  0.28954766  1
  Ni  Ni208  1  0.31989164  0.08667277  0.23827464  1
  Ni  Ni209  1  0.89438574  -0.01720395  0.22736860  1
  Ni  Ni210  1  0.23405025  -0.10047793  0.44877265  1
  Ni  Ni211  1  0.74523160  0.15849053  0.80736850  1
  Ni  Ni212  1  0.15265182  0.63128673  0.31553319  1
  Ni  Ni213  1  0.36389313  0.86398373  0.86959369  1
  Ni  Ni214  1  0.48013906  0.66876080  0.74995740  1
