# generated using pymatgen
data_Ti108Co54Ni53
_symmetry_space_group_name_H-M   'P 1'
_cell_length_a   14.57953746
_cell_length_b   14.57243434
_cell_length_c   14.63218263
_cell_angle_alpha   90.07784135
_cell_angle_beta   90.24910126
_cell_angle_gamma   89.80263123
_symmetry_Int_Tables_number   1
_chemical_formula_structural   Ti108Co54Ni53
_chemical_formula_sum   'Ti108 Co54 Ni53'
_cell_volume   3108.69341453
_cell_formula_units_Z   1
loop_
 _symmetry_equiv_pos_site_id
 _symmetry_equiv_pos_as_xyz
  1  'x, y, z'
loop_
 _atom_site_type_symbol
 _atom_site_label
 _atom_site_symmetry_multiplicity
 _atom_site_fract_x
 _atom_site_fract_y
 _atom_site_fract_z
 _atom_site_occupancy
  Ti  Ti0  1  0.09012752  0.15640210  0.31069671  1
  Ti  Ti1  1  0.09680441  0.11287458  0.50081751  1
  Ti  Ti2  1  0.12184781  0.11345929  0.93815943  1
  Ti  Ti3  1  0.09300259  0.50929792  0.26753006  1
  Ti  Ti4  1  0.12108786  0.45889430  0.53006187  1
  Ti  Ti5  1  0.07546881  0.36720935  0.95443553  1
  Ti  Ti6  1  0.12773362  0.71636859  0.19143169  1
  Ti  Ti7  1  0.12583961  0.67958036  0.64256819  1
  Ti  Ti8  1  0.09573726  0.86196347  0.91920007  1
  Ti  Ti9  1  0.48352572  0.05694436  0.27152108  1
  Ti  Ti10  1  0.43790457  0.17170753  0.57611013  1
  Ti  Ti11  1  0.40876907  0.07998098  0.90840519  1
  Ti  Ti12  1  0.44320548  0.39463211  0.17941535  1
  Ti  Ti13  1  0.37737925  0.38621158  0.49567229  1
  Ti  Ti14  1  0.41531133  0.41740893  0.97362354  1
  Ti  Ti15  1  0.44996992  0.67276904  0.26193665  1
  Ti  Ti16  1  0.42905010  0.83390476  0.56583567  1
  Ti  Ti17  1  0.40755933  0.72194496  0.90477076  1
  Ti  Ti18  1  0.68351396  0.01978669  0.27382535  1
  Ti  Ti19  1  0.78797602  0.15782256  0.57084097  1
  Ti  Ti20  1  0.82281872  0.05329716  0.89430081  1
  Ti  Ti21  1  0.69831770  0.35037676  0.19759091  1
  Ti  Ti22  1  0.74246893  0.43488857  0.59870231  1
  Ti  Ti23  1  0.71086142  0.36389776  0.88451765  1
  Ti  Ti24  1  0.74523800  0.72443736  0.22436205  1
  Ti  Ti25  1  0.75438631  0.76383267  0.54056210  1
  Ti  Ti26  1  0.79709826  0.76507577  0.93940398  1
  Ti  Ti27  1  0.03090455  0.26141919  0.12610674  1
  Ti  Ti28  1  0.04794052  0.31899837  0.42957181  1
  Ti  Ti29  1  0.11815309  0.22099268  0.75663959  1
  Ti  Ti30  1  0.02686350  0.56548754  0.08106138  1
  Ti  Ti31  1  0.12798109  0.62447466  0.41912406  1
  Ti  Ti32  1  0.14691710  0.52903505  0.75052289  1
  Ti  Ti33  1  0.21552221  0.91427588  0.07768200  1
  Ti  Ti34  1  0.07199780  0.91524699  0.43010091  1
  Ti  Ti35  1  0.04536418  0.85768911  0.73042982  1
  Ti  Ti36  1  0.45911109  0.13994298  0.09095523  1
  Ti  Ti37  1  0.38467934  0.18162226  0.37839785  1
  Ti  Ti38  1  0.46489830  0.24996313  0.79011494  1
  Ti  Ti39  1  0.49083893  0.58917620  0.06518968  1
  Ti  Ti40  1  0.46243548  0.56168669  0.44754359  1
  Ti  Ti41  1  0.39146741  0.61608601  0.73811374  1
  Ti  Ti42  1  0.39741761  0.96480007  0.11530575  1
  Ti  Ti43  1  0.43675525  0.98903708  0.45188403  1
  Ti  Ti44  1  0.38108946  0.95620638  0.75169206  1
  Ti  Ti45  1  0.81928721  0.22530307  0.08452976  1
  Ti  Ti46  1  0.78410454  0.15036878  0.37992067  1
  Ti  Ti47  1  0.78362475  0.19765665  0.75595147  1
  Ti  Ti48  1  0.73563536  0.57468321  -0.03245465  1
  Ti  Ti49  1  0.73834106  0.59502930  0.38737670  1
  Ti  Ti50  1  0.69460738  0.54176593  0.78447590  1
  Ti  Ti51  1  0.75070908  1.02690497  0.08284790  1
  Ti  Ti52  1  0.72207827  0.97724347  0.49448783  1
  Ti  Ti53  1  0.77694615  0.90525769  0.79287510  1
  Ti  Ti54  1  0.16347224  0.09204904  0.13945715  1
  Ti  Ti55  1  0.24250059  0.04315175  0.35349872  1
  Ti  Ti56  1  0.21945793  0.07111696  0.66893263  1
  Ti  Ti57  1  0.18666965  0.41195418  0.10088710  1
  Ti  Ti58  1  0.22789651  0.39172588  0.37645517  1
  Ti  Ti59  1  0.33136147  0.42189162  0.78371051  1
  Ti  Ti60  1  0.30922875  0.72316254  0.11909747  1
  Ti  Ti61  1  0.31837633  0.70181357  0.45622385  1
  Ti  Ti62  1  0.21956560  0.73151123  0.79596178  1
  Ti  Ti63  1  0.56706194  -0.01945171  -0.01045328  1
  Ti  Ti64  1  0.60330207  0.14032676  0.43471136  1
  Ti  Ti65  1  0.61250112  0.14841174  0.68217111  1
  Ti  Ti66  1  0.60974109  0.44207541  0.05846461  1
  Ti  Ti67  1  0.56048795  0.39849156  0.37519864  1
  Ti  Ti68  1  0.52505114  0.44336357  0.77604959  1
  Ti  Ti69  1  0.49643516  0.79815710  0.07066353  1
  Ti  Ti70  1  0.57429896  0.71291494  0.47610019  1
  Ti  Ti71  1  0.59594604  0.76121360  0.67274539  1
  Ti  Ti72  1  0.94485417  0.10861959  0.02032929  1
  Ti  Ti73  1  0.91636852  0.02124938  0.49229574  1
  Ti  Ti74  1  0.95431784  0.08158088  0.68958119  1
  Ti  Ti75  1  0.82887712  0.45872017  0.07330114  1
  Ti  Ti76  1  0.86807379  0.44603799  0.42797774  1
  Ti  Ti77  1  0.97039047  0.43954517  0.79593995  1
  Ti  Ti78  1  0.92999945  0.75383966  0.14831678  1
  Ti  Ti79  1  0.92848267  0.75149229  0.43230837  1
  Ti  Ti80  1  0.92839487  0.68544356  0.69377897  1
  Ti  Ti81  1  0.25760648  0.24574245  0.22124757  1
  Ti  Ti82  1  0.23569643  0.26169664  0.56521578  1
  Ti  Ti83  1  0.27436212  0.26534985  0.90847453  1
  Ti  Ti84  1  0.26835119  0.59614777  0.27863374  1
  Ti  Ti85  1  0.28212021  0.54376809  0.58958872  1
  Ti  Ti86  1  0.16314143  0.65715184  0.97375798  1
  Ti  Ti87  1  0.22052028  0.88935280  0.25175569  1
  Ti  Ti88  1  0.24092186  0.86705051  0.62935442  1
  Ti  Ti89  1  0.25353467  0.97214092  0.90963403  1
  Ti  Ti90  1  0.57243655  0.22858253  0.27252818  1
  Ti  Ti91  1  0.54716057  0.36288425  0.59299033  1
  Ti  Ti92  1  0.59870145  0.17186075  0.94381656  1
  Ti  Ti93  1  0.59496740  0.53561910  0.25247865  1
  Ti  Ti94  1  0.58827584  0.56946997  0.62484726  1
  Ti  Ti95  1  0.59223468  0.68604621  0.94068332  1
  Ti  Ti96  1  0.55379764  0.85466007  0.25957052  1
  Ti  Ti97  1  0.55043347  0.95704561  0.67605877  1
  Ti  Ti98  1  0.54738274  0.86467862  0.84475313  1
  Ti  Ti99  1  0.91733589  0.24466203  0.30308247  1
  Ti  Ti100  1  0.91775677  0.32688695  0.59780496  1
  Ti  Ti101  1  0.89716560  0.27555900  0.89159118  1
  Ti  Ti102  1  0.89514759  0.56273527  0.24052494  1
  Ti  Ti103  1  0.96418395  0.51026062  0.59793741  1
  Ti  Ti104  1  0.93984601  0.61409748  0.91504492  1
  Ti  Ti105  1  0.92468567  0.95442191  0.20271578  1
  Ti  Ti106  1  0.88426425  0.89478735  0.62234903  1
  Ti  Ti107  1  0.92207993  0.90247292  0.99416045  1
  Co  Co108  1  0.81556323  0.64757554  0.81541263  1
  Co  Co109  1  0.70267775  -0.10239490  0.63847443  1
  Co  Co110  1  0.58091807  0.02101066  0.14525075  1
  Co  Co111  1  0.38971065  0.33833748  0.65292208  1
  Co  Co112  1  0.27291790  0.42510989  0.22850231  1
  Co  Co113  1  0.75889509  0.19037217  -0.07257063  1
  Co  Co114  1  0.32666810  0.60863148  0.00044355  1
  Co  Co115  1  0.37284939  -0.05662597  0.30726554  1
  Co  Co116  1  -0.07055345  0.34903054  0.02258524  1
  Co  Co117  1  0.58561635  -0.04019818  0.38933991  1
  Co  Co118  1  -0.03261315  0.41283542  0.30398592  1
  Co  Co119  1  0.44934406  0.80629680  0.38352722  1
  Co  Co120  1  0.01313596  0.42503735  0.14347106  1
  Co  Co121  1  0.58283505  0.50908704  0.91608659  1
  Co  Co122  1  0.43313633  0.55541349  -0.11179333  1
  Co  Co123  1  0.58436064  0.69125534  0.15795543  1
  Co  Co124  1  0.43748807  0.78333890  0.72448019  1
  Co  Co125  1  0.68228583  0.29432222  0.02984043  1
  Co  Co126  1  0.25423425  0.11266389  0.82696306  1
  Co  Co127  1  0.43288677  0.24110245  -0.03808615  1
  Co  Co128  1  0.54215235  0.63987050  0.79151272  1
  Co  Co129  1  -0.03296578  0.57020316  0.40208129  1
  Co  Co130  1  0.78289533  0.03992791  0.67922210  1
  Co  Co131  1  0.50409224  0.27089384  0.44923839  1
  Co  Co132  1  0.08877513  0.52721784  0.90184229  1
  Co  Co133  1  0.68246314  0.05222628  0.81500427  1
  Co  Co134  1  0.29619459  0.75500674  0.30404117  1
  Co  Co135  1  0.83916739  0.46519808  -0.10976470  1
  Co  Co136  1  0.77677513  0.46026822  0.28557462  1
  Co  Co137  1  0.36286115  -0.00793291  0.59319099  1
  Co  Co138  1  0.06238958  0.38642083  0.67510626  1
  Co  Co139  1  -0.04045981  0.06884897  0.34560023  1
  Co  Co140  1  0.85867891  0.63259643  0.07721670  1
  Co  Co141  1  0.06082619  0.69437743  0.81610377  1
  Co  Co142  1  0.39746966  0.82844879  0.20540439  1
  Co  Co143  1  0.05821308  -0.02148532  0.60459467  1
  Co  Co144  1  0.27760457  0.53191858  0.43123599  1
  Co  Co145  1  0.52904185  0.05579904  0.81229780  1
  Co  Co146  1  0.31482246  0.07338003  0.20458332  1
  Co  Co147  1  0.27305998  0.58448957  0.85151785  1
  Co  Co148  1  -0.07160372  0.79164756  0.84094535  1
  Co  Co149  1  0.28658677  0.24706290  0.73455684  1
  Co  Co150  1  0.01841584  0.81778665  0.56829400  1
  Co  Co151  1  0.19843238  0.57547708  0.11930208  1
  Co  Co152  1  0.55022174  0.33621052  0.91120820  1
  Co  Co153  1  0.79421560  0.77323267  0.70562331  1
  Co  Co154  1  0.32556625  0.83952136  0.82912969  1
  Co  Co155  1  0.58954776  0.86701382  0.51966759  1
  Co  Co156  1  0.10071772  0.04172889  0.78693473  1
  Co  Co157  1  0.73800854  0.63292157  0.64479752  1
  Co  Co158  1  0.06735107  0.84841883  0.12261178  1
  Co  Co159  1  0.56653537  0.03764700  0.54691403  1
  Co  Co160  1  0.41819607  0.22377895  0.21638556  1
  Co  Co161  1  0.19311993  0.92038054  0.76765331  1
  Ni  Ni162  1  0.33353493  0.29847150  0.07876766  1
  Ni  Ni163  1  0.80328633  0.85829328  0.10495157  1
  Ni  Ni164  1  0.29225849  0.12041070  0.02807377  1
  Ni  Ni165  1  0.05930809  -0.00903077  0.05381478  1
  Ni  Ni166  1  0.28873178  0.86824459  0.43214731  1
  Ni  Ni167  1  0.40869819  0.90006887  -0.04156995  1
  Ni  Ni168  1  0.84647491  0.61309911  0.51837192  1
  Ni  Ni169  1  0.00581674  0.74576382  -0.00100702  1
  Ni  Ni170  1  0.26446635  0.79404641  -0.02655558  1
  Ni  Ni171  1  -0.00029517  0.68809210  0.29366967  1
  Ni  Ni172  1  0.71042498  0.71656206  0.06689329  1
  Ni  Ni173  1  0.65268920  0.31857989  0.71710469  1
  Ni  Ni174  1  0.41068108  0.50259045  0.30555093  1
  Ni  Ni175  1  0.06456802  0.24218875  0.59515426  1
  Ni  Ni176  1  0.81403587  0.29693405  0.47403148  1
  Ni  Ni177  1  0.43638390  0.49306620  0.62118477  1
  Ni  Ni178  1  0.23933672  0.45368470  -0.05652060  1
  Ni  Ni179  1  0.29553173  0.71170506  0.62911425  1
  Ni  Ni180  1  0.62651427  0.51402900  0.47597296  1
  Ni  Ni181  1  0.35982369  0.54122723  0.14681423  1
  Ni  Ni182  1  0.84731001  0.52678673  0.70988055  1
  Ni  Ni183  1  0.95665977  0.25629203  0.73561789  1
  Ni  Ni184  1  0.22575299  0.39447354  0.65608824  1
  Ni  Ni185  1  0.67721369  0.73736481  0.81168264  1
  Ni  Ni186  1  0.67265752  0.16820713  0.15335267  1
  Ni  Ni187  1  0.71940123  -0.08506415  -0.04337341  1
  Ni  Ni188  1  0.39122170  0.34029797  0.33040609  1
  Ni  Ni189  1  0.16836386  0.77152939  0.50965797  1
  Ni  Ni190  1  0.70259687  0.31220474  0.36031300  1
  Ni  Ni191  1  0.87257782  0.35016076  0.18604776  1
  Ni  Ni192  1  0.01177572  0.65396063  0.53485309  1
  Ni  Ni193  1  0.95748099  -0.03831336  0.83671871  1
  Ni  Ni194  1  0.81622756  0.36777561  0.74318627  1
  Ni  Ni195  1  0.13574517  0.77923967  0.35133766  1
  Ni  Ni196  1  0.66099045  0.26705900  0.52787397  1
  Ni  Ni197  1  0.53850179  0.28338203  0.09863922  1
  Ni  Ni198  1  0.64413955  0.87280734  0.11490505  1
  Ni  Ni199  1  0.29137874  0.11512980  0.50387924  1
  Ni  Ni200  1  0.17512827  0.24205146  0.04656844  1
  Ni  Ni201  1  -0.00957821  0.10733222  0.18119483  1
  Ni  Ni202  1  -0.02279660  0.13262958  0.84938272  1
  Ni  Ni203  1  0.39622044  0.11618335  0.72217436  1
  Ni  Ni204  1  0.08309850  -0.01520380  0.25514015  1
  Ni  Ni205  1  0.21544609  0.22295621  0.39785664  1
  Ni  Ni206  1  0.44763974  0.66398052  0.58552258  1
  Ni  Ni207  1  0.82829500  -0.02350303  0.34527831  1
  Ni  Ni208  1  0.60905910  0.69418960  0.32122583  1
  Ni  Ni209  1  -0.05708619  0.18985717  0.47209501  1
  Ni  Ni210  1  0.20307906  -0.02100303  0.51491218  1
  Ni  Ni211  1  0.71935452  0.56463746  0.15116168  1
  Ni  Ni212  1  0.16608331  0.37066781  0.81211353  1
  Ni  Ni213  1  0.11246041  0.33316988  0.25993094  1
  Ni  Ni214  1  0.83037397  0.10383379  0.22034459  1
