# generated using pymatgen
data_Ti108Co54Ni53
_symmetry_space_group_name_H-M   'P 1'
_cell_length_a   14.68171397
_cell_length_b   14.60349051
_cell_length_c   14.67195093
_cell_angle_alpha   90.04541292
_cell_angle_beta   89.76164680
_cell_angle_gamma   89.93017406
_symmetry_Int_Tables_number   1
_chemical_formula_structural   Ti108Co54Ni53
_chemical_formula_sum   'Ti108 Co54 Ni53'
_cell_volume   3145.69838184
_cell_formula_units_Z   1
loop_
 _symmetry_equiv_pos_site_id
 _symmetry_equiv_pos_as_xyz
  1  'x, y, z'
loop_
 _atom_site_type_symbol
 _atom_site_label
 _atom_site_symmetry_multiplicity
 _atom_site_fract_x
 _atom_site_fract_y
 _atom_site_fract_z
 _atom_site_occupancy
  Ti  Ti0  1  0.02662425  0.06359121  0.17326930  1
  Ti  Ti1  1  0.03029243  0.15330680  0.63365401  1
  Ti  Ti2  1  0.06788011  0.05203087  0.85049276  1
  Ti  Ti3  1  0.05724737  0.40153463  0.24759880  1
  Ti  Ti4  1  0.10863210  0.35303404  0.55084303  1
  Ti  Ti5  1  0.11265443  0.42411591  0.95763074  1
  Ti  Ti6  1  0.04945223  0.74552884  0.23419231  1
  Ti  Ti7  1  0.08164450  0.72850179  0.54548932  1
  Ti  Ti8  1  0.01005070  0.85896022  0.96592399  1
  Ti  Ti9  1  0.40388520  0.11890230  0.21349136  1
  Ti  Ti10  1  0.40188885  0.17497848  0.55895948  1
  Ti  Ti11  1  0.45061571  0.05910312  0.88600490  1
  Ti  Ti12  1  0.37449233  0.47743773  0.26878229  1
  Ti  Ti13  1  0.36247308  0.50828303  0.53147896  1
  Ti  Ti14  1  0.50715126  0.37329037  0.90914753  1
  Ti  Ti15  1  0.38149124  0.78668705  0.18702160  1
  Ti  Ti16  1  0.41777928  0.67230568  0.64638683  1
  Ti  Ti17  1  0.42859936  0.75197860  0.84847632  1
  Ti  Ti18  1  0.81452246  0.11689902  0.19955982  1
  Ti  Ti19  1  0.68987999  0.10917056  0.59676310  1
  Ti  Ti20  1  0.67341369  0.01687325  0.86577708  1
  Ti  Ti21  1  0.67089676  0.40078303  0.25927394  1
  Ti  Ti22  1  0.72120163  0.38531781  0.61020842  1
  Ti  Ti23  1  0.80252760  0.46425679  0.93720128  1
  Ti  Ti24  1  0.82350357  0.75038394  0.24194486  1
  Ti  Ti25  1  0.77839162  0.69129381  0.58250505  1
  Ti  Ti26  1  0.76184645  0.70094027  0.91254873  1
  Ti  Ti27  1  0.12332410  0.23825478  0.12189052  1
  Ti  Ti28  1  0.08042221  0.17879849  0.43932841  1
  Ti  Ti29  1  0.08511562  0.24278390  0.82109739  1
  Ti  Ti30  1  0.05530001  0.55386364  0.09677445  1
  Ti  Ti31  1  0.02618624  0.50312963  0.43747472  1
  Ti  Ti32  1  0.16116400  0.49962168  0.78339951  1
  Ti  Ti33  1  0.12255324  0.88899812  0.12007867  1
  Ti  Ti34  1  0.11935599  0.95773807  0.40887496  1
  Ti  Ti35  1  0.08271951  0.87201426  0.80269141  1
  Ti  Ti36  1  0.51792811  0.28415786  0.09305499  1
  Ti  Ti37  1  0.45433898  0.20480265  0.37357282  1
  Ti  Ti38  1  0.35158243  0.23868966  0.75692000  1
  Ti  Ti39  1  0.37298718  0.59272851  0.10190341  1
  Ti  Ti40  1  0.45176054  0.64539959  0.34597247  1
  Ti  Ti41  1  0.44015006  0.54897778  0.82097831  1
  Ti  Ti42  1  0.43263507  0.89170270  0.00703912  1
  Ti  Ti43  1  0.52780026  0.92333268  0.38042559  1
  Ti  Ti44  1  0.37866407  0.92105710  0.75871790  1
  Ti  Ti45  1  0.76270266  0.25792266  0.05835401  1
  Ti  Ti46  1  0.78943621  0.24452740  0.35445841  1
  Ti  Ti47  1  0.70417881  0.20419167  0.77145815  1
  Ti  Ti48  1  0.77560677  0.58909486  0.09567734  1
  Ti  Ti49  1  0.81143665  0.52144576  0.47024069  1
  Ti  Ti50  1  0.69422643  0.56446178  0.75329017  1
  Ti  Ti51  1  0.70172526  0.95279172  0.04829325  1
  Ti  Ti52  1  0.73224167  0.94556086  0.44488539  1
  Ti  Ti53  1  0.79067746  0.87069308  0.71545465  1
  Ti  Ti54  1  0.30678699  0.17616305  0.05660539  1
  Ti  Ti55  1  0.26080131  0.09050596  0.43555651  1
  Ti  Ti56  1  0.26834251  0.09929352  0.87435782  1
  Ti  Ti57  1  0.25697778  0.39349137  0.08707586  1
  Ti  Ti58  1  0.23447805  0.43078714  0.41267685  1
  Ti  Ti59  1  0.34317288  0.43950964  0.71744456  1
  Ti  Ti60  1  0.20468674  0.70775190  0.10347657  1
  Ti  Ti61  1  0.21603336  0.65925048  0.37297555  1
  Ti  Ti62  1  0.14635985  0.70181168  0.79736598  1
  Ti  Ti63  1  0.55408743  -0.00089059  0.15597142  1
  Ti  Ti64  1  0.64361157  0.11734097  0.40743457  1
  Ti  Ti65  1  0.51433439  0.09630245  0.70282357  1
  Ti  Ti66  1  0.57943193  0.49846644  0.09062375  1
  Ti  Ti67  1  0.51977801  0.44555841  0.39767044  1
  Ti  Ti68  1  0.56892827  0.39429074  0.72913370  1
  Ti  Ti69  1  0.56613925  0.80555198  0.13323105  1
  Ti  Ti70  1  0.62270474  0.74259460  0.43881119  1
  Ti  Ti71  1  0.64311675  0.78332732  0.74976503  1
  Ti  Ti72  1  0.88569887  0.04069704  0.04258922  1
  Ti  Ti73  1  0.93008676  0.01141845  0.49253992  1
  Ti  Ti74  1  0.90471848  0.16467510  0.78114713  1
  Ti  Ti75  1  0.94232032  0.37661569  0.07288614  1
  Ti  Ti76  1  0.86572018  0.41682466  0.31349269  1
  Ti  Ti77  1  0.92009857  0.44597673  0.74346203  1
  Ti  Ti78  1  0.88721529  0.74094586  0.05872359  1
  Ti  Ti79  1  0.97100500  0.82371607  0.41218031  1
  Ti  Ti80  1  0.96263836  0.76829813  0.68832307  1
  Ti  Ti81  1  0.23818873  0.20687976  0.28155279  1
  Ti  Ti82  1  0.21708512  0.19190056  0.60114503  1
  Ti  Ti83  1  0.23983796  0.28657166  0.91337314  1
  Ti  Ti84  1  0.20715747  0.54008327  0.21124085  1
  Ti  Ti85  1  0.21953157  0.63827384  0.62708327  1
  Ti  Ti86  1  0.27848610  0.62863247  0.92217452  1
  Ti  Ti87  1  0.26169534  0.97632470  0.25622067  1
  Ti  Ti88  1  0.23718777  0.97269478  0.61010452  1
  Ti  Ti89  1  0.23064297  0.92599807  0.95266324  1
  Ti  Ti90  1  0.62193033  0.18980225  0.22159183  1
  Ti  Ti91  1  0.56058996  0.30665194  0.51332858  1
  Ti  Ti92  1  0.59701578  0.19324141  0.93618545  1
  Ti  Ti93  1  0.64630139  0.64670519  0.25156414  1
  Ti  Ti94  1  0.63617475  0.54446876  0.54739374  1
  Ti  Ti95  1  0.58714157  0.59651166  0.91690831  1
  Ti  Ti96  1  0.67959937  0.85496522  0.27395561  1
  Ti  Ti97  1  0.57796216  0.92219986  0.58513560  1
  Ti  Ti98  1  0.60022397  0.80645296  0.94586407  1
  Ti  Ti99  1  0.97958193  0.22837644  0.27975949  1
  Ti  Ti100  1  0.87191469  0.27461435  0.61851095  1
  Ti  Ti101  1  0.90550163  0.30779872  0.89587776  1
  Ti  Ti102  1  0.91092088  0.62106633  0.33648285  1
  Ti  Ti103  1  0.96197368  0.58866585  0.60664429  1
  Ti  Ti104  1  0.95546368  0.66004732  0.87625487  1
  Ti  Ti105  1  0.88045384  0.94305859  0.29562127  1
  Ti  Ti106  1  0.94174733  0.96939514  0.68027559  1
  Ti  Ti107  1  0.88315907  0.98005582  0.86435004  1
  Co  Co108  1  0.19707223  0.06658740  0.12627593  1
  Co  Co109  1  0.15567222  0.77661737  -0.04677248  1
  Co  Co110  1  0.64308262  -0.00653268  0.70999684  1
  Co  Co111  1  0.09956918  0.60547220  0.93809612  1
  Co  Co112  1  0.26476911  0.25200188  0.45175385  1
  Co  Co113  1  0.22455528  -0.03511252  0.78290268  1
  Co  Co114  1  0.61788960  0.27866659  0.36105263  1
  Co  Co115  1  0.05557579  0.67987486  0.39842469  1
  Co  Co116  1  0.13721318  0.08369895  0.28752420  1
  Co  Co117  1  0.21602164  0.53789265  0.03671764  1
  Co  Co118  1  0.14983101  0.14428880  -0.02009981  1
  Co  Co119  1  0.78253229  0.55503080  0.25636962  1
  Co  Co120  1  0.93631305  0.63822389  0.17437536  1
  Co  Co121  1  0.77675270  -0.02529688  0.59471690  1
  Co  Co122  1  0.13099118  0.31613692  0.36657039  1
  Co  Co123  1  0.43120003  -0.06639582  0.23007271  1
  Co  Co124  1  0.49706067  0.65482604  0.17868646  1
  Co  Co125  1  0.74702340  0.65075180  0.39120596  1
  Co  Co126  1  -0.03465841  0.14390373  0.93790816  1
  Co  Co127  1  0.30497874  0.62737917  0.76434566  1
  Co  Co128  1  0.53477352  0.06432387  0.30246770  1
  Co  Co129  1  0.05571459  0.27613336  -0.01865644  1
  Co  Co130  1  0.09624820  -0.01065099  0.68689123  1
  Co  Co131  1  0.41098739  0.20936176  0.92013194  1
  Co  Co132  1  -0.10144162  0.81504476  0.83931970  1
  Co  Co133  1  0.83745333  0.29706873  0.20398858  1
  Co  Co134  1  0.70783850  0.83069388  0.56394807  1
  Co  Co135  1  0.26989842  0.80732024  0.83099848  1
  Co  Co136  1  0.68421243  0.40933992  0.43579972  1
  Co  Co137  1  0.55985142  -0.00921637  -0.01611252  1
  Co  Co138  1  0.72816262  0.77922104  0.10130665  1
  Co  Co139  1  -0.04041299  0.89585941  0.12311387  1
  Co  Co140  1  0.16263973  0.56404682  0.49358001  1
  Co  Co141  1  0.28110782  0.88638539  0.11249212  1
  Co  Co142  1  0.79071167  0.05392920  0.74904536  1
  Co  Co143  1  0.04599010  0.72370392  0.06101601  1
  Co  Co144  1  0.50898403  0.33606674  0.25013089  1
  Co  Co145  1  0.73443826  0.29624555  0.90301239  1
  Co  Co146  1  0.44701984  0.31397249  0.64915450  1
  Co  Co147  1  0.64566633  0.36946278  0.01472069  1
  Co  Co148  1  -0.08906519  0.48494013  0.17747451  1
  Co  Co149  1  0.03381030  0.59315306  0.74821730  1
  Co  Co150  1  0.53506329  0.50940131  0.24986587  1
  Co  Co151  1  0.73389536  0.86441289  0.87401207  1
  Co  Co152  1  0.29282098  0.33284733  0.59814553  1
  Co  Co153  1  0.91057497  0.68744531  0.48757564  1
  Co  Co154  1  0.51662110  0.23474272  0.79436908  1
  Co  Co155  1  0.88543363  0.84677864  0.55721927  1
  Co  Co156  1  0.11393943  0.05154488  0.54039797  1
  Co  Co157  1  0.43863891  0.43178035  0.12879314  1
  Co  Co158  1  0.52400389  0.78605813  0.29213965  1
  Co  Co159  1  0.31890002  0.65255484  0.24980009  1
  Co  Co160  1  0.91697041  0.56672305  0.01326316  1
  Co  Co161  1  -0.08362827  0.18873220  0.46637037  1
  Ni  Ni162  1  0.40161556  0.34682100  0.48506079  1
  Ni  Ni163  1  0.20755436  0.46900948  0.61745405  1
  Ni  Ni164  1  0.77534778  0.36814391  0.76364445  1
  Ni  Ni165  1  0.62793585  0.66405233  0.06037325  1
  Ni  Ni166  1  0.65592907  0.44321072  0.86585393  1
  Ni  Ni167  1  0.39151592  0.03018099  0.36466272  1
  Ni  Ni168  1  -0.01822093  0.07157548  0.34183734  1
  Ni  Ni169  1  0.35667750  0.32822702  0.33358396  1
  Ni  Ni170  1  0.05075333  0.89445730  0.55871921  1
  Ni  Ni171  1  0.71851620  0.24810464  0.50703847  1
  Ni  Ni172  1  0.48526248  0.12078639  0.05534568  1
  Ni  Ni173  1  0.21420042  0.81411164  0.24955834  1
  Ni  Ni174  1  0.76068327  0.42420605  0.12126170  1
  Ni  Ni175  1  0.86661620  0.11115968  0.61110348  1
  Ni  Ni176  1  -0.01513054  0.33706858  0.42158464  1
  Ni  Ni177  1  0.41875944  0.50288406  -0.02172891  1
  Ni  Ni178  1  0.82413291  0.67994534  0.74899654  1
  Ni  Ni179  1  0.83518084  0.35355539  0.47448546  1
  Ni  Ni180  1  0.80235932  0.80150764  0.41076860  1
  Ni  Ni181  1  0.66064983  0.11842290  0.07104223  1
  Ni  Ni182  1  0.06184858  0.56773911  0.27940653  1
  Ni  Ni183  1  0.28879034  0.44430291  0.89194915  1
  Ni  Ni184  1  0.33794466  0.07988946  0.69868161  1
  Ni  Ni185  1  0.80374345  -0.08624732  0.16221152  1
  Ni  Ni186  1  0.69783075  0.02015818  0.26853962  1
  Ni  Ni187  1  0.02018092  0.32183573  0.69252975  1
  Ni  Ni188  1  -0.05664122  0.42350458  0.57345886  1
  Ni  Ni189  1  -0.05947621  0.20507621  0.10246526  1
  Ni  Ni190  1  0.31935535  0.77317116  -0.00668466  1
  Ni  Ni191  1  0.49707476  0.61505464  0.50056896  1
  Ni  Ni192  1  0.04771001  0.91897762  0.27014541  1
  Ni  Ni193  1  0.59685307  0.70779102  0.60237042  1
  Ni  Ni194  1  0.59760325  0.24018869  0.65169206  1
  Ni  Ni195  1  0.79379548  0.13486467  -0.08453928  1
  Ni  Ni196  1  0.49339023  0.81626884  0.68806337  1
  Ni  Ni197  1  0.36236729  0.28780850  0.17661084  1
  Ni  Ni198  1  0.35843442  0.01812152  0.08396340  1
  Ni  Ni199  1  0.81746598  0.08059261  0.37499723  1
  Ni  Ni200  1  -0.01758746  0.48635615  0.88719971  1
  Ni  Ni201  1  0.83726029  0.87844834  -0.00464728  1
  Ni  Ni202  1  0.19537355  0.33806468  0.73208595  1
  Ni  Ni203  1  0.22461346  0.37328217  0.24415327  1
  Ni  Ni204  1  0.46996157  0.69830581  0.00759305  1
  Ni  Ni205  1  0.80535083  0.52724684  0.64278636  1
  Ni  Ni206  1  0.49878422  0.52109887  0.64479000  1
  Ni  Ni207  1  0.54909834  0.65082837  0.75237110  1
  Ni  Ni208  1  0.51034647  0.06204770  0.48933849  1
  Ni  Ni209  1  0.16579904  0.82238644  0.66802322  1
  Ni  Ni210  1  0.06159591  0.01173107  0.01709426  1
  Ni  Ni211  1  0.17818164  0.12074116  0.73807999  1
  Ni  Ni212  1  0.37947824  0.33726582  0.00676611  1
  Ni  Ni213  1  0.33126143  0.66547029  0.49153732  1
  Ni  Ni214  1  0.53527089  -0.08851991  0.82509745  1
