# generated using pymatgen
data_Ti108Co54Ni53
_symmetry_space_group_name_H-M   'P 1'
_cell_length_a   14.58398657
_cell_length_b   14.63492275
_cell_length_c   14.72074890
_cell_angle_alpha   90.00854015
_cell_angle_beta   90.04846475
_cell_angle_gamma   90.01683664
_symmetry_Int_Tables_number   1
_chemical_formula_structural   Ti108Co54Ni53
_chemical_formula_sum   'Ti108 Co54 Ni53'
_cell_volume   3141.92935397
_cell_formula_units_Z   1
loop_
 _symmetry_equiv_pos_site_id
 _symmetry_equiv_pos_as_xyz
  1  'x, y, z'
loop_
 _atom_site_type_symbol
 _atom_site_label
 _atom_site_symmetry_multiplicity
 _atom_site_fract_x
 _atom_site_fract_y
 _atom_site_fract_z
 _atom_site_occupancy
  Ti  Ti0  1  0.07139286  0.17223449  0.32413945  1
  Ti  Ti1  1  0.06572837  0.08818138  0.59830032  1
  Ti  Ti2  1  0.04601699  0.03105748  0.88164968  1
  Ti  Ti3  1  0.07501064  0.46590095  0.30450965  1
  Ti  Ti4  1  0.07386312  0.44608359  0.56126524  1
  Ti  Ti5  1  0.09101089  0.42852492  0.97621599  1
  Ti  Ti6  1  0.13058175  0.79283993  0.24188609  1
  Ti  Ti7  1  0.07230019  0.76297643  0.55909492  1
  Ti  Ti8  1  0.06537301  0.67058277  0.88322285  1
  Ti  Ti9  1  0.31837428  0.11284205  0.29063636  1
  Ti  Ti10  1  0.29465134  0.12896651  0.62653675  1
  Ti  Ti11  1  0.44986787  0.07098709  0.87051196  1
  Ti  Ti12  1  0.31073461  0.40570990  0.24518366  1
  Ti  Ti13  1  0.38236340  0.44001608  0.58224174  1
  Ti  Ti14  1  0.51469099  0.46075762  0.83871410  1
  Ti  Ti15  1  0.45537046  0.72434672  0.26493014  1
  Ti  Ti16  1  0.50554523  0.71626173  0.62846419  1
  Ti  Ti17  1  0.40724677  0.70853289  0.84774960  1
  Ti  Ti18  1  0.81602544  0.09808783  0.21782865  1
  Ti  Ti19  1  0.74253611  0.03281952  0.55628487  1
  Ti  Ti20  1  0.73406462  -0.01642993  0.88902351  1
  Ti  Ti21  1  0.71880529  0.36374499  0.17832146  1
  Ti  Ti22  1  0.75911197  0.37308353  0.61256351  1
  Ti  Ti23  1  0.73377461  0.36832773  0.85754145  1
  Ti  Ti24  1  0.75559360  0.66670315  0.19198809  1
  Ti  Ti25  1  0.76406059  0.72123377  0.55995895  1
  Ti  Ti26  1  0.80358571  0.80769399  0.87713975  1
  Ti  Ti27  1  0.11588333  0.23072011  0.05078328  1
  Ti  Ti28  1  -0.01638489  0.32300069  0.42591461  1
  Ti  Ti29  1  0.02128596  0.22228595  0.76994317  1
  Ti  Ti30  1  0.02743007  0.61226596  0.05503840  1
  Ti  Ti31  1  0.12407313  0.65110383  0.38542576  1
  Ti  Ti32  1  0.09070971  0.57461085  0.72256006  1
  Ti  Ti33  1  0.15022397  0.92183288  0.06102127  1
  Ti  Ti34  1  0.07193306  0.99010444  0.40117443  1
  Ti  Ti35  1  0.16034464  0.91650912  0.71581287  1
  Ti  Ti36  1  0.44194936  0.24546952  0.03171245  1
  Ti  Ti37  1  0.36543364  0.25382670  0.50807266  1
  Ti  Ti38  1  0.47279834  0.32400929  0.69481006  1
  Ti  Ti39  1  0.38967221  0.64365879  0.06976447  1
  Ti  Ti40  1  0.41473283  0.55119156  0.38016648  1
  Ti  Ti41  1  0.36653773  0.60590960  0.68933771  1
  Ti  Ti42  1  0.34707201  0.86688770  0.08745616  1
  Ti  Ti43  1  0.43470613  0.86326079  0.49483293  1
  Ti  Ti44  1  0.39257487  0.90712729  0.76506765  1
  Ti  Ti45  1  0.81736179  0.26930125  0.05569069  1
  Ti  Ti46  1  0.71741092  0.32196557  0.43294363  1
  Ti  Ti47  1  0.75254874  0.18694374  0.84362078  1
  Ti  Ti48  1  0.68382276  0.54004585  0.07569477  1
  Ti  Ti49  1  0.74128338  0.60903188  0.38581068  1
  Ti  Ti50  1  0.71191600  0.65672973  0.81197496  1
  Ti  Ti51  1  0.77928661  0.95100263  0.09198909  1
  Ti  Ti52  1  0.80440044  0.88595976  0.45184361  1
  Ti  Ti53  1  0.71020226  0.89609615  0.70281198  1
  Ti  Ti54  1  0.26551726  0.09734794  0.07234631  1
  Ti  Ti55  1  0.25163267  0.01468606  0.47734058  1
  Ti  Ti56  1  0.27534136  0.06531100  0.79703455  1
  Ti  Ti57  1  0.29738474  0.39359457  0.03232315  1
  Ti  Ti58  1  0.18878394  0.32333015  0.39232752  1
  Ti  Ti59  1  0.17439395  0.38782378  0.75021281  1
  Ti  Ti60  1  0.19200833  0.71696653  0.09081935  1
  Ti  Ti61  1  0.28537018  0.82171878  0.36953229  1
  Ti  Ti62  1  0.23037114  0.75719713  0.79743736  1
  Ti  Ti63  1  0.64971590  0.17014862  0.12681517  1
  Ti  Ti64  1  0.55951883  0.04080574  0.44441794  1
  Ti  Ti65  1  0.61107852  0.11571187  0.72436185  1
  Ti  Ti66  1  0.57849194  0.38793468  0.00965509  1
  Ti  Ti67  1  0.51335495  0.36451710  0.43906294  1
  Ti  Ti68  1  0.66713723  0.47900081  0.73494478  1
  Ti  Ti69  1  0.62526153  0.80114673  0.10457508  1
  Ti  Ti70  1  0.55250651  0.68965344  0.43135459  1
  Ti  Ti71  1  0.56574257  0.80506647  0.81280591  1
  Ti  Ti72  1  0.93321109  0.13963980  0.00551786  1
  Ti  Ti73  1  0.88714458  0.05400090  0.40114474  1
  Ti  Ti74  1  0.85806316  0.06608890  0.70872944  1
  Ti  Ti75  1  0.88414945  0.47372377  0.08679394  1
  Ti  Ti76  1  0.84191494  0.44936842  0.37913481  1
  Ti  Ti77  1  0.90513699  0.45593154  0.72143858  1
  Ti  Ti78  1  0.93993270  0.76356290  0.15085595  1
  Ti  Ti79  1  0.92215738  0.68536012  0.44943120  1
  Ti  Ti80  1  0.96280045  0.81336613  0.77972145  1
  Ti  Ti81  1  0.21169584  0.24616034  0.21812708  1
  Ti  Ti82  1  0.14386301  0.25517235  0.57896369  1
  Ti  Ti83  1  0.29003844  0.23255693  0.90052642  1
  Ti  Ti84  1  0.24984382  0.59241911  0.22480085  1
  Ti  Ti85  1  0.26207272  0.58737655  0.50908532  1
  Ti  Ti86  1  0.23555503  0.60130665  0.94759579  1
  Ti  Ti87  1  0.20254563  0.96134648  0.25652468  1
  Ti  Ti88  1  0.24806925  0.82154745  0.55846308  1
  Ti  Ti89  1  0.24850071  0.93314522  0.91447359  1
  Ti  Ti90  1  0.52030087  0.27547749  0.24268334  1
  Ti  Ti91  1  0.59183178  0.23399975  0.56592143  1
  Ti  Ti92  1  0.54110219  0.24928698  0.86009089  1
  Ti  Ti93  1  0.58913510  0.56289051  0.26839689  1
  Ti  Ti94  1  0.64805252  0.57413745  0.58139253  1
  Ti  Ti95  1  0.55537462  0.63007644  0.95422531  1
  Ti  Ti96  1  0.68062057  0.91620454  0.30743931  1
  Ti  Ti97  1  0.62344172  0.86046025  0.53011630  1
  Ti  Ti98  1  0.54937712  0.93264781  0.96175904  1
  Ti  Ti99  1  0.88208004  0.26404489  0.25459256  1
  Ti  Ti100  1  0.87385472  0.21250043  0.56409988  1
  Ti  Ti101  1  0.92543349  0.33251408  0.90601888  1
  Ti  Ti102  1  0.92942509  0.59488345  0.26052749  1
  Ti  Ti103  1  0.93527844  0.64225722  0.63390745  1
  Ti  Ti104  1  0.85002718  0.55081964  0.91027066  1
  Ti  Ti105  1  0.90365511  0.90506484  0.27884677  1
  Ti  Ti106  1  0.90269681  0.86330561  0.60914604  1
  Ti  Ti107  1  0.94572083  0.90367317  1.00072689  1
  Co  Co108  1  0.06863999  0.05861979  0.05144405  1
  Co  Co109  1  0.32213925  0.75791993  -0.02885570  1
  Co  Co110  1  0.37376271  0.26479689  0.33353015  1
  Co  Co111  1  0.46706116  0.42172195  0.29606162  1
  Co  Co112  1  0.36069202  0.23250299  0.16742634  1
  Co  Co113  1  0.49046132  0.77026824  0.00465117  1
  Co  Co114  1  0.41575194  0.01364766  0.53981483  1
  Co  Co115  1  0.21804747  0.68189421  0.64495302  1
  Co  Co116  1  0.74132462  0.18862247  0.65117059  1
  Co  Co117  1  0.70665802  0.16597713  0.48099446  1
  Co  Co118  1  0.84314949  0.20759227  0.39728791  1
  Co  Co119  1  0.62086460  0.09378369  0.89438803  1
  Co  Co120  1  0.92621270  0.01202763  0.55052278  1
  Co  Co121  1  0.42691482  0.37944575  0.13611473  1
  Co  Co122  1  0.65406219  0.73433354  0.67877098  1
  Co  Co123  1  0.40404237  0.88390802  0.91929656  1
  Co  Co124  1  0.66847101  0.51704954  0.90445196  1
  Co  Co125  1  0.65617082  0.80010988  0.94345640  1
  Co  Co126  1  0.52545582  0.12115352  0.01257703  1
  Co  Co127  1  0.55926373  0.21085519  0.39850771  1
  Co  Co128  1  0.75999506  0.40677359  0.00367504  1
  Co  Co129  1  0.41448288  0.12653678  0.42952867  1
  Co  Co130  1  0.54637716  0.85046210  0.37284702  1
  Co  Co131  1  0.49945398  0.50083569  0.68166630  1
  Co  Co132  1  0.83478327  0.74264609  0.32417783  1
  Co  Co133  1  0.08297823  0.74050519  0.71706428  1
  Co  Co134  1  0.92058195  0.02163277  0.12010887  1
  Co  Co135  1  -0.01568393  0.17442965  0.16053808  1
  Co  Co136  1  0.76754393  0.50750635  0.24157042  1
  Co  Co137  1  -0.09846535  0.14230662  0.84805473  1
  Co  Co138  1  0.56783477  0.44185874  0.16378500  1
  Co  Co139  1  0.22407371  0.50864073  0.64714665  1
  Co  Co140  1  -0.00213703  0.04093877  0.25957933  1
  Co  Co141  1  0.86015723  0.63248994  0.07322953  1
  Co  Co142  1  0.44606788  0.48391523  0.01945386  1
  Co  Co143  1  0.09678216  0.60531384  0.54741527  1
  Co  Co144  1  0.29975503  0.66363039  0.35661904  1
  Co  Co145  1  0.79089867  0.57793465  0.68880296  1
  Co  Co146  1  0.91846511  0.64152832  0.79616975  1
  Co  Co147  1  0.17558102  0.11447835  -0.06888737  1
  Co  Co148  1  0.49725466  0.87668974  0.64974501  1
  Co  Co149  1  0.81721738  0.75148441  0.71315477  1
  Co  Co150  1  0.07988771  0.63109671  0.21175887  1
  Co  Co151  1  0.62407371  0.73728675  0.26546260  1
  Co  Co152  1  0.35786596  0.77878217  0.67049329  1
  Co  Co153  1  0.13010953  0.83702981  0.41025498  1
  Co  Co154  1  0.03870373  0.47562046  0.14388101  1
  Co  Co155  1  0.17160645  0.78188733  -0.04488061  1
  Co  Co156  1  0.57564704  -0.03338941  0.78706091  1
  Co  Co157  1  0.55265183  0.65599213  0.13424765  1
  Co  Co158  1  0.30521006  -0.04642569  0.64070228  1
  Co  Co159  1  0.30165018  0.30568080  0.66741159  1
  Co  Co160  1  0.72886723  0.66202808  -0.01949864  1
  Co  Co161  1  0.23844916  0.17275728  0.42390061  1
  Ni  Ni162  1  0.77039145  0.82936139  0.20489451  1
  Ni  Ni163  1  -0.00295465  0.75211549  0.32049493  1
  Ni  Ni164  1  0.89271858  -0.04011223  0.83906943  1
  Ni  Ni165  1  0.11830114  0.08072058  0.74817716  1
  Ni  Ni166  1  -0.01881606  0.52887580  0.44310526  1
  Ni  Ni167  1  0.90132980  0.41163460  0.53914988  1
  Ni  Ni168  1  0.22744445  0.50222353  0.37051920  1
  Ni  Ni169  1  0.76344158  0.10976435  0.00787330  1
  Ni  Ni170  1  0.65764154  0.24167018  -0.02003371  1
  Ni  Ni171  1  0.06981500  0.87017035  0.88288668  1
  Ni  Ni172  1  0.64548219  0.30211555  0.72746655  1
  Ni  Ni173  1  0.36900374  -0.02961703  0.36820533  1
  Ni  Ni174  1  0.17055262  0.38668904  0.14246793  1
  Ni  Ni175  1  0.12178650  0.28456717  0.89045904  1
  Ni  Ni176  1  0.39413206  0.01724863  0.01863090  1
  Ni  Ni177  1  0.59170929  0.40954612  0.58166610  1
  Ni  Ni178  1  0.03102840  0.91036471  0.16485216  1
  Ni  Ni179  1  0.47821515  0.56992082  0.53494032  1
  Ni  Ni180  1  0.05052193  0.31544825  0.23337908  1
  Ni  Ni181  1  0.30204253  0.76562784  0.21153788  1
  Ni  Ni182  1  0.00185416  0.16197761  0.47092233  1
  Ni  Ni183  1  0.00454366  0.49887199  0.85270309  1
  Ni  Ni184  1  0.08907462  -0.07220547  0.55641858  1
  Ni  Ni185  1  0.19765696  0.21726680  0.75354758  1
  Ni  Ni186  1  0.60060051  0.51094127  0.43169273  1
  Ni  Ni187  1  0.72299087  0.06800080  0.35957138  1
  Ni  Ni188  1  0.40136030  0.35990122  -0.10135748  1
  Ni  Ni189  1  0.63414336  0.39722338  0.31269962  1
  Ni  Ni190  1  0.34381795  0.44274505  0.75496561  1
  Ni  Ni191  1  0.69620932  0.76951539  0.40652533  1
  Ni  Ni192  1  -0.02052283  0.32475622  0.07881237  1
  Ni  Ni193  1  0.34523950  0.40142951  0.41757135  1
  Ni  Ni194  1  0.46781629  0.14425754  0.61992923  1
  Ni  Ni195  1  0.63661491  0.01582538  0.06597898  1
  Ni  Ni196  1  0.38264747  0.54589185  0.88565468  1
  Ni  Ni197  1  0.18202027  0.53774642  0.08554631  1
  Ni  Ni198  1  0.42930849  0.54642341  0.19582766  1
  Ni  Ni199  1  0.84895219  0.28937018  0.74093518  1
  Ni  Ni200  1  0.39175701  0.19580088  0.76557173  1
  Ni  Ni201  1  0.23068899  0.38973005  0.53732425  1
  Ni  Ni202  1  0.24164616  0.57749198  0.79181773  1
  Ni  Ni203  1  -0.03192186  0.86607526  0.44699643  1
  Ni  Ni204  1  0.38295201  0.70427252  0.49585760  1
  Ni  Ni205  1  0.14203798  0.09494822  0.18875925  1
  Ni  Ni206  1  0.91573079  0.41872307  0.23450344  1
  Ni  Ni207  1  0.54680874  0.62498016  0.77697429  1
  Ni  Ni208  1  -0.00686744  0.31419421  0.63342261  1
  Ni  Ni209  1  0.82223229  0.55555552  0.52579125  1
  Ni  Ni210  1  -0.06911650  0.73164593  -0.04117273  1
  Ni  Ni211  1  -0.00229310  -0.03213401  0.70367884  1
  Ni  Ni212  1  0.57714204  0.00702108  0.60826898  1
  Ni  Ni213  1  0.69838554  0.22334475  0.29226233  1
  Ni  Ni214  1  0.80023102  0.79176371  0.04675177  1
