# generated using pymatgen
data_Ti108Co54Ni53
_symmetry_space_group_name_H-M   'P 1'
_cell_length_a   14.64415762
_cell_length_b   14.55359116
_cell_length_c   14.62644537
_cell_angle_alpha   89.84755479
_cell_angle_beta   89.76355492
_cell_angle_gamma   89.94051235
_symmetry_Int_Tables_number   1
_chemical_formula_structural   Ti108Co54Ni53
_chemical_formula_sum   'Ti108 Co54 Ni53'
_cell_volume   3117.22316122
_cell_formula_units_Z   1
loop_
 _symmetry_equiv_pos_site_id
 _symmetry_equiv_pos_as_xyz
  1  'x, y, z'
loop_
 _atom_site_type_symbol
 _atom_site_label
 _atom_site_symmetry_multiplicity
 _atom_site_fract_x
 _atom_site_fract_y
 _atom_site_fract_z
 _atom_site_occupancy
  Ti  Ti0  1  0.09242686  0.10044888  0.31913832  1
  Ti  Ti1  1  0.10707987  0.00104833  0.62423233  1
  Ti  Ti2  1  0.07204640  0.08040730  0.85981999  1
  Ti  Ti3  1  0.02352183  0.46086216  0.20869081  1
  Ti  Ti4  1  0.12125836  0.43200848  0.59485261  1
  Ti  Ti5  1  0.08627044  0.47204503  0.83926818  1
  Ti  Ti6  1  0.10481934  0.79496582  0.28273828  1
  Ti  Ti7  1  0.12548024  0.72286662  0.63527848  1
  Ti  Ti8  1  0.09759879  0.71988159  0.94725989  1
  Ti  Ti9  1  0.42822699  0.04264160  0.21010561  1
  Ti  Ti10  1  0.42702741  0.03556976  0.60290259  1
  Ti  Ti11  1  0.45214356  0.05893902  0.94320687  1
  Ti  Ti12  1  0.40404054  0.43262354  0.30326599  1
  Ti  Ti13  1  0.39518237  0.35258870  0.59074140  1
  Ti  Ti14  1  0.38333933  0.37115389  0.87644039  1
  Ti  Ti15  1  0.36194398  0.75382494  0.31250677  1
  Ti  Ti16  1  0.47043956  0.77470976  0.62064175  1
  Ti  Ti17  1  0.40298045  0.74922455  0.93748521  1
  Ti  Ti18  1  0.78158260  0.17693225  0.28664538  1
  Ti  Ti19  1  0.78444773  0.07269212  0.53123294  1
  Ti  Ti20  1  0.76610045  0.05579788  0.97521723  1
  Ti  Ti21  1  0.74563470  0.36706657  0.20996764  1
  Ti  Ti22  1  0.68604589  0.47038115  0.58588503  1
  Ti  Ti23  1  0.68809040  0.47162063  0.92202702  1
  Ti  Ti24  1  0.73262723  0.86104125  0.27194808  1
  Ti  Ti25  1  0.84915959  0.74205381  0.58679977  1
  Ti  Ti26  1  0.72491125  0.74775201  0.87227598  1
  Ti  Ti27  1  0.10941426  0.28793584  0.11251620  1
  Ti  Ti28  1  0.14605779  0.29204313  0.41274545  1
  Ti  Ti29  1  0.08451290  0.29601047  0.73935161  1
  Ti  Ti30  1  0.10396653  0.58550509  0.07948278  1
  Ti  Ti31  1  0.09864621  0.52645713  0.38714949  1
  Ti  Ti32  1  0.02245028  0.55986382  0.68528902  1
  Ti  Ti33  1  0.08756136  0.96231279  0.15548038  1
  Ti  Ti34  1  0.12125986  0.94273383  0.44492809  1
  Ti  Ti35  1  0.05502879  0.87432778  0.83245339  1
  Ti  Ti36  1  0.45983413  0.29546701  0.03806017  1
  Ti  Ti37  1  0.35243712  0.26610986  0.42776253  1
  Ti  Ti38  1  0.38238226  0.18783494  0.71782092  1
  Ti  Ti39  1  0.40708439  0.57047159  0.05928122  1
  Ti  Ti40  1  0.43085527  0.59722033  0.39197606  1
  Ti  Ti41  1  0.44064466  0.59510689  0.72725461  1
  Ti  Ti42  1  0.33684807  0.95063819  0.05239635  1
  Ti  Ti43  1  0.40529642  0.90273688  0.47137184  1
  Ti  Ti44  1  0.35840111  0.88829788  0.73389109  1
  Ti  Ti45  1  0.77610474  0.24338440  0.03279868  1
  Ti  Ti46  1  0.75408452  0.29450826  0.45124718  1
  Ti  Ti47  1  0.71799920  0.18464729  0.84479398  1
  Ti  Ti48  1  0.76063908  0.55262208  0.12875859  1
  Ti  Ti49  1  0.73786909  0.58874629  0.45724344  1
  Ti  Ti50  1  0.65790937  0.56701385  0.75682404  1
  Ti  Ti51  1  0.75729845  0.93020467  0.10147734  1
  Ti  Ti52  1  0.78031495  0.87275077  0.47130958  1
  Ti  Ti53  1  0.72644108  0.95387826  0.81171576  1
  Ti  Ti54  1  0.26352354  0.16190928  0.06629221  1
  Ti  Ti55  1  0.28833240  0.06907539  0.34198042  1
  Ti  Ti56  1  0.29871451  0.05368202  0.83334068  1
  Ti  Ti57  1  0.25880200  0.41964335  0.13844972  1
  Ti  Ti58  1  0.27490319  0.45733681  0.45454982  1
  Ti  Ti59  1  0.29012960  0.44898208  0.72299622  1
  Ti  Ti60  1  0.20591077  0.77101684  0.11289187  1
  Ti  Ti61  1  0.16844367  0.73589931  0.44643392  1
  Ti  Ti62  1  0.27799272  0.67669531  0.81193281  1
  Ti  Ti63  1  0.58237023  0.02020999  0.07001138  1
  Ti  Ti64  1  0.60586526  0.15815921  0.42747997  1
  Ti  Ti65  1  0.59967901  0.09804134  0.70087113  1
  Ti  Ti66  1  0.60578821  0.41510092  0.09922927  1
  Ti  Ti67  1  0.60778140  0.44580302  0.38873564  1
  Ti  Ti68  1  0.64457178  0.34677723  0.75098195  1
  Ti  Ti69  1  0.56536089  0.75056412  0.08132767  1
  Ti  Ti70  1  0.55773810  0.80982617  0.33594950  1
  Ti  Ti71  1  0.66418995  0.81124039  0.66166525  1
  Ti  Ti72  1  0.91895747  0.09987366  0.14020067  1
  Ti  Ti73  1  0.89629483  0.01559073  0.37172123  1
  Ti  Ti74  1  0.88126813  0.07116063  0.82127588  1
  Ti  Ti75  1  0.96115706  0.39464884  0.01613168  1
  Ti  Ti76  1  0.89218167  0.52750272  0.35789614  1
  Ti  Ti77  1  0.90414416  0.44525581  0.81938819  1
  Ti  Ti78  1  0.80161568  0.74064759  0.07692755  1
  Ti  Ti79  1  0.98491383  0.81341289  0.46472302  1
  Ti  Ti80  1  0.95995025  0.72642335  0.75152369  1
  Ti  Ti81  1  0.36714734  0.24795065  0.21291908  1
  Ti  Ti82  1  0.23518368  0.16075585  0.57103749  1
  Ti  Ti83  1  0.21471301  0.21645741  0.87516109  1
  Ti  Ti84  1  0.29629510  0.61099593  0.20530292  1
  Ti  Ti85  1  0.31129913  0.60537215  0.56896614  1
  Ti  Ti86  1  0.24422648  0.52019579  0.93399207  1
  Ti  Ti87  1  0.29507451  0.89542459  0.22008577  1
  Ti  Ti88  1  0.25164173  0.86647357  0.58191725  1
  Ti  Ti89  1  0.24235197  0.86114153  0.90652709  1
  Ti  Ti90  1  0.58267159  0.19919980  0.18805025  1
  Ti  Ti91  1  0.57997950  0.32668206  0.55932847  1
  Ti  Ti92  1  0.52135388  0.21318059  0.85642173  1
  Ti  Ti93  1  0.64746142  0.66266608  0.22678864  1
  Ti  Ti94  1  0.55952307  0.61634617  0.56488013  1
  Ti  Ti95  1  0.54320924  0.60701879  0.91187139  1
  Ti  Ti96  1  0.61119192  1.02052499  0.27019706  1
  Ti  Ti97  1  0.60093494  0.92804551  0.50028475  1
  Ti  Ti98  1  0.54825942  0.89639705  0.81693726  1
  Ti  Ti99  1  0.98642253  0.25387605  0.27202921  1
  Ti  Ti100  1  0.85080554  0.26683368  0.71517464  1
  Ti  Ti101  1  0.94461071  0.24977338  0.87976364  1
  Ti  Ti102  1  0.95389089  0.65375291  0.20371541  1
  Ti  Ti103  1  0.85970832  0.54444365  0.60712252  1
  Ti  Ti104  1  0.84377627  0.58411486  0.94816026  1
  Ti  Ti105  1  0.91588272  0.86094103  0.19890813  1
  Ti  Ti106  1  0.85234747  0.93440342  0.66453497  1
  Ti  Ti107  1  0.95489077  0.85965482  1.00680523  1
  Co  Co108  1  0.27368373  0.32796027  0.00758898  1
  Co  Co109  1  0.04734640  0.77162256  0.12396875  1
  Co  Co110  1  0.42554247  0.42395372  0.13714061  1
  Co  Co111  1  0.25931707  0.28658901  0.71868113  1
  Co  Co112  1  0.87856794  0.81155651  0.34404964  1
  Co  Co113  1  0.80204290  0.87370781  -0.04840291  1
  Co  Co114  1  0.27849265  0.02896470  0.66607700  1
  Co  Co115  1  0.12172226  0.35894384  0.26752294  1
  Co  Co116  1  0.57088467  0.70950603  0.75248210  1
  Co  Co117  1  0.64279954  0.75359180  0.51093603  1
  Co  Co118  1  -0.01885892  0.59643035  0.86953465  1
  Co  Co119  1  0.89514418  -0.10083190  0.82562190  1
  Co  Co120  1  0.86946539  0.68144051  0.43498924  1
  Co  Co121  1  0.14577421  0.58222403  0.53115809  1
  Co  Co122  1  -0.00816570  0.49834335  0.51641257  1
  Co  Co123  1  0.91295786  0.13673095  -0.01918245  1
  Co  Co124  1  0.49833414  0.45533899  -0.01792945  1
  Co  Co125  1  0.07987654  0.12886905  0.15671887  1
  Co  Co126  1  0.77293796  0.10574662  0.70196138  1
  Co  Co127  1  0.49042642  0.73812040  0.46083830  1
  Co  Co128  1  0.26731406  -0.12616287  0.38862453  1
  Co  Co129  1  0.16694406  0.95633896  0.29291291  1
  Co  Co130  1  0.65910115  0.28527724  0.32106831  1
  Co  Co131  1  0.31712634  0.73290424  0.66579709  1
  Co  Co132  1  0.21654775  0.37728801  0.85258432  1
  Co  Co133  1  0.76186614  0.33296956  0.60866748  1
  Co  Co134  1  0.46480458  0.04025839  0.77650032  1
  Co  Co135  1  0.38981655  0.55864667  0.87865179  1
  Co  Co136  1  0.27106464  0.33630374  0.30918181  1
  Co  Co137  1  0.77490123  0.44709345  0.73650982  1
  Co  Co138  1  0.60377621  0.88691338  0.16619721  1
  Co  Co139  1  0.23803508  0.05744187  0.18333022  1
  Co  Co140  1  0.49186153  0.88556155  0.02252297  1
  Co  Co141  1  -0.10408603  0.74587071  0.89816381  1
  Co  Co142  1  0.16620001  0.13909018  0.72209416  1
  Co  Co143  1  -0.08117314  0.52939350  0.09189514  1
  Co  Co144  1  0.36882745  0.20076228  0.92751112  1
  Co  Co145  1  0.80857739  0.69644581  0.24211673  1
  Co  Co146  1  0.56680037  0.57176545  0.08899022  1
  Co  Co147  1  -0.00138171  -0.01026968  0.73388022  1
  Co  Co148  1  0.25909495  0.00953966  0.50369517  1
  Co  Co149  1  -0.00378669  0.66343038  0.54853822  1
  Co  Co150  1  0.69099295  -0.02361707  0.63439759  1
  Co  Co151  1  0.19267717  0.21053085  0.24351529  1
  Co  Co152  1  0.84563942  0.43007615  0.48349863  1
  Co  Co153  1  0.52938629  0.92598909  0.65477614  1
  Co  Co154  1  0.80732587  0.78668913  0.74572104  1
  Co  Co155  1  0.17209477  -0.02438859  0.77717021  1
  Co  Co156  1  0.45515019  -0.15734675  0.18052612  1
  Co  Co157  1  0.20981515  0.03683596  -0.02985212  1
  Co  Co158  1  -0.03983001  0.67314729  0.02996203  1
  Co  Co159  1  0.64699585  -0.09533029  -0.03155483  1
  Co  Co160  1  0.43504686  0.91857856  0.31425002  1
  Co  Co161  1  0.00843930  -0.07109887  0.31817932  1
  Ni  Ni162  1  0.60896354  0.05697575  0.88188833  1
  Ni  Ni163  1  0.12291878  0.88913744  0.00913399  1
  Ni  Ni164  1  0.13296798  0.43217489  0.01998493  1
  Ni  Ni165  1  0.72343379  0.73485215  0.37512394  1
  Ni  Ni166  1  0.01603358  0.01665086  0.00974030  1
  Ni  Ni167  1  0.44085230  0.49676176  0.52549125  1
  Ni  Ni168  1  0.71660771  0.65189452  0.63187328  1
  Ni  Ni169  1  0.73138594  0.51914129  0.29489354  1
  Ni  Ni170  1  0.47257771  0.32873107  0.73367227  1
  Ni  Ni171  1  0.61375530  0.32668968  -0.06221927  1
  Ni  Ni172  1  0.56694054  0.77076508  0.91556913  1
  Ni  Ni173  1  0.00756211  0.84851990  0.63330492  1
  Ni  Ni174  1  0.33306180  0.74585024  0.48553021  1
  Ni  Ni175  1  0.09091409  0.16328957  -0.00027766  1
  Ni  Ni176  1  0.85509381  0.35002303  0.32600348  1
  Ni  Ni177  1  0.72070352  0.01679690  0.38848277  1
  Ni  Ni178  1  0.46176121  0.16676987  0.32655606  1
  Ni  Ni179  1  -0.00805893  0.15760044  0.72210609  1
  Ni  Ni180  1  0.59159074  0.62573761  0.37914287  1
  Ni  Ni181  1  0.13000719  0.62895936  0.24330244  1
  Ni  Ni182  1  0.72067142  0.11605681  0.13548373  1
  Ni  Ni183  1  0.26392134  0.67037240  -0.00420964  1
  Ni  Ni184  1  0.55352344  0.51848654  0.24784867  1
  Ni  Ni185  1  0.38274556  0.11171228  0.46800383  1
  Ni  Ni186  1  0.22365717  0.48895868  0.28867490  1
  Ni  Ni187  1  0.08560974  0.31160305  -0.07556411  1
  Ni  Ni188  1  0.61596596  0.17718590  0.01122210  1
  Ni  Ni189  1  0.01654515  0.67090078  0.36565043  1
  Ni  Ni190  1  0.53041868  0.45742567  0.82453069  1
  Ni  Ni191  1  0.68491147  0.63895520  -0.00147545  1
  Ni  Ni192  1  0.39871276  0.91472624  0.88920151  1
  Ni  Ni193  1  0.67426675  0.18919843  0.58588418  1
  Ni  Ni194  1  0.11464679  0.65884738  0.79953792  1
  Ni  Ni195  1  0.89220971  0.29871965  0.14544386  1
  Ni  Ni196  1  -0.04625596  0.40117678  0.65779556  1
  Ni  Ni197  1  0.00000645  0.38843515  0.38694977  1
  Ni  Ni198  1  0.26107661  0.61874246  0.38079841  1
  Ni  Ni199  1  0.80043997  0.01501847  0.23798351  1
  Ni  Ni200  1  0.37061491  0.74084410  0.10323750  1
  Ni  Ni201  1  0.78534814  0.33449056  0.87684707  1
  Ni  Ni202  1  0.83125675  0.61239182  0.77038538  1
  Ni  Ni203  1  0.53449315  0.34885892  0.23977767  1
  Ni  Ni204  1  0.19419399  0.81741978  0.74957828  1
  Ni  Ni205  1  0.44582357  0.14008755  0.08208788  1
  Ni  Ni206  1  0.19528024  0.57215286  0.69190930  1
  Ni  Ni207  1  0.51287183  0.30751299  0.40638377  1
  Ni  Ni208  1  0.50725382  0.02659653  0.40628950  1
  Ni  Ni209  1  0.79556086  0.41229367  0.03866909  1
  Ni  Ni210  1  0.23674135  0.32557454  0.55930754  1
  Ni  Ni211  1  0.47378650  0.66300628  0.21287184  1
  Ni  Ni212  1  0.48621707  0.19499876  0.56517784  1
  Ni  Ni213  1  0.53078053  0.46557214  0.65996320  1
  Ni  Ni214  1  0.94217270  -0.03512521  0.52651667  1
