# generated using pymatgen
data_Ti108Co54Ni53
_symmetry_space_group_name_H-M   'P 1'
_cell_length_a   14.71254603
_cell_length_b   14.61645684
_cell_length_c   14.61046693
_cell_angle_alpha   89.58270684
_cell_angle_beta   90.41757257
_cell_angle_gamma   89.98556513
_symmetry_Int_Tables_number   1
_chemical_formula_structural   Ti108Co54Ni53
_chemical_formula_sum   'Ti108 Co54 Ni53'
_cell_volume   3141.74524056
_cell_formula_units_Z   1
loop_
 _symmetry_equiv_pos_site_id
 _symmetry_equiv_pos_as_xyz
  1  'x, y, z'
loop_
 _atom_site_type_symbol
 _atom_site_label
 _atom_site_symmetry_multiplicity
 _atom_site_fract_x
 _atom_site_fract_y
 _atom_site_fract_z
 _atom_site_occupancy
  Ti  Ti0  1  0.11712864  0.01975579  0.19846352  1
  Ti  Ti1  1  0.04750410  0.08086542  0.57715637  1
  Ti  Ti2  1  0.06218084  0.13835058  0.90973244  1
  Ti  Ti3  1  0.13733251  0.37919650  0.22828896  1
  Ti  Ti4  1  0.07852903  0.40421678  0.53759877  1
  Ti  Ti5  1  0.09121276  0.42903725  1.02439766  1
  Ti  Ti6  1  0.05989151  0.81093192  0.23015573  1
  Ti  Ti7  1  0.06306351  0.74518856  0.59391590  1
  Ti  Ti8  1  0.03409657  0.80265359  0.88941232  1
  Ti  Ti9  1  0.42497979  0.08070714  0.29272967  1
  Ti  Ti10  1  0.44035902  0.15476191  0.61318397  1
  Ti  Ti11  1  0.33895270  0.00180090  0.86564000  1
  Ti  Ti12  1  0.46473344  0.43299020  0.18724165  1
  Ti  Ti13  1  0.45281441  0.35762283  0.64626879  1
  Ti  Ti14  1  0.36663184  0.45049078  0.92195278  1
  Ti  Ti15  1  0.46668728  0.73058787  0.22278565  1
  Ti  Ti16  1  0.38296387  0.82378409  0.56860765  1
  Ti  Ti17  1  0.41062352  0.79883498  0.90015213  1
  Ti  Ti18  1  0.77673798  0.11887419  0.24557016  1
  Ti  Ti19  1  0.78153334  0.12465551  0.70141902  1
  Ti  Ti20  1  0.76794025  0.12602724  0.91123172  1
  Ti  Ti21  1  0.70402031  0.41640523  0.19356322  1
  Ti  Ti22  1  0.78331844  0.45090994  0.59641654  1
  Ti  Ti23  1  0.85428624  0.43972713  0.87914917  1
  Ti  Ti24  1  0.77085569  0.77248426  0.29504446  1
  Ti  Ti25  1  0.76817209  0.80990456  0.61769566  1
  Ti  Ti26  1  0.71966188  0.75990783  0.93648483  1
  Ti  Ti27  1  0.07347516  0.19479562  0.10912883  1
  Ti  Ti28  1  0.09279494  0.27098530  0.40707104  1
  Ti  Ti29  1  0.10436023  0.21640991  0.71896328  1
  Ti  Ti30  1  0.01122068  0.61338289  0.11839237  1
  Ti  Ti31  1  -0.07899068  0.53978544  0.39008977  1
  Ti  Ti32  1  0.08498885  0.54539167  0.72512249  1
  Ti  Ti33  1  0.14250527  0.88227920  0.04030749  1
  Ti  Ti34  1  0.08165781  0.90604636  0.46036033  1
  Ti  Ti35  1  0.11741564  0.99326072  0.76995759  1
  Ti  Ti36  1  0.43099167  0.22454543  0.11403804  1
  Ti  Ti37  1  0.41495626  0.29795424  0.45080664  1
  Ti  Ti38  1  0.41099918  0.27194912  0.84966167  1
  Ti  Ti39  1  0.44078053  0.62479738  -0.00771175  1
  Ti  Ti40  1  0.42369643  0.59580326  0.43598223  1
  Ti  Ti41  1  0.41147663  0.61450444  0.79090999  1
  Ti  Ti42  1  0.46301442  0.95403624  0.01351892  1
  Ti  Ti43  1  0.38253591  1.00491262  0.48570954  1
  Ti  Ti44  1  0.47173778  0.95731920  0.73934884  1
  Ti  Ti45  1  0.72678306  0.24084555  0.07580915  1
  Ti  Ti46  1  0.72251629  0.25129301  0.38477205  1
  Ti  Ti47  1  0.79908900  0.30959698  0.72854946  1
  Ti  Ti48  1  0.77547280  0.55200683  0.03118083  1
  Ti  Ti49  1  0.73672631  0.46688461  0.40421203  1
  Ti  Ti50  1  0.71000617  0.61834762  0.66207772  1
  Ti  Ti51  1  0.72424293  0.90226591  0.09940583  1
  Ti  Ti52  1  0.75714648  0.89865683  0.44172244  1
  Ti  Ti53  1  0.75562218  0.93357924  0.77437434  1
  Ti  Ti54  1  0.27258935  0.09064878  0.05025505  1
  Ti  Ti55  1  0.19606174  0.05163541  0.38114243  1
  Ti  Ti56  1  0.24962450  0.11169605  0.68365901  1
  Ti  Ti57  1  0.28627357  0.39257770  0.10121053  1
  Ti  Ti58  1  0.30718681  0.43571953  0.33394882  1
  Ti  Ti59  1  0.18172035  0.38663517  0.85095039  1
  Ti  Ti60  1  0.29499483  0.71334853  0.08536324  1
  Ti  Ti61  1  0.37027280  0.80590529  0.36933311  1
  Ti  Ti62  1  0.23684098  0.69184148  0.70045900  1
  Ti  Ti63  1  0.59878389  0.08741014  0.03881104  1
  Ti  Ti64  1  0.61097888  0.07233916  0.38821126  1
  Ti  Ti65  1  0.60605078  0.07174258  0.69938993  1
  Ti  Ti66  1  0.58307857  0.45917894  0.04631761  1
  Ti  Ti67  1  0.57592086  0.41513905  0.49008615  1
  Ti  Ti68  1  0.59413790  0.38045168  0.80178888  1
  Ti  Ti69  1  0.57003285  0.77628196  0.05218501  1
  Ti  Ti70  1  0.58850100  0.75521216  0.38270084  1
  Ti  Ti71  1  0.50459099  0.75994326  0.71889125  1
  Ti  Ti72  1  0.91906643  0.06386507  0.04095486  1
  Ti  Ti73  1  0.91137213  0.00553328  0.40443536  1
  Ti  Ti74  1  0.94388135  0.07414429  0.77559691  1
  Ti  Ti75  1  0.94594258  0.46176779  0.19471204  1
  Ti  Ti76  1  0.89571315  0.34205360  0.44242294  1
  Ti  Ti77  1  0.99891315  0.36136321  0.72887466  1
  Ti  Ti78  1  0.88800247  0.76326578  0.15087849  1
  Ti  Ti79  1  0.88484811  0.71826344  0.45719837  1
  Ti  Ti80  1  0.85402049  0.75908355  0.80900054  1
  Ti  Ti81  1  0.26306605  0.23287950  0.33742024  1
  Ti  Ti82  1  0.26745173  0.28518904  0.60247462  1
  Ti  Ti83  1  0.24260251  0.17857888  0.86743042  1
  Ti  Ti84  1  0.24165556  0.60654187  0.27206171  1
  Ti  Ti85  1  0.30407636  0.50026998  0.63982772  1
  Ti  Ti86  1  0.21394504  0.56909474  0.97007033  1
  Ti  Ti87  1  0.28124351  0.90272842  0.17485440  1
  Ti  Ti88  1  0.20929529  0.88721551  0.63191240  1
  Ti  Ti89  1  0.22139112  0.83312302  0.84908687  1
  Ti  Ti90  1  0.53649818  0.24151410  0.29341468  1
  Ti  Ti91  1  0.62492265  0.26978985  0.63548917  1
  Ti  Ti92  1  0.57843786  0.25086227  0.94641478  1
  Ti  Ti93  1  0.58559997  0.56149101  0.30736831  1
  Ti  Ti94  1  0.50504183  0.56688331  0.62051917  1
  Ti  Ti95  1  0.65852199  0.59233323  0.84660059  1
  Ti  Ti96  1  0.58335735  0.96236701  0.21789531  1
  Ti  Ti97  1  0.57077781  0.88808316  0.52931875  1
  Ti  Ti98  1  0.59005233  0.89066832  0.87381229  1
  Ti  Ti99  1  0.96005756  0.26523721  0.25546792  1
  Ti  Ti100  1  0.85804806  0.17217047  0.53423558  1
  Ti  Ti101  1  0.90958235  0.27178345  0.97703545  1
  Ti  Ti102  1  0.80972936  0.59044420  0.23052626  1
  Ti  Ti103  1  0.89679426  0.62927005  0.64872458  1
  Ti  Ti104  1  1.00308339  0.61741376  0.91388223  1
  Ti  Ti105  1  0.88911766  0.95288651  0.20910743  1
  Ti  Ti106  1  0.87681165  0.97703988  0.60903339  1
  Ti  Ti107  1  0.87463065  0.86229368  0.98891026  1
  Co  Co108  1  0.41764829  0.80994292  0.08116064  1
  Co  Co109  1  0.01911233  0.75860813  0.04870822  1
  Co  Co110  1  -0.03729079  0.09655289  0.23868273  1
  Co  Co111  1  0.68717758  0.75449947  0.77126379  1
  Co  Co112  1  -0.00710594  0.33464456  0.10329116  1
  Co  Co113  1  0.06932309  0.55759512  0.26661588  1
  Co  Co114  1  0.42197057  0.12810523  -0.02852807  1
  Co  Co115  1  0.40319055  0.44865066  0.51291212  1
  Co  Co116  1  0.73168564  0.62762044  0.36625743  1
  Co  Co117  1  0.76149660  0.06569810  0.09310419  1
  Co  Co118  1  0.37908836  0.66894169  0.62400718  1
  Co  Co119  1  0.54610215  0.04825876  0.54091790  1
  Co  Co120  1  0.32536985  -0.04027105  0.32890625  1
  Co  Co121  1  0.12608871  0.18085002  0.26341360  1
  Co  Co122  1  0.00293054  0.68641880  0.75642277  1
  Co  Co123  1  0.16698276  0.39966339  0.67491029  1
  Co  Co124  1  0.79429724  0.59030836  0.51052569  1
  Co  Co125  1  0.09918817  0.81497373  0.73818983  1
  Co  Co126  1  0.70265586  -0.03034861  -0.04623584  1
  Co  Co127  1  0.51903429  0.21609414  0.75133356  1
  Co  Co128  1  0.74370662  0.30722572  0.53349307  1
  Co  Co129  1  0.46214085  0.14487666  0.43410660  1
  Co  Co130  1  0.57897991  0.24780592  0.47654725  1
  Co  Co131  1  0.14480858  0.66935596  0.83066446  1
  Co  Co132  1  0.82288157  0.60673100  0.82589220  1
  Co  Co133  1  0.15085431  0.19185986  0.53242716  1
  Co  Co134  1  0.88084119  0.19947435  0.12462605  1
  Co  Co135  1  0.16438444  0.72487726  -0.01852640  1
  Co  Co136  1  0.61504381  0.62419712  0.00478856  1
  Co  Co137  1  0.39500858  0.11808153  0.77290091  1
  Co  Co138  1  0.09464315  0.04573627  0.04243002  1
  Co  Co139  1  0.46125028  0.35476420  1.01515871  1
  Co  Co140  1  0.89751415  0.48505037  0.72355538  1
  Co  Co141  1  0.48821575  0.72291446  0.50660922  1
  Co  Co142  1  0.52567534  0.51333911  -0.09873010  1
  Co  Co143  1  0.94805561  0.19534576  0.66662514  1
  Co  Co144  1  0.75505070  0.29255996  0.90029475  1
  Co  Co145  1  -0.00936996  0.91565261  0.08986605  1
  Co  Co146  1  0.43972179  0.45771453  0.77040644  1
  Co  Co147  1  -0.09161689  0.33762749  0.59830955  1
  Co  Co148  1  0.71782156  0.73938382  0.47969496  1
  Co  Co149  1  0.76551887  0.07062577  0.42114115  1
  Co  Co150  1  -0.06950629  0.86288085  0.50669633  1
  Co  Co151  1  0.03757673  -0.04203653  0.31473281  1
  Co  Co152  1  -0.05870785  0.67156846  0.28430128  1
  Co  Co153  1  0.60925380  0.12920470  0.19854577  1
  Co  Co154  1  0.18500680  0.88249006  0.30744565  1
  Co  Co155  1  0.29817241  0.67802489  -0.11791000  1
  Co  Co156  1  0.25258421  0.53200004  0.79571723  1
  Co  Co157  1  0.73885654  0.47306381  0.76272106  1
  Co  Co158  1  -0.09947867  0.22475217  0.82307568  1
  Co  Co159  1  0.55207714  0.71732267  0.87953257  1
  Co  Co160  1  0.18799013  0.00570442  0.91717597  1
  Co  Co161  1  0.40864464  0.57546210  0.27506437  1
  Ni  Ni162  1  0.43468337  0.90064844  0.22002090  1
  Ni  Ni163  1  0.83578926  0.39213506  0.29355642  1
  Ni  Ni164  1  0.93503229  0.48561568  0.01999346  1
  Ni  Ni165  1  0.50231879  0.59333832  0.13910932  1
  Ni  Ni166  1  0.34719425  0.83193587  0.73748252  1
  Ni  Ni167  1  0.63322919  0.79592245  0.20976060  1
  Ni  Ni168  1  0.27371184  0.08920948  0.22088766  1
  Ni  Ni169  1  0.25127286  0.88433591  0.46288503  1
  Ni  Ni170  1  0.30491220  0.16045023  0.48873898  1
  Ni  Ni171  1  0.85651336  -0.01339216  0.88872442  1
  Ni  Ni172  1  0.62050524  0.45109427  0.65092595  1
  Ni  Ni173  1  0.88675045  0.17628517  0.37129997  1
  Ni  Ni174  1  0.73888056  0.71397089  0.09964513  1
  Ni  Ni175  1  0.61542604  0.37884473  0.32326821  1
  Ni  Ni176  1  0.61730182  0.88795863  0.69147758  1
  Ni  Ni177  1  0.66650989  0.20310823  0.79837852  1
  Ni  Ni178  1  0.04105478  0.10912734  0.39611006  1
  Ni  Ni179  1  0.03752809  -0.08041078  0.62849400  1
  Ni  Ni180  1  0.30143797  -0.10468580  -0.00340764  1
  Ni  Ni181  1  0.21354558  0.02850209  0.54376998  1
  Ni  Ni182  1  0.31908395  0.26442196  -0.00803050  1
  Ni  Ni183  1  0.44602159  0.06027694  0.13153254  1
  Ni  Ni184  1  0.01935635  -0.03244593  -0.08121982  1
  Ni  Ni185  1  0.17230283  0.53080269  0.13809395  1
  Ni  Ni186  1  0.24783772  0.39926919  0.49270787  1
  Ni  Ni187  1  0.92528109  0.83601579  0.33685942  1
  Ni  Ni188  1  0.14976920  0.70063739  0.15272148  1
  Ni  Ni189  1  0.87280855  0.68302619  -0.00905319  1
  Ni  Ni190  1  0.30810228  0.36373441  0.75379583  1
  Ni  Ni191  1  0.68844514  0.43542249  -0.07135060  1
  Ni  Ni192  1  0.58228418  0.29612728  0.13087290  1
  Ni  Ni193  1  0.49397175  0.92717533  0.37583384  1
  Ni  Ni194  1  0.16226094  0.27973267  0.00199552  1
  Ni  Ni195  1  0.54218318  0.07348154  0.86941008  1
  Ni  Ni196  1  0.38105012  0.30291123  0.25519975  1
  Ni  Ni197  1  0.15301616  0.46353891  0.37889812  1
  Ni  Ni198  1  0.83128723  0.37451100  0.09517837  1
  Ni  Ni199  1  -0.05554048  0.49940609  0.55588482  1
  Ni  Ni200  1  0.46960142  0.43851033  0.35502559  1
  Ni  Ni201  1  0.71180001  -0.01473437  0.58634600  1
  Ni  Ni202  1  0.02466833  0.46269420  0.86784238  1
  Ni  Ni203  1  0.61437583  0.60335701  0.49229846  1
  Ni  Ni204  1  0.24568124  0.23765448  0.15253415  1
  Ni  Ni205  1  0.68866246  0.14342921  0.54730489  1
  Ni  Ni206  1  0.73688446  -0.04455972  0.28475246  1
  Ni  Ni207  1  0.33888126  0.55001627  0.12215737  1
  Ni  Ni208  1  0.92567932  0.80088627  0.65909679  1
  Ni  Ni209  1  0.61454120  0.73754299  0.60646749  1
  Ni  Ni210  1  -0.05115888  0.90565824  0.77730814  1
  Ni  Ni211  1  0.04560146  0.29694313  0.88097039  1
  Ni  Ni212  1  0.34427506  -0.01480264  0.65220802  1
  Ni  Ni213  1  0.00986374  0.40896376  0.34263107  1
  Ni  Ni214  1  0.65968518  0.57978289  0.15767366  1
