# generated using pymatgen
data_Ti108Co54Ni53
_symmetry_space_group_name_H-M   'P 1'
_cell_length_a   14.59966671
_cell_length_b   14.67464029
_cell_length_c   14.60942653
_cell_angle_alpha   89.97737427
_cell_angle_beta   89.98105729
_cell_angle_gamma   90.20479705
_symmetry_Int_Tables_number   1
_chemical_formula_structural   Ti108Co54Ni53
_chemical_formula_sum   'Ti108 Co54 Ni53'
_cell_volume   3129.97409154
_cell_formula_units_Z   1
loop_
 _symmetry_equiv_pos_site_id
 _symmetry_equiv_pos_as_xyz
  1  'x, y, z'
loop_
 _atom_site_type_symbol
 _atom_site_label
 _atom_site_symmetry_multiplicity
 _atom_site_fract_x
 _atom_site_fract_y
 _atom_site_fract_z
 _atom_site_occupancy
  Ti  Ti0  1  0.10379262  0.12009773  0.28702287  1
  Ti  Ti1  1  0.08081129  0.00786992  0.53394120  1
  Ti  Ti2  1  0.12226066  0.10167812  0.92964084  1
  Ti  Ti3  1  0.01426318  0.40635755  0.23554037  1
  Ti  Ti4  1  0.05867359  0.36153757  0.62251112  1
  Ti  Ti5  1  0.06321385  0.47440441  0.94352615  1
  Ti  Ti6  1  0.13061400  0.80221657  0.17169871  1
  Ti  Ti7  1  0.05009226  0.81665390  0.60544088  1
  Ti  Ti8  1  0.07641706  0.66643087  1.01732838  1
  Ti  Ti9  1  0.44994791  0.08347689  0.28471985  1
  Ti  Ti10  1  0.47050696  0.07046308  0.63815423  1
  Ti  Ti11  1  0.37523352  0.08647895  0.93064125  1
  Ti  Ti12  1  0.36420807  0.36994896  0.28000788  1
  Ti  Ti13  1  0.43411846  0.41976521  0.64892296  1
  Ti  Ti14  1  0.40444315  0.33187040  0.96609518  1
  Ti  Ti15  1  0.43752082  0.71276003  0.30118554  1
  Ti  Ti16  1  0.47967265  0.75930708  0.52406766  1
  Ti  Ti17  1  0.43907088  0.81393264  0.89146922  1
  Ti  Ti18  1  0.73809692  0.08719298  0.26347468  1
  Ti  Ti19  1  0.76372720  0.13119619  0.55677047  1
  Ti  Ti20  1  0.80565319  0.00363857  0.91270053  1
  Ti  Ti21  1  0.81524562  0.44261696  0.23390600  1
  Ti  Ti22  1  0.75319935  0.46338003  0.60223254  1
  Ti  Ti23  1  0.64308617  0.40205051  0.94318365  1
  Ti  Ti24  1  0.68404859  0.74681460  0.19987695  1
  Ti  Ti25  1  0.70193340  0.79649962  0.59481910  1
  Ti  Ti26  1  0.74651476  0.68951911  0.84710792  1
  Ti  Ti27  1  0.08519752  0.26930269  0.06859213  1
  Ti  Ti28  1  0.04839707  0.29484980  0.40123403  1
  Ti  Ti29  1  0.14925543  0.20721103  0.72987384  1
  Ti  Ti30  1  0.15428888  0.60067444  0.19726599  1
  Ti  Ti31  1  0.05463231  0.55936359  0.38323243  1
  Ti  Ti32  1  0.07974648  0.52681964  0.73912636  1
  Ti  Ti33  1  0.03935809  0.97044796  0.10032714  1
  Ti  Ti34  1  0.04478132  0.91593887  0.34632164  1
  Ti  Ti35  1  0.06760932  1.01048563  0.72990544  1
  Ti  Ti36  1  0.45598091  0.18219712  0.08257006  1
  Ti  Ti37  1  0.40521186  0.28617236  0.50787675  1
  Ti  Ti38  1  0.42984005  0.22148103  0.77922198  1
  Ti  Ti39  1  0.40856005  0.62120440  0.01280352  1
  Ti  Ti40  1  0.45937766  0.48145886  0.41701664  1
  Ti  Ti41  1  0.41413331  0.54021158  0.80213179  1
  Ti  Ti42  1  0.42413611  0.91886041  0.04427630  1
  Ti  Ti43  1  0.34600533  0.93731870  0.36016757  1
  Ti  Ti44  1  0.41573102  0.92476490  0.74150240  1
  Ti  Ti45  1  0.74897259  0.25745490  0.05588857  1
  Ti  Ti46  1  0.66432091  0.21628858  0.40497725  1
  Ti  Ti47  1  0.75532024  0.23409061  0.83177588  1
  Ti  Ti48  1  0.77293538  0.57736706  0.08786349  1
  Ti  Ti49  1  0.76573819  0.55705258  0.41467039  1
  Ti  Ti50  1  0.74868321  0.49802922  0.78407672  1
  Ti  Ti51  1  0.72709485  0.87566757  0.03734049  1
  Ti  Ti52  1  0.79206679  0.87790447  0.42010110  1
  Ti  Ti53  1  0.75038618  0.86233496  0.75379023  1
  Ti  Ti54  1  0.22590379  0.12131696  0.12765824  1
  Ti  Ti55  1  0.32332968  0.09121184  0.47728233  1
  Ti  Ti56  1  0.27171570  0.05498388  0.76571455  1
  Ti  Ti57  1  0.32015079  0.46824495  0.11411397  1
  Ti  Ti58  1  0.24953925  0.38253078  0.42585110  1
  Ti  Ti59  1  0.23431349  0.40498250  0.78079054  1
  Ti  Ti60  1  0.27168220  0.74645044  0.03385592  1
  Ti  Ti61  1  0.15849516  0.71696570  0.37937510  1
  Ti  Ti62  1  0.22265901  0.80369201  0.83992752  1
  Ti  Ti63  1  0.57228468  0.01899670  0.13397712  1
  Ti  Ti64  1  0.51586190  0.00322866  0.46277925  1
  Ti  Ti65  1  0.62979669  0.15266332  0.71765972  1
  Ti  Ti66  1  0.52070484  0.48077722  0.09969072  1
  Ti  Ti67  1  0.66784991  0.39467086  0.33599429  1
  Ti  Ti68  1  0.62176536  0.34898758  0.74161693  1
  Ti  Ti69  1  0.55745340  0.75066898  0.02034154  1
  Ti  Ti70  1  0.65343731  0.73773963  0.38718287  1
  Ti  Ti71  1  0.56087825  0.77391105  0.73100153  1
  Ti  Ti72  1  0.86138907  0.06628314  0.10531046  1
  Ti  Ti73  1  0.97629803  0.10653278  0.42039423  1
  Ti  Ti74  1  0.93317055  0.11263767  0.81032148  1
  Ti  Ti75  1  0.89777967  0.41480188  0.03689825  1
  Ti  Ti76  1  0.92517027  0.43084186  0.49772286  1
  Ti  Ti77  1  0.87457859  0.34856402  0.72006532  1
  Ti  Ti78  1  0.89497492  0.73252539  -0.01226227  1
  Ti  Ti79  1  0.95317607  0.74253617  0.41805817  1
  Ti  Ti80  1  0.92271511  0.77793564  0.76672441  1
  Ti  Ti81  1  0.19466068  0.28403868  0.25139506  1
  Ti  Ti82  1  0.21951917  0.25910583  0.56048734  1
  Ti  Ti83  1  0.21456613  0.36926691  0.96642588  1
  Ti  Ti84  1  0.29130104  0.56943616  0.34159397  1
  Ti  Ti85  1  0.20757126  0.57154409  0.52759284  1
  Ti  Ti86  1  0.21254434  0.59549369  0.87555869  1
  Ti  Ti87  1  0.29805436  0.89137381  0.18499322  1
  Ti  Ti88  1  0.22823858  0.87999093  0.50857276  1
  Ti  Ti89  1  0.22388146  0.95289477  1.01761405  1
  Ti  Ti90  1  0.53717043  0.25386404  0.25085880  1
  Ti  Ti91  1  0.59863763  0.33835609  0.54530021  1
  Ti  Ti92  1  0.57120536  0.22124614  0.92153306  1
  Ti  Ti93  1  0.59251368  0.57473254  0.29268847  1
  Ti  Ti94  1  0.65102524  0.62527851  0.56650045  1
  Ti  Ti95  1  0.62343966  0.58796044  0.95830054  1
  Ti  Ti96  1  0.61754671  0.92760658  0.30647129  1
  Ti  Ti97  1  0.65937465  0.98304840  0.61489482  1
  Ti  Ti98  1  0.60374262  0.95850135  0.82479016  1
  Ti  Ti99  1  0.92781218  0.19179822  0.25072201  1
  Ti  Ti100  1  0.89902071  0.25143646  0.53655609  1
  Ti  Ti101  1  0.95977994  0.27678048  0.90151949  1
  Ti  Ti102  1  0.94053297  0.60480959  0.20700949  1
  Ti  Ti103  1  0.90964063  0.61352381  0.55099791  1
  Ti  Ti104  1  0.92946451  0.60587406  0.83651705  1
  Ti  Ti105  1  0.87853879  0.87609562  0.23475490  1
  Ti  Ti106  1  0.87065434  0.94890208  0.62165491  1
  Ti  Ti107  1  0.99713226  0.91514088  0.91701982  1
  Co  Co108  1  0.81915503  0.74095962  0.31912469  1
  Co  Co109  1  0.04026029  0.51438955  0.11258977  1
  Co  Co110  1  0.05060750  0.52898329  0.58088954  1
  Co  Co111  1  0.48283354  0.48579772  -0.05545940  1
  Co  Co112  1  0.82549070  0.15875404  -0.04688038  1
  Co  Co113  1  0.35594765  0.20539822  0.21242686  1
  Co  Co114  1  0.67053535  0.09742240  0.88811794  1
  Co  Co115  1  0.27733713  0.30025678  0.11035951  1
  Co  Co116  1  -0.06443976  0.57436701  0.01243375  1
  Co  Co117  1  0.16161164  -0.04573422  0.85717008  1
  Co  Co118  1  0.57786966  0.91836978  -0.01543964  1
  Co  Co119  1  0.33291490  0.16065739  0.63808797  1
  Co  Co120  1  0.27681329  0.08845587  0.29144613  1
  Co  Co121  1  0.62632406  0.48362415  0.47455568  1
  Co  Co122  1  0.17952211  0.00807441  0.40039542  1
  Co  Co123  1  0.82172263  0.17298593  0.38874280  1
  Co  Co124  1  0.63385470  0.79829967  0.88275818  1
  Co  Co125  1  0.34387526  0.23035686  0.36927198  1
  Co  Co126  1  0.88349814  0.78505474  0.60030774  1
  Co  Co127  1  0.12417397  0.25950336  0.88904227  1
  Co  Co128  1  0.07507953  0.67948751  0.52237761  1
  Co  Co129  1  0.32144211  0.48754482  0.93222992  1
  Co  Co130  1  0.53619578  0.07140121  -0.02148631  1
  Co  Co131  1  0.43286168  0.33709098  0.13647399  1
  Co  Co132  1  -0.00146721  0.66387710  0.67857377  1
  Co  Co133  1  0.07237336  0.84410734  0.77372410  1
  Co  Co134  1  0.19069065  0.08589119  0.61076464  1
  Co  Co135  1  0.90728437  0.50222923  0.35335923  1
  Co  Co136  1  -0.00987992  0.23022497  0.70922745  1
  Co  Co137  1  0.20673300  0.42859683  0.61635184  1
  Co  Co138  1  0.49670015  0.07637120  0.81262283  1
  Co  Co139  1  0.34053299  0.46862135  0.52491119  1
  Co  Co140  1  0.79611800  0.36231667  0.90615941  1
  Co  Co141  1  0.32233471  0.76725478  0.40723468  1
  Co  Co142  1  0.72545975  0.71480016  0.01807318  1
  Co  Co143  1  0.70917816  0.06087689  0.04751313  1
  Co  Co144  1  0.32391074  0.93453275  0.89033922  1
  Co  Co145  1  0.31959370  0.31396079  0.68109488  1
  Co  Co146  1  0.57575726  0.31261519  0.06430508  1
  Co  Co147  1  0.52943218  0.89305116  0.62427478  1
  Co  Co148  1  0.49379902  0.24853396  0.63855650  1
  Co  Co149  1  0.73595518  0.29237238  0.62561113  1
  Co  Co150  1  0.39829376  -0.10302827  0.51220152  1
  Co  Co151  1  0.34808781  0.68049537  -0.12673583  1
  Co  Co152  1  0.81894089  0.84043969  -0.10029918  1
  Co  Co153  1  0.06182244  0.36855489  0.79114210  1
  Co  Co154  1  0.10535977  0.43031819  0.46577679  1
  Co  Co155  1  0.04736005  0.12600091  0.13162171  1
  Co  Co156  1  -0.03379259  0.02516400  0.24477041  1
  Co  Co157  1  0.51869565  0.33140594  0.39354049  1
  Co  Co158  1  -0.02980629  0.08087228  -0.02355620  1
  Co  Co159  1  -0.06771049  0.21948354  0.05728784  1
  Co  Co160  1  0.45166359  -0.07768362  0.23189340  1
  Co  Co161  1  0.58019196  0.50248457  0.81600420  1
  Ni  Ni162  1  0.68659464  0.04207667  0.42455671  1
  Ni  Ni163  1  0.15846509  0.41210902  0.13185717  1
  Ni  Ni164  1  -0.00147030  0.74890567  0.25616942  1
  Ni  Ni165  1  0.16936897  0.45350725  0.29567229  1
  Ni  Ni166  1  0.59667495  0.14010990  0.54691389  1
  Ni  Ni167  1  0.25472530  0.19984853  -0.01356157  1
  Ni  Ni168  1  0.76123084  0.03887406  0.74934756  1
  Ni  Ni169  1  0.27789998  0.22813356  0.83131640  1
  Ni  Ni170  1  0.20436346  0.85906677  0.32459324  1
  Ni  Ni171  1  -0.02230845  0.81388611  0.10305955  1
  Ni  Ni172  1  0.53906182  0.62471665  0.44359253  1
  Ni  Ni173  1  0.06547880  0.19092429  0.54860762  1
  Ni  Ni174  1  -0.07548336  0.44549035  0.84980566  1
  Ni  Ni175  1  0.84129378  0.72996873  0.15039728  1
  Ni  Ni176  1  0.62735357  0.88212257  0.47292624  1
  Ni  Ni177  1  -0.04621476  0.89557064  0.48462325  1
  Ni  Ni178  1  0.74406692  0.25671124  0.25432132  1
  Ni  Ni179  1  0.79048164  0.70985762  0.48395652  1
  Ni  Ni180  1  0.90967382  0.51026553  0.68525699  1
  Ni  Ni181  1  0.37429942  0.62796042  0.47324469  1
  Ni  Ni182  1  0.84926056  0.02449636  0.46864371  1
  Ni  Ni183  1  0.41219519  0.76429960  0.13269186  1
  Ni  Ni184  1  0.56805201  0.85088179  0.15083648  1
  Ni  Ni185  1  0.18754941  0.18302365  0.41437639  1
  Ni  Ni186  1  0.18986954  0.91102962  0.67620388  1
  Ni  Ni187  1  0.51971256  0.66334001  0.85649540  1
  Ni  Ni188  1  0.47726194  0.37508811  0.82288071  1
  Ni  Ni189  1  0.79852896  0.52993201  -0.06593432  1
  Ni  Ni190  1  0.20038626  0.55105180  0.03623320  1
  Ni  Ni191  1  -0.12096538  0.32813010  0.35190762  1
  Ni  Ni192  1  0.87225413  0.31334987  0.16651199  1
  Ni  Ni193  1  0.63991549  0.62637912  0.73358098  1
  Ni  Ni194  1  0.49131697  0.84548695  0.37950273  1
  Ni  Ni195  1  0.11466633  0.82710794  -0.00759995  1
  Ni  Ni196  1  0.75976761  0.60345603  0.25647774  1
  Ni  Ni197  1  0.15488107  -0.02222334  0.22030875  1
  Ni  Ni198  1  0.07737564  0.68984431  0.83848750  1
  Ni  Ni199  1  0.53811096  0.65202184  0.15351861  1
  Ni  Ni200  1  0.41883895  0.55677831  0.22890000  1
  Ni  Ni201  1  0.66479558  0.47925270  0.17205638  1
  Ni  Ni202  1  0.58807223  0.49284987  0.64983649  1
  Ni  Ni203  1  0.49613963  0.16945703  0.41813698  1
  Ni  Ni204  1  0.37113026  0.04428820  0.13981773  1
  Ni  Ni205  1  0.27376093  0.72227090  0.23525937  1
  Ni  Ni206  1  0.52049742  0.42423263  0.25551296  1
  Ni  Ni207  1  0.80438892  0.65501646  0.68574527  1
  Ni  Ni208  1  0.83208641  0.18300784  0.69494108  1
  Ni  Ni209  1  -0.05652579  0.09684404  0.60747815  1
  Ni  Ni210  1  0.63494480  0.17534645  0.14351769  1
  Ni  Ni211  1  0.90759355  -0.05478726  0.78229724  1
  Ni  Ni212  1  0.76372768  0.36312283  0.47001648  1
  Ni  Ni213  1  0.32047316  -0.01180590  0.61496151  1
  Ni  Ni214  1  0.73317795  -0.06147794  0.18690984  1
