# generated using pymatgen
data_Ti108Co54Ni53
_symmetry_space_group_name_H-M   'P 1'
_cell_length_a   14.52004084
_cell_length_b   14.56722116
_cell_length_c   14.48092856
_cell_angle_alpha   90.35539845
_cell_angle_beta   89.74230070
_cell_angle_gamma   89.89382839
_symmetry_Int_Tables_number   1
_chemical_formula_structural   Ti108Co54Ni53
_chemical_formula_sum   'Ti108 Co54 Ni53'
_cell_volume   3062.86212060
_cell_formula_units_Z   1
loop_
 _symmetry_equiv_pos_site_id
 _symmetry_equiv_pos_as_xyz
  1  'x, y, z'
loop_
 _atom_site_type_symbol
 _atom_site_label
 _atom_site_symmetry_multiplicity
 _atom_site_fract_x
 _atom_site_fract_y
 _atom_site_fract_z
 _atom_site_occupancy
  Ti  Ti0  1  0.05500077  -0.04605465  0.25859789  1
  Ti  Ti1  1  0.06682916  0.03928168  0.68598181  1
  Ti  Ti2  1  0.07469062  0.03884136  0.95478653  1
  Ti  Ti3  1  -0.02228350  0.44053573  0.20666682  1
  Ti  Ti4  1  0.04860109  0.42381780  0.54463687  1
  Ti  Ti5  1  0.10133929  0.39375542  0.93522257  1
  Ti  Ti6  1  0.13867422  0.76881617  0.21476100  1
  Ti  Ti7  1  0.12196889  0.75629929  0.53042767  1
  Ti  Ti8  1  0.13266061  0.73025693  0.86712156  1
  Ti  Ti9  1  0.43135876  0.11817343  0.26993769  1
  Ti  Ti10  1  0.37985300  -0.02933139  0.58512292  1
  Ti  Ti11  1  0.42619694  0.10618442  0.94925758  1
  Ti  Ti12  1  0.47407236  0.45856558  0.21831440  1
  Ti  Ti13  1  0.41352820  0.41141623  0.59309495  1
  Ti  Ti14  1  0.46159056  0.43536999  0.89165217  1
  Ti  Ti15  1  0.40032093  0.78258270  0.24488642  1
  Ti  Ti16  1  0.41886063  0.69405754  0.60270427  1
  Ti  Ti17  1  0.46261224  0.72977338  0.87195874  1
  Ti  Ti18  1  0.74557933  0.05185314  0.27602351  1
  Ti  Ti19  1  0.72597333  0.08059280  0.60447373  1
  Ti  Ti20  1  0.74240186  0.07419262  0.90355840  1
  Ti  Ti21  1  0.77225276  0.41335721  0.21395776  1
  Ti  Ti22  1  0.81649160  0.34499504  0.54175227  1
  Ti  Ti23  1  0.71687052  0.53027894  0.95143150  1
  Ti  Ti24  1  0.73298394  0.79701219  0.22451555  1
  Ti  Ti25  1  0.72409664  0.77303275  0.60338594  1
  Ti  Ti26  1  0.65957849  0.75468350  0.94294687  1
  Ti  Ti27  1  0.06253554  0.28694537  0.13513165  1
  Ti  Ti28  1  0.09149934  0.23082013  0.47040783  1
  Ti  Ti29  1  0.05240499  0.25982329  0.79281918  1
  Ti  Ti30  1  0.10692146  0.60015506  0.13588186  1
  Ti  Ti31  1  0.09298892  0.66616652  0.35948848  1
  Ti  Ti32  1  0.15446878  0.57020965  0.74865763  1
  Ti  Ti33  1  0.15621358  0.94159499  0.10680828  1
  Ti  Ti34  1  0.12244558  1.01883352  0.41154389  1
  Ti  Ti35  1  0.10327675  0.91329530  0.81990205  1
  Ti  Ti36  1  0.43571405  0.26795074  0.05890726  1
  Ti  Ti37  1  0.38387545  0.28380624  0.42811361  1
  Ti  Ti38  1  0.39813586  0.21770572  0.68332412  1
  Ti  Ti39  1  0.34113860  0.53625151  0.07656385  1
  Ti  Ti40  1  0.38201569  0.51938770  0.40164911  1
  Ti  Ti41  1  0.48444086  0.55972164  0.74236075  1
  Ti  Ti42  1  0.37428399  0.96594993  0.12258771  1
  Ti  Ti43  1  0.44397499  0.87271743  0.43146012  1
  Ti  Ti44  1  0.42588468  0.86861745  0.74332244  1
  Ti  Ti45  1  0.74053892  0.18476519  0.08052200  1
  Ti  Ti46  1  0.70632173  0.34257810  0.37469269  1
  Ti  Ti47  1  0.74537570  0.29078745  0.80711468  1
  Ti  Ti48  1  0.79018972  0.59956445  0.16508950  1
  Ti  Ti49  1  0.76184162  0.61779604  0.47339764  1
  Ti  Ti50  1  0.72560808  0.55803651  0.70541693  1
  Ti  Ti51  1  0.81966003  0.98828019  0.04945657  1
  Ti  Ti52  1  0.76294893  0.91228630  0.48864533  1
  Ti  Ti53  1  0.79576287  0.85668152  0.79092017  1
  Ti  Ti54  1  0.16228970  0.13513063  0.11529471  1
  Ti  Ti55  1  0.30647727  0.04262438  0.40014616  1
  Ti  Ti56  1  0.25908959  0.08719885  0.68650297  1
  Ti  Ti57  1  0.17206001  0.43604968  0.09782390  1
  Ti  Ti58  1  0.19196850  0.38355912  0.39938794  1
  Ti  Ti59  1  0.22669814  0.38921465  0.81269442  1
  Ti  Ti60  1  0.30792250  0.73431682  -0.00973436  1
  Ti  Ti61  1  0.27723795  0.70715029  0.37232578  1
  Ti  Ti62  1  0.24603614  0.75683973  0.68759677  1
  Ti  Ti63  1  0.58758276  -0.01254429  -0.00178564  1
  Ti  Ti64  1  0.63190677  0.14352107  0.40948754  1
  Ti  Ti65  1  0.56648226  0.01802104  0.79860264  1
  Ti  Ti66  1  0.62144957  0.36782597  0.08483656  1
  Ti  Ti67  1  0.56038247  0.35402980  0.48995173  1
  Ti  Ti68  1  0.53553669  0.34040869  0.73701658  1
  Ti  Ti69  1  0.55496544  0.76378297  0.14757307  1
  Ti  Ti70  1  0.58088383  0.71816067  0.48849233  1
  Ti  Ti71  1  0.60176687  0.74595198  0.73969801  1
  Ti  Ti72  1  0.94871133  0.15372268  0.05056964  1
  Ti  Ti73  1  0.94570320  0.10305774  0.36727591  1
  Ti  Ti74  1  0.86162401  0.09698193  0.75169625  1
  Ti  Ti75  1  0.86473530  0.31122734  0.08799171  1
  Ti  Ti76  1  0.88232625  0.44571485  0.39623185  1
  Ti  Ti77  1  0.91517755  0.41396003  0.70523418  1
  Ti  Ti78  1  0.93846932  0.72352750  0.13648846  1
  Ti  Ti79  1  0.92584999  0.76101541  0.44388928  1
  Ti  Ti80  1  0.92714972  0.81179473  0.63292942  1
  Ti  Ti81  1  0.27304449  0.23138467  0.25271412  1
  Ti  Ti82  1  0.24512307  0.29056676  0.58363442  1
  Ti  Ti83  1  0.24760482  0.22754784  0.95562641  1
  Ti  Ti84  1  0.26434614  0.52556790  0.25444310  1
  Ti  Ti85  1  0.20831409  0.59558320  0.55756810  1
  Ti  Ti86  1  0.22188641  0.56529327  0.93737790  1
  Ti  Ti87  1  0.25286885  0.89585525  0.29528200  1
  Ti  Ti88  1  0.20113472  0.92692211  0.55600642  1
  Ti  Ti89  1  0.25611393  1.01035091  0.86516997  1
  Ti  Ti90  1  0.59480254  0.19291828  0.20161940  1
  Ti  Ti91  1  0.58495668  0.19273764  0.64995465  1
  Ti  Ti92  1  0.57788662  0.26388134  0.90949404  1
  Ti  Ti93  1  0.61379151  0.64574082  0.29475223  1
  Ti  Ti94  1  0.53097230  0.54636794  0.49904073  1
  Ti  Ti95  1  0.55021085  0.57544852  1.04178458  1
  Ti  Ti96  1  0.56386820  0.95213310  0.20929454  1
  Ti  Ti97  1  0.55863077  1.01148054  0.55708660  1
  Ti  Ti98  1  0.39668952  0.91702545  0.92934498  1
  Ti  Ti99  1  0.92476133  0.25799467  0.27587174  1
  Ti  Ti100  1  0.95616616  0.22788571  0.62027132  1
  Ti  Ti101  1  0.91653975  0.33907756  0.89699412  1
  Ti  Ti102  1  0.93783407  0.60031507  0.28689349  1
  Ti  Ti103  1  0.99458463  0.61199285  0.57128985  1
  Ti  Ti104  1  0.93219176  0.52630043  0.89973366  1
  Ti  Ti105  1  0.88365388  0.92218452  0.20611892  1
  Ti  Ti106  1  0.90272758  1.03372377  0.56117521  1
  Ti  Ti107  1  0.98842776  0.84438709  0.96729890  1
  Co  Co108  1  0.28536422  0.45141523  0.51413991  1
  Co  Co109  1  0.31265376  0.66895515  0.80819725  1
  Co  Co110  1  0.41964368  -0.04753549  0.29499003  1
  Co  Co111  1  0.39452974  0.28730293  0.87397452  1
  Co  Co112  1  0.40169212  0.02827744  0.76625443  1
  Co  Co113  1  0.07253685  0.69683825  0.69076687  1
  Co  Co114  1  0.46150334  0.42608734  0.05011256  1
  Co  Co115  1  0.04368271  0.09032168  0.53243354  1
  Co  Co116  1  0.10571230  0.50594058  0.27804422  1
  Co  Co117  1  0.60349822  0.35594274  0.24997547  1
  Co  Co118  1  0.23426020  0.25488512  0.74619422  1
  Co  Co119  1  0.71413761  0.76570475  0.41231442  1
  Co  Co120  1  0.02210000  0.84981864  0.13065922  1
  Co  Co121  1  0.60088050  0.62862672  0.62614658  1
  Co  Co122  1  -0.02687145  0.80888645  0.80130674  1
  Co  Co123  1  0.16782891  0.35364093  0.23641121  1
  Co  Co124  1  0.60780548  0.87391244  0.48598649  1
  Co  Co125  1  0.32490854  0.37882121  0.14562466  1
  Co  Co126  1  0.90659162  -0.03616943  0.88406398  1
  Co  Co127  1  0.13522083  0.73389543  0.03990666  1
  Co  Co128  1  0.26217189  0.03729123  0.02125717  1
  Co  Co129  1  0.32324323  0.15458438  0.82851621  1
  Co  Co130  1  0.67516288  0.04266043  0.12613884  1
  Co  Co131  1  0.21786714  0.44641219  0.65643888  1
  Co  Co132  1  0.33693925  0.38322956  0.30522509  1
  Co  Co133  1  -0.01649694  -0.00188139  0.08491043  1
  Co  Co134  1  0.73497489  -0.09039293  -0.07340272  1
  Co  Co135  1  -0.05632696  -0.05110091  0.72370371  1
  Co  Co136  1  0.52782585  0.24982550  0.35318432  1
  Co  Co137  1  0.79769473  0.44882542  0.82241605  1
  Co  Co138  1  0.79727833  0.93707601  0.65090639  1
  Co  Co139  1  0.20524533  0.09125237  0.53859432  1
  Co  Co140  1  0.28799840  0.82145142  0.84011828  1
  Co  Co141  1  0.41538542  0.59308615  -0.06265574  1
  Co  Co142  1  0.80654216  0.21524098  0.39690822  1
  Co  Co143  1  0.44261669  0.28569435  0.22170759  1
  Co  Co144  1  0.57536434  0.86553636  0.85276082  1
  Co  Co145  1  0.49844807  0.16902648  0.80474808  1
  Co  Co146  1  0.03608281  0.36768269  0.34885662  1
  Co  Co147  1  0.64427691  0.51429156  0.17413004  1
  Co  Co148  1  0.86566382  0.09957437  0.18757440  1
  Co  Co149  1  0.25938355  -0.07551247  0.71512130  1
  Co  Co150  1  0.33082976  0.51522075  0.82376983  1
  Co  Co151  1  0.49431749  0.08339396  0.11287698  1
  Co  Co152  1  0.50927276  0.19820456  0.51391246  1
  Co  Co153  1  0.46645343  0.06381993  0.42684857  1
  Co  Co154  1  0.19834060  0.54853542  0.40949592  1
  Co  Co155  1  0.25602637  0.04907572  0.23151921  1
  Co  Co156  1  0.81962776  0.69437999  0.31637770  1
  Co  Co157  1  0.04951836  0.44910587  0.78881279  1
  Co  Co158  1  -0.02863636  0.78795346  0.28835888  1
  Co  Co159  1  0.09710174  0.34390878  0.66545431  1
  Co  Co160  1  0.36972368  0.38717895  0.73605384  1
  Co  Co161  1  0.59423448  0.16156261  0.02245076  1
  Ni  Ni162  1  0.36016318  0.13799975  0.53719073  1
  Ni  Ni163  1  0.19641051  0.87552007  -0.03503866  1
  Ni  Ni164  1  0.82508198  0.86284462  0.34479782  1
  Ni  Ni165  1  0.82884421  0.81636433  0.05678678  1
  Ni  Ni166  1  0.02301273  0.11038462  0.20379465  1
  Ni  Ni167  1  0.27543393  0.67318506  0.17520374  1
  Ni  Ni168  1  0.27683515  0.82645921  0.11954329  1
  Ni  Ni169  1  0.42715239  0.61727399  0.26092579  1
  Ni  Ni170  1  0.69401502  0.46740110  0.51064199  1
  Ni  Ni171  1  -0.01205360  0.42167290  0.03983875  1
  Ni  Ni172  1  0.02875802  0.91577586  0.53809244  1
  Ni  Ni173  1  0.82574234  0.21062750  -0.06030178  1
  Ni  Ni174  1  0.29726792  0.39566281  -0.02485261  1
  Ni  Ni175  1  0.06435881  0.59042310  -0.02830955  1
  Ni  Ni176  1  0.58101382  0.46349151  0.63751068  1
  Ni  Ni177  1  0.50906500  0.83753543  0.01274702  1
  Ni  Ni178  1  -0.05569264  0.56735752  0.09064810  1
  Ni  Ni179  1  0.68050997  0.67741748  0.08704598  1
  Ni  Ni180  1  0.14198031  0.12789736  0.82302026  1
  Ni  Ni181  1  0.68171165  0.13962440  0.76773508  1
  Ni  Ni182  1  0.94152972  0.28580447  0.45093579  1
  Ni  Ni183  1  0.42682103  0.67610116  0.09834619  1
  Ni  Ni184  1  0.07631934  0.22460034  -0.03452711  1
  Ni  Ni185  1  -0.03900421  0.13438659  0.87566361  1
  Ni  Ni186  1  -0.04805078  -0.05940341  0.40014182  1
  Ni  Ni187  1  0.33670875  0.14877866  0.11325624  1
  Ni  Ni188  1  0.84409085  0.66206529  0.62564244  1
  Ni  Ni189  1  0.60507771  -0.01825595  0.36881218  1
  Ni  Ni190  1  0.63080794  0.43713844  0.83149872  1
  Ni  Ni191  1  0.51091806  0.83621482  0.60547918  1
  Ni  Ni192  1  0.10583473  0.84137620  0.38655776  1
  Ni  Ni193  1  0.12049869  0.18755846  0.64572825  1
  Ni  Ni194  1  0.44026257  0.69370098  0.40836383  1
  Ni  Ni195  1  0.78988953  0.06204033  0.43566778  1
  Ni  Ni196  1  0.68708453  0.24529430  0.52944964  1
  Ni  Ni197  1  0.78922665  0.23027911  0.66108220  1
  Ni  Ni198  1  0.13039847  0.15755541  0.30893811  1
  Ni  Ni199  1  0.59600783  0.60730777  0.85685844  1
  Ni  Ni200  1  0.73513124  0.35422925  -0.03652242  1
  Ni  Ni201  1  0.71914231  0.38801833  0.67511863  1
  Ni  Ni202  1  0.82389111  0.46585960  0.05448883  1
  Ni  Ni203  1  0.63724071  -0.08800258  0.68658208  1
  Ni  Ni204  1  0.02542567  0.52793179  0.41995090  1
  Ni  Ni205  1  0.24685713  0.19795369  0.42165183  1
  Ni  Ni206  1  0.85288940  0.50614773  0.57430223  1
  Ni  Ni207  1  0.57120951  0.81413473  0.32198513  1
  Ni  Ni208  1  0.75126911  0.53747150  0.32290591  1
  Ni  Ni209  1  0.33240351  0.56350120  0.66682832  1
  Ni  Ni210  1  0.31095886  0.79340650  0.51355944  1
  Ni  Ni211  1  0.67780045  0.87156489  0.08228556  1
  Ni  Ni212  1  0.75952414  0.24237497  0.23859068  1
  Ni  Ni213  1  0.09279350  0.85441927  0.67341654  1
  Ni  Ni214  1  0.59208139  0.48911976  0.35059290  1
