# generated using pymatgen
data_Ti108Co54Ni53
_symmetry_space_group_name_H-M   'P 1'
_cell_length_a   14.60088169
_cell_length_b   14.58141946
_cell_length_c   14.62051479
_cell_angle_alpha   89.91992558
_cell_angle_beta   89.72417605
_cell_angle_gamma   90.20152450
_symmetry_Int_Tables_number   1
_chemical_formula_structural   Ti108Co54Ni53
_chemical_formula_sum   'Ti108 Co54 Ni53'
_cell_volume   3112.67227014
_cell_formula_units_Z   1
loop_
 _symmetry_equiv_pos_site_id
 _symmetry_equiv_pos_as_xyz
  1  'x, y, z'
loop_
 _atom_site_type_symbol
 _atom_site_label
 _atom_site_symmetry_multiplicity
 _atom_site_fract_x
 _atom_site_fract_y
 _atom_site_fract_z
 _atom_site_occupancy
  Ti  Ti0  1  0.13085782  0.04241768  0.20671336  1
  Ti  Ti1  1  0.08974550  0.03932322  0.57716591  1
  Ti  Ti2  1  0.02719282  0.01366401  0.88569438  1
  Ti  Ti3  1  0.09882784  0.37818844  0.23918135  1
  Ti  Ti4  1  0.05945310  0.42210966  0.55042633  1
  Ti  Ti5  1  0.11705863  0.35669514  1.00289737  1
  Ti  Ti6  1  0.08505879  0.74323825  0.24412222  1
  Ti  Ti7  1  0.14328585  0.71630539  0.59689633  1
  Ti  Ti8  1  0.02296862  0.80645804  0.93180983  1
  Ti  Ti9  1  0.45398851  0.03124352  0.28791441  1
  Ti  Ti10  1  0.35863116  0.17464511  0.60451212  1
  Ti  Ti11  1  0.35809389  0.06782347  0.88089860  1
  Ti  Ti12  1  0.40653948  0.33115489  0.20410469  1
  Ti  Ti13  1  0.43683751  0.46432557  0.63911759  1
  Ti  Ti14  1  0.40441959  0.43684106  0.91866340  1
  Ti  Ti15  1  0.39201364  0.81229772  0.31483989  1
  Ti  Ti16  1  0.44892597  0.76719728  0.52761353  1
  Ti  Ti17  1  0.36101662  0.75791144  0.84733746  1
  Ti  Ti18  1  0.77255291  0.08253763  0.23726711  1
  Ti  Ti19  1  0.77987975  0.14069973  0.58653103  1
  Ti  Ti20  1  0.69912606  0.12424987  0.87679199  1
  Ti  Ti21  1  0.79046428  0.38974802  0.24197728  1
  Ti  Ti22  1  0.77642837  0.35325626  0.62707379  1
  Ti  Ti23  1  0.69955621  0.46484653  0.90466533  1
  Ti  Ti24  1  0.84068732  0.72217266  0.19548911  1
  Ti  Ti25  1  0.66182780  0.72986371  0.61058327  1
  Ti  Ti26  1  0.79221559  0.78527933  0.91181567  1
  Ti  Ti27  1  0.08107892  0.21947508  0.14657077  1
  Ti  Ti28  1  0.16040479  0.28960409  0.44226307  1
  Ti  Ti29  1  0.04587877  0.29738843  0.75475739  1
  Ti  Ti30  1  0.02230126  0.58294666  0.13339659  1
  Ti  Ti31  1  0.09626226  0.60375911  0.44436200  1
  Ti  Ti32  1  0.17885912  0.55361439  0.79501827  1
  Ti  Ti33  1  0.06461920  0.93920623  0.06783495  1
  Ti  Ti34  1  0.12163217  0.87210003  0.43711104  1
  Ti  Ti35  1  0.15035156  0.95255716  0.76052437  1
  Ti  Ti36  1  0.44393387  0.22812337  0.03868864  1
  Ti  Ti37  1  0.35684234  0.08964371  0.44011700  1
  Ti  Ti38  1  0.51197919  0.18466029  0.75438301  1
  Ti  Ti39  1  0.45838192  0.57819230  0.07858381  1
  Ti  Ti40  1  0.42068641  0.60499012  0.36032546  1
  Ti  Ti41  1  0.45001373  0.65287280  0.69775477  1
  Ti  Ti42  1  0.37894704  0.89169410  0.00952289  1
  Ti  Ti43  1  0.49635837  0.92987513  0.42957754  1
  Ti  Ti44  1  0.41358217  1.00962110  0.69711796  1
  Ti  Ti45  1  0.83810626  0.23841450  0.11742684  1
  Ti  Ti46  1  0.66184058  0.30299659  0.37986481  1
  Ti  Ti47  1  0.73532280  0.31014781  0.80244420  1
  Ti  Ti48  1  0.68199607  0.55976009  0.08673294  1
  Ti  Ti49  1  0.75363516  0.58559339  0.48595783  1
  Ti  Ti50  1  0.79105437  0.57767444  0.67567282  1
  Ti  Ti51  1  0.74782263  0.87674506  0.08454887  1
  Ti  Ti52  1  0.68427873  0.89560634  0.36274111  1
  Ti  Ti53  1  0.70822930  0.85748196  0.74668186  1
  Ti  Ti54  1  0.26241688  0.15711003  0.07126349  1
  Ti  Ti55  1  0.15552104  0.06775633  0.38798682  1
  Ti  Ti56  1  0.14514281  0.13567729  0.73655615  1
  Ti  Ti57  1  0.26300119  0.46501273  0.09657123  1
  Ti  Ti58  1  0.28583192  0.40103105  0.33368389  1
  Ti  Ti59  1  0.29160197  0.36246707  0.75426836  1
  Ti  Ti60  1  0.27831148  0.77177007  0.14015684  1
  Ti  Ti61  1  0.24580782  0.72050736  0.42776024  1
  Ti  Ti62  1  0.19980937  0.75931001  0.76998992  1
  Ti  Ti63  1  0.64891236  0.18004575  0.06676042  1
  Ti  Ti64  1  0.57873704  0.12118574  0.44451235  1
  Ti  Ti65  1  0.58169969  0.00948319  0.78442334  1
  Ti  Ti66  1  0.60171491  0.37827231  0.10694880  1
  Ti  Ti67  1  0.56460482  0.47677351  0.40340767  1
  Ti  Ti68  1  0.53327741  0.39580469  0.78640124  1
  Ti  Ti69  1  0.55743114  0.75508421  0.08336684  1
  Ti  Ti70  1  0.59554721  0.67130585  0.43399593  1
  Ti  Ti71  1  0.54943316  0.79039486  0.78533445  1
  Ti  Ti72  1  0.95480854  0.09344946  0.06377785  1
  Ti  Ti73  1  0.93307927  0.11114430  0.38662586  1
  Ti  Ti74  1  0.87610281  0.08981554  0.75597047  1
  Ti  Ti75  1  0.93647125  0.40335581  0.08321457  1
  Ti  Ti76  1  0.92927304  0.44329441  0.39640483  1
  Ti  Ti77  1  0.86986390  0.45768744  0.79873218  1
  Ti  Ti78  1  0.88582788  0.67713261  0.02353310  1
  Ti  Ti79  1  0.91464627  0.74241626  0.38042145  1
  Ti  Ti80  1  0.93378887  0.67845226  0.82090069  1
  Ti  Ti81  1  0.26881649  0.19203266  0.27950030  1
  Ti  Ti82  1  0.30484964  0.35155500  0.55689547  1
  Ti  Ti83  1  0.22561655  0.23519550  0.89141894  1
  Ti  Ti84  1  0.16911378  0.55669618  0.25459516  1
  Ti  Ti85  1  0.29894970  0.58215554  0.56319029  1
  Ti  Ti86  1  0.28664640  0.59097992  0.94873104  1
  Ti  Ti87  1  0.32014892  0.96950937  0.18542675  1
  Ti  Ti88  1  0.26179769  0.88287599  0.61937810  1
  Ti  Ti89  1  0.20933045  0.88228316  0.93105610  1
  Ti  Ti90  1  0.56098543  0.18600316  0.23485792  1
  Ti  Ti91  1  0.49851788  0.28644212  0.52201627  1
  Ti  Ti92  1  0.57329813  0.29975944  0.92883201  1
  Ti  Ti93  1  0.61012785  0.64919001  0.24732916  1
  Ti  Ti94  1  0.60312197  0.54153305  0.62116471  1
  Ti  Ti95  1  0.61827383  0.65505514  0.91394694  1
  Ti  Ti96  1  0.57522814  0.92504437  0.18821248  1
  Ti  Ti97  1  0.58661352  0.93504534  0.61069191  1
  Ti  Ti98  1  0.54611599  0.95745030  0.96862460  1
  Ti  Ti99  1  0.93863677  0.26944860  0.26648030  1
  Ti  Ti100  1  0.94824288  0.25880022  0.56704675  1
  Ti  Ti101  1  0.89445597  0.21543076  0.89302902  1
  Ti  Ti102  1  0.81019568  0.58022652  0.31066103  1
  Ti  Ti103  1  0.96868648  0.59184801  0.62244067  1
  Ti  Ti104  1  0.98797027  0.53030283  0.92886698  1
  Ti  Ti105  1  0.93299224  0.92378072  0.20176658  1
  Ti  Ti106  1  0.95203297  0.79918183  0.64746447  1
  Ti  Ti107  1  0.88611015  0.90051309  0.80523788  1
  Co  Co108  1  -0.00171401  0.30294686  0.41181163  1
  Co  Co109  1  0.04721280  0.82954048  0.77616200  1
  Co  Co110  1  0.42988262  0.30540314  0.68589396  1
  Co  Co111  1  0.39067132  0.05457686  0.03910025  1
  Co  Co112  1  0.21066023  0.46188466  0.49856316  1
  Co  Co113  1  0.05852260  0.66392791  -0.00280029  1
  Co  Co114  1  0.47832832  0.60191746  0.53269591  1
  Co  Co115  1  0.71560202  0.71429426  0.06329547  1
  Co  Co116  1  0.47118960  0.04159063  0.54737745  1
  Co  Co117  1  0.75191752  0.44623265  0.39870650  1
  Co  Co118  1  0.39463594  0.46941308  0.47422009  1
  Co  Co119  1  0.20523518  0.72070416  0.94407164  1
  Co  Co120  1  0.53647660  0.54840067  0.79191732  1
  Co  Co121  1  0.26132555  0.05058714  0.66110077  1
  Co  Co122  1  0.70084164  0.26048987  0.20606903  1
  Co  Co123  1  0.45216211  0.62794419  0.89913180  1
  Co  Co124  1  0.30735376  0.31803149  0.01362164  1
  Co  Co125  1  0.82134862  0.02102170  0.10632688  1
  Co  Co126  1  0.23511204  -0.00328882  0.50929412  1
  Co  Co127  1  0.31288948  0.73262880  0.61374801  1
  Co  Co128  1  0.19872914  0.05312345  0.89802364  1
  Co  Co129  1  0.65676654  0.65266098  0.75348085  1
  Co  Co130  1  0.44778971  -0.08551450  0.84369990  1
  Co  Co131  1  0.49544907  0.78491531  -0.06124269  1
  Co  Co132  1  0.59572372  0.10808002  0.61468636  1
  Co  Co133  1  -0.02169986  0.77833222  0.11942498  1
  Co  Co134  1  0.10441599  0.44896405  0.37839424  1
  Co  Co135  1  -0.01180357  0.25830402  0.01726575  1
  Co  Co136  1  -0.03163024  0.09760882  0.22836320  1
  Co  Co137  1  0.21291682  0.16239675  0.53788941  1
  Co  Co138  1  0.44573291  0.41479916  0.07507723  1
  Co  Co139  1  0.35110990  0.51869787  0.22207090  1
  Co  Co140  1  0.09147018  0.87559693  0.60778626  1
  Co  Co141  1  0.64808859  0.83188924  0.94154351  1
  Co  Co142  1  0.18920523  0.27137841  0.66195709  1
  Co  Co143  1  0.87753196  0.37026780  0.93329874  1
  Co  Co144  1  0.26664608  0.55430281  0.38428383  1
  Co  Co145  1  0.30090681  0.91642790  0.78982250  1
  Co  Co146  1  0.61473717  0.82602010  0.48905460  1
  Co  Co147  1  0.51019454  0.50923270  0.22105823  1
  Co  Co148  1  0.76160488  0.40060069  0.08019153  1
  Co  Co149  1  0.32553923  0.25170111  0.43231298  1
  Co  Co150  1  0.56753928  0.35735159  0.26161779  1
  Co  Co151  1  0.32084429  0.18149545  0.76041971  1
  Co  Co152  1  0.79594237  0.14245541  0.00422339  1
  Co  Co153  1  0.44390369  0.67532925  0.21096070  1
  Co  Co154  1  0.44164834  0.83820303  0.16393049  1
  Co  Co155  1  0.55053852  0.78735702  0.32456659  1
  Co  Co156  1  0.44705931  0.19893773  0.34175634  1
  Co  Co157  1  0.73915580  0.72411838  0.36318399  1
  Co  Co158  1  0.18574644  0.63252467  0.10757940  1
  Co  Co159  1  0.13938842  0.52353534  -0.01429507  1
  Co  Co160  1  0.68967789  0.46222003  0.73874736  1
  Co  Co161  1  0.01980540  0.75130075  0.50089100  1
  Ni  Ni162  1  0.28806807  -0.02894957  0.34498211  1
  Ni  Ni163  1  0.68131747  0.02054779  0.02629975  1
  Ni  Ni164  1  0.06521234  0.18241842  0.88447126  1
  Ni  Ni165  1  0.62468163  0.03858384  0.30663424  1
  Ni  Ni166  1  0.08913417  0.19980837  0.31277035  1
  Ni  Ni167  1  0.87648844  0.25475040  0.72134737  1
  Ni  Ni168  1  0.44870737  0.35616365  0.37336779  1
  Ni  Ni169  1  0.60170088  0.32564713  0.65882850  1
  Ni  Ni170  1  0.23162423  0.31187081  0.16055296  1
  Ni  Ni171  1  0.83970100  0.54521739  0.14858652  1
  Ni  Ni172  1  0.40819780  0.27044387  0.86988153  1
  Ni  Ni173  1  -0.00369393  -0.01830364  0.70808109  1
  Ni  Ni174  1  0.22549357  -0.01125064  0.05655595  1
  Ni  Ni175  1  0.55356385  0.49714230  -0.03612994  1
  Ni  Ni176  1  -0.07144283  0.59956096  0.46539259  1
  Ni  Ni177  1  0.72981151  -0.04001727  0.87307071  1
  Ni  Ni178  1  0.35374824  0.53833277  0.78487858  1
  Ni  Ni179  1  0.68540543  0.79615928  0.21848899  1
  Ni  Ni180  1  -0.00496180  0.60363086  0.30516175  1
  Ni  Ni181  1  0.79635037  0.21439789  0.33145310  1
  Ni  Ni182  1  0.73120062  0.02109940  0.70144512  1
  Ni  Ni183  1  0.31855909  0.86283879  0.46254692  1
  Ni  Ni184  1  0.90508504  0.89588756  0.01868030  1
  Ni  Ni185  1  0.66843037  0.49140761  0.25544244  1
  Ni  Ni186  1  0.21605829  0.83441026  0.29089783  1
  Ni  Ni187  1  0.28381091  0.67353200  0.27063002  1
  Ni  Ni188  1  0.13802784  0.54813001  0.62939439  1
  Ni  Ni189  1  0.42332356  0.83800387  0.68895471  1
  Ni  Ni190  1  0.07844047  0.42695492  0.84331101  1
  Ni  Ni191  1  0.73573783  0.28981682  -0.03471941  1
  Ni  Ni192  1  0.23606527  0.41994743  0.89934628  1
  Ni  Ni193  1  0.66758597  0.24414175  0.53373203  1
  Ni  Ni194  1  -0.04710203  0.45925790  0.23749246  1
  Ni  Ni195  1  -0.13313913  0.02540211  -0.07255075  1
  Ni  Ni196  1  0.37474116  0.71567368  0.02428272  1
  Ni  Ni197  1  0.11242740  0.10934048  0.02214649  1
  Ni  Ni198  1  0.52632497  0.12824363  -0.07053513  1
  Ni  Ni199  1  0.82562091  0.30685088  0.46277100  1
  Ni  Ni200  1  0.03201801  -0.03303798  0.32889327  1
  Ni  Ni201  1  0.13255525  0.79109361  0.07462268  1
  Ni  Ni202  1  0.68518688  0.18178763  0.72070040  1
  Ni  Ni203  1  0.81041202  0.73577040  0.72839147  1
  Ni  Ni204  1  0.78611219  0.61526376  0.85904247  1
  Ni  Ni205  1  0.83088839  0.51955154  -0.01314459  1
  Ni  Ni206  1  0.84019835  0.71204933  0.55591182  1
  Ni  Ni207  1  0.53134031  0.06561105  0.11281422  1
  Ni  Ni208  1  0.06740730  0.66319999  0.73775737  1
  Ni  Ni209  1  0.05340376  0.16719058  0.48113526  1
  Ni  Ni210  1  -0.05069992  0.40547801  0.67141641  1
  Ni  Ni211  1  0.82424514  0.85678880  0.29603524  1
  Ni  Ni212  1  0.39518275  0.14692277  0.18078895  1
  Ni  Ni213  1  0.66154524  0.41558252  0.52885211  1
  Ni  Ni214  1  0.86464373  0.46347581  0.54259228  1
