# generated using pymatgen
data_Ti108Co54Ni53
_symmetry_space_group_name_H-M   'P 1'
_cell_length_a   14.66359641
_cell_length_b   14.66931827
_cell_length_c   14.64526417
_cell_angle_alpha   90.06151624
_cell_angle_beta   90.01628816
_cell_angle_gamma   89.24069011
_symmetry_Int_Tables_number   1
_chemical_formula_structural   Ti108Co54Ni53
_chemical_formula_sum   'Ti108 Co54 Ni53'
_cell_volume   3149.99044155
_cell_formula_units_Z   1
loop_
 _symmetry_equiv_pos_site_id
 _symmetry_equiv_pos_as_xyz
  1  'x, y, z'
loop_
 _atom_site_type_symbol
 _atom_site_label
 _atom_site_symmetry_multiplicity
 _atom_site_fract_x
 _atom_site_fract_y
 _atom_site_fract_z
 _atom_site_occupancy
  Ti  Ti0  1  0.12615712  0.05950827  0.27495339  1
  Ti  Ti1  1  0.12190575  0.11509183  0.58101715  1
  Ti  Ti2  1  0.09333246  0.00500682  0.91202059  1
  Ti  Ti3  1  0.04684799  0.45703813  0.26374101  1
  Ti  Ti4  1  0.04487179  0.44922363  0.59638173  1
  Ti  Ti5  1  0.15080850  0.44242566  0.92784821  1
  Ti  Ti6  1  0.13070531  0.74527068  0.20821915  1
  Ti  Ti7  1  0.09454501  0.77626191  0.56140290  1
  Ti  Ti8  1  0.11592659  0.78250334  0.87133627  1
  Ti  Ti9  1  0.46764178  0.07525556  0.21509207  1
  Ti  Ti10  1  0.38907076  0.11306116  0.54480246  1
  Ti  Ti11  1  0.39594837  0.16948788  0.90958388  1
  Ti  Ti12  1  0.45521634  0.42548316  0.23274902  1
  Ti  Ti13  1  0.38582103  0.32723843  0.56889362  1
  Ti  Ti14  1  0.46550228  0.38471078  0.89678440  1
  Ti  Ti15  1  0.45312728  0.78725564  0.26949989  1
  Ti  Ti16  1  0.40966694  0.78169346  0.61479502  1
  Ti  Ti17  1  0.42352797  0.71191080  0.92376459  1
  Ti  Ti18  1  0.80739341  0.11319308  0.23710270  1
  Ti  Ti19  1  0.65703518  0.06938827  0.61193095  1
  Ti  Ti20  1  0.77129837  0.08670476  0.89315277  1
  Ti  Ti21  1  0.72710507  0.42326843  0.19143728  1
  Ti  Ti22  1  0.73645469  0.38869250  0.64526051  1
  Ti  Ti23  1  0.70206976  0.39196220  0.84045697  1
  Ti  Ti24  1  0.72868279  0.81509360  0.34491687  1
  Ti  Ti25  1  0.68848657  0.75112527  0.68080329  1
  Ti  Ti26  1  0.66992526  0.69117200  0.86422869  1
  Ti  Ti27  1  0.07411974  0.18238205  0.06935833  1
  Ti  Ti28  1  0.01151067  0.34229163  0.39926744  1
  Ti  Ti29  1  0.13045564  0.29580687  0.77600442  1
  Ti  Ti30  1  0.07334944  0.59230987  0.12629218  1
  Ti  Ti31  1  0.07972185  0.64461544  0.37514535  1
  Ti  Ti32  1  0.12535826  0.61745989  0.70121972  1
  Ti  Ti33  1  0.09759849  0.86966081  0.05319333  1
  Ti  Ti34  1  0.07248066  0.87260383  0.37303770  1
  Ti  Ti35  1  0.00647110  0.88671757  0.74919400  1
  Ti  Ti36  1  0.37844840  0.27604471  0.09765228  1
  Ti  Ti37  1  0.45191637  0.28783425  0.37925721  1
  Ti  Ti38  1  0.41320664  0.22608607  0.73196826  1
  Ti  Ti39  1  0.42003211  0.62429783  0.13494479  1
  Ti  Ti40  1  0.42724224  0.65369836  0.43985990  1
  Ti  Ti41  1  0.40963539  0.49029091  0.72756428  1
  Ti  Ti42  1  0.38822370  0.90397975  0.10961351  1
  Ti  Ti43  1  0.41258579  0.95950012  0.39450746  1
  Ti  Ti44  1  0.45194130  0.97699160  0.78882035  1
  Ti  Ti45  1  0.74163534  0.24861038  0.07357690  1
  Ti  Ti46  1  0.80200665  0.25812868  0.38436990  1
  Ti  Ti47  1  0.81126375  0.07631615  0.71422571  1
  Ti  Ti48  1  0.72484711  0.61868984  0.18630185  1
  Ti  Ti49  1  0.67046452  0.64882837  0.44705760  1
  Ti  Ti50  1  0.76683855  0.56117694  0.73375757  1
  Ti  Ti51  1  0.78502937  0.82421509  0.09213255  1
  Ti  Ti52  1  0.71404596  0.95206318  0.47965558  1
  Ti  Ti53  1  0.80099474  0.88581725  0.80174374  1
  Ti  Ti54  1  0.28712408  0.09586369  0.10433675  1
  Ti  Ti55  1  0.24887257  0.08840109  0.41205280  1
  Ti  Ti56  1  0.25400204  0.05573649  0.72461271  1
  Ti  Ti57  1  0.19509270  0.35947960  0.12426120  1
  Ti  Ti58  1  0.29319396  0.40842167  0.41458203  1
  Ti  Ti59  1  0.22526952  0.46866623  0.73911382  1
  Ti  Ti60  1  0.24282686  0.73726628  0.03603841  1
  Ti  Ti61  1  0.26792325  0.72631964  0.33839936  1
  Ti  Ti62  1  0.22916981  0.78353976  0.70981451  1
  Ti  Ti63  1  0.65362262  0.06575088  0.05454374  1
  Ti  Ti64  1  0.61701990  0.10628798  0.38963094  1
  Ti  Ti65  1  0.59988516  0.12400464  0.78617669  1
  Ti  Ti66  1  0.55901641  0.34581068  0.09080341  1
  Ti  Ti67  1  0.62557325  0.42542572  0.36788334  1
  Ti  Ti68  1  0.54994778  0.38483205  0.68774570  1
  Ti  Ti69  1  0.54277934  0.78090621  0.05583867  1
  Ti  Ti70  1  0.54276224  0.82542057  0.46374446  1
  Ti  Ti71  1  0.51368657  0.67221659  0.75447173  1
  Ti  Ti72  1  0.94051363  0.01493298  0.11101022  1
  Ti  Ti73  1  0.95472744  0.10989683  0.44935960  1
  Ti  Ti74  1  0.96748548  0.16466799  0.79507377  1
  Ti  Ti75  1  0.91373301  0.37281581  0.11819622  1
  Ti  Ti76  1  0.84309344  0.44327371  0.44505872  1
  Ti  Ti77  1  0.91610382  0.40033203  0.74486591  1
  Ti  Ti78  1  0.95412359  0.75928566  0.13431690  1
  Ti  Ti79  1  0.86150146  0.67641426  0.41906035  1
  Ti  Ti80  1  0.86954784  0.79734559  0.61431300  1
  Ti  Ti81  1  0.17496064  0.26410144  0.30043547  1
  Ti  Ti82  1  0.16810366  0.30400768  0.54439817  1
  Ti  Ti83  1  0.22862391  0.25128350  0.96027294  1
  Ti  Ti84  1  0.22121273  0.51133527  0.26656052  1
  Ti  Ti85  1  0.28289949  0.62472538  0.58786092  1
  Ti  Ti86  1  0.24383516  0.63723917  0.86435873  1
  Ti  Ti87  1  0.22244711  0.90289024  0.19942688  1
  Ti  Ti88  1  0.26019450  0.92644261  0.53574546  1
  Ti  Ti89  1  0.29640141  0.88150999  0.88523794  1
  Ti  Ti90  1  0.63588183  0.25355111  0.24811546  1
  Ti  Ti91  1  0.56307060  0.22725890  0.57474642  1
  Ti  Ti92  1  0.57779972  0.22057146  0.96265180  1
  Ti  Ti93  1  0.54230559  0.58084358  0.29815444  1
  Ti  Ti94  1  0.61405190  0.55445192  0.63591865  1
  Ti  Ti95  1  0.59875205  0.54961111  0.99499961  1
  Ti  Ti96  1  0.60025724  0.91672521  0.19621725  1
  Ti  Ti97  1  0.57176267  0.89666327  0.64912761  1
  Ti  Ti98  1  0.64919077  0.89653307  0.93281593  1
  Ti  Ti99  1  0.97178979  0.19968838  0.27194800  1
  Ti  Ti100  1  0.84980745  0.24208147  0.59411666  1
  Ti  Ti101  1  0.89221631  0.25268535  0.94473942  1
  Ti  Ti102  1  0.90787765  0.57773457  0.26077871  1
  Ti  Ti103  1  0.96110012  0.63637397  0.58005269  1
  Ti  Ti104  1  0.94220768  0.59632565  0.77550575  1
  Ti  Ti105  1  0.88135686  0.89196333  0.26994093  1
  Ti  Ti106  1  0.97293419  0.95541335  0.55884099  1
  Ti  Ti107  1  0.94120963  0.88145297  0.95389728  1
  Co  Co108  1  0.11153800  0.00375029  0.45782348  1
  Co  Co109  1  0.34389440  0.64968102  0.74380060  1
  Co  Co110  1  0.82695335  0.72976489  0.24513376  1
  Co  Co111  1  0.31393756  0.33519390  0.84635599  1
  Co  Co112  1  0.01671776  0.73153027  0.71919952  1
  Co  Co113  1  0.71979081  0.23992942  0.89158275  1
  Co  Co114  1  0.31535454  0.17986257  0.25193210  1
  Co  Co115  1  0.36722009  0.59520931  0.28900046  1
  Co  Co116  1  0.72117520  0.78992443  0.52233175  1
  Co  Co117  1  -0.10951241  0.40191688  0.29009996  1
  Co  Co118  1  0.25819590  0.19441738  0.79703478  1
  Co  Co119  1  0.05855987  0.43517432  0.08112530  1
  Co  Co120  1  0.24976541  0.62860522  0.16462151  1
  Co  Co121  1  0.32813755  0.47149065  0.14690472  1
  Co  Co122  1  0.92229420  0.00264740  0.82871427  1
  Co  Co123  1  0.71005625  0.50690322  0.51439748  1
  Co  Co124  1  0.78431516  0.64609247  0.58783130  1
  Co  Co125  1  0.57029453  0.71306955  0.57394916  1
  Co  Co126  1  0.04816047  0.30954671  0.19450878  1
  Co  Co127  1  0.60596491  0.26363131  0.40949861  1
  Co  Co128  1  0.57235468  0.65925626  0.15202981  1
  Co  Co129  1  0.81171862  0.27934638  0.22253157  1
  Co  Co130  1  0.80150569  -0.04641016  -0.01628374  1
  Co  Co131  1  0.81379506  0.10377214  0.04966122  1
  Co  Co132  1  0.19797587  0.51870358  0.05991315  1
  Co  Co133  1  0.28177045  0.33041560  0.68849957  1
  Co  Co134  1  -0.03594550  0.79139705  0.46482596  1
  Co  Co135  1  0.79776542  0.09508134  0.40199898  1
  Co  Co136  1  0.53931920  0.02297607  0.50260817  1
  Co  Co137  1  0.66844323  0.77760166  0.18334903  1
  Co  Co138  1  0.06547011  0.71696259  0.01568752  1
  Co  Co139  1  0.87199142  0.94239146  0.42542194  1
  Co  Co140  1  0.65585738  -0.02904367  0.77624602  1
  Co  Co141  1  0.82954542  0.05321814  0.55463927  1
  Co  Co142  1  0.47461693  0.24049624  0.22229302  1
  Co  Co143  1  0.83234779  0.71966725  0.76177840  1
  Co  Co144  1  0.58425123  0.49609878  0.15463173  1
  Co  Co145  1  -0.01877651  0.74590146  0.30014741  1
  Co  Co146  1  0.00458873  0.28486213  0.67837272  1
  Co  Co147  1  0.40978674  0.80544732  0.78216325  1
  Co  Co148  1  0.10638237  0.17727990  0.41336236  1
  Co  Co149  1  0.57592908  0.82409774  0.80359857  1
  Co  Co150  1  -0.07933753  0.20319619  0.11141514  1
  Co  Co151  1  0.42251475  0.93857882  0.56905558  1
  Co  Co152  1  -0.04387578  0.74289850  0.87415877  1
  Co  Co153  1  0.32209351  0.76659590  0.18165185  1
  Co  Co154  1  0.17496586  -0.07486509  0.78627851  1
  Co  Co155  1  0.46325008  0.56371714  0.88656157  1
  Co  Co156  1  0.26448431  0.18921310  0.61644430  1
  Co  Co157  1  0.44336213  0.46614443  0.38775295  1
  Co  Co158  1  0.71832010  0.18424343  0.52135076  1
  Co  Co159  1  0.32146781  -0.08744177  0.69513429  1
  Co  Co160  1  0.31189029  0.39162041  0.00304016  1
  Co  Co161  1  -0.05078390  0.09145378  -0.03619172  1
  Ni  Ni162  1  0.69276117  0.39125064  0.00427681  1
  Ni  Ni163  1  0.60398801  0.52596191  0.80882376  1
  Ni  Ni164  1  0.70968037  0.34408642  0.49508069  1
  Ni  Ni165  1  0.54501084  0.54870792  0.48372044  1
  Ni  Ni166  1  0.63874686  0.08567971  0.21815795  1
  Ni  Ni167  1  0.31485276  0.34093387  0.25432098  1
  Ni  Ni168  1  0.87159892  0.49876036  0.60598965  1
  Ni  Ni169  1  0.45498222  0.47431729  0.04109198  1
  Ni  Ni170  1  0.57264834  0.94252490  0.35302677  1
  Ni  Ni171  1  0.31626340  0.02060267  0.26436442  1
  Ni  Ni172  1  0.75272204  0.92203525  0.64188367  1
  Ni  Ni173  1  0.59340351  0.73301970  0.31779839  1
  Ni  Ni174  1  0.12986188  0.93607199  0.62660388  1
  Ni  Ni175  1  0.72917171  -0.02035800  0.31085716  1
  Ni  Ni176  1  0.75206721  0.53296707  0.33213094  1
  Ni  Ni177  1  0.07645795  0.61084867  0.88132496  1
  Ni  Ni178  1  0.12241228  0.59333148  0.52904238  1
  Ni  Ni179  1  0.76339806  -0.02325623  0.14993306  1
  Ni  Ni180  1  0.07661268  0.04971485  0.73803019  1
  Ni  Ni181  1  0.24437665  0.07708516  -0.08334909  1
  Ni  Ni182  1  0.54266435  0.04879247  0.91865749  1
  Ni  Ni183  1  0.45113648  0.61403635  0.61203273  1
  Ni  Ni184  1  -0.01757048  0.52690496  0.44255721  1
  Ni  Ni185  1  0.42034844  0.12732036  0.37363667  1
  Ni  Ni186  1  0.79708996  0.77824710  -0.07024688  1
  Ni  Ni187  1  0.06335106  0.47443289  0.78475122  1
  Ni  Ni188  1  0.00653125  0.24954749  0.52763559  1
  Ni  Ni189  1  0.54697048  0.38910114  0.51685893  1
  Ni  Ni190  1  0.22448051  0.46228753  0.56967462  1
  Ni  Ni191  1  0.26362935  0.57453965  0.42835597  1
  Ni  Ni192  1  0.52811549  -0.04137463  0.05163601  1
  Ni  Ni193  1  0.96285869  0.11904447  0.62998847  1
  Ni  Ni194  1  0.36159919  0.81263323  0.44790929  1
  Ni  Ni195  1  0.38915592  0.48793632  0.53940059  1
  Ni  Ni196  1  0.83351892  0.26409336  0.77481908  1
  Ni  Ni197  1  0.49364878  0.07351869  0.66126156  1
  Ni  Ni198  1  0.32131197  0.49082887  0.87643465  1
  Ni  Ni199  1  0.38564305  0.01023093  -0.03164163  1
  Ni  Ni200  1  -0.03420450  0.02677647  0.30639252  1
  Ni  Ni201  1  0.24352637  0.94653316  0.02776566  1
  Ni  Ni202  1  0.47052464  0.12600803  0.05845993  1
  Ni  Ni203  1  0.47004369  0.87373852  -0.07473252  1
  Ni  Ni204  1  0.57139093  0.28156556  0.80664493  1
  Ni  Ni205  1  0.29771310  0.23821494  0.44276799  1
  Ni  Ni206  1  0.04807112  0.31458714  -0.03086428  1
  Ni  Ni207  1  0.13302043  0.45901905  0.42252488  1
  Ni  Ni208  1  0.68851805  0.69644885  0.02962728  1
  Ni  Ni209  1  0.23835143  0.91688325  0.36712192  1
  Ni  Ni210  1  0.33001434  0.58526217  0.00564584  1
  Ni  Ni211  1  0.69589831  0.23086124  0.69559824  1
  Ni  Ni212  1  0.10111316  0.16875141  0.89407446  1
  Ni  Ni213  1  0.04121792  0.90565785  0.20814389  1
  Ni  Ni214  1  0.12276221  0.02784691  0.10995743  1
