# generated using pymatgen
data_Ti108Co54Ni53
_symmetry_space_group_name_H-M   'P 1'
_cell_length_a   14.58623947
_cell_length_b   14.56989070
_cell_length_c   14.62150962
_cell_angle_alpha   90.09950526
_cell_angle_beta   90.05726238
_cell_angle_gamma   89.93940899
_symmetry_Int_Tables_number   1
_chemical_formula_structural   Ti108Co54Ni53
_chemical_formula_sum   'Ti108 Co54 Ni53'
_cell_volume   3107.35400872
_cell_formula_units_Z   1
loop_
 _symmetry_equiv_pos_site_id
 _symmetry_equiv_pos_as_xyz
  1  'x, y, z'
loop_
 _atom_site_type_symbol
 _atom_site_label
 _atom_site_symmetry_multiplicity
 _atom_site_fract_x
 _atom_site_fract_y
 _atom_site_fract_z
 _atom_site_occupancy
  Ti  Ti0  1  0.03507131  0.09042705  0.23148298  1
  Ti  Ti1  1  0.11304767  0.04023657  0.55131022  1
  Ti  Ti2  1  0.09498973  0.05990931  0.90966948  1
  Ti  Ti3  1  0.08748229  0.47966559  0.24634171  1
  Ti  Ti4  1  0.06252598  0.33987078  0.63782230  1
  Ti  Ti5  1  0.04634827  0.39662195  0.91927704  1
  Ti  Ti6  1  0.20125435  0.80133631  0.21074231  1
  Ti  Ti7  1  -0.02100545  0.72282589  0.58080394  1
  Ti  Ti8  1  0.10552150  0.68531153  0.93662344  1
  Ti  Ti9  1  0.37476838  0.12686750  0.14136077  1
  Ti  Ti10  1  0.42884067  0.12461559  0.50422951  1
  Ti  Ti11  1  0.38535232  0.11609365  0.91656277  1
  Ti  Ti12  1  0.41814103  0.44840616  0.31974207  1
  Ti  Ti13  1  0.43341233  0.44186915  0.54543276  1
  Ti  Ti14  1  0.45985336  0.44809951  0.88682056  1
  Ti  Ti15  1  0.42362900  0.78955052  0.20174472  1
  Ti  Ti16  1  0.41231709  0.77056752  0.55819909  1
  Ti  Ti17  1  0.41216420  0.80956464  0.87988523  1
  Ti  Ti18  1  0.72082635  0.19767184  0.23405475  1
  Ti  Ti19  1  0.74826295  0.07779653  0.56755749  1
  Ti  Ti20  1  0.73796293  0.06856771  0.86373831  1
  Ti  Ti21  1  0.77167692  0.39881207  0.32523481  1
  Ti  Ti22  1  0.77062995  0.44294090  0.55578450  1
  Ti  Ti23  1  0.84232938  0.40454956  0.89751163  1
  Ti  Ti24  1  0.81528889  0.71868104  0.30146881  1
  Ti  Ti25  1  0.80436313  0.63993201  0.59548561  1
  Ti  Ti26  1  0.82392680  0.74111838  0.90902064  1
  Ti  Ti27  1  0.10801086  0.23177188  0.07857576  1
  Ti  Ti28  1  0.06925597  0.28969207  0.35391968  1
  Ti  Ti29  1  0.09406332  0.18789388  0.74503494  1
  Ti  Ti30  1  0.04512967  0.59520496  0.10618337  1
  Ti  Ti31  1  0.06225330  0.64036339  0.40153726  1
  Ti  Ti32  1  0.11515965  0.62041326  0.72210912  1
  Ti  Ti33  1  0.02083330  0.92101808  0.04809922  1
  Ti  Ti34  1  0.10051881  0.95508454  0.35454745  1
  Ti  Ti35  1  0.12051041  0.92250744  0.75733802  1
  Ti  Ti36  1  0.44780221  0.26017523  0.03289622  1
  Ti  Ti37  1  0.37541246  0.27135368  0.40301491  1
  Ti  Ti38  1  0.39093913  0.29246615  0.80339704  1
  Ti  Ti39  1  0.42181717  0.55349269  0.09252425  1
  Ti  Ti40  1  0.36530007  0.58473452  0.43872929  1
  Ti  Ti41  1  0.33094546  0.52001570  0.74967472  1
  Ti  Ti42  1  0.48511178  0.91767049  0.06197784  1
  Ti  Ti43  1  0.39092984  0.91116591  0.43284395  1
  Ti  Ti44  1  0.33086027  0.95167563  0.77577643  1
  Ti  Ti45  1  0.77214267  0.29815703  0.04513523  1
  Ti  Ti46  1  0.75025925  0.24322353  0.44842730  1
  Ti  Ti47  1  0.69672817  0.20533930  0.70392687  1
  Ti  Ti48  1  0.73724656  0.58724894  0.11383956  1
  Ti  Ti49  1  0.73119857  0.58329793  0.41559865  1
  Ti  Ti50  1  0.72790240  0.57106098  0.87407224  1
  Ti  Ti51  1  0.79646559  0.99111747  0.11646649  1
  Ti  Ti52  1  0.70893821  0.92555043  0.38993865  1
  Ti  Ti53  1  0.77158468  0.87862272  0.74025364  1
  Ti  Ti54  1  0.25109215  -0.01031856  0.06407681  1
  Ti  Ti55  1  0.26827076  0.06265742  0.41707007  1
  Ti  Ti56  1  0.36890687  0.12835869  0.69342573  1
  Ti  Ti57  1  0.23178232  0.43938535  0.08423913  1
  Ti  Ti58  1  0.23474482  0.40213957  0.35691936  1
  Ti  Ti59  1  0.25128015  0.36224502  0.68586630  1
  Ti  Ti60  1  0.24465040  0.66060322  0.09574617  1
  Ti  Ti61  1  0.24898151  0.74428525  0.40168488  1
  Ti  Ti62  1  0.27310517  0.75237525  0.73887983  1
  Ti  Ti63  1  0.60702355  0.07882931  0.11581104  1
  Ti  Ti64  1  0.57010728  0.12183794  0.35702793  1
  Ti  Ti65  1  0.54521561  0.14934338  0.80292505  1
  Ti  Ti66  1  0.57235981  0.41060938  0.06620852  1
  Ti  Ti67  1  0.59025516  0.45110122  0.45489951  1
  Ti  Ti68  1  0.64672359  0.43904320  0.71172317  1
  Ti  Ti69  1  0.57083555  0.71806619  0.09523646  1
  Ti  Ti70  1  0.59097883  0.73837150  0.32862721  1
  Ti  Ti71  1  0.58955519  0.77085912  0.77205940  1
  Ti  Ti72  1  0.90014230  0.16419035  0.11601197  1
  Ti  Ti73  1  0.94659192  0.08326199  0.45457079  1
  Ti  Ti74  1  0.93296163  0.01770812  0.81614618  1
  Ti  Ti75  1  0.89769078  0.45034782  0.11291480  1
  Ti  Ti76  1  0.93056664  0.32541827  0.48631547  1
  Ti  Ti77  1  0.89913503  0.40305428  0.69179552  1
  Ti  Ti78  1  0.85705490  0.79175187  0.10737053  1
  Ti  Ti79  1  0.90651211  0.81304483  0.42978710  1
  Ti  Ti80  1  0.95890575  0.78208786  0.76435445  1
  Ti  Ti81  1  0.22876210  0.19964196  0.26979935  1
  Ti  Ti82  1  0.22135245  0.20382691  0.58519053  1
  Ti  Ti83  1  0.25151135  0.29542022  0.93796209  1
  Ti  Ti84  1  0.34383007  0.63965488  0.26412864  1
  Ti  Ti85  1  0.29653023  0.60396288  0.59806673  1
  Ti  Ti86  1  0.29187399  0.56179997  0.94522634  1
  Ti  Ti87  1  0.36082885  0.95918194  0.23185898  1
  Ti  Ti88  1  0.27176075  0.92182517  0.60610882  1
  Ti  Ti89  1  0.20985283  0.87687666  0.91399509  1
  Ti  Ti90  1  0.51527622  0.26480093  0.23197134  1
  Ti  Ti91  1  0.51932713  0.26383812  0.63263872  1
  Ti  Ti92  1  0.61864859  0.28548476  0.92639656  1
  Ti  Ti93  1  0.59078272  0.46590411  0.25149253  1
  Ti  Ti94  1  0.51301369  0.57408853  0.67464427  1
  Ti  Ti95  1  0.53749855  0.62873959  0.88457756  1
  Ti  Ti96  1  0.62421830  0.89527535  0.19591864  1
  Ti  Ti97  1  0.57149215  0.91917881  0.62539873  1
  Ti  Ti98  1  0.56000266  0.95461697  0.87767496  1
  Ti  Ti99  1  0.89573545  0.21126700  0.31772162  1
  Ti  Ti100  1  0.93294293  0.16851180  0.62765062  1
  Ti  Ti101  1  0.91370990  0.20409477  0.91088938  1
  Ti  Ti102  1  0.90415884  0.55139151  0.28840328  1
  Ti  Ti103  1  1.00152352  0.51695395  0.55494306  1
  Ti  Ti104  1  0.94135054  0.58083911  0.85448393  1
  Ti  Ti105  1  0.97142068  0.88050097  0.23516191  1
  Ti  Ti106  1  0.94586859  0.93187892  0.63058774  1
  Ti  Ti107  1  0.84242081  0.92316677  0.94921214  1
  Co  Co108  1  -0.02233610  0.30669048  0.79252649  1
  Co  Co109  1  0.03958196  0.04917737  0.70064180  1
  Co  Co110  1  0.85064884  0.30875596  0.19076469  1
  Co  Co111  1  0.58735750  0.56267598  0.02223622  1
  Co  Co112  1  0.26645386  0.72969512  0.93592789  1
  Co  Co113  1  0.89537080  0.64192732  0.14724018  1
  Co  Co114  1  0.12700957  0.36401763  0.50083489  1
  Co  Co115  1  0.82332336  0.69815345  0.75136700  1
  Co  Co116  1  0.21638048  0.24184158  0.43657204  1
  Co  Co117  1  0.37281191  0.40109191  0.00962903  1
  Co  Co118  1  0.73137996  0.45825982  0.00619580  1
  Co  Co119  1  0.56662745  0.31873068  0.78576525  1
  Co  Co120  1  0.43890310  0.40748705  0.16323414  1
  Co  Co121  1  0.27424243  0.50273494  0.22182799  1
  Co  Co122  1  0.83646367  0.81011384  0.60682221  1
  Co  Co123  1  0.81008378  0.27684956  0.60388561  1
  Co  Co124  1  0.85221158  0.19231808  0.75747736  1
  Co  Co125  1  0.23301670  0.14165976  -0.00134053  1
  Co  Co126  1  0.39867221  0.13060518  0.30659960  1
  Co  Co127  1  0.41703849  0.70041262  0.01510178  1
  Co  Co128  1  0.41969232  -0.01966454  0.59076828  1
  Co  Co129  1  0.14986992  0.64712012  0.23802818  1
  Co  Co130  1  0.12617038  0.76265949  0.80357596  1
  Co  Co131  1  0.35544146  0.29815054  0.23979718  1
  Co  Co132  1  0.24463370  0.03442988  0.87855174  1
  Co  Co133  1  -0.06382248  0.38629796  0.30468877  1
  Co  Co134  1  0.14600599  0.33182361  0.80181182  1
  Co  Co135  1  0.66863290  -0.01487511  -0.00569026  1
  Co  Co136  1  0.68792480  0.03363507  0.26281669  1
  Co  Co137  1  0.51452249  0.29726094  0.46680003  1
  Co  Co138  1  0.49640842  0.62665549  0.52220005  1
  Co  Co139  1  0.32607897  0.83444717  0.07133709  1
  Co  Co140  1  0.43328167  0.74059751  0.38424236  1
  Co  Co141  1  0.76523017  0.34938770  0.76572685  1
  Co  Co142  1  0.89741610  0.64621014  0.43794920  1
  Co  Co143  1  0.75360999  0.23176171  0.87843174  1
  Co  Co144  1  0.22451948  0.04820817  0.24925587  1
  Co  Co145  1  0.25256764  0.89770744  0.32995048  1
  Co  Co146  1  0.43960783  0.85493552  0.70348338  1
  Co  Co147  1  0.24702721  0.75867934  0.56094263  1
  Co  Co148  1  0.06266223  0.41269007  0.09276497  1
  Co  Co149  1  0.37737876  -0.04339769  -0.05091727  1
  Co  Co150  1  0.01025616  0.27918037  0.19780879  1
  Co  Co151  1  0.68203700  0.69335313  -0.02905096  1
  Co  Co152  1  0.61974342  0.45067855  0.88673325  1
  Co  Co153  1  0.81852824  0.03642966  0.70616123  1
  Co  Co154  1  0.86012550  0.56988361  -0.00321534  1
  Co  Co155  1  -0.08529350  -0.03751752  0.36635638  1
  Co  Co156  1  0.55467385  0.79631614  -0.04803596  1
  Co  Co157  1  0.67597494  0.60362300  0.26999834  1
  Co  Co158  1  0.19620958  -0.10544836  0.47626950  1
  Co  Co159  1  0.03386657  0.76002658  0.13339965  1
  Co  Co160  1  -0.05214986  0.31053822  0.03676058  1
  Co  Co161  1  0.25872888  0.43217590  0.86441107  1
  Ni  Ni162  1  0.50999366  0.03088183  0.23454702  1
  Ni  Ni163  1  0.20966258  0.06098925  0.70177704  1
  Ni  Ni164  1  0.13088450  0.52330580  -0.02538363  1
  Ni  Ni165  1  0.66661562  0.62887912  0.72131061  1
  Ni  Ni166  1  -0.01482924  0.71103519  0.27819776  1
  Ni  Ni167  1  0.03287718  0.89524680  0.49854218  1
  Ni  Ni168  1  0.13395679  0.64337620  0.55335841  1
  Ni  Ni169  1  0.52589179  0.58301641  0.36740923  1
  Ni  Ni170  1  0.70307505  0.83874651  0.04956755  1
  Ni  Ni171  1  0.52200380  0.89443996  0.33454703  1
  Ni  Ni172  1  0.04404171  0.46274132  0.40392066  1
  Ni  Ni173  1  0.62732299  0.30957577  0.34941902  1
  Ni  Ni174  1  0.21117403  0.56618173  0.36632737  1
  Ni  Ni175  1  0.11087601  0.80642737  0.63738461  1
  Ni  Ni176  1  0.86191802  0.05752245  0.24976247  1
  Ni  Ni177  1  0.27782183  0.42169380  0.51649834  1
  Ni  Ni178  1  0.61316758  0.16665866  0.51222185  1
  Ni  Ni179  1  0.71992339  0.40702007  0.16566882  1
  Ni  Ni180  1  0.61639949  0.24060509  0.09485147  1
  Ni  Ni181  1  0.65263390  0.32573546  0.56008577  1
  Ni  Ni182  1  0.55408430  0.12225563  -0.03241709  1
  Ni  Ni183  1  0.79997852  0.88902101  0.25391559  1
  Ni  Ni184  1  0.04808346  0.46642859  0.75817133  1
  Ni  Ni185  1  0.10961038  0.12158862  0.38222808  1
  Ni  Ni186  1  0.43078858  0.70062936  0.71060568  1
  Ni  Ni187  1  0.87938789  0.48209259  0.43793527  1
  Ni  Ni188  1  -0.05574397  0.59354224  0.69172262  1
  Ni  Ni189  1  0.70888597  0.75062122  0.18774535  1
  Ni  Ni190  1  0.51237625  0.61933358  0.21272247  1
  Ni  Ni191  1  0.16180324  0.49125376  0.62244525  1
  Ni  Ni192  1  0.36748154  0.28546387  0.58333945  1
  Ni  Ni193  1  0.38055645  0.64635510  0.84819379  1
  Ni  Ni194  1  0.54069688  0.09315243  0.63153638  1
  Ni  Ni195  1  0.64872286  0.56801395  0.56829978  1
  Ni  Ni196  1  0.79806054  0.52560612  0.73144196  1
  Ni  Ni197  1  0.05991732  0.20828429  0.51573328  1
  Ni  Ni198  1  0.15850612  0.81111105  0.04914575  1
  Ni  Ni199  1  0.02375215  0.86090298  0.89802583  1
  Ni  Ni200  1  0.48001420  0.00551792  0.74922891  1
  Ni  Ni201  1  0.54816249  -0.00004568  0.47684314  1
  Ni  Ni202  1  0.65432019  0.02510948  0.72672266  1
  Ni  Ni203  1  0.17176741  0.34103839  0.20392049  1
  Ni  Ni204  1  0.74945459  0.13206627  0.02103733  1
  Ni  Ni205  1  0.82960369  -0.05283184  0.50810489  1
  Ni  Ni206  1  -0.04265526  0.70768746  -0.00424529  1
  Ni  Ni207  1  0.77931736  0.08431464  0.39530755  1
  Ni  Ni208  1  0.69362656  0.85022695  0.88668235  1
  Ni  Ni209  1  0.45696094  0.41236268  0.70515742  1
  Ni  Ni210  1  0.24969424  0.18619066  0.81047017  1
  Ni  Ni211  1  -0.06268513  0.05615275  -0.00420575  1
  Ni  Ni212  1  0.08604377  0.22575717  0.91374343  1
  Ni  Ni213  1  0.28058352  0.26614097  0.09966368  1
  Ni  Ni214  1  0.12653840  -0.05552195  0.17580037  1
