# generated using pymatgen
data_Ti108Co54Ni53
_symmetry_space_group_name_H-M   'P 1'
_cell_length_a   14.65112356
_cell_length_b   14.62216858
_cell_length_c   14.60125387
_cell_angle_alpha   89.95324089
_cell_angle_beta   89.93754244
_cell_angle_gamma   89.92327747
_symmetry_Int_Tables_number   1
_chemical_formula_structural   Ti108Co54Ni53
_chemical_formula_sum   'Ti108 Co54 Ni53'
_cell_volume   3128.03841719
_cell_formula_units_Z   1
loop_
 _symmetry_equiv_pos_site_id
 _symmetry_equiv_pos_as_xyz
  1  'x, y, z'
loop_
 _atom_site_type_symbol
 _atom_site_label
 _atom_site_symmetry_multiplicity
 _atom_site_fract_x
 _atom_site_fract_y
 _atom_site_fract_z
 _atom_site_occupancy
  Ti  Ti0  1  0.09419314  0.17524917  0.21728905  1
  Ti  Ti1  1  0.06705172  0.05812470  0.59568341  1
  Ti  Ti2  1  0.06126845  0.15246516  0.89089303  1
  Ti  Ti3  1  0.12953887  0.45663565  0.20877144  1
  Ti  Ti4  1  0.09427020  0.37730405  0.55077554  1
  Ti  Ti5  1  0.08584120  0.39890342  0.88553797  1
  Ti  Ti6  1  0.06734166  0.74026170  0.24361646  1
  Ti  Ti7  1  0.06307011  0.72252365  0.68626633  1
  Ti  Ti8  1  0.07854587  0.77593801  0.95187979  1
  Ti  Ti9  1  0.38567757  0.13404748  0.19341465  1
  Ti  Ti10  1  0.45720805  0.07522789  0.63550123  1
  Ti  Ti11  1  0.42402584  0.13334385  0.90897139  1
  Ti  Ti12  1  0.47105807  0.44712168  0.20793816  1
  Ti  Ti13  1  0.39792100  0.37596474  0.56028042  1
  Ti  Ti14  1  0.43945535  0.42117510  0.90496418  1
  Ti  Ti15  1  0.40026813  0.72508012  0.34674441  1
  Ti  Ti16  1  0.37693696  0.72671973  0.59205476  1
  Ti  Ti17  1  0.46362912  0.75228185  0.96054645  1
  Ti  Ti18  1  0.78627719  0.06031172  0.15082275  1
  Ti  Ti19  1  0.64878516  0.08657691  0.57624646  1
  Ti  Ti20  1  0.78923641  0.04889496  0.93213755  1
  Ti  Ti21  1  0.76763803  0.42211570  0.33816686  1
  Ti  Ti22  1  0.78712789  0.43215220  0.52720705  1
  Ti  Ti23  1  0.76799688  0.43359374  0.98184285  1
  Ti  Ti24  1  0.71093685  0.65760742  0.36129117  1
  Ti  Ti25  1  0.76593572  0.65364635  0.61471777  1
  Ti  Ti26  1  0.65798590  0.73300785  0.92305278  1
  Ti  Ti27  1  0.06169433  0.33348133  0.08668338  1
  Ti  Ti28  1  0.14533058  0.20974958  0.42439632  1
  Ti  Ti29  1  0.02791092  0.24415007  0.72674212  1
  Ti  Ti30  1  0.05867296  0.54396693  0.05938551  1
  Ti  Ti31  1  0.05187710  0.58926187  0.47679101  1
  Ti  Ti32  1  0.12879294  0.54994811  0.77827167  1
  Ti  Ti33  1  0.07496347  0.96664841  -0.02578653  1
  Ti  Ti34  1  0.17436644  0.87436525  0.44433682  1
  Ti  Ti35  1  0.15855345  0.89971500  0.73294165  1
  Ti  Ti36  1  0.37588254  0.27302830  0.04223866  1
  Ti  Ti37  1  0.48490602  0.32976297  0.37298303  1
  Ti  Ti38  1  0.36120782  0.22588623  0.73258837  1
  Ti  Ti39  1  0.42224177  0.60267435  0.09543894  1
  Ti  Ti40  1  0.42466333  0.55858782  0.47992628  1
  Ti  Ti41  1  0.44958529  0.57127106  0.75573827  1
  Ti  Ti42  1  0.38073783  0.89180817  0.08041118  1
  Ti  Ti43  1  0.41005158  0.90017782  0.43242654  1
  Ti  Ti44  1  0.38911239  0.88013238  0.75023725  1
  Ti  Ti45  1  0.76427040  0.27075594  0.16851158  1
  Ti  Ti46  1  0.67172065  0.25996449  0.38062451  1
  Ti  Ti47  1  0.75656509  0.29810753  0.74160289  1
  Ti  Ti48  1  0.72095267  0.61680860  0.08804184  1
  Ti  Ti49  1  0.86311442  0.59511203  0.45422010  1
  Ti  Ti50  1  0.78874705  0.58737526  0.79086981  1
  Ti  Ti51  1  0.71236947  0.90079462  0.03197579  1
  Ti  Ti52  1  0.77922433  0.93920801  0.47141021  1
  Ti  Ti53  1  0.72610652  0.98021868  0.72904486  1
  Ti  Ti54  1  0.26015291  0.05217130  0.01521366  1
  Ti  Ti55  1  0.32638844  0.07269500  0.40288480  1
  Ti  Ti56  1  0.17747383  0.11172240  0.73209441  1
  Ti  Ti57  1  0.32240724  0.44845359  0.06991998  1
  Ti  Ti58  1  0.16147703  0.41313514  0.38113616  1
  Ti  Ti59  1  0.23957076  0.39887352  0.69092384  1
  Ti  Ti60  1  0.28416862  0.73843635  0.03717397  1
  Ti  Ti61  1  0.25771789  0.58558208  0.38510201  1
  Ti  Ti62  1  0.26828613  0.66009273  0.73315611  1
  Ti  Ti63  1  0.56336755  0.04025019  0.02041258  1
  Ti  Ti64  1  0.59832060  0.05222668  0.38898141  1
  Ti  Ti65  1  0.58353636  0.16361164  0.75184821  1
  Ti  Ti66  1  0.59301228  0.33276924  0.08493547  1
  Ti  Ti67  1  0.59083613  0.43890575  0.49014044  1
  Ti  Ti68  1  0.57673943  0.38528513  0.74834930  1
  Ti  Ti69  1  0.55928324  0.78258557  0.13383117  1
  Ti  Ti70  1  0.58352546  0.82835664  0.34471138  1
  Ti  Ti71  1  0.65163318  0.78917344  0.70832624  1
  Ti  Ti72  1  0.95820913  0.08773541  0.07552430  1
  Ti  Ti73  1  0.89359432  0.12434533  0.50217421  1
  Ti  Ti74  1  0.90498383  0.09987224  0.72844643  1
  Ti  Ti75  1  0.92039984  0.40255681  0.19429802  1
  Ti  Ti76  1  0.95398623  0.32562381  0.41464345  1
  Ti  Ti77  1  0.90226869  0.37387434  0.82459318  1
  Ti  Ti78  1  0.93524639  0.71051676  0.09353906  1
  Ti  Ti79  1  0.92892615  0.78328039  0.43034304  1
  Ti  Ti80  1  0.84698894  0.77829016  0.75799634  1
  Ti  Ti81  1  0.30274621  0.29630829  0.27733583  1
  Ti  Ti82  1  0.28005029  0.14319431  0.57308091  1
  Ti  Ti83  1  0.20271245  0.26884277  0.97515453  1
  Ti  Ti84  1  0.24564350  0.61563694  0.18480010  1
  Ti  Ti85  1  0.20484757  0.65533197  0.55085320  1
  Ti  Ti86  1  0.24226165  0.59448390  0.93871682  1
  Ti  Ti87  1  0.28225535  0.98000156  0.21969720  1
  Ti  Ti88  1  0.30167302  0.95160853  0.58323825  1
  Ti  Ti89  1  0.26213441  0.86343013  0.90330922  1
  Ti  Ti90  1  0.56573641  0.16747485  0.22526791  1
  Ti  Ti91  1  0.66581745  0.28244514  0.57994257  1
  Ti  Ti92  1  0.63360247  0.20562784  0.93617525  1
  Ti  Ti93  1  0.55049483  0.63740802  0.24465118  1
  Ti  Ti94  1  0.56337419  0.64658848  0.59421679  1
  Ti  Ti95  1  0.60084563  0.54800920  0.89864829  1
  Ti  Ti96  1  0.61649991  0.96446517  0.20299591  1
  Ti  Ti97  1  0.59498876  0.90553038  0.53339946  1
  Ti  Ti98  1  0.56041792  0.89107238  0.85380156  1
  Ti  Ti99  1  0.86392542  0.19303742  0.31574419  1
  Ti  Ti100  1  0.90021801  0.30598475  0.61160326  1
  Ti  Ti101  1  0.91904059  0.27456259  0.99732922  1
  Ti  Ti102  1  0.84243845  0.57895423  0.24641905  1
  Ti  Ti103  1  0.95081010  0.56837976  0.65345425  1
  Ti  Ti104  1  0.89687146  0.58841769  0.94021926  1
  Ti  Ti105  1  0.83184320  0.87922884  0.21607982  1
  Ti  Ti106  1  0.95920752  0.89057283  0.63345317  1
  Ti  Ti107  1  0.90020663  0.85507764  0.93959283  1
  Co  Co108  1  -0.03291704  0.52117491  0.80835480  1
  Co  Co109  1  0.28997786  0.46105760  0.23944342  1
  Co  Co110  1  0.80872167  0.27202070  0.46920657  1
  Co  Co111  1  0.24162942  0.16450046  0.12761041  1
  Co  Co112  1  0.04086732  0.01244017  0.76779139  1
  Co  Co113  1  0.66127597  0.14878535  0.09786787  1
  Co  Co114  1  -0.05733787  0.03150648  -0.09539265  1
  Co  Co115  1  0.46258858  0.00996746  0.31165089  1
  Co  Co116  1  0.11778194  0.58404513  0.31485042  1
  Co  Co117  1  0.56959176  0.63466339  0.03741804  1
  Co  Co118  1  0.87848054  -0.05890522  0.78348790  1
  Co  Co119  1  0.78019681  0.16719937  0.62159301  1
  Co  Co120  1  0.80214139  0.17744622  0.02732553  1
  Co  Co121  1  0.06424436  0.79701619  0.54351061  1
  Co  Co122  1  -0.10621489  0.19550701  0.85824504  1
  Co  Co123  1  0.61221040  0.37729083  -0.08121204  1
  Co  Co124  1  0.39187980  0.72309243  0.18179025  1
  Co  Co125  1  0.40994959  0.38926117  0.72815662  1
  Co  Co126  1  0.40608672  0.56906976  0.29566386  1
  Co  Co127  1  0.91174750  0.72682475  0.58576617  1
  Co  Co128  1  0.74174637  0.12225906  0.44431657  1
  Co  Co129  1  0.45918964  0.28746754  0.20127078  1
  Co  Co130  1  0.86287392  0.73529077  0.26758483  1
  Co  Co131  1  0.49973905  0.77001265  0.48768166  1
  Co  Co132  1  0.46494076  0.05001499  0.48498144  1
  Co  Co133  1  0.40089535  0.21667752  0.50867324  1
  Co  Co134  1  0.54435203  0.88600548  0.02077209  1
  Co  Co135  1  0.34915138  0.54574142  0.63192329  1
  Co  Co136  1  0.81291657  0.72112186  0.92851585  1
  Co  Co137  1  0.09671812  0.16460127  0.04855252  1
  Co  Co138  1  0.57298272  -0.03749820  0.68997966  1
  Co  Co139  1  0.01580430  0.85192506  0.80274885  1
  Co  Co140  1  0.55193952  0.64130410  0.41564358  1
  Co  Co141  1  0.51272332  0.48099851  0.62788281  1
  Co  Co142  1  0.48431888  0.27359208  0.85536292  1
  Co  Co143  1  0.10323597  0.72579186  0.40838259  1
  Co  Co144  1  0.15985540  0.73405755  0.82472135  1
  Co  Co145  1  0.84911999  0.45066069  0.68826913  1
  Co  Co146  1  0.28970499  0.76696403  0.46057315  1
  Co  Co147  1  0.55835079  0.49576042  0.34646583  1
  Co  Co148  1  0.19449848  0.88813025  0.06028477  1
  Co  Co149  1  -0.02987176  0.64971676  0.34289297  1
  Co  Co150  1  0.88712721  -0.05940484  0.06881735  1
  Co  Co151  1  0.46651224  0.00350126  0.15024792  1
  Co  Co152  1  0.71152755  0.13476410  0.27425796  1
  Co  Co153  1  0.55921270  0.20116516  0.48612990  1
  Co  Co154  1  0.72585935  0.44376483  0.81706148  1
  Co  Co155  1  0.76477160  0.29019096  0.90714565  1
  Co  Co156  1  0.00140123  0.57888176  0.20059125  1
  Co  Co157  1  0.17525983  0.44322564  0.01831200  1
  Co  Co158  1  0.50410521  0.18698275  0.06383331  1
  Co  Co159  1  0.68653554  0.46175739  0.64725807  1
  Co  Co160  1  -0.04756726  0.43304386  -0.02164195  1
  Co  Co161  1  0.04980148  0.40424096  0.71261799  1
  Ni  Ni162  1  0.87721165  0.53185419  0.09162482  1
  Ni  Ni163  1  0.69771476  0.74789653  0.22038666  1
  Ni  Ni164  1  0.45359432  0.17233043  0.35456273  1
  Ni  Ni165  1  0.49973503  0.25815498  0.63627591  1
  Ni  Ni166  1  0.97500307  0.48112843  0.34415770  1
  Ni  Ni167  1  0.74539230  -0.01275463  0.31576504  1
  Ni  Ni168  1  0.13696109  0.02567768  0.13455555  1
  Ni  Ni169  1  0.74468180  0.14126374  0.79423270  1
  Ni  Ni170  1  0.07143291  0.60893798  -0.08306629  1
  Ni  Ni171  1  0.22161021  0.32787039  0.13872173  1
  Ni  Ni172  1  0.18060879  0.03859993  0.48016105  1
  Ni  Ni173  1  0.26257405  0.81852276  0.18923992  1
  Ni  Ni174  1  0.32287917  0.03921334  0.74808698  1
  Ni  Ni175  1  0.67138381  0.75439004  0.50333901  1
  Ni  Ni176  1  0.30332669  0.49519953  0.81510416  1
  Ni  Ni177  1  0.75396036  0.82301966  0.36190373  1
  Ni  Ni178  1  0.43845927  0.86456102  0.24940254  1
  Ni  Ni179  1  0.62157604  0.36650881  0.25291247  1
  Ni  Ni180  1  0.31960097  0.32085829  -0.13759132  1
  Ni  Ni181  1  0.41410070  0.59203793  -0.07641728  1
  Ni  Ni182  1  0.68680248  0.57103447  0.49594251  1
  Ni  Ni183  1  0.52154751  0.47576809  0.03620307  1
  Ni  Ni184  1  0.34613047  0.42662556  0.39208160  1
  Ni  Ni185  1  0.78280058  0.83640568  0.60777398  1
  Ni  Ni186  1  0.62727403  0.58448815  0.73653124  1
  Ni  Ni187  1  0.22634992  0.73184653  0.31306535  1
  Ni  Ni188  1  0.02823177  0.85291151  0.10347823  1
  Ni  Ni189  1  0.12556702  0.70225615  0.08974090  1
  Ni  Ni190  1  0.49988348  0.82244371  0.64467274  1
  Ni  Ni191  1  0.12643487  0.52558814  0.62036850  1
  Ni  Ni192  1  0.24721805  0.47685364  0.52033782  1
  Ni  Ni193  1  0.25642049  0.31221664  0.49333286  1
  Ni  Ni194  1  0.23405778  0.13771698  0.28947167  1
  Ni  Ni195  1  -0.03140877  0.69289374  0.82691270  1
  Ni  Ni196  1  0.26601590  0.15640675  0.87078650  1
  Ni  Ni197  1  0.67477692  0.53257941  0.23874418  1
  Ni  Ni198  1  0.63165218  0.04101181  -0.13771663  1
  Ni  Ni199  1  0.17668871  0.27789052  0.79546781  1
  Ni  Ni200  1  0.04928949  0.32159703  0.28050512  1
  Ni  Ni201  1  0.36528330  0.73437923  0.83310861  1
  Ni  Ni202  1  0.73917610  0.87418728  0.86286880  1
  Ni  Ni203  1  -0.04939411  0.45970063  0.52029713  1
  Ni  Ni204  1  0.22144044  0.80859337  0.61420082  1
  Ni  Ni205  1  0.83601620  0.00249234  0.61073484  1
  Ni  Ni206  1  0.02838522  0.21216494  0.54503887  1
  Ni  Ni207  1  0.75267773  0.43278610  0.14788851  1
  Ni  Ni208  1  0.41014645  -0.05177481  -0.07655414  1
  Ni  Ni209  1  0.19059519  0.00942861  0.86148733  1
  Ni  Ni210  1  0.78764012  0.77066171  0.08743840  1
  Ni  Ni211  1  0.47875186  0.02976620  0.79879687  1
  Ni  Ni212  1  0.16976932  0.24984545  0.62870604  1
  Ni  Ni213  1  0.52984816  0.71555207  0.79924885  1
  Ni  Ni214  1  -0.06651683  0.23040492  0.16856361  1
