# generated using pymatgen
data_Ti108Co54Ni53
_symmetry_space_group_name_H-M   'P 1'
_cell_length_a   14.64835695
_cell_length_b   14.67048407
_cell_length_c   14.67606883
_cell_angle_alpha   90.15500648
_cell_angle_beta   90.17708300
_cell_angle_gamma   89.96220744
_symmetry_Int_Tables_number   1
_chemical_formula_structural   Ti108Co54Ni53
_chemical_formula_sum   'Ti108 Co54 Ni53'
_cell_volume   3153.83771656
_cell_formula_units_Z   1
loop_
 _symmetry_equiv_pos_site_id
 _symmetry_equiv_pos_as_xyz
  1  'x, y, z'
loop_
 _atom_site_type_symbol
 _atom_site_label
 _atom_site_symmetry_multiplicity
 _atom_site_fract_x
 _atom_site_fract_y
 _atom_site_fract_z
 _atom_site_occupancy
  Ti  Ti0  1  0.06057267  0.08084139  0.12708823  1
  Ti  Ti1  1  0.05085062  0.07995110  0.60763048  1
  Ti  Ti2  1  0.10281780  0.12048424  0.93967462  1
  Ti  Ti3  1  0.10489728  0.42751138  0.32100028  1
  Ti  Ti4  1  0.04439802  0.46843632  0.64073555  1
  Ti  Ti5  1  0.11623048  0.40726193  0.82820505  1
  Ti  Ti6  1  0.02530061  0.71592494  0.21949033  1
  Ti  Ti7  1  0.15002381  0.80790453  0.54478195  1
  Ti  Ti8  1  0.15212807  0.76367624  0.90681180  1
  Ti  Ti9  1  0.41279885  0.09206307  0.22076096  1
  Ti  Ti10  1  0.41355983  -0.00460263  0.61263943  1
  Ti  Ti11  1  0.44125691  0.06086115  0.89579282  1
  Ti  Ti12  1  0.39323129  0.47137607  0.24742503  1
  Ti  Ti13  1  0.42893001  0.48131575  0.56746399  1
  Ti  Ti14  1  0.40658522  0.38518933  0.86792192  1
  Ti  Ti15  1  0.36804293  0.69430491  0.22882963  1
  Ti  Ti16  1  0.41136807  0.77607790  0.58107600  1
  Ti  Ti17  1  0.48761078  0.72941555  0.96750635  1
  Ti  Ti18  1  0.76654253  0.13413369  0.29253163  1
  Ti  Ti19  1  0.70697805  0.11805092  0.57850593  1
  Ti  Ti20  1  0.68814416  0.04001481  0.97515287  1
  Ti  Ti21  1  0.69251103  0.44943346  0.29120239  1
  Ti  Ti22  1  0.76805974  0.31724130  0.58919765  1
  Ti  Ti23  1  0.70830719  0.37580891  0.92936965  1
  Ti  Ti24  1  0.80427569  0.79445013  0.24792646  1
  Ti  Ti25  1  0.78206194  0.71942441  0.65483838  1
  Ti  Ti26  1  0.69506196  0.73195560  0.95022042  1
  Ti  Ti27  1  0.14420914  0.24102171  0.08138024  1
  Ti  Ti28  1  0.05909990  0.25787528  0.40626699  1
  Ti  Ti29  1  0.01756299  0.19173339  0.76756878  1
  Ti  Ti30  1  0.04569186  0.52713253  0.15333358  1
  Ti  Ti31  1  0.06770486  0.54245141  0.45875906  1
  Ti  Ti32  1  0.08088837  0.61925058  0.76332512  1
  Ti  Ti33  1  0.08132819  0.93728994  -0.01092421  1
  Ti  Ti34  1  0.00310296  0.93253718  0.47026631  1
  Ti  Ti35  1  0.05926424  0.91349192  0.79939277  1
  Ti  Ti36  1  0.47375732  0.28866830  0.14666633  1
  Ti  Ti37  1  0.40089524  0.28796958  0.34052552  1
  Ti  Ti38  1  0.45261802  0.28400524  0.69783071  1
  Ti  Ti39  1  0.40086384  0.57390644  0.07643138  1
  Ti  Ti40  1  0.43056086  0.58953647  0.39099835  1
  Ti  Ti41  1  0.41529182  0.66421946  0.80195692  1
  Ti  Ti42  1  0.38796105  0.89388185  0.14597849  1
  Ti  Ti43  1  0.41656949  0.92151396  0.35034814  1
  Ti  Ti44  1  0.43994011  0.85687227  0.79773212  1
  Ti  Ti45  1  0.80936216  0.29631193  0.08038364  1
  Ti  Ti46  1  0.75806492  0.30959955  0.39677937  1
  Ti  Ti47  1  0.79542327  0.19306171  0.75466262  1
  Ti  Ti48  1  0.77068393  0.55673966  0.03915254  1
  Ti  Ti49  1  0.74317698  0.61831737  0.36568834  1
  Ti  Ti50  1  0.82102113  0.53327260  0.76237336  1
  Ti  Ti51  1  0.71144625  0.97530901  0.16343944  1
  Ti  Ti52  1  0.77978319  0.96203550  0.39827029  1
  Ti  Ti53  1  0.68488245  0.95821117  0.71642450  1
  Ti  Ti54  1  0.23482790  0.04365040  0.11213929  1
  Ti  Ti55  1  0.19885286  -0.06347450  0.38162314  1
  Ti  Ti56  1  0.27224166  0.13763537  0.78402739  1
  Ti  Ti57  1  0.29389354  0.37107059  0.10489479  1
  Ti  Ti58  1  0.27933860  0.45163081  0.43361004  1
  Ti  Ti59  1  0.27623697  0.51898185  0.82496972  1
  Ti  Ti60  1  0.20797531  0.69773936  0.09105184  1
  Ti  Ti61  1  0.31008279  0.76370583  0.40419879  1
  Ti  Ti62  1  0.28082545  0.80459376  0.71597967  1
  Ti  Ti63  1  0.58553473  0.11704841  0.14818081  1
  Ti  Ti64  1  0.52543870  0.07444657  0.45153773  1
  Ti  Ti65  1  0.60905928  0.13814926  0.78185703  1
  Ti  Ti66  1  0.59915703  0.45039892  0.10560836  1
  Ti  Ti67  1  0.61034320  0.47514707  0.47326035  1
  Ti  Ti68  1  0.62180466  0.45283944  0.67989603  1
  Ti  Ti69  1  0.59260268  0.83009251  0.10960448  1
  Ti  Ti70  1  0.53522867  0.74438090  0.40765396  1
  Ti  Ti71  1  0.62130586  0.76530251  0.75121824  1
  Ti  Ti72  1  0.88510679  0.12342398  0.15468209  1
  Ti  Ti73  1  0.95526230  0.05766111  0.34488296  1
  Ti  Ti74  1  0.89871124  0.00317858  0.70777223  1
  Ti  Ti75  1  0.98003383  0.39919879  0.01252536  1
  Ti  Ti76  1  0.92802878  0.39908878  0.47374934  1
  Ti  Ti77  1  0.93055863  0.35975518  0.76623160  1
  Ti  Ti78  1  0.89373988  0.76178965  0.06366873  1
  Ti  Ti79  1  0.97240018  0.70986514  0.41259808  1
  Ti  Ti80  1  0.94992144  0.76843365  0.74268788  1
  Ti  Ti81  1  0.20438130  0.18745240  0.26862185  1
  Ti  Ti82  1  0.25355390  0.31768451  0.59758066  1
  Ti  Ti83  1  0.23913715  0.28995945  0.91587007  1
  Ti  Ti84  1  0.22715050  0.53867021  0.18947105  1
  Ti  Ti85  1  0.21143287  0.60140561  0.61382165  1
  Ti  Ti86  1  0.12753260  0.56512343  0.95585112  1
  Ti  Ti87  1  0.19633708  0.86632153  0.19997249  1
  Ti  Ti88  1  0.20981709  0.97416886  0.67984784  1
  Ti  Ti89  1  0.25702874  0.96433615  0.90285107  1
  Ti  Ti90  1  0.65504830  0.27624536  0.22472275  1
  Ti  Ti91  1  0.55752095  0.27670470  0.52390497  1
  Ti  Ti92  1  0.53563498  0.24316359  0.94229607  1
  Ti  Ti93  1  0.55857763  0.59308101  0.25538445  1
  Ti  Ti94  1  0.63904531  0.65286652  0.55832424  1
  Ti  Ti95  1  0.57457326  0.49284707  0.88015887  1
  Ti  Ti96  1  0.61627818  0.88989387  0.33239636  1
  Ti  Ti97  1  0.64732850  0.85393138  0.53767493  1
  Ti  Ti98  1  0.57573965  0.91112035  0.90175665  1
  Ti  Ti99  1  0.98505470  0.30564606  0.19530108  1
  Ti  Ti100  1  0.98882408  0.27372793  0.59205676  1
  Ti  Ti101  1  0.88357415  0.25928146  0.90960900  1
  Ti  Ti102  1  0.85678964  0.47489982  0.19405694  1
  Ti  Ti103  1  0.91770967  0.59796165  0.59158322  1
  Ti  Ti104  1  0.91691452  0.64183970  0.90730022  1
  Ti  Ti105  1  0.99858386  0.91426255  0.20174186  1
  Ti  Ti106  1  0.83710978  0.87404802  0.56426523  1
  Ti  Ti107  1  0.88039915  0.91070365  0.91119997  1
  Co  Co108  1  0.88801690  0.15885010  0.63512161  1
  Co  Co109  1  0.37805376  0.27310212  0.00060717  1
  Co  Co110  1  0.72979048  0.71842895  0.11035277  1
  Co  Co111  1  -0.06788607  0.55534822  0.04246757  1
  Co  Co112  1  0.92970118  0.86037573  0.34118874  1
  Co  Co113  1  0.03300334  -0.09353479  0.63693404  1
  Co  Co114  1  0.49192602  0.79370628  0.25638731  1
  Co  Co115  1  0.49161395  -0.09845649  0.48978090  1
  Co  Co116  1  0.36773387  0.01184727  0.03971562  1
  Co  Co117  1  0.04247790  0.66918278  0.04042266  1
  Co  Co118  1  0.81655123  0.86351401  0.73682800  1
  Co  Co119  1  0.17106935  0.17258613  0.66517620  1
  Co  Co120  1  -0.02649607  0.14187252  0.48351772  1
  Co  Co121  1  0.10631087  0.08978001  0.40773913  1
  Co  Co122  1  0.12455491  0.02245080  0.26211189  1
  Co  Co123  1  0.67640888  0.60588962  0.73362172  1
  Co  Co124  1  0.11195590  0.60183529  0.30177937  1
  Co  Co125  1  0.59159852  0.32268024  0.37625319  1
  Co  Co126  1  0.24627425  0.86901024  0.03575360  1
  Co  Co127  1  0.27562243  0.31666828  0.76108709  1
  Co  Co128  1  0.36449535  0.75076414  0.06878360  1
  Co  Co129  1  0.13328954  0.37724036  0.16927225  1
  Co  Co130  1  0.90523696  0.23042797  0.34371952  1
  Co  Co131  1  0.42647862  0.88196640  -0.02653705  1
  Co  Co132  1  -0.00583746  0.78709798  0.91992463  1
  Co  Co133  1  0.29045575  0.64012988  -0.04554519  1
  Co  Co134  1  0.81509496  0.31672083  0.23802769  1
  Co  Co135  1  0.06600719  0.65552525  0.58687031  1
  Co  Co136  1  0.34717962  -0.01844797  0.76481758  1
  Co  Co137  1  0.52126477  0.68713980  0.13269018  1
  Co  Co138  1  -0.07282470  0.40023636  0.32289976  1
  Co  Co139  1  0.39820778  0.21938040  0.84583707  1
  Co  Co140  1  -0.11529056  0.55759015  0.43215346  1
  Co  Co141  1  0.73495965  0.14774906  0.10254336  1
  Co  Co142  1  0.70640815  0.58010300  0.19122358  1
  Co  Co143  1  -0.02893773  0.21180223  0.04400122  1
  Co  Co144  1  0.52557512  0.58561990  0.69297496  1
  Co  Co145  1  0.53286317  0.40605299  0.25609275  1
  Co  Co146  1  0.72195373  0.56932196  0.88796817  1
  Co  Co147  1  0.45320591  0.14241315  0.05234747  1
  Co  Co148  1  0.76628641  0.45816235  0.45953412  1
  Co  Co149  1  0.28952407  -0.00029936  0.26241182  1
  Co  Co150  1  0.20976537  0.72167014  0.26983101  1
  Co  Co151  1  0.42815325  0.55124703  0.91965793  1
  Co  Co152  1  0.82589613  0.19676024  0.48769404  1
  Co  Co153  1  0.57201617  0.64968669  0.85361190  1
  Co  Co154  1  -0.03622497  0.56207374  0.29934212  1
  Co  Co155  1  0.58741975  0.00534592  0.58868487  1
  Co  Co156  1  0.31891480  0.63205141  0.50013726  1
  Co  Co157  1  0.52146067  0.14580829  0.62431683  1
  Co  Co158  1  0.27038362  0.58490750  0.34410548  1
  Co  Co159  1  0.64763626  0.73330610  0.25266521  1
  Co  Co160  1  0.29031674  0.47986934  -0.01448660  1
  Co  Co161  1  0.23392365  0.67158930  0.79391937  1
  Ni  Ni162  1  0.30366592  0.89552987  0.52218283  1
  Ni  Ni163  1  0.36334107  0.61542260  0.66089176  1
  Ni  Ni164  1  0.12356977  0.38739287  0.50561097  1
  Ni  Ni165  1  -0.01522616  0.50762438  0.82923975  1
  Ni  Ni166  1  0.16309889  0.67743350  0.44124678  1
  Ni  Ni167  1  0.75356041  0.54180591  0.59581840  1
  Ni  Ni168  1  0.31388624  0.20015621  0.13485791  1
  Ni  Ni169  1  0.53412641  -0.00891156  0.04588299  1
  Ni  Ni170  1  0.11125395  0.31927592  0.69143219  1
  Ni  Ni171  1  0.63671248  0.26331726  0.67406944  1
  Ni  Ni172  1  0.86711694  0.64460824  0.18585453  1
  Ni  Ni173  1  0.63974546  0.27975169  0.05853083  1
  Ni  Ni174  1  0.08129910  0.81396748  0.08386989  1
  Ni  Ni175  1  0.51624620  0.00734269  0.74816064  1
  Ni  Ni176  1  0.09365825  0.81019300  0.35354096  1
  Ni  Ni177  1  0.05992308  0.28084385  -0.08097899  1
  Ni  Ni178  1  0.79393924  0.71338209  0.81870556  1
  Ni  Ni179  1  0.75320845  0.87139743  0.03582085  1
  Ni  Ni180  1  0.75495015  0.36077781  0.76763435  1
  Ni  Ni181  1  0.81945369  0.69999972  0.49587081  1
  Ni  Ni182  1  0.85319472  0.45271196  -0.08373557  1
  Ni  Ni183  1  0.46199475  0.42512073  0.41092302  1
  Ni  Ni184  1  0.86073471  0.03437526  0.52971551  1
  Ni  Ni185  1  0.70832202  0.20179694  0.91231790  1
  Ni  Ni186  1  0.11557240  0.06329965  0.78726563  1
  Ni  Ni187  1  0.66251751  0.16960953  0.42010241  1
  Ni  Ni188  1  0.60464074  0.60197047  0.02089995  1
  Ni  Ni189  1  0.11981666  0.77481488  0.70653592  1
  Ni  Ni190  1  0.83764755  0.12022290  -0.02418905  1
  Ni  Ni191  1  0.39729529  0.31741059  0.51375733  1
  Ni  Ni192  1  0.03973287  0.16862778  0.26284559  1
  Ni  Ni193  1  -0.04577330  0.05887464  0.86157688  1
  Ni  Ni194  1  0.84762166  -0.03013482  0.24560676  1
  Ni  Ni195  1  0.48194091  0.63669471  0.54079278  1
  Ni  Ni196  1  0.52917701  0.18819432  0.30421204  1
  Ni  Ni197  1  0.20599859  0.45384999  0.68523668  1
  Ni  Ni198  1  0.15658729  -0.01629224  0.52939573  1
  Ni  Ni199  1  0.37179790  0.44258141  0.70844037  1
  Ni  Ni200  1  0.45254129  0.41798621  0.02892946  1
  Ni  Ni201  1  0.14760783  0.40267353  0.00603832  1
  Ni  Ni202  1  0.25905402  0.36418248  0.27771766  1
  Ni  Ni203  1  0.77721294  0.04565913  0.83315360  1
  Ni  Ni204  1  0.62194767  0.05210095  0.30984039  1
  Ni  Ni205  1  0.87335769  0.43204052  0.63258546  1
  Ni  Ni206  1  0.53045749  0.86772297  0.65545148  1
  Ni  Ni207  1  0.71817935  0.78116157  0.40344888  1
  Ni  Ni208  1  0.28399057  0.13378515  -0.03614175  1
  Ni  Ni209  1  -0.03820325  0.77298320  0.56733004  1
  Ni  Ni210  1  0.58375589  0.33476476  0.80871008  1
  Ni  Ni211  1  -0.05401176  0.01858217  0.02851694  1
  Ni  Ni212  1  0.53103060  -0.04148210  0.20838413  1
  Ni  Ni213  1  0.72691279  0.87491123  0.86573464  1
  Ni  Ni214  1  0.31965486  0.78726888  0.89549943  1
