# generated using pymatgen
data_Ti108Co54Ni53
_symmetry_space_group_name_H-M   'P 1'
_cell_length_a   14.62503216
_cell_length_b   14.64725324
_cell_length_c   14.65018990
_cell_angle_alpha   89.98538394
_cell_angle_beta   89.98203397
_cell_angle_gamma   89.54992589
_symmetry_Int_Tables_number   1
_chemical_formula_structural   Ti108Co54Ni53
_chemical_formula_sum   'Ti108 Co54 Ni53'
_cell_volume   3138.21605447
_cell_formula_units_Z   1
loop_
 _symmetry_equiv_pos_site_id
 _symmetry_equiv_pos_as_xyz
  1  'x, y, z'
loop_
 _atom_site_type_symbol
 _atom_site_label
 _atom_site_symmetry_multiplicity
 _atom_site_fract_x
 _atom_site_fract_y
 _atom_site_fract_z
 _atom_site_occupancy
  Ti  Ti0  1  0.12901914  0.08018772  0.28242008  1
  Ti  Ti1  1  0.07952710  0.08221701  0.56228545  1
  Ti  Ti2  1  0.04607583  0.13507663  0.98384801  1
  Ti  Ti3  1  0.09308586  0.31383793  0.26433288  1
  Ti  Ti4  1  0.03440308  0.45958144  0.55979816  1
  Ti  Ti5  1  0.09785546  0.40917001  0.88259187  1
  Ti  Ti6  1  0.11632292  0.78132116  0.21897692  1
  Ti  Ti7  1  0.05006987  0.64011909  0.51130552  1
  Ti  Ti8  1  0.02426583  0.77149602  0.98794276  1
  Ti  Ti9  1  0.48455967  0.09401005  0.28096184  1
  Ti  Ti10  1  0.43297152  0.20924926  0.53000369  1
  Ti  Ti11  1  0.43112656  0.04997026  0.87627457  1
  Ti  Ti12  1  0.48431321  0.51715472  0.29295633  1
  Ti  Ti13  1  0.47478214  0.40473966  0.61651061  1
  Ti  Ti14  1  0.42630665  0.48449782  0.88980404  1
  Ti  Ti15  1  0.38062284  0.77467097  0.22690445  1
  Ti  Ti16  1  0.41809247  0.78585732  0.56155260  1
  Ti  Ti17  1  0.43866921  0.67569356  0.97149377  1
  Ti  Ti18  1  0.76947200  0.14312914  0.25192192  1
  Ti  Ti19  1  0.75853008  0.11427688  0.55649329  1
  Ti  Ti20  1  0.75332204  0.07197120  0.85790395  1
  Ti  Ti21  1  0.75497874  0.42095192  0.21871975  1
  Ti  Ti22  1  0.74482074  0.41136400  0.50512534  1
  Ti  Ti23  1  0.75063357  0.40474300  0.91206876  1
  Ti  Ti24  1  0.71799129  0.77792815  0.26503761  1
  Ti  Ti25  1  0.73034573  0.82246666  0.57740514  1
  Ti  Ti26  1  0.78176585  0.65994200  0.91276345  1
  Ti  Ti27  1  0.08354355  0.31538829  0.07092953  1
  Ti  Ti28  1  0.06591905  0.25627612  0.49213480  1
  Ti  Ti29  1  0.04755176  0.32653931  0.70204574  1
  Ti  Ti30  1  0.07370111  0.61013627  0.10673206  1
  Ti  Ti31  1  0.09751166  0.58311145  0.32220740  1
  Ti  Ti32  1  0.14128870  0.65878512  0.69976384  1
  Ti  Ti33  1  0.08514442  0.96039917  0.10335423  1
  Ti  Ti34  1  0.07208590  0.94056687  0.39065977  1
  Ti  Ti35  1  0.01601837  0.87037156  0.80955530  1
  Ti  Ti36  1  0.42918549  0.19669270  0.02413399  1
  Ti  Ti37  1  0.42152335  0.36861467  0.40028690  1
  Ti  Ti38  1  0.36597804  0.23514911  0.74107411  1
  Ti  Ti39  1  0.36600021  0.52404113  0.08578200  1
  Ti  Ti40  1  0.42366634  0.64682731  0.41800971  1
  Ti  Ti41  1  0.36796054  0.65341846  0.79158270  1
  Ti  Ti42  1  0.43139674  0.85101693  0.05963930  1
  Ti  Ti43  1  0.41434433  0.93107039  0.40150138  1
  Ti  Ti44  1  0.45542282  0.88117332  0.73767396  1
  Ti  Ti45  1  0.74565789  0.21613650  0.02369877  1
  Ti  Ti46  1  0.67587171  0.24536048  0.41267553  1
  Ti  Ti47  1  0.66886773  0.24414723  0.82299913  1
  Ti  Ti48  1  0.75676839  0.56348037  0.08329348  1
  Ti  Ti49  1  0.83290124  0.66015798  0.37112923  1
  Ti  Ti50  1  0.77799414  0.66437461  0.71597736  1
  Ti  Ti51  1  0.70148165  0.92547838  0.12778610  1
  Ti  Ti52  1  0.62348473  0.88248528  0.41547384  1
  Ti  Ti53  1  0.76067059  0.88524461  0.79910853  1
  Ti  Ti54  1  0.22492835  0.12300157  0.04670063  1
  Ti  Ti55  1  0.26680737  0.07942204  0.46311935  1
  Ti  Ti56  1  0.17476473  0.10943562  0.82950004  1
  Ti  Ti57  1  0.28168933  0.31665990  0.11613208  1
  Ti  Ti58  1  0.24810939  0.48194884  0.44196194  1
  Ti  Ti59  1  0.21940748  0.40015983  0.70235652  1
  Ti  Ti60  1  0.25474738  0.72849492  0.03741980  1
  Ti  Ti61  1  0.25764377  0.66462256  0.33618120  1
  Ti  Ti62  1  0.19146746  0.76795048  0.84264505  1
  Ti  Ti63  1  0.50698766  0.03135374  0.09958407  1
  Ti  Ti64  1  0.63631090  0.06761490  0.39472293  1
  Ti  Ti65  1  0.61040727  0.10391864  0.70753269  1
  Ti  Ti66  1  0.54324314  0.40398149  0.14885409  1
  Ti  Ti67  1  0.62896190  0.41693783  0.34348420  1
  Ti  Ti68  1  0.57062035  0.40967489  0.78552047  1
  Ti  Ti69  1  0.61022767  0.79363547  -0.03160060  1
  Ti  Ti70  1  0.61694071  0.68352317  0.44824512  1
  Ti  Ti71  1  0.57480939  0.69617391  0.68356708  1
  Ti  Ti72  1  0.91124687  0.13028286  0.11704416  1
  Ti  Ti73  1  0.88130945  0.00001754  0.39250794  1
  Ti  Ti74  1  0.95602456  0.12425963  0.79475606  1
  Ti  Ti75  1  0.89317941  0.40948203  0.08380349  1
  Ti  Ti76  1  0.92842194  0.37078081  0.41084944  1
  Ti  Ti77  1  0.89857135  0.44509532  0.77731894  1
  Ti  Ti78  1  0.79780528  0.76600324  0.07382069  1
  Ti  Ti79  1  0.97511960  0.78759334  0.40786166  1
  Ti  Ti80  1  0.97897300  0.73988867  0.66314399  1
  Ti  Ti81  1  0.34165992  0.22058703  0.30907144  1
  Ti  Ti82  1  0.22074692  0.20842573  0.61294458  1
  Ti  Ti83  1  0.29411578  0.35575810  0.90966167  1
  Ti  Ti84  1  0.21946023  0.47988891  0.21627880  1
  Ti  Ti85  1  0.32551437  0.61265536  0.60951410  1
  Ti  Ti86  1  0.22386498  0.53575942  0.81852752  1
  Ti  Ti87  1  0.24271758  0.89730465  0.30140833  1
  Ti  Ti88  1  0.23274682  0.80838372  0.54907069  1
  Ti  Ti89  1  0.26943132  0.94151241  0.93198567  1
  Ti  Ti90  1  0.62156815  0.23597635  0.19310959  1
  Ti  Ti91  1  0.66718142  0.28244054  0.62314064  1
  Ti  Ti92  1  0.57329395  0.32159249  0.97344607  1
  Ti  Ti93  1  0.56236468  0.68009106  0.25604528  1
  Ti  Ti94  1  0.62668885  0.51406462  0.61661027  1
  Ti  Ti95  1  0.58850374  0.59999239  0.87292121  1
  Ti  Ti96  1  0.54191344  0.89856067  0.24563555  1
  Ti  Ti97  1  0.57695750  0.98070102  0.57041191  1
  Ti  Ti98  1  0.61544829  1.00042514  0.95525830  1
  Ti  Ti99  1  0.95146033  0.18689400  0.31915741  1
  Ti  Ti100  1  0.88672573  0.24261745  0.64989391  1
  Ti  Ti101  1  0.93404693  0.31601489  0.93425956  1
  Ti  Ti102  1  0.92445436  0.53424213  0.23065129  1
  Ti  Ti103  1  0.86052413  0.56484210  0.52800681  1
  Ti  Ti104  1  0.97771182  0.61432537  0.85466613  1
  Ti  Ti105  1  0.89637063  0.85659173  0.24974307  1
  Ti  Ti106  1  0.98307231  0.92684546  0.59286833  1
  Ti  Ti107  1  0.91447423  0.98482049  0.93892022  1
  Co  Co108  1  0.78424798  0.13489881  0.71777850  1
  Co  Co109  1  0.32581991  0.79120037  0.40984821  1
  Co  Co110  1  0.58561551  -0.01879115  0.79778820  1
  Co  Co111  1  0.15208431  0.85130976  -0.00682865  1
  Co  Co112  1  0.61565395  0.86256112  0.69565434  1
  Co  Co113  1  0.39121531  -0.05100594  0.20443839  1
  Co  Co114  1  0.21504110  0.20093545  0.20261215  1
  Co  Co115  1  0.37348733  0.41228150  0.75473306  1
  Co  Co116  1  0.18284052  0.25125314  -0.04190050  1
  Co  Co117  1  0.82858571  0.27167320  0.50268106  1
  Co  Co118  1  0.79776637  0.30809063  0.33037132  1
  Co  Co119  1  0.70162336  0.55043864  0.43277697  1
  Co  Co120  1  0.54427115  0.15432420  0.86943172  1
  Co  Co121  1  0.56244592  0.80749976  0.54886275  1
  Co  Co122  1  0.89173382  -0.01458195  0.75247555  1
  Co  Co123  1  0.20324888  0.26653665  0.79249178  1
  Co  Co124  1  0.47982748  0.65930665  0.11823285  1
  Co  Co125  1  0.71999245  0.64309287  0.56750956  1
  Co  Co126  1  0.14988261  0.78021258  0.39356509  1
  Co  Co127  1  0.85969228  0.85266450  0.66659165  1
  Co  Co128  1  0.07139733  0.49498137  0.74286274  1
  Co  Co129  1  0.78460785  0.51123191  0.65912723  1
  Co  Co130  1  0.12575276  0.84293838  0.68821325  1
  Co  Co131  1  0.81156810  0.27212123  0.16363982  1
  Co  Co132  1  0.60912795  0.54235142  0.16300584  1
  Co  Co133  1  0.49361782  0.78955630  0.37611671  1
  Co  Co134  1  0.52379122  0.51451850  0.01809555  1
  Co  Co135  1  -0.03012025  0.53756289  0.40389416  1
  Co  Co136  1  0.58560006  0.16096837  0.53789473  1
  Co  Co137  1  0.08311375  0.17292495  0.69935579  1
  Co  Co138  1  0.81935869  0.47834220  0.35879184  1
  Co  Co139  1  0.62652357  0.64505530  0.03249979  1
  Co  Co140  1  0.35602196  0.01298700  0.04461693  1
  Co  Co141  1  0.77834070  0.04633140  0.03616110  1
  Co  Co142  1  0.05885688  0.45445523  0.16648727  1
  Co  Co143  1  -0.06751922  0.35440243  0.23880498  1
  Co  Co144  1  0.73344208  -0.01639545  0.66783274  1
  Co  Co145  1  0.80934491  0.14452322  0.40306165  1
  Co  Co146  1  0.07394605  0.80291530  0.53769210  1
  Co  Co147  1  0.05662271  0.24652027  0.85835908  1
  Co  Co148  1  0.47057254  0.07347900  0.44783084  1
  Co  Co149  1  0.45360771  0.30446996  0.86477325  1
  Co  Co150  1  0.55048636  0.50434607  0.45857265  1
  Co  Co151  1  0.59775315  0.15250718  0.02492175  1
  Co  Co152  1  0.06296649  0.16093716  0.15597109  1
  Co  Co153  1  0.86641385  0.50967811  -0.06568517  1
  Co  Co154  1  -0.01704737  0.68483878  0.28293488  1
  Co  Co155  1  0.49186515  0.62311255  0.56645818  1
  Co  Co156  1  0.51788752  0.22817446  0.37034640  1
  Co  Co157  1  0.75061371  -0.03273988  0.49190725  1
  Co  Co158  1  0.24691335  0.35247480  0.31525722  1
  Co  Co159  1  0.16510329  -0.04905784  0.51803592  1
  Co  Co160  1  0.84042456  0.67496078  0.19868768  1
  Co  Co161  1  0.36201229  0.13117218  0.16049500  1
  Ni  Ni162  1  0.17651478  0.53054912  0.60281839  1
  Ni  Ni163  1  0.47497451  0.54405930  0.71798896  1
  Ni  Ni164  1  0.18706221  0.46250650  0.04044779  1
  Ni  Ni165  1  0.28788268  0.58931072  -0.04565043  1
  Ni  Ni166  1  0.28422362  0.27125163  0.46286087  1
  Ni  Ni167  1  0.21952001  0.64981638  0.17637392  1
  Ni  Ni168  1  -0.11828698  0.81893816  0.93695398  1
  Ni  Ni169  1  0.37766336  0.40620537  0.22438415  1
  Ni  Ni170  1  0.63676206  0.05486061  0.21047922  1
  Ni  Ni171  1  0.21098397  0.65153256  0.49164075  1
  Ni  Ni172  1  0.36960759  0.60686672  0.22834748  1
  Ni  Ni173  1  0.73350467  -0.05186530  0.30874566  1
  Ni  Ni174  1  -0.06203064  0.14326863  0.49804129  1
  Ni  Ni175  1  -0.08776600  -0.08882818  0.08648710  1
  Ni  Ni176  1  -0.11173746  0.39866454  0.60300707  1
  Ni  Ni177  1  0.30118399  0.77585660  0.70252783  1
  Ni  Ni178  1  0.87812918  0.15278052  -0.05254243  1
  Ni  Ni179  1  0.87360479  0.73727007  0.53425610  1
  Ni  Ni180  1  0.01770546  0.48978026  0.00272062  1
  Ni  Ni181  1  0.48242740  0.89568673  -0.08968312  1
  Ni  Ni182  1  0.52594491  0.25280179  0.71495429  1
  Ni  Ni183  1  0.80036103  0.82942342  0.40882833  1
  Ni  Ni184  1  -0.08659650  0.63197661  0.03758183  1
  Ni  Ni185  1  0.35231580  0.80475378  0.87372701  1
  Ni  Ni186  1  0.26337746  0.87314195  0.11793763  1
  Ni  Ni187  1  0.70402633  0.37734694  0.07004762  1
  Ni  Ni188  1  0.83471353  0.25895950  0.82028198  1
  Ni  Ni189  1  0.74844148  0.37285580  0.73256219  1
  Ni  Ni190  1  0.31960395  0.17550924  0.89470630  1
  Ni  Ni191  1  -0.01741719  0.01370783  0.23885907  1
  Ni  Ni192  1  -0.03013756  0.75727573  0.13806041  1
  Ni  Ni193  1  0.33185045  0.34224909  0.59594603  1
  Ni  Ni194  1  0.17233167  0.20324375  0.37441164  1
  Ni  Ni195  1  0.88658613  0.75258487  0.79729851  1
  Ni  Ni196  1  0.56710308  0.33893748  0.49353406  1
  Ni  Ni197  1  0.71183864  0.52232394  0.80193482  1
  Ni  Ni198  1  0.45783758  0.26079555  0.19484546  1
  Ni  Ni199  1  0.71561484  0.59056897  0.27218016  1
  Ni  Ni200  1  0.23768457  0.02136308  0.17381622  1
  Ni  Ni201  1  0.31943826  0.05218589  0.31258955  1
  Ni  Ni202  1  0.82890749  0.00435325  0.19268744  1
  Ni  Ni203  1  0.09079692  -0.01455202  0.91850598  1
  Ni  Ni204  1  0.50370738  0.74851449  0.83104441  1
  Ni  Ni205  1  -0.05416459  0.57628919  0.67680564  1
  Ni  Ni206  1  0.74971078  0.89839727  -0.03098920  1
  Ni  Ni207  1  0.66763415  0.75003105  0.81572930  1
  Ni  Ni208  1  0.10109092  0.41691749  0.39462135  1
  Ni  Ni209  1  0.59465371  0.78701120  0.13233062  1
  Ni  Ni210  1  0.07071659  0.00493257  0.72766719  1
  Ni  Ni211  1  0.17499864  0.36792736  0.54465974  1
  Ni  Ni212  1  0.12565159  0.63411434  0.92788957  1
  Ni  Ni213  1  0.42258207  0.37164243  0.03174709  1
  Ni  Ni214  1  0.39787582  0.49806523  0.50333882  1
