# generated using pymatgen
data_Ti108Co54Ni53
_symmetry_space_group_name_H-M   'P 1'
_cell_length_a   14.67927261
_cell_length_b   14.67260748
_cell_length_c   14.64215345
_cell_angle_alpha   90.15297091
_cell_angle_beta   89.89979073
_cell_angle_gamma   90.26602935
_symmetry_Int_Tables_number   1
_chemical_formula_structural   Ti108Co54Ni53
_chemical_formula_sum   'Ti108 Co54 Ni53'
_cell_volume   3153.62395232
_cell_formula_units_Z   1
loop_
 _symmetry_equiv_pos_site_id
 _symmetry_equiv_pos_as_xyz
  1  'x, y, z'
loop_
 _atom_site_type_symbol
 _atom_site_label
 _atom_site_symmetry_multiplicity
 _atom_site_fract_x
 _atom_site_fract_y
 _atom_site_fract_z
 _atom_site_occupancy
  Ti  Ti0  1  0.02443704  0.06945162  0.22889529  1
  Ti  Ti1  1  0.06661555  0.11743616  0.53783192  1
  Ti  Ti2  1  0.10151251  0.05903961  1.02670824  1
  Ti  Ti3  1  0.03662504  0.31894198  0.23981384  1
  Ti  Ti4  1  0.07945467  0.46716514  0.61108237  1
  Ti  Ti5  1  0.12967846  0.42701379  0.91194549  1
  Ti  Ti6  1  0.06349951  0.71602547  0.23149006  1
  Ti  Ti7  1  0.09716577  0.80786314  0.65169784  1
  Ti  Ti8  1  0.12146641  0.75626413  0.95013511  1
  Ti  Ti9  1  0.39340896  0.08105885  0.22477383  1
  Ti  Ti10  1  0.40522871  0.09616482  0.63697967  1
  Ti  Ti11  1  0.36837946  0.06656411  0.89720174  1
  Ti  Ti12  1  0.44211846  0.39218672  0.27135078  1
  Ti  Ti13  1  0.50107764  0.41634645  0.59266405  1
  Ti  Ti14  1  0.35950069  0.47914096  0.88619041  1
  Ti  Ti15  1  0.41474009  0.80297706  0.31719674  1
  Ti  Ti16  1  0.41550460  0.71746305  0.59777513  1
  Ti  Ti17  1  0.48571140  0.76443305  0.97832164  1
  Ti  Ti18  1  0.71382871  0.07993240  0.22948196  1
  Ti  Ti19  1  0.76305535  0.09729120  0.57453751  1
  Ti  Ti20  1  0.74961575  0.05007635  0.91796098  1
  Ti  Ti21  1  0.74148901  0.39555031  0.14179577  1
  Ti  Ti22  1  0.81998664  0.40945223  0.51635955  1
  Ti  Ti23  1  0.71619448  0.40885657  0.92666370  1
  Ti  Ti24  1  0.75608242  0.75400392  0.28474254  1
  Ti  Ti25  1  0.74624022  0.78983742  0.59386527  1
  Ti  Ti26  1  0.79085260  0.70286901  0.97487275  1
  Ti  Ti27  1  0.14895137  0.24119740  -0.01025448  1
  Ti  Ti28  1  0.08448548  0.29311193  0.44847716  1
  Ti  Ti29  1  0.04809913  0.26972548  0.79904244  1
  Ti  Ti30  1  0.00747910  0.60064461  0.05730091  1
  Ti  Ti31  1  0.00271163  0.64617645  0.42329950  1
  Ti  Ti32  1  0.01758625  0.64609821  0.76047488  1
  Ti  Ti33  1  0.13539378  0.88104222  0.12768110  1
  Ti  Ti34  1  0.05840494  0.86780552  0.36672348  1
  Ti  Ti35  1  0.04696870  0.97579929  0.78970674  1
  Ti  Ti36  1  0.46220612  0.23561453  0.03277824  1
  Ti  Ti37  1  0.44941597  0.17816640  0.45574557  1
  Ti  Ti38  1  0.40655855  0.28140038  0.70706951  1
  Ti  Ti39  1  0.44193668  0.58064760  0.03493783  1
  Ti  Ti40  1  0.39467775  0.50959110  0.42547389  1
  Ti  Ti41  1  0.47219581  0.56664000  0.72113765  1
  Ti  Ti42  1  0.51339304  0.95400918  0.07362630  1
  Ti  Ti43  1  0.38589202  0.98969209  0.43513291  1
  Ti  Ti44  1  0.37067311  0.88503438  0.73623673  1
  Ti  Ti45  1  0.77476384  0.24703650  -0.00819647  1
  Ti  Ti46  1  0.75587359  0.22489781  0.40778462  1
  Ti  Ti47  1  0.77164361  0.26102442  0.74097004  1
  Ti  Ti48  1  0.71498924  0.61718527  0.15453903  1
  Ti  Ti49  1  0.81452523  0.61468494  0.41993555  1
  Ti  Ti50  1  0.70491796  0.69897748  0.75147257  1
  Ti  Ti51  1  0.81438681  0.88915117  0.10256673  1
  Ti  Ti52  1  0.68702362  0.89921363  0.41433496  1
  Ti  Ti53  1  0.74543187  0.89692848  0.76963777  1
  Ti  Ti54  1  0.28695643  -0.00428606  0.06634245  1
  Ti  Ti55  1  0.25322054  0.12670886  0.50003369  1
  Ti  Ti56  1  0.23526236  0.01878738  0.72453189  1
  Ti  Ti57  1  0.30406142  0.40831102  0.07046962  1
  Ti  Ti58  1  0.28245295  0.31589631  0.41156365  1
  Ti  Ti59  1  0.28901266  0.43781054  0.69136952  1
  Ti  Ti60  1  0.30158592  0.78546382  0.04684096  1
  Ti  Ti61  1  0.30900744  0.68291061  0.43910790  1
  Ti  Ti62  1  0.20563967  0.73134404  0.78865325  1
  Ti  Ti63  1  0.62491990  0.13388071  0.04902184  1
  Ti  Ti64  1  0.57594736  0.03244650  0.52989578  1
  Ti  Ti65  1  0.60654729  0.05499908  0.73203314  1
  Ti  Ti66  1  0.55282431  0.43606950  0.10240118  1
  Ti  Ti67  1  0.62496291  0.35751778  0.45838847  1
  Ti  Ti68  1  0.62024736  0.40824450  0.76696383  1
  Ti  Ti69  1  0.55821613  0.76604674  0.16370166  1
  Ti  Ti70  1  0.52603476  0.67908131  0.42605273  1
  Ti  Ti71  1  0.51775818  0.75226446  0.78502264  1
  Ti  Ti72  1  0.90677185  0.11274963  0.05077199  1
  Ti  Ti73  1  0.87792644  0.08985687  0.40446977  1
  Ti  Ti74  1  0.93332201  0.12485957  0.70372198  1
  Ti  Ti75  1  0.89796255  0.45291452  0.06077330  1
  Ti  Ti76  1  0.91283031  0.45778929  0.34159672  1
  Ti  Ti77  1  0.92787019  0.37287984  0.68681415  1
  Ti  Ti78  1  0.97877297  0.78662199  0.06804611  1
  Ti  Ti79  1  0.86698152  0.80098081  0.45852577  1
  Ti  Ti80  1  0.91012902  0.81053479  0.69327223  1
  Ti  Ti81  1  0.21555985  0.20167242  0.25529086  1
  Ti  Ti82  1  0.21171405  0.22804485  0.66012648  1
  Ti  Ti83  1  0.25383588  0.29210588  0.84402777  1
  Ti  Ti84  1  0.27104674  0.70020603  0.21603945  1
  Ti  Ti85  1  0.21962705  0.64125905  0.62362763  1
  Ti  Ti86  1  0.24991772  0.61327193  0.93630394  1
  Ti  Ti87  1  0.25763538  0.90790984  0.27838785  1
  Ti  Ti88  1  0.21639748  0.84703754  0.48718289  1
  Ti  Ti89  1  0.22365246  0.91968780  0.89366022  1
  Ti  Ti90  1  0.58508995  0.22584372  0.31604255  1
  Ti  Ti91  1  0.58851483  0.23359714  0.64813583  1
  Ti  Ti92  1  0.55626475  0.26469685  0.87167859  1
  Ti  Ti93  1  0.53976973  0.57718279  0.24063460  1
  Ti  Ti94  1  0.67226388  0.56626679  0.53672052  1
  Ti  Ti95  1  0.57923755  0.57218185  0.88764184  1
  Ti  Ti96  1  0.55101237  0.94723955  0.25679481  1
  Ti  Ti97  1  0.56032657  0.83643749  0.55009265  1
  Ti  Ti98  1  0.59044615  0.91358491  0.90224741  1
  Ti  Ti99  1  0.85964984  0.21252447  0.24061369  1
  Ti  Ti100  1  0.91290019  0.23367498  0.54115724  1
  Ti  Ti101  1  0.96551158  0.28248053  0.96360048  1
  Ti  Ti102  1  0.90218642  0.60059403  0.22488016  1
  Ti  Ti103  1  0.85336608  0.57459188  0.67376513  1
  Ti  Ti104  1  0.89642178  0.53228826  0.88097944  1
  Ti  Ti105  1  0.86431772  0.92709089  0.32040368  1
  Ti  Ti106  1  0.97348491  0.95084143  0.54177641  1
  Ti  Ti107  1  0.91944791  0.86647113  0.90437868  1
  Co  Co108  1  0.40349954  -0.08624400  -0.04608164  1
  Co  Co109  1  -0.00441900  0.18692085  0.34954643  1
  Co  Co110  1  0.45474297  -0.05361260  0.60621477  1
  Co  Co111  1  0.16905522  -0.00751533  0.44790896  1
  Co  Co112  1  0.30453288  0.57993293  0.76546683  1
  Co  Co113  1  0.68941310  0.72784861  0.45457395  1
  Co  Co114  1  0.36093772  0.72079365  0.74096268  1
  Co  Co115  1  0.72360886  0.47328196  0.40102331  1
  Co  Co116  1  0.76611992  0.34611434  0.30772191  1
  Co  Co117  1  0.14241563  0.37696672  0.73153414  1
  Co  Co118  1  0.07445569  0.91201001  -0.03933548  1
  Co  Co119  1  0.19461889  0.34657021  0.55827272  1
  Co  Co120  1  0.38594997  0.83168968  0.48750237  1
  Co  Co121  1  -0.03934976  0.69499128  -0.07748291  1
  Co  Co122  1  0.34455848  0.40823625  0.54116233  1
  Co  Co123  1  0.35201208  0.56299429  0.58329203  1
  Co  Co124  1  0.04845007  0.81364636  0.81471446  1
  Co  Co125  1  0.13820588  0.14338610  0.38279851  1
  Co  Co126  1  0.88659016  0.00164300  0.81975631  1
  Co  Co127  1  0.64657618  0.55236574  0.70035330  1
  Co  Co128  1  0.41647036  0.69629969  0.14480850  1
  Co  Co129  1  0.05033930  0.27012969  0.62420477  1
  Co  Co130  1  0.32978169  0.78099496  0.88946071  1
  Co  Co131  1  0.86710956  0.02826369  0.19536580  1
  Co  Co132  1  0.55187722  0.49612490  0.40209291  1
  Co  Co133  1  0.42770838  0.08414262  0.06105299  1
  Co  Co134  1  0.19263629  0.08879035  0.88586572  1
  Co  Co135  1  0.85244372  0.72959700  0.14644366  1
  Co  Co136  1  0.66402683  0.61495185  0.33550271  1
  Co  Co137  1  0.64637599  0.74819053  0.89171374  1
  Co  Co138  1  0.51586882  0.89985173  0.41021593  1
  Co  Co139  1  0.26120486  0.81695810  0.64005400  1
  Co  Co140  1  0.04586188  0.63246308  0.60342131  1
  Co  Co141  1  0.69469471  -0.05136133  0.61187285  1
  Co  Co142  1  0.05416309  0.37672820  0.06654706  1
  Co  Co143  1  0.67745675  0.17776154  0.84289480  1
  Co  Co144  1  0.29642371  -0.02885417  0.57652347  1
  Co  Co145  1  0.81114098  -0.04052943  0.49617874  1
  Co  Co146  1  0.77071149  0.50741334  0.25814246  1
  Co  Co147  1  0.89961066  0.68667727  0.56870903  1
  Co  Co148  1  0.54845748  0.10932434  0.18649841  1
  Co  Co149  1  0.02201468  0.02539349  0.39127657  1
  Co  Co150  1  -0.03270712  -0.03585689  0.07152543  1
  Co  Co151  1  0.41610401  0.63908518  0.87376781  1
  Co  Co152  1  0.85511150  0.70363457  0.80565084  1
  Co  Co153  1  0.62532769  0.30719788  0.03155311  1
  Co  Co154  1  0.67867164  -0.02044772  0.07040250  1
  Co  Co155  1  0.01068315  0.46597563  0.78821691  1
  Co  Co156  1  0.85651071  0.96493388  0.65865023  1
  Co  Co157  1  0.70844951  0.05833502  0.38919902  1
  Co  Co158  1  0.15043377  0.54733108  0.75267279  1
  Co  Co159  1  0.61745962  0.17992172  0.48840061  1
  Co  Co160  1  0.02001000  0.79016063  0.51760219  1
  Co  Co161  1  0.28561490  0.59293637  0.08819383  1
  Ni  Ni162  1  -0.01743372  0.88069343  0.21148373  1
  Ni  Ni163  1  0.31216915  0.15675288  0.77761450  1
  Ni  Ni164  1  0.34583524  0.24163441  0.14862198  1
  Ni  Ni165  1  -0.06075727  0.52409937  0.52458233  1
  Ni  Ni166  1  0.61680676  0.40449580  0.26871330  1
  Ni  Ni167  1  0.29614044  0.17740387  -0.00016497  1
  Ni  Ni168  1  0.01328146  0.48004804  0.19164802  1
  Ni  Ni169  1  0.18643415  0.31295765  0.13794264  1
  Ni  Ni170  1  0.74000183  0.26633396  0.57273026  1
  Ni  Ni171  1  0.13349134  -0.03453397  0.60876530  1
  Ni  Ni172  1  0.59666512  0.77966112  0.32041021  1
  Ni  Ni173  1  0.86356413  0.34836648  0.85653068  1
  Ni  Ni174  1  0.39561878  0.87037345  0.16415486  1
  Ni  Ni175  1  0.38068210  0.32626465  -0.06721374  1
  Ni  Ni176  1  0.39937314  0.63355066  0.30486178  1
  Ni  Ni177  1  0.18545178  0.76047588  0.34079986  1
  Ni  Ni178  1  0.51999940  0.28123375  0.17661794  1
  Ni  Ni179  1  0.15207906  0.68824203  0.09376278  1
  Ni  Ni180  1  0.50824888  0.57284238  0.55073013  1
  Ni  Ni181  1  -0.07873769  0.75574610  0.30686072  1
  Ni  Ni182  1  0.47796510  0.14922677  0.78283938  1
  Ni  Ni183  1  0.60777692  0.64516500  0.03410939  1
  Ni  Ni184  1  0.90697224  0.29902129  0.11701117  1
  Ni  Ni185  1  0.59051060  0.69381709  0.62323777  1
  Ni  Ni186  1  0.54632994  0.07995539  -0.08141091  1
  Ni  Ni187  1  -0.09247812  0.30661927  0.39163789  1
  Ni  Ni188  1  0.04670418  0.20519006  0.11774363  1
  Ni  Ni189  1  0.47627839  -0.01714977  0.79987904  1
  Ni  Ni190  1  0.64868593  0.81564060  0.03916239  1
  Ni  Ni191  1  0.70968143  0.91243661  0.23338651  1
  Ni  Ni192  1  0.52620075  0.41886326  -0.05851307  1
  Ni  Ni193  1  0.38776708  0.52150295  0.18528260  1
  Ni  Ni194  1  0.86361584  0.16872279  -0.13865023  1
  Ni  Ni195  1  0.02189398  0.12679307  0.88999273  1
  Ni  Ni196  1  0.67822200  0.40951561  0.61442509  1
  Ni  Ni197  1  0.27396541  0.06581962  0.34040175  1
  Ni  Ni198  1  0.45748218  0.34259750  0.43167613  1
  Ni  Ni199  1  0.35091794  0.25428681  0.55761203  1
  Ni  Ni200  1  0.74029199  0.56759206  0.84365306  1
  Ni  Ni201  1  0.19104777  0.04035099  0.19691094  1
  Ni  Ni202  1  0.78320105  0.44182904  0.74435318  1
  Ni  Ni203  1  0.08333434  0.58279594  0.90428515  1
  Ni  Ni204  1  0.75331379  0.54182798  0.01314928  1
  Ni  Ni205  1  0.54143438  0.07139743  0.36099148  1
  Ni  Ni206  1  0.68478708  0.24418925  0.18107890  1
  Ni  Ni207  1  0.14530133  0.69123190  0.48365091  1
  Ni  Ni208  1  0.75548268  0.88244031  -0.06222150  1
  Ni  Ni209  1  0.57882350  0.88499369  0.71181849  1
  Ni  Ni210  1  0.39150506  0.23316499  0.30703257  1
  Ni  Ni211  1  0.14962803  0.51131858  0.05611025  1
  Ni  Ni212  1  0.09778409  0.12283173  0.72789757  1
  Ni  Ni213  1  0.76874879  0.08209829  0.74216556  1
  Ni  Ni214  1  0.46034261  0.40636273  0.78538242  1
