# generated using pymatgen
data_Ti108Co54Ni53
_symmetry_space_group_name_H-M   'P 1'
_cell_length_a   14.62634801
_cell_length_b   14.57638316
_cell_length_c   14.61603478
_cell_angle_alpha   90.13060080
_cell_angle_beta   90.16099078
_cell_angle_gamma   90.01737798
_symmetry_Int_Tables_number   1
_chemical_formula_structural   Ti108Co54Ni53
_chemical_formula_sum   'Ti108 Co54 Ni53'
_cell_volume   3116.10714768
_cell_formula_units_Z   1
loop_
 _symmetry_equiv_pos_site_id
 _symmetry_equiv_pos_as_xyz
  1  'x, y, z'
loop_
 _atom_site_type_symbol
 _atom_site_label
 _atom_site_symmetry_multiplicity
 _atom_site_fract_x
 _atom_site_fract_y
 _atom_site_fract_z
 _atom_site_occupancy
  Ti  Ti0  1  0.10259813  0.09475351  0.24722222  1
  Ti  Ti1  1  0.06181521  0.01213612  0.54652102  1
  Ti  Ti2  1  0.08124386  0.16655477  0.97651566  1
  Ti  Ti3  1  -0.00229169  0.39911904  0.25096128  1
  Ti  Ti4  1  0.05544623  0.45586492  0.60685879  1
  Ti  Ti5  1  0.04665389  0.35754846  0.89314343  1
  Ti  Ti6  1  0.11650012  0.76423552  0.26668753  1
  Ti  Ti7  1  0.08907207  0.73713042  0.60849567  1
  Ti  Ti8  1  0.08084307  0.79689765  0.94010764  1
  Ti  Ti9  1  0.44805953  0.06925674  0.22390472  1
  Ti  Ti10  1  0.46702722  0.08950107  0.60017098  1
  Ti  Ti11  1  0.42312132  0.09060596  0.97098820  1
  Ti  Ti12  1  0.48753160  0.42598481  0.22928327  1
  Ti  Ti13  1  0.40979775  0.43628472  0.55689577  1
  Ti  Ti14  1  0.39010962  0.43355141  0.91684929  1
  Ti  Ti15  1  0.35490337  0.76983334  0.22042504  1
  Ti  Ti16  1  0.40129358  0.70499944  0.54901399  1
  Ti  Ti17  1  0.39051308  0.73871240  0.87563262  1
  Ti  Ti18  1  0.76969077  0.09936178  0.35101751  1
  Ti  Ti19  1  0.73164887  0.07073258  0.55470017  1
  Ti  Ti20  1  0.70806686  0.08498477  0.91742039  1
  Ti  Ti21  1  0.80299710  0.44296646  0.19101254  1
  Ti  Ti22  1  0.73501703  0.41507184  0.53955903  1
  Ti  Ti23  1  0.72318746  0.41703081  0.85333782  1
  Ti  Ti24  1  0.72279006  0.76403706  0.23484568  1
  Ti  Ti25  1  0.74794625  0.70072567  0.58997886  1
  Ti  Ti26  1  0.73615670  0.64985345  0.87169619  1
  Ti  Ti27  1  0.04859003  0.25057443  0.14600952  1
  Ti  Ti28  1  0.03115831  0.20670344  0.41129143  1
  Ti  Ti29  1  0.05596493  0.19809357  0.70438976  1
  Ti  Ti30  1  0.08906036  0.50035209  0.09013607  1
  Ti  Ti31  1  0.04315283  0.57591124  0.31688894  1
  Ti  Ti32  1  0.17424772  0.61650891  0.78216677  1
  Ti  Ti33  1  0.09687856  0.93069821  0.12289048  1
  Ti  Ti34  1  0.12043537  0.86697202  0.45623126  1
  Ti  Ti35  1  0.19753333  0.90650088  0.69186628  1
  Ti  Ti36  1  0.42069346  0.27851534  0.08507174  1
  Ti  Ti37  1  0.35045548  0.28412148  0.41222218  1
  Ti  Ti38  1  0.45565661  0.23698418  0.74258352  1
  Ti  Ti39  1  0.37503707  0.62082022  0.11084960  1
  Ti  Ti40  1  0.50279606  0.57757247  0.42004577  1
  Ti  Ti41  1  0.45702140  0.55396327  0.76929188  1
  Ti  Ti42  1  0.48355711  0.91354612  0.09832545  1
  Ti  Ti43  1  0.44425552  0.99504452  0.43738790  1
  Ti  Ti44  1  0.39516108  0.90953497  0.70691862  1
  Ti  Ti45  1  0.74059031  0.25803870  0.10010309  1
  Ti  Ti46  1  0.70181594  0.26141442  0.42330764  1
  Ti  Ti47  1  0.77491375  0.20176170  0.77000555  1
  Ti  Ti48  1  0.67561443  0.57391549  0.03171408  1
  Ti  Ti49  1  0.70398557  0.58421107  0.44046291  1
  Ti  Ti50  1  0.79172455  0.51763967  0.70518385  1
  Ti  Ti51  1  0.75049747  1.01492319  0.10916395  1
  Ti  Ti52  1  0.74800931  0.90882460  0.42796445  1
  Ti  Ti53  1  0.74393020  0.96014980  0.75767093  1
  Ti  Ti54  1  0.20846739  0.04330635  0.00133486  1
  Ti  Ti55  1  0.28832032  0.11234887  0.31933615  1
  Ti  Ti56  1  0.19255328  0.09011867  0.77914469  1
  Ti  Ti57  1  0.28113246  0.47659750  0.15853062  1
  Ti  Ti58  1  0.21844913  0.43097501  0.44925026  1
  Ti  Ti59  1  0.23975215  0.39768871  0.79720887  1
  Ti  Ti60  1  0.19365739  0.70910610  0.08315109  1
  Ti  Ti61  1  0.27331024  0.77235706  0.41378833  1
  Ti  Ti62  1  0.31202723  0.71182801  0.70955758  1
  Ti  Ti63  1  0.57517887  0.14545186  0.08512460  1
  Ti  Ti64  1  0.60477343  0.02548845  0.35397365  1
  Ti  Ti65  1  0.62239994  0.10853211  0.71697887  1
  Ti  Ti66  1  0.57756153  0.38931731  -0.01248312  1
  Ti  Ti67  1  0.60102877  0.41852656  0.38974953  1
  Ti  Ti68  1  0.58557771  0.41991823  0.68646321  1
  Ti  Ti69  1  0.54922037  0.73452609  0.08330719  1
  Ti  Ti70  1  0.54963321  0.81671116  0.44742301  1
  Ti  Ti71  1  0.52023179  0.75561402  0.71022141  1
  Ti  Ti72  1  0.94315607  0.08493606  0.09463927  1
  Ti  Ti73  1  0.91189003  0.03151225  0.44087405  1
  Ti  Ti74  1  0.89568778  0.06737219  0.67767168  1
  Ti  Ti75  1  0.93070298  0.41603972  0.04214004  1
  Ti  Ti76  1  0.91187593  0.49329951  0.43348144  1
  Ti  Ti77  1  0.92584955  0.39174565  0.75731383  1
  Ti  Ti78  1  0.93844727  0.65259790  0.04210268  1
  Ti  Ti79  1  0.98934912  0.72476825  0.41121477  1
  Ti  Ti80  1  0.95694816  0.72834010  0.78741219  1
  Ti  Ti81  1  0.17729562  0.28425442  0.29752587  1
  Ti  Ti82  1  0.25894203  0.25235366  0.64553277  1
  Ti  Ti83  1  0.26744684  0.23130527  0.95714074  1
  Ti  Ti84  1  0.24386320  0.60282410  0.30834185  1
  Ti  Ti85  1  0.20697287  0.59377772  0.56640117  1
  Ti  Ti86  1  0.21892110  0.51779800  0.96192752  1
  Ti  Ti87  1  0.19492344  0.92522266  0.29091019  1
  Ti  Ti88  1  0.26143716  0.99518061  0.55220541  1
  Ti  Ti89  1  0.32456639  0.96626422  0.86894240  1
  Ti  Ti90  1  0.56379636  0.22564678  0.28643780  1
  Ti  Ti91  1  0.58135695  0.26704252  0.58736476  1
  Ti  Ti92  1  0.55736790  0.19864683  0.90172738  1
  Ti  Ti93  1  0.65046839  0.55927063  0.24760490  1
  Ti  Ti94  1  0.62900391  0.59858089  0.70469251  1
  Ti  Ti95  1  0.47973735  0.59271118  0.96380184  1
  Ti  Ti96  1  0.54466030  0.85124181  0.26262892  1
  Ti  Ti97  1  0.66786328  0.86188333  0.61137476  1
  Ti  Ti98  1  0.54468204  0.98379164  0.86750036  1
  Ti  Ti99  1  0.84291844  0.28339888  0.30690702  1
  Ti  Ti100  1  0.90030464  0.27918261  0.61289612  1
  Ti  Ti101  1  0.92701169  0.20819416  0.85515565  1
  Ti  Ti102  1  0.83761640  0.61067697  0.29778322  1
  Ti  Ti103  1  0.91923500  0.62726069  0.59844531  1
  Ti  Ti104  1  0.93200034  0.55547411  0.85497685  1
  Ti  Ti105  1  0.95162993  0.88501948  0.26749291  1
  Ti  Ti106  1  0.96247547  0.87032506  0.63478094  1
  Ti  Ti107  1  0.95650960  0.93129650  0.84376696  1
  Co  Co108  1  0.04105747  0.60191600  0.69202122  1
  Co  Co109  1  0.04426023  -0.01775685  -0.01491578  1
  Co  Co110  1  0.16653758  0.13111528  0.59220752  1
  Co  Co111  1  0.82312146  -0.06228310  0.58068742  1
  Co  Co112  1  0.56748004  -0.04239728  0.70119957  1
  Co  Co113  1  0.76724074  0.44188761  0.36027895  1
  Co  Co114  1  0.49698610  0.67462185  0.22870633  1
  Co  Co115  1  0.46904618  0.58319618  0.61667562  1
  Co  Co116  1  0.04338458  -0.01573524  0.35867431  1
  Co  Co117  1  0.16736388  0.07439454  0.41963104  1
  Co  Co118  1  0.41309938  0.26301368  0.57986188  1
  Co  Co119  1  -0.06533643  0.71518660  0.22884151  1
  Co  Co120  1  0.04485390  0.58062075  0.50143759  1
  Co  Co121  1  -0.00894656  0.15365970  0.55760269  1
  Co  Co122  1  0.65199196  0.86647818  0.12261349  1
  Co  Co123  1  0.29368226  0.37377240  0.03563200  1
  Co  Co124  1  0.15969258  0.36968748  0.16243558  1
  Co  Co125  1  0.40750131  0.85829198  0.35561285  1
  Co  Co126  1  0.10359970  0.34834000  0.71993812  1
  Co  Co127  1  0.22842862  0.40690750  0.61429936  1
  Co  Co128  1  0.65732288  0.44135046  0.12535152  1
  Co  Co129  1  0.14715511  0.67729425  0.42668603  1
  Co  Co130  1  0.45726290  0.07223765  0.77196051  1
  Co  Co131  1  0.43181115  0.45223751  0.07444694  1
  Co  Co132  1  0.31865426  0.06956140  0.68512609  1
  Co  Co133  1  0.72636859  -0.07139618  0.26386322  1
  Co  Co134  1  0.59866733  0.00183975  0.01916477  1
  Co  Co135  1  0.86074210  0.35541792  0.90599898  1
  Co  Co136  1  0.49893124  0.86469707  0.59046406  1
  Co  Co137  1  0.33128103  0.57567411  0.45370647  1
  Co  Co138  1  0.58399161  0.69051440  0.54720445  1
  Co  Co139  1  0.88819056  0.44589494  0.59455674  1
  Co  Co140  1  0.21656591  0.87004279  -0.01833436  1
  Co  Co141  1  0.15856848  0.24384183  0.83419165  1
  Co  Co142  1  0.85347361  0.05894601  0.84717006  1
  Co  Co143  1  -0.05323018  0.25372666  0.00930593  1
  Co  Co144  1  0.24055515  0.85944041  0.14270729  1
  Co  Co145  1  0.84884722  0.65875124  0.45597277  1
  Co  Co146  1  0.41716152  0.27657936  -0.08831705  1
  Co  Co147  1  0.30592470  0.39329647  0.29048559  1
  Co  Co148  1  0.68423190  0.74553023  0.74175663  1
  Co  Co149  1  0.60221935  0.14312749  0.46822703  1
  Co  Co150  1  0.70885241  0.75517949  0.43961353  1
  Co  Co151  1  0.67542225  0.35091149  0.26114807  1
  Co  Co152  1  0.29074230  0.96314801  0.39912839  1
  Co  Co153  1  0.31219403  0.53978480  0.67802365  1
  Co  Co154  1  0.82150343  0.66540540  0.73757685  1
  Co  Co155  1  0.14338865  -0.04487932  0.86027191  1
  Co  Co156  1  0.82602520  0.14949990  -0.00208773  1
  Co  Co157  1  0.41907407  0.43407111  0.39191158  1
  Co  Co158  1  0.36413903  -0.05861441  0.23125980  1
  Co  Co159  1  0.39398561  0.55493092  0.28195143  1
  Co  Co160  1  0.62186151  0.85728965  0.82403060  1
  Co  Co161  1  0.32252625  0.57594480  0.84916341  1
  Ni  Ni162  1  0.24278264  0.03667400  0.17132657  1
  Ni  Ni163  1  0.36253396  0.86989165  0.51737827  1
  Ni  Ni164  1  0.01112202  0.79678179  0.10797875  1
  Ni  Ni165  1  0.59883600  0.00682959  0.18856846  1
  Ni  Ni166  1  0.38536620  0.38448376  0.71404095  1
  Ni  Ni167  1  0.57256811  0.30811690  0.13821551  1
  Ni  Ni168  1  0.57059633  0.69733197  0.86621611  1
  Ni  Ni169  1  0.03145537  0.08276227  0.84423329  1
  Ni  Ni170  1  -0.05221977  0.87558365  0.46740276  1
  Ni  Ni171  1  0.33920218  -0.04321881  0.05027231  1
  Ni  Ni172  1  0.08030332  0.82973616  0.77062373  1
  Ni  Ni173  1  0.35587519  0.77700439  0.03851462  1
  Ni  Ni174  1  0.51265900  0.29263409  0.44119174  1
  Ni  Ni175  1  0.14158149  0.33618798  0.01194819  1
  Ni  Ni176  1  0.60071029  0.52823158  0.86580227  1
  Ni  Ni177  1  -0.05235067  0.15343676  0.26725005  1
  Ni  Ni178  1  0.24048880  0.78612114  0.58011804  1
  Ni  Ni179  1  0.71112966  0.26543520  -0.06552175  1
  Ni  Ni180  1  0.19575414  0.23711943  0.45835919  1
  Ni  Ni181  1  0.82501086  0.82722319  0.70943420  1
  Ni  Ni182  1  0.35108073  0.13237501  0.10812556  1
  Ni  Ni183  1  0.59052662  -0.01344907  0.52553781  1
  Ni  Ni184  1  0.33359806  0.15988183  0.82527515  1
  Ni  Ni185  1  0.53912173  0.56038400  0.12469282  1
  Ni  Ni186  1  0.15350861  0.45932460  0.29337814  1
  Ni  Ni187  1  0.32383852  0.13633226  0.50109420  1
  Ni  Ni188  1  0.07767172  0.61444880  -0.05644553  1
  Ni  Ni189  1  0.06795670  0.64756821  0.16283295  1
  Ni  Ni190  1  0.24486273  0.82200048  0.82473329  1
  Ni  Ni191  1  0.45073037  0.14866693  0.38372993  1
  Ni  Ni192  1  0.63017396  0.27648553  0.77009112  1
  Ni  Ni193  1  0.86473326  0.01855485  0.23693587  1
  Ni  Ni194  1  0.79738220  0.62985093  0.13363212  1
  Ni  Ni195  1  0.08778138  0.29451372  0.56113736  1
  Ni  Ni196  1  0.75889974  0.35316926  0.69358569  1
  Ni  Ni197  1  0.52062703  0.38161604  0.82920716  1
  Ni  Ni198  1  0.23303243  0.69439765  0.92605483  1
  Ni  Ni199  1  -0.06028612  0.54411305  0.17239736  1
  Ni  Ni200  1  0.05547269  0.38381566  0.41356584  1
  Ni  Ni201  1  0.85118691  0.18211891  0.47405987  1
  Ni  Ni202  1  0.81954005  0.51767016  -0.02862827  1
  Ni  Ni203  1  0.86864968  0.34099923  0.45984839  1
  Ni  Ni204  1  0.59272864  0.50837518  0.54570744  1
  Ni  Ni205  1  0.84268553  0.79086395  0.35268159  1
  Ni  Ni206  1  0.60572892  0.69474864  0.33958451  1
  Ni  Ni207  1  0.20903529  0.21202358  0.11732747  1
  Ni  Ni208  1  0.69410463  0.14018068  0.21734347  1
  Ni  Ni209  1  0.05532571  -0.00521338  0.71273276  1
  Ni  Ni210  1  0.89063811  0.28988074  0.15398725  1
  Ni  Ni211  1  0.46752523  0.86485930  -0.05700853  1
  Ni  Ni212  1  0.41181782  0.69848872  0.36745503  1
  Ni  Ni213  1  0.07886224  0.48857412  0.80568982  1
  Ni  Ni214  1  0.74059966  0.22580642  0.59261030  1
