# generated using pymatgen
data_Ti108Co54Ni53
_symmetry_space_group_name_H-M   'P 1'
_cell_length_a   14.66828024
_cell_length_b   14.63615911
_cell_length_c   14.65725543
_cell_angle_alpha   89.72582527
_cell_angle_beta   89.92607393
_cell_angle_gamma   90.07065912
_symmetry_Int_Tables_number   1
_chemical_formula_structural   Ti108Co54Ni53
_chemical_formula_sum   'Ti108 Co54 Ni53'
_cell_volume   3146.68528736
_cell_formula_units_Z   1
loop_
 _symmetry_equiv_pos_site_id
 _symmetry_equiv_pos_as_xyz
  1  'x, y, z'
loop_
 _atom_site_type_symbol
 _atom_site_label
 _atom_site_symmetry_multiplicity
 _atom_site_fract_x
 _atom_site_fract_y
 _atom_site_fract_z
 _atom_site_occupancy
  Ti  Ti0  1  0.05725028  0.06590162  0.20725741  1
  Ti  Ti1  1  0.09115883  0.08525826  0.59219594  1
  Ti  Ti2  1  0.09777455  0.10300800  0.88446293  1
  Ti  Ti3  1  0.06727656  0.39358178  0.30864873  1
  Ti  Ti4  1  0.02174624  0.40552270  0.55595683  1
  Ti  Ti5  1  0.03422068  0.42320333  0.92864613  1
  Ti  Ti6  1  0.10100244  0.68765779  0.23010173  1
  Ti  Ti7  1  0.08418103  0.77572951  0.58236819  1
  Ti  Ti8  1  0.09585455  0.75591652  0.90910399  1
  Ti  Ti9  1  0.39713757  0.00010630  0.23734894  1
  Ti  Ti10  1  0.42320827  0.05930460  0.60102562  1
  Ti  Ti11  1  0.32693722  0.16957609  0.95885586  1
  Ti  Ti12  1  0.37650635  0.41302290  0.21442572  1
  Ti  Ti13  1  0.41569368  0.38113541  0.63408285  1
  Ti  Ti14  1  0.36661942  0.37586203  1.00451037  1
  Ti  Ti15  1  0.35577364  0.81145151  0.30065357  1
  Ti  Ti16  1  0.52032623  0.74696485  0.57011550  1
  Ti  Ti17  1  0.37795492  0.72438000  0.86077406  1
  Ti  Ti18  1  0.75451037  0.03837916  0.19747464  1
  Ti  Ti19  1  0.79585653  0.04462612  0.51404824  1
  Ti  Ti20  1  0.77888272  0.04007488  0.91632505  1
  Ti  Ti21  1  0.76048455  0.37197798  0.27105379  1
  Ti  Ti22  1  0.72405052  0.48801897  0.55341173  1
  Ti  Ti23  1  0.76695613  0.42995690  0.89510463  1
  Ti  Ti24  1  0.68841819  0.79932478  0.28146126  1
  Ti  Ti25  1  0.74250687  0.80752003  0.56241320  1
  Ti  Ti26  1  0.81231279  0.76037412  0.86592893  1
  Ti  Ti27  1  0.12486283  0.25250055  0.18696010  1
  Ti  Ti28  1  0.10658209  0.23415814  0.41920267  1
  Ti  Ti29  1  0.03908524  0.21789271  0.74021408  1
  Ti  Ti30  1  0.06629075  0.51234980  0.12521219  1
  Ti  Ti31  1  0.09329280  0.54509077  0.42838865  1
  Ti  Ti32  1  0.05996424  0.64530277  0.73632603  1
  Ti  Ti33  1  0.10048312  0.87448734  0.06480544  1
  Ti  Ti34  1  0.05337577  0.87981572  0.40531961  1
  Ti  Ti35  1  0.03906371  0.95571650  0.75109499  1
  Ti  Ti36  1  0.51819285  0.25964304  0.03502080  1
  Ti  Ti37  1  0.46245377  0.32767012  0.37189139  1
  Ti  Ti38  1  0.45685783  0.27923321  0.84514507  1
  Ti  Ti39  1  0.40263673  0.56888894  0.06864008  1
  Ti  Ti40  1  0.36697737  0.64736314  0.43202711  1
  Ti  Ti41  1  0.36789275  0.55751179  0.73221459  1
  Ti  Ti42  1  0.39153368  1.00284507  0.04615950  1
  Ti  Ti43  1  0.45225941  0.89851224  0.45163126  1
  Ti  Ti44  1  0.39985643  0.89937375  0.77766306  1
  Ti  Ti45  1  0.79958879  0.29931051  0.10059616  1
  Ti  Ti46  1  0.79294778  0.24579319  0.42812129  1
  Ti  Ti47  1  0.75983467  0.28281751  0.76303563  1
  Ti  Ti48  1  0.88000612  0.59610280  0.11662311  1
  Ti  Ti49  1  0.76942465  0.64468826  0.39248114  1
  Ti  Ti50  1  0.74835950  0.58370928  0.73879302  1
  Ti  Ti51  1  0.78102319  0.87071343  0.03706362  1
  Ti  Ti52  1  0.79502654  0.89883056  0.39515753  1
  Ti  Ti53  1  0.70693054  0.99124681  0.72746802  1
  Ti  Ti54  1  0.23490476  0.09468284  0.13005654  1
  Ti  Ti55  1  0.25075864  0.10381482  0.44773476  1
  Ti  Ti56  1  0.24122528  0.02125530  0.79720515  1
  Ti  Ti57  1  0.17333912  0.35553708  0.02017899  1
  Ti  Ti58  1  0.26757759  0.44969865  0.38871718  1
  Ti  Ti59  1  0.22341468  0.42200433  0.72848841  1
  Ti  Ti60  1  0.25629226  0.76440266  0.13591460  1
  Ti  Ti61  1  0.24090697  0.81732880  0.45290859  1
  Ti  Ti62  1  0.26558236  0.72198233  0.67594497  1
  Ti  Ti63  1  0.55468396  0.09066361  0.15995830  1
  Ti  Ti64  1  0.61677404  0.17568826  0.34515111  1
  Ti  Ti65  1  0.50879709  0.09590544  0.78831112  1
  Ti  Ti66  1  0.54033753  0.44042925  0.09798174  1
  Ti  Ti67  1  0.62668503  0.48454594  0.37521428  1
  Ti  Ti68  1  0.58621133  0.29112701  0.70341113  1
  Ti  Ti69  1  0.54062672  0.76381000  0.11226395  1
  Ti  Ti70  1  0.53195102  0.72850398  0.35785151  1
  Ti  Ti71  1  0.58317058  0.83061940  0.75843596  1
  Ti  Ti72  1  0.91137201  -0.00270252  0.09421255  1
  Ti  Ti73  1  0.91657042  0.11956718  0.35013682  1
  Ti  Ti74  1  0.88121241  0.11514808  0.78157287  1
  Ti  Ti75  1  0.98776909  0.33748420  0.08457473  1
  Ti  Ti76  1  0.89350927  0.43737842  0.36674010  1
  Ti  Ti77  1  0.94233870  0.47162395  0.78495250  1
  Ti  Ti78  1  0.94423968  0.78846563  0.15730310  1
  Ti  Ti79  1  0.92811907  0.71229271  0.48160936  1
  Ti  Ti80  1  0.90105830  0.76728051  0.67578606  1
  Ti  Ti81  1  0.31949990  0.21594711  0.27744254  1
  Ti  Ti82  1  0.26091589  0.24698420  0.58673289  1
  Ti  Ti83  1  0.20772318  0.26660827  0.85764575  1
  Ti  Ti84  1  0.30277818  0.59111518  0.24202827  1
  Ti  Ti85  1  0.24058917  0.52450754  0.57294460  1
  Ti  Ti86  1  0.27740388  0.54696046  0.92578485  1
  Ti  Ti87  1  0.21011403  0.96707297  0.30510831  1
  Ti  Ti88  1  0.23198284  0.90705539  0.64218536  1
  Ti  Ti89  1  0.28595070  0.87016879  0.96499781  1
  Ti  Ti90  1  0.60419511  0.30483677  0.21634799  1
  Ti  Ti91  1  0.53516113  0.24306690  0.52963650  1
  Ti  Ti92  1  0.66828241  0.19908962  0.93746406  1
  Ti  Ti93  1  0.50282831  0.57196602  0.24787705  1
  Ti  Ti94  1  0.54724746  0.54710379  0.62662335  1
  Ti  Ti95  1  0.48688106  0.56509301  0.88224060  1
  Ti  Ti96  1  0.59896827  0.98162770  0.34223985  1
  Ti  Ti97  1  0.61189341  0.96800994  0.55598498  1
  Ti  Ti98  1  0.57473856  0.97616807  0.93011659  1
  Ti  Ti99  1  0.92956293  0.26562685  0.24901748  1
  Ti  Ti100  1  0.88982383  0.25354285  0.61567230  1
  Ti  Ti101  1  0.87155968  0.25560141  0.93569485  1
  Ti  Ti102  1  0.95050625  0.60466623  0.29845539  1
  Ti  Ti103  1  0.91305554  0.55806634  0.63039730  1
  Ti  Ti104  1  0.96045525  0.61480210  0.93623650  1
  Ti  Ti105  1  0.93572475  0.94489280  0.28333745  1
  Ti  Ti106  1  0.88752266  0.97091795  0.64387973  1
  Ti  Ti107  1  0.95601352  0.92823206  0.92782576  1
  Co  Co108  1  0.08172830  0.36537710  0.78678203  1
  Co  Co109  1  0.81450852  -0.12751457  0.20717684  1
  Co  Co110  1  0.22973294  0.02773452  -0.02307537  1
  Co  Co111  1  0.25149140  0.83372472  0.80952884  1
  Co  Co112  1  0.21545298  0.37535998  0.23911286  1
  Co  Co113  1  0.50862448  0.41964904  -0.06257760  1
  Co  Co114  1  0.03597148  0.25452215  -0.07973117  1
  Co  Co115  1  0.23331559  0.71277625  -0.02234968  1
  Co  Co116  1  0.78951326  0.64382599  0.57309539  1
  Co  Co117  1  0.39362145  0.64844689  0.59927733  1
  Co  Co118  1  0.14793100  0.52900226  0.26398533  1
  Co  Co119  1  0.38815052  0.71568233  0.02738917  1
  Co  Co120  1  0.49913559  0.11996057  -0.03490357  1
  Co  Co121  1  0.94171747  -0.00317178  0.45727240  1
  Co  Co122  1  0.17695249  0.13861257  0.29408154  1
  Co  Co123  1  0.91644258  0.31207412  0.79442099  1
  Co  Co124  1  0.52585961  0.07974667  0.46619370  1
  Co  Co125  1  0.68123961  0.02539198  0.04833908  1
  Co  Co126  1  0.52140492  0.58843684  0.44427294  1
  Co  Co127  1  0.24716916  -0.06674716  0.14399811  1
  Co  Co128  1  0.93434504  0.77711033  -0.00504518  1
  Co  Co129  1  0.81224805  0.12914051  0.05183376  1
  Co  Co130  1  0.21883049  0.64191209  0.36549914  1
  Co  Co131  1  0.74474756  0.83091648  0.72001185  1
  Co  Co132  1  0.64525053  0.47772936  0.20984995  1
  Co  Co133  1  0.19014885  0.16915436  0.72419050  1
  Co  Co134  1  0.67126826  0.43949045  0.71816931  1
  Co  Co135  1  -0.03294803  0.79293070  0.82120077  1
  Co  Co136  1  0.05320877  0.68756871  0.07126296  1
  Co  Co137  1  0.76464661  0.45760634  0.10779345  1
  Co  Co138  1  0.81385619  0.69968445  0.22991605  1
  Co  Co139  1  0.18007152  0.38217410  0.52681415  1
  Co  Co140  1  0.54666196  0.41640179  0.51714740  1
  Co  Co141  1  0.42913961  0.48663918  0.36339669  1
  Co  Co142  1  0.19400180  0.79815830  0.29927932  1
  Co  Co143  1  0.07958542  0.25176894  0.58096106  1
  Co  Co144  1  0.89646689  0.63954754  0.78913636  1
  Co  Co145  1  0.44300333  0.20849438  0.66676817  1
  Co  Co146  1  0.41923158  0.70339300  0.20208755  1
  Co  Co147  1  0.45378800  0.28467568  0.18422220  1
  Co  Co148  1  0.34913818  0.13607884  0.77689345  1
  Co  Co149  1  0.26231156  0.28781579  0.40884741  1
  Co  Co150  1  -0.09875471  0.86077451  0.51975032  1
  Co  Co151  1  0.08669207  0.49199174  0.67132028  1
  Co  Co152  1  0.62587463  0.34748851  0.85710003  1
  Co  Co153  1  0.08775608  0.88898998  0.21940036  1
  Co  Co154  1  0.11174487  0.80969709  0.73727914  1
  Co  Co155  1  0.15627239  0.18887526  0.02018151  1
  Co  Co156  1  0.76201137  0.20463998  0.25043149  1
  Co  Co157  1  0.05637723  0.61310511  0.56534529  1
  Co  Co158  1  0.21370201  0.61428299  0.10306549  1
  Co  Co159  1  0.79112449  0.53954847  0.25686319  1
  Co  Co160  1  0.89501640  0.78015675  0.33818318  1
  Co  Co161  1  0.46903333  0.14813256  0.29456759  1
  Ni  Ni162  1  0.17786443  -0.03601328  0.49558541  1
  Ni  Ni163  1  0.53144868  -0.06208250  0.09081330  1
  Ni  Ni164  1  0.64541046  0.65453897  0.50804859  1
  Ni  Ni165  1  0.20841397  0.67333872  0.52395189  1
  Ni  Ni166  1  0.12920435  0.52299293  0.82683993  1
  Ni  Ni167  1  -0.08496615  0.44244192  0.19463224  1
  Ni  Ni168  1  -0.04198956  0.14598469  0.51367509  1
  Ni  Ni169  1  0.70534440  0.88911250  0.87411151  1
  Ni  Ni170  1  0.21260714  0.66542209  0.82034698  1
  Ni  Ni171  1  0.67861764  0.13769951  0.78968582  1
  Ni  Ni172  1  0.67091795  0.19055281  0.10682212  1
  Ni  Ni173  1  0.51080366  0.44042901  0.76362961  1
  Ni  Ni174  1  0.25753557  0.46477637  0.10599090  1
  Ni  Ni175  1  0.65254171  0.69936882  0.67183475  1
  Ni  Ni176  1  0.39438483  0.19267299  0.45687503  1
  Ni  Ni177  1  0.89024505  0.46401863  0.00504882  1
  Ni  Ni178  1  0.67335339  0.15349073  0.50312928  1
  Ni  Ni179  1  0.51384094  0.86973354  0.25026185  1
  Ni  Ni180  1  0.07910506  0.06074368  0.39869810  1
  Ni  Ni181  1  0.38877285  0.01743456  0.88677936  1
  Ni  Ni182  1  0.07983606  0.71531364  0.40868571  1
  Ni  Ni183  1  0.04024448  -0.07086214  0.58271627  1
  Ni  Ni184  1  0.59061893  0.11804251  0.64008987  1
  Ni  Ni185  1  0.76351781  0.14577736  0.64799771  1
  Ni  Ni186  1  0.74962422  0.07608479  0.36124218  1
  Ni  Ni187  1  0.82583849  0.41238931  0.67914449  1
  Ni  Ni188  1  0.26173478  0.06923576  0.61793686  1
  Ni  Ni189  1  0.45803573  0.85469938  -0.04159782  1
  Ni  Ni190  1  -0.02135228  0.17106019  0.09380190  1
  Ni  Ni191  1  0.39706726  0.85420322  0.13105754  1
  Ni  Ni192  1  -0.04669140  0.28916773  0.42590094  1
  Ni  Ni193  1  0.07119598  0.03719564  0.03445265  1
  Ni  Ni194  1  -0.05962125  0.10078527  0.94646677  1
  Ni  Ni195  1  0.12659436  -0.07590011  0.89121548  1
  Ni  Ni196  1  0.32154158  0.28855825  0.74092419  1
  Ni  Ni197  1  0.66373198  0.89312273  0.15383208  1
  Ni  Ni198  1  0.62697056  0.83941858  0.44206276  1
  Ni  Ni199  1  0.38733238  0.03670447  0.39260769  1
  Ni  Ni200  1  0.36248399  0.42354445  0.83893978  1
  Ni  Ni201  1  0.66292917  0.35651661  0.01799575  1
  Ni  Ni202  1  0.40007941  0.14863044  0.12306384  1
  Ni  Ni203  1  0.64683119  0.32567779  0.42297542  1
  Ni  Ni204  1  0.71364858  0.30736040  0.58569406  1
  Ni  Ni205  1  0.47733588  0.90184538  0.63374562  1
  Ni  Ni206  1  0.12280409  0.57059534  -0.02178191  1
  Ni  Ni207  1  0.85659791  -0.07533214  0.79871687  1
  Ni  Ni208  1  0.35842489  0.80953650  0.56682132  1
  Ni  Ni209  1  0.49568814  0.67750889  0.73632912  1
  Ni  Ni210  1  0.65575118  0.63600683  0.26153745  1
  Ni  Ni211  1  0.85049528  0.38695783  0.51936454  1
  Ni  Ni212  1  0.28672494  0.27225598  0.11644711  1
  Ni  Ni213  1  0.40332698  0.50385452  0.52441153  1
  Ni  Ni214  1  -0.09548993  0.55008415  0.47288179  1
