# generated using pymatgen
data_Ti108Co54Ni53
_symmetry_space_group_name_H-M   'P 1'
_cell_length_a   14.64769240
_cell_length_b   14.60919172
_cell_length_c   14.67909608
_cell_angle_alpha   89.65291880
_cell_angle_beta   89.78930857
_cell_angle_gamma   89.89634170
_symmetry_Int_Tables_number   1
_chemical_formula_structural   Ti108Co54Ni53
_chemical_formula_sum   'Ti108 Co54 Ni53'
_cell_volume   3141.10977693
_cell_formula_units_Z   1
loop_
 _symmetry_equiv_pos_site_id
 _symmetry_equiv_pos_as_xyz
  1  'x, y, z'
loop_
 _atom_site_type_symbol
 _atom_site_label
 _atom_site_symmetry_multiplicity
 _atom_site_fract_x
 _atom_site_fract_y
 _atom_site_fract_z
 _atom_site_occupancy
  Ti  Ti0  1  0.04552773  0.06928207  0.19736096  1
  Ti  Ti1  1  0.07035830  0.09091863  0.62448071  1
  Ti  Ti2  1  0.10155619  0.10815376  0.98908973  1
  Ti  Ti3  1  0.05546351  0.48977478  0.29898732  1
  Ti  Ti4  1  0.05887358  0.41644326  0.52094636  1
  Ti  Ti5  1  0.13229908  0.41496303  0.92680028  1
  Ti  Ti6  1  0.14376940  0.74427064  0.29691096  1
  Ti  Ti7  1  0.09884537  0.81464359  0.50717541  1
  Ti  Ti8  1  0.12310260  0.83573839  0.88080055  1
  Ti  Ti9  1  0.46337313  0.10806381  0.25501276  1
  Ti  Ti10  1  0.41611062  0.09268521  0.57812827  1
  Ti  Ti11  1  0.47208720  0.03109676  0.75878172  1
  Ti  Ti12  1  0.37770836  0.41101768  0.20451093  1
  Ti  Ti13  1  0.40632647  0.38980477  0.51214584  1
  Ti  Ti14  1  0.43025648  0.39296067  0.96102569  1
  Ti  Ti15  1  0.37995364  0.73688637  0.27667533  1
  Ti  Ti16  1  0.44959909  0.73120930  0.60895986  1
  Ti  Ti17  1  0.42376997  0.76124220  0.94354273  1
  Ti  Ti18  1  0.77424739  0.12978729  0.24576812  1
  Ti  Ti19  1  0.72001337  0.06051206  0.56251217  1
  Ti  Ti20  1  0.76343923  0.16231547  0.94096771  1
  Ti  Ti21  1  0.76504914  0.34286250  0.27866955  1
  Ti  Ti22  1  0.75117838  0.44041237  0.68709057  1
  Ti  Ti23  1  0.70356384  0.37617767  0.88906206  1
  Ti  Ti24  1  0.78184693  0.75979264  0.33779214  1
  Ti  Ti25  1  0.74100351  0.60537506  0.59058731  1
  Ti  Ti26  1  0.72246829  0.77892738  0.97493119  1
  Ti  Ti27  1  0.17227678  0.22064866  0.12464048  1
  Ti  Ti28  1  0.09762093  0.28436901  0.35987948  1
  Ti  Ti29  1  0.11071598  0.28229651  0.65237574  1
  Ti  Ti30  1  0.07468348  0.60038367  0.02222432  1
  Ti  Ti31  1  0.08979887  0.60886041  0.45673687  1
  Ti  Ti32  1  0.09209676  0.57054967  0.67135340  1
  Ti  Ti33  1  0.07880907  0.91323065  0.04497275  1
  Ti  Ti34  1  0.08614605  0.95114319  0.35560973  1
  Ti  Ti35  1  0.03468240  0.90595133  0.70156119  1
  Ti  Ti36  1  0.48824686  0.26022221  0.10078961  1
  Ti  Ti37  1  0.34462761  0.26237849  0.35697603  1
  Ti  Ti38  1  0.49068198  0.24045881  0.71963026  1
  Ti  Ti39  1  0.43251937  0.63540639  0.09637860  1
  Ti  Ti40  1  0.46357858  0.59208170  0.44087891  1
  Ti  Ti41  1  0.41277281  0.50580768  0.78644557  1
  Ti  Ti42  1  0.40568025  0.93556701  0.03585562  1
  Ti  Ti43  1  0.38504512  0.88861832  0.43875889  1
  Ti  Ti44  1  0.37235493  0.84385552  0.74140630  1
  Ti  Ti45  1  0.69945717  0.26829925  0.08064088  1
  Ti  Ti46  1  0.79266777  0.20370219  0.42912161  1
  Ti  Ti47  1  0.76077011  0.12888750  0.72856748  1
  Ti  Ti48  1  0.65672433  0.60225218  0.11211716  1
  Ti  Ti49  1  0.66073364  0.59969754  0.40356005  1
  Ti  Ti50  1  0.72956223  0.62355631  0.80829877  1
  Ti  Ti51  1  0.74569462  0.94414206  0.12278945  1
  Ti  Ti52  1  0.73498600  0.91030035  0.44921725  1
  Ti  Ti53  1  0.82212191  0.92582525  0.76983725  1
  Ti  Ti54  1  0.33002706  0.08256766  0.11043722  1
  Ti  Ti55  1  0.24802720  0.07833083  0.45565743  1
  Ti  Ti56  1  0.19312554  0.11468549  0.79252079  1
  Ti  Ti57  1  0.17205642  0.44472399  0.13202833  1
  Ti  Ti58  1  0.22752582  0.41901662  0.37688515  1
  Ti  Ti59  1  0.20282325  0.42136535  0.73984791  1
  Ti  Ti60  1  0.23666918  0.71723427  -0.00811964  1
  Ti  Ti61  1  0.27851090  0.70126467  0.43282365  1
  Ti  Ti62  1  0.16948572  0.76510159  0.70622616  1
  Ti  Ti63  1  0.63536021  0.09304426  0.07652882  1
  Ti  Ti64  1  0.54614330  -0.00621356  0.41379331  1
  Ti  Ti65  1  0.63487830  0.03679924  0.85158511  1
  Ti  Ti66  1  0.59633874  0.39361966  0.18072347  1
  Ti  Ti67  1  0.59066662  0.40881639  0.39102143  1
  Ti  Ti68  1  0.54308702  0.41914359  0.66565730  1
  Ti  Ti69  1  0.52023642  0.80191634  0.11667180  1
  Ti  Ti70  1  0.54945632  0.77129417  0.40420957  1
  Ti  Ti71  1  0.57498452  0.75732166  0.82599208  1
  Ti  Ti72  1  0.87510840  0.10555685  0.09069499  1
  Ti  Ti73  1  0.97877498  0.12022575  0.44789325  1
  Ti  Ti74  1  0.94706348  0.20558486  0.72654907  1
  Ti  Ti75  1  0.97776017  0.36913643  0.06100123  1
  Ti  Ti76  1  0.91016687  0.35267472  0.40447988  1
  Ti  Ti77  1  0.92623677  0.39649912  0.82718494  1
  Ti  Ti78  1  0.99437791  0.74399255  0.14206848  1
  Ti  Ti79  1  0.91029537  0.75595228  0.49045296  1
  Ti  Ti80  1  0.85117084  0.74410247  0.68042049  1
  Ti  Ti81  1  0.23953146  0.12250702  0.27269877  1
  Ti  Ti82  1  0.29868099  0.25611221  0.66831457  1
  Ti  Ti83  1  0.30492226  0.21667325  0.95676806  1
  Ti  Ti84  1  0.24251334  0.62313428  0.16791334  1
  Ti  Ti85  1  0.28784958  0.55499869  0.60094584  1
  Ti  Ti86  1  0.23323376  0.58940254  0.82835318  1
  Ti  Ti87  1  0.25057108  0.88977730  0.22088738  1
  Ti  Ti88  1  0.23804085  0.94173151  0.59677631  1
  Ti  Ti89  1  0.29656099  0.94093042  0.87754455  1
  Ti  Ti90  1  0.61595551  0.21675629  0.33251579  1
  Ti  Ti91  1  0.61491782  0.27351534  0.55311124  1
  Ti  Ti92  1  0.51154738  0.19819858  0.92135292  1
  Ti  Ti93  1  0.52076149  0.55570331  0.25542496  1
  Ti  Ti94  1  0.56890564  0.60877588  0.69982569  1
  Ti  Ti95  1  0.54824987  0.56016550  0.92275801  1
  Ti  Ti96  1  0.62860331  0.88230663  0.26530975  1
  Ti  Ti97  1  0.59920517  0.84700784  0.57146896  1
  Ti  Ti98  1  0.59465508  0.91613313  0.99011730  1
  Ti  Ti99  1  0.94706205  0.21736238  0.26628541  1
  Ti  Ti100  1  0.81983170  0.28110340  0.60795030  1
  Ti  Ti101  1  0.95365237  0.21723352  0.92848876  1
  Ti  Ti102  1  0.84843679  0.54405447  0.27250192  1
  Ti  Ti103  1  0.93195555  0.57860567  0.58208063  1
  Ti  Ti104  1  0.94025186  0.63689075  0.85430457  1
  Ti  Ti105  1  0.89416398  0.87194204  0.24069107  1
  Ti  Ti106  1  0.91453782  0.95162826  0.55571859  1
  Ti  Ti107  1  0.91265929  0.86901610  0.94320019  1
  Co  Co108  1  0.77185289  0.48102486  0.40862840  1
  Co  Co109  1  0.93370753  -0.04802198  0.11034292  1
  Co  Co110  1  0.22489257  0.87775213  0.41457011  1
  Co  Co111  1  0.23174341  0.28627219  0.82850562  1
  Co  Co112  1  0.68211743  0.07916376  0.39463519  1
  Co  Co113  1  0.22059545  0.54747464  -0.00389220  1
  Co  Co114  1  0.58777931  0.36392564  0.00085516  1
  Co  Co115  1  0.41438872  0.06052410  -0.07815881  1
  Co  Co116  1  0.06839239  0.34136832  0.20732597  1
  Co  Co117  1  0.49004790  0.29517039  0.26636195  1
  Co  Co118  1  0.67835666  0.87822938  0.83741937  1
  Co  Co119  1  0.24615743  0.05206247  -0.02478641  1
  Co  Co120  1  -0.02394855  0.79242896  0.79922470  1
  Co  Co121  1  0.69094528  0.65348135  0.26021018  1
  Co  Co122  1  0.58467828  0.70210002  -0.00289482  1
  Co  Co123  1  0.67598336  -0.02912732  0.70149730  1
  Co  Co124  1  0.27567000  0.75356910  0.84117300  1
  Co  Co125  1  0.77671771  0.87188321  0.60572483  1
  Co  Co126  1  0.76613717  -0.03671276  0.29874319  1
  Co  Co127  1  0.09849728  0.67721405  0.83461835  1
  Co  Co128  1  -0.07954263  0.39096323  0.23624103  1
  Co  Co129  1  0.60291757  0.13412439  0.68218525  1
  Co  Co130  1  0.37344780  0.58527878  -0.06652383  1
  Co  Co131  1  0.49170779  0.26488129  0.42919229  1
  Co  Co132  1  0.68771787  0.49203247  0.26450598  1
  Co  Co133  1  0.06775479  0.88654768  0.20658804  1
  Co  Co134  1  0.15685168  0.76445100  0.12471959  1
  Co  Co135  1  0.10918230  0.12164226  0.36233888  1
  Co  Co136  1  0.10102795  -0.01430788  0.51282198  1
  Co  Co137  1  0.83734277  0.32037691  -0.02951793  1
  Co  Co138  1  0.54079957  -0.12332364  0.71884237  1
  Co  Co139  1  0.02285157  0.74563439  -0.02988453  1
  Co  Co140  1  0.82626749  0.62951612  0.43673848  1
  Co  Co141  1  0.11918288  0.27322541  -0.01718675  1
  Co  Co142  1  0.35663619  0.22693210  0.51610734  1
  Co  Co143  1  0.58189317  0.66091576  0.54439001  1
  Co  Co144  1  0.41374037  0.10665064  0.41110571  1
  Co  Co145  1  0.29155145  0.43679752  0.89751338  1
  Co  Co146  1  0.48224434  0.91137713  -0.12607159  1
  Co  Co147  1  0.22471219  0.12912195  0.60742664  1
  Co  Co148  1  0.00762341  0.21193152  0.09995254  1
  Co  Co149  1  0.31823884  0.03097124  0.71007336  1
  Co  Co150  1  0.47801800  0.10450793  0.05840948  1
  Co  Co151  1  0.67386565  0.75310610  0.68532211  1
  Co  Co152  1  0.89605160  0.90359505  0.40124146  1
  Co  Co153  1  0.73153331  0.34599994  0.47203803  1
  Co  Co154  1  0.56418638  0.13462734  0.49880541  1
  Co  Co155  1  0.62904162  0.48913431  0.79289813  1
  Co  Co156  1  0.83449761  0.04692462  0.43076677  1
  Co  Co157  1  0.17649333  0.67793939  0.57108489  1
  Co  Co158  1  0.45437887  0.54691018  0.59651381  1
  Co  Co159  1  0.87660901  0.12819457  0.57752948  1
  Co  Co160  1  0.19430692  0.92819690  0.75213052  1
  Co  Co161  1  0.42985849  0.42922820  0.35780247  1
  Ni  Ni162  1  0.00147096  0.51250068  0.14861775  1
  Ni  Ni163  1  0.09137306  -0.00237517  0.86464132  1
  Ni  Ni164  1  0.86501775  0.55194311  0.72879467  1
  Ni  Ni165  1  0.64680828  0.21104435  0.83684121  1
  Ni  Ni166  1  0.18186725  0.01852603  0.13364754  1
  Ni  Ni167  1  0.55620145  0.00260925  0.59549381  1
  Ni  Ni168  1  0.84275443  0.81192420  0.08440592  1
  Ni  Ni169  1  0.31090644  0.67943216  0.69460526  1
  Ni  Ni170  1  0.29155246  0.33963762  0.06709475  1
  Ni  Ni171  1  0.86950069  0.07941382  0.84872406  1
  Ni  Ni172  1  0.83600238  0.69374679  0.19289033  1
  Ni  Ni173  1  0.34535998  0.49656918  0.07059595  1
  Ni  Ni174  1  0.22334151  0.40327631  0.56004936  1
  Ni  Ni175  1  0.85282027  0.27464162  0.13521579  1
  Ni  Ni176  1  0.19672031  0.58263759  0.32395101  1
  Ni  Ni177  1  0.66533066  0.30125678  0.71121017  1
  Ni  Ni178  1  0.07914407  0.24492090  0.82026256  1
  Ni  Ni179  1  0.34207583  0.78224797  0.11711731  1
  Ni  Ni180  1  0.68817548  0.77333413  0.14563751  1
  Ni  Ni181  1  -0.05656582  0.51584785  0.42379722  1
  Ni  Ni182  1  0.43006470  0.67204757  0.80138823  1
  Ni  Ni183  1  -0.07174150  0.03994344  0.70446001  1
  Ni  Ni184  1  0.45599787  0.88591264  0.27335749  1
  Ni  Ni185  1  0.54119479  0.35593052  0.83376472  1
  Ni  Ni186  1  0.29885820  0.79222017  0.56739872  1
  Ni  Ni187  1  0.54740787  0.71836869  0.24964988  1
  Ni  Ni188  1  0.62821773  0.05377395  0.24329906  1
  Ni  Ni189  1  0.76804162  -0.01639290  -0.04237331  1
  Ni  Ni190  1  0.36180670  0.16864394  0.80314108  1
  Ni  Ni191  1  0.33572614  -0.00512787  0.31849676  1
  Ni  Ni192  1  0.81017819  0.27197858  0.80534304  1
  Ni  Ni193  1  0.00412881  0.80084168  0.35082162  1
  Ni  Ni194  1  -0.04340479  0.02919788  -0.03074617  1
  Ni  Ni195  1  0.63017196  0.48648828  0.54156803  1
  Ni  Ni196  1  0.35644123  0.56679504  0.28690234  1
  Ni  Ni197  1  0.51051337  0.48925488  0.07949459  1
  Ni  Ni198  1  0.05511136  0.51282519  0.82022976  1
  Ni  Ni199  1  -0.03363677  0.65080872  0.33014499  1
  Ni  Ni200  1  0.35066462  0.23152719  0.18507386  1
  Ni  Ni201  1  0.36198051  0.41142800  0.66674298  1
  Ni  Ni202  1  -0.04001800  0.39057702  0.66366692  1
  Ni  Ni203  1  0.81511587  0.76709344  0.84050547  1
  Ni  Ni204  1  -0.01986587  0.26119652  0.54716354  1
  Ni  Ni205  1  0.22865282  0.32244359  0.24011439  1
  Ni  Ni206  1  -0.08584309  0.03898330  0.28612520  1
  Ni  Ni207  1  0.24400764  0.89152086  0.03941638  1
  Ni  Ni208  1  0.41759200  0.91606637  0.60109950  1
  Ni  Ni209  1  0.52726448  -0.02695588  0.14747575  1
  Ni  Ni210  1  0.85613194  0.43566244  0.54307271  1
  Ni  Ni211  1  0.72156594  0.74529093  0.50158235  1
  Ni  Ni212  1  0.19752719  0.25490481  0.48932060  1
  Ni  Ni213  1  0.01606526  0.72688985  0.63131622  1
  Ni  Ni214  1  0.30872736  0.53360588  0.44330189  1
