# generated using pymatgen
data_Ti108Co54Ni53
_symmetry_space_group_name_H-M   'P 1'
_cell_length_a   14.69654709
_cell_length_b   14.66949804
_cell_length_c   14.64673987
_cell_angle_alpha   90.27244343
_cell_angle_beta   90.16230137
_cell_angle_gamma   89.93830098
_symmetry_Int_Tables_number   1
_chemical_formula_structural   Ti108Co54Ni53
_chemical_formula_sum   'Ti108 Co54 Ni53'
_cell_volume   3157.65468477
_cell_formula_units_Z   1
loop_
 _symmetry_equiv_pos_site_id
 _symmetry_equiv_pos_as_xyz
  1  'x, y, z'
loop_
 _atom_site_type_symbol
 _atom_site_label
 _atom_site_symmetry_multiplicity
 _atom_site_fract_x
 _atom_site_fract_y
 _atom_site_fract_z
 _atom_site_occupancy
  Ti  Ti0  1  0.11863521  0.23309323  0.23858291  1
  Ti  Ti1  1  0.02875419  0.05718659  0.63246981  1
  Ti  Ti2  1  0.14417369  -0.01331856  0.90230082  1
  Ti  Ti3  1  0.13805434  0.39611280  0.34704172  1
  Ti  Ti4  1  0.08803295  0.38396028  0.52113931  1
  Ti  Ti5  1  0.00835954  0.40790130  0.95349603  1
  Ti  Ti6  1  0.07602030  0.69717923  0.28705969  1
  Ti  Ti7  1  0.06630377  0.76040529  0.69332706  1
  Ti  Ti8  1  0.09569752  0.77449988  0.87950415  1
  Ti  Ti9  1  0.43058394  0.10359083  0.32782860  1
  Ti  Ti10  1  0.37463924  0.04983647  0.56530036  1
  Ti  Ti11  1  0.44883657  0.01137117  0.92645067  1
  Ti  Ti12  1  0.43834530  0.39164753  0.25018599  1
  Ti  Ti13  1  0.51200224  0.47929645  0.59425960  1
  Ti  Ti14  1  0.39413509  0.31725772  0.93180089  1
  Ti  Ti15  1  0.39992404  0.76220780  0.22659074  1
  Ti  Ti16  1  0.46459749  0.72428079  0.57744252  1
  Ti  Ti17  1  0.41440227  0.79572897  0.89643603  1
  Ti  Ti18  1  0.75939822  0.10750568  0.20834786  1
  Ti  Ti19  1  0.84612867  0.06359585  0.53356334  1
  Ti  Ti20  1  0.68785027  0.18676169  0.93681135  1
  Ti  Ti21  1  0.73817991  0.46877798  0.24560687  1
  Ti  Ti22  1  0.74512446  0.43579103  0.50290190  1
  Ti  Ti23  1  0.73194785  0.39937709  0.93064234  1
  Ti  Ti24  1  0.68946270  0.78342112  0.23717150  1
  Ti  Ti25  1  0.78556259  0.78663883  0.54382942  1
  Ti  Ti26  1  0.69595333  0.73685124  0.88012754  1
  Ti  Ti27  1  0.16622615  0.28314561  0.06329860  1
  Ti  Ti28  1  0.01116590  0.23227216  0.40148132  1
  Ti  Ti29  1  0.05998607  0.30115887  0.78995896  1
  Ti  Ti30  1  0.02642364  0.60243138  0.10285108  1
  Ti  Ti31  1  0.10321024  0.59764520  0.46734249  1
  Ti  Ti32  1  0.03484684  0.56752146  0.68386906  1
  Ti  Ti33  1  0.08876557  0.86939833  0.05545183  1
  Ti  Ti34  1  0.08808506  0.94795983  0.39726415  1
  Ti  Ti35  1  0.00195897  0.94114064  0.76849689  1
  Ti  Ti36  1  0.45627817  0.19620512  0.12802995  1
  Ti  Ti37  1  0.41010723  0.29186438  0.44845638  1
  Ti  Ti38  1  0.43958806  0.17549585  0.79322940  1
  Ti  Ti39  1  0.39558305  0.58170199  0.04867784  1
  Ti  Ti40  1  0.39971672  0.58375996  0.34141062  1
  Ti  Ti41  1  0.40927958  0.61322189  0.72487113  1
  Ti  Ti42  1  0.43613552  0.91163263  0.08649968  1
  Ti  Ti43  1  0.37565240  0.94655907  0.40434764  1
  Ti  Ti44  1  0.42511185  0.96739168  0.74129116  1
  Ti  Ti45  1  0.83896221  0.26424375  0.05461142  1
  Ti  Ti46  1  0.73154397  0.22782754  0.50598202  1
  Ti  Ti47  1  0.74019806  0.26495998  0.77726729  1
  Ti  Ti48  1  0.73235045  0.58346427  0.03638726  1
  Ti  Ti49  1  0.71715612  0.64069930  0.37653729  1
  Ti  Ti50  1  0.84709074  0.59657741  0.75648366  1
  Ti  Ti51  1  0.77020645  0.92956062  0.11250713  1
  Ti  Ti52  1  0.69760258  0.93992992  0.42243156  1
  Ti  Ti53  1  0.72879588  0.90250391  0.75385060  1
  Ti  Ti54  1  0.16454909  0.04370792  0.11737239  1
  Ti  Ti55  1  0.23720339  0.05518599  0.30187074  1
  Ti  Ti56  1  0.21622540  0.04032717  0.70951018  1
  Ti  Ti57  1  0.27578714  0.43547271  0.02348445  1
  Ti  Ti58  1  0.27181395  0.45584577  0.50344599  1
  Ti  Ti59  1  0.24798620  0.47905583  0.82171854  1
  Ti  Ti60  1  0.21412164  0.73146931  0.14231991  1
  Ti  Ti61  1  0.28240180  0.67042207  0.46233432  1
  Ti  Ti62  1  0.26789339  0.75870115  0.77027258  1
  Ti  Ti63  1  0.59929252  0.06598884  0.06790200  1
  Ti  Ti64  1  0.62676522  0.11696014  0.35268392  1
  Ti  Ti65  1  0.70154702  0.09200091  0.67465683  1
  Ti  Ti66  1  0.57773789  0.49414995  0.09338427  1
  Ti  Ti67  1  0.63126037  0.33360833  0.36667075  1
  Ti  Ti68  1  0.62642504  0.43878325  0.76088348  1
  Ti  Ti69  1  0.54263050  0.71377479  0.09818926  1
  Ti  Ti70  1  0.54532041  0.76621710  0.41244707  1
  Ti  Ti71  1  0.60572189  0.76041883  0.70071386  1
  Ti  Ti72  1  0.97207688  0.04678127  0.00917845  1
  Ti  Ti73  1  0.90028730  0.05469522  0.34443720  1
  Ti  Ti74  1  0.91393712  0.15507422  0.78040596  1
  Ti  Ti75  1  0.88113041  0.47799699  0.07932813  1
  Ti  Ti76  1  0.87519969  0.36026118  0.37490564  1
  Ti  Ti77  1  0.88001992  0.40410903  0.75675836  1
  Ti  Ti78  1  0.85912039  0.73169691  0.10667624  1
  Ti  Ti79  1  0.91930092  0.67390095  0.44670714  1
  Ti  Ti80  1  0.89775768  0.77107526  0.82690953  1
  Ti  Ti81  1  0.29813840  0.25281541  0.28670914  1
  Ti  Ti82  1  0.18021078  0.18689290  0.54543839  1
  Ti  Ti83  1  0.31018407  0.16886279  0.99051401  1
  Ti  Ti84  1  0.22598307  0.55507956  0.28100938  1
  Ti  Ti85  1  0.21249783  0.60686038  0.64103225  1
  Ti  Ti86  1  0.25308717  0.64714712  0.93857461  1
  Ti  Ti87  1  0.24433089  0.86390572  0.29389509  1
  Ti  Ti88  1  0.24912476  0.86217288  0.51524986  1
  Ti  Ti89  1  0.25148860  0.83884647  0.97509617  1
  Ti  Ti90  1  0.59791426  0.32611010  0.18832820  1
  Ti  Ti91  1  0.57177586  0.23895401  0.63586786  1
  Ti  Ti92  1  0.57015911  0.32102702  1.00460025  1
  Ti  Ti93  1  0.57067743  0.52346139  0.30326685  1
  Ti  Ti94  1  0.64488001  0.62343319  0.57137635  1
  Ti  Ti95  1  0.56306681  0.59719461  0.91757527  1
  Ti  Ti96  1  0.52552826  0.90538332  0.28340685  1
  Ti  Ti97  1  0.57374576  0.94450296  0.61633134  1
  Ti  Ti98  1  0.65545506  0.92898622  0.94221808  1
  Ti  Ti99  1  0.92455537  0.21485308  0.22879741  1
  Ti  Ti100  1  0.97430174  0.23570970  0.59128513  1
  Ti  Ti101  1  1.01228007  0.22115495  0.95436649  1
  Ti  Ti102  1  0.91666127  0.54337551  0.26954291  1
  Ti  Ti103  1  0.92493104  0.49869715  0.54995274  1
  Ti  Ti104  1  0.99792671  0.59949465  0.89577125  1
  Ti  Ti105  1  0.93537245  0.87495658  0.26485599  1
  Ti  Ti106  1  0.97653910  0.87456755  0.55417011  1
  Ti  Ti107  1  0.84503708  0.96769954  0.89911271  1
  Co  Co108  1  0.87677304  0.30550792  0.88539419  1
  Co  Co109  1  -0.00927903  0.31369013  0.10505516  1
  Co  Co110  1  0.22109478  0.38842203  0.19928337  1
  Co  Co111  1  0.86416583  0.49234347  -0.08674875  1
  Co  Co112  1  0.23326637  0.29501992  0.43694658  1
  Co  Co113  1  0.57740529  0.58898181  0.72081371  1
  Co  Co114  1  0.64380341  0.61531979  0.18791888  1
  Co  Co115  1  0.01975375  0.76671479  0.15347276  1
  Co  Co116  1  0.15313274  0.15352076  0.38826392  1
  Co  Co117  1  0.17509617  0.35212557  0.91180118  1
  Co  Co118  1  0.38615549  0.78218413  0.40197120  1
  Co  Co119  1  0.54681943  0.70542226  0.27495327  1
  Co  Co120  1  0.64914582  0.08078058  0.52328290  1
  Co  Co121  1  0.77546189  0.07429324  0.04393018  1
  Co  Co122  1  0.83209271  0.52930289  0.40684447  1
  Co  Co123  1  0.12984762  0.74334456  0.55162075  1
  Co  Co124  1  0.32886282  0.29861779  0.11284361  1
  Co  Co125  1  0.44743937  0.39851504  0.08252040  1
  Co  Co126  1  0.26109178  0.89604010  0.13132603  1
  Co  Co127  1  0.53403330  0.04664027  0.20734972  1
  Co  Co128  1  0.79387960  0.62414118  0.20545144  1
  Co  Co129  1  0.15859839  0.77396043  0.40070153  1
  Co  Co130  1  0.08160093  0.46331130  0.80641102  1
  Co  Co131  1  0.34000760  0.49645507  0.18018394  1
  Co  Co132  1  0.86539072  0.35266400  0.58719394  1
  Co  Co133  1  0.75293472  -0.05810700  0.58734257  1
  Co  Co134  1  0.51424572  0.70467862  0.81964583  1
  Co  Co135  1  0.60387121  0.17563752  0.79053169  1
  Co  Co136  1  -0.09308121  0.71602645  0.27623818  1
  Co  Co137  1  0.30891848  0.73720697  0.61405886  1
  Co  Co138  1  -0.01522245  0.89621751  0.92311075  1
  Co  Co139  1  0.45208794  0.44693675  0.43593391  1
  Co  Co140  1  0.12062690  0.69304416  0.01772559  1
  Co  Co141  1  0.84117515  0.65209311  0.93868310  1
  Co  Co142  1  0.16056819  -0.11545075  0.77381114  1
  Co  Co143  1  0.72361227  0.38623732  0.09381858  1
  Co  Co144  1  0.38854671  0.59479656  0.87770249  1
  Co  Co145  1  0.00191405  0.49342121  0.40140064  1
  Co  Co146  1  0.82023373  0.20294756  0.64336349  1
  Co  Co147  1  0.56584178  0.31731007  0.84696886  1
  Co  Co148  1  0.81271605  0.82274875  -0.03966702  1
  Co  Co149  1  0.42646986  0.87946226  0.55387140  1
  Co  Co150  1  0.85556539  0.14745720  -0.07236771  1
  Co  Co151  1  0.14678029  0.12845853  -0.02436620  1
  Co  Co152  1  0.00410561  0.36248521  0.26640214  1
  Co  Co153  1  0.26919195  0.70426806  0.30201486  1
  Co  Co154  1  0.29553283  -0.09998892  0.66662936  1
  Co  Co155  1  -0.03220798  0.74561637  -0.01300518  1
  Co  Co156  1  0.31071405  0.13885046  0.43702971  1
  Co  Co157  1  -0.00373859  0.80567379  0.39756555  1
  Co  Co158  1  0.55751444  0.80309673  -0.03173122  1
  Co  Co159  1  0.42349782  0.80421575  0.71595343  1
  Co  Co160  1  0.47315303  0.58534707  0.19089559  1
  Co  Co161  1  0.86217918  0.37360930  0.19673694  1
  Ni  Ni162  1  0.50238703  0.24217832  0.30280778  1
  Ni  Ni163  1  0.29107966  0.00062939  -0.00201844  1
  Ni  Ni164  1  0.67890485  -0.03081901  0.25484044  1
  Ni  Ni165  1  0.12643726  0.91573009  0.61908901  1
  Ni  Ni166  1  0.62738753  0.81535048  0.53945708  1
  Ni  Ni167  1  -0.07684003  0.70060177  0.63147211  1
  Ni  Ni168  1  0.70473534  0.33990366  0.63470795  1
  Ni  Ni169  1  0.17229327  0.44915003  0.65627564  1
  Ni  Ni170  1  0.11504266  0.18559827  0.69360469  1
  Ni  Ni171  1  0.76979541  0.72887035  0.70400288  1
  Ni  Ni172  1  0.80390448  0.61239760  0.55970045  1
  Ni  Ni173  1  0.53007951  -0.01705082  0.45326712  1
  Ni  Ni174  1  0.79612566  0.79082980  0.37029859  1
  Ni  Ni175  1  0.50123495  0.60746280  0.46512798  1
  Ni  Ni176  1  0.07423884  0.52397221  0.24735798  1
  Ni  Ni177  1  0.03669256  0.15455155  0.11478999  1
  Ni  Ni178  1  0.76212172  0.48861150  0.66361808  1
  Ni  Ni179  1  0.37210042  0.56859170  0.56327380  1
  Ni  Ni180  1  0.09132268  0.44012893  0.10739799  1
  Ni  Ni181  1  0.51640630  0.09033826  0.66233274  1
  Ni  Ni182  1  0.14785169  0.62307584  0.80325544  1
  Ni  Ni183  1  0.68103202  0.21266850  0.10170969  1
  Ni  Ni184  1  0.05240132  0.07347552  0.27215964  1
  Ni  Ni185  1  0.30562555  0.08752705  0.84280194  1
  Ni  Ni186  1  0.47022327  0.46167215  -0.06798995  1
  Ni  Ni187  1  0.61146880  0.49555388  0.45465980  1
  Ni  Ni188  1  0.71704342  0.55716008  0.85586046  1
  Ni  Ni189  1  0.29350098  0.13926097  0.16093970  1
  Ni  Ni190  1  0.31010707  0.41885478  0.34502020  1
  Ni  Ni191  1  0.57783379  0.02545488  0.81544244  1
  Ni  Ni192  1  0.81427281  0.19002207  0.37073064  1
  Ni  Ni193  1  0.06689135  0.10878157  0.82405605  1
  Ni  Ni194  1  0.36823176  0.75415609  0.05805839  1
  Ni  Ni195  1  0.87654725  0.85528328  0.68319715  1
  Ni  Ni196  1  0.13749242  0.52044670  -0.04498928  1
  Ni  Ni197  1  0.10532420  -0.08437269  0.21742752  1
  Ni  Ni198  1  0.20529869  0.56451483  0.10378337  1
  Ni  Ni199  1  0.91931141  0.03535195  0.17392265  1
  Ni  Ni200  1  0.74644805  0.27409650  0.24843427  1
  Ni  Ni201  1  0.59863810  0.89751139  0.12081342  1
  Ni  Ni202  1  0.57404107  0.34478828  0.51472931  1
  Ni  Ni203  1  0.01533296  0.39837125  0.66484638  1
  Ni  Ni204  1  0.73898058  0.06938927  0.83265658  1
  Ni  Ni205  1  0.19732799  0.02557486  0.50191002  1
  Ni  Ni206  1  0.02140708  0.08182002  0.47249485  1
  Ni  Ni207  1  -0.07615571  -0.10749405  0.07815714  1
  Ni  Ni208  1  0.30207305  0.92485598  0.84139788  1
  Ni  Ni209  1  -0.14333752  0.01760380  0.70411793  1
  Ni  Ni210  1  0.87900403  -0.08393835  0.42982753  1
  Ni  Ni211  1  0.37563612  -0.02537519  0.22721920  1
  Ni  Ni212  1  0.69528636  0.77022114  0.06221917  1
  Ni  Ni213  1  0.50913863  0.17163328  -0.05448311  1
  Ni  Ni214  1  0.55105169  0.86902168  0.81584306  1
