# generated using pymatgen
data_Ti108Co54Ni53
_symmetry_space_group_name_H-M   'P 1'
_cell_length_a   14.67903331
_cell_length_b   14.65872016
_cell_length_c   14.69858916
_cell_angle_alpha   90.06589435
_cell_angle_beta   89.91904656
_cell_angle_gamma   90.47059663
_symmetry_Int_Tables_number   1
_chemical_formula_structural   Ti108Co54Ni53
_chemical_formula_sum   'Ti108 Co54 Ni53'
_cell_volume   3162.66940168
_cell_formula_units_Z   1
loop_
 _symmetry_equiv_pos_site_id
 _symmetry_equiv_pos_as_xyz
  1  'x, y, z'
loop_
 _atom_site_type_symbol
 _atom_site_label
 _atom_site_symmetry_multiplicity
 _atom_site_fract_x
 _atom_site_fract_y
 _atom_site_fract_z
 _atom_site_occupancy
  Ti  Ti0  1  0.13491504  0.06707093  0.20603672  1
  Ti  Ti1  1  0.05156756  0.09833080  0.67712153  1
  Ti  Ti2  1  0.10401612  0.12164094  0.88538511  1
  Ti  Ti3  1  0.10748085  0.50719684  0.23664467  1
  Ti  Ti4  1  0.01795541  0.38493342  0.60561179  1
  Ti  Ti5  1  0.13937171  0.38878382  0.95809607  1
  Ti  Ti6  1  0.07990205  0.72166811  0.22957827  1
  Ti  Ti7  1  0.09604952  0.71152019  0.57935975  1
  Ti  Ti8  1  0.06580819  0.71764102  0.85074051  1
  Ti  Ti9  1  0.42005780  0.11952007  0.27852245  1
  Ti  Ti10  1  0.37773617  0.06737118  0.62093566  1
  Ti  Ti11  1  0.46264323  0.12257526  0.93613085  1
  Ti  Ti12  1  0.30710742  0.42127064  0.21505535  1
  Ti  Ti13  1  0.43587375  0.46523442  0.53445036  1
  Ti  Ti14  1  0.45486614  0.42367878  0.85549276  1
  Ti  Ti15  1  0.41848828  0.75310834  0.20172397  1
  Ti  Ti16  1  0.39329326  0.75211124  0.57954385  1
  Ti  Ti17  1  0.40153684  0.72955812  0.88603550  1
  Ti  Ti18  1  0.73113893  0.01108696  0.30434058  1
  Ti  Ti19  1  0.75249768  0.06063556  0.50130086  1
  Ti  Ti20  1  0.77423403  0.00398726  0.91907035  1
  Ti  Ti21  1  0.78730447  0.42201301  0.31863976  1
  Ti  Ti22  1  0.72138504  0.39396075  0.63861725  1
  Ti  Ti23  1  0.78293912  0.46937202  0.90824649  1
  Ti  Ti24  1  0.68556781  0.71755777  0.28983173  1
  Ti  Ti25  1  0.72139904  0.73757727  0.61631015  1
  Ti  Ti26  1  0.75135118  0.74298197  0.96496395  1
  Ti  Ti27  1  0.08515202  0.21911343  0.08253584  1
  Ti  Ti28  1  0.09542331  0.16372417  0.48717599  1
  Ti  Ti29  1  0.14036815  0.26997730  0.72405552  1
  Ti  Ti30  1  0.02562076  0.61187402  0.00064411  1
  Ti  Ti31  1  0.07609756  0.62431792  0.39890002  1
  Ti  Ti32  1  0.00824546  0.57562222  0.72582187  1
  Ti  Ti33  1  0.06060841  0.89048121  0.12776349  1
  Ti  Ti34  1  0.09266428  0.97031618  0.40657181  1
  Ti  Ti35  1  0.15495112  0.84883173  0.72854016  1
  Ti  Ti36  1  0.40162847  0.27573514  0.10739185  1
  Ti  Ti37  1  0.40495321  0.21810083  0.45733016  1
  Ti  Ti38  1  0.41099075  0.21573981  0.76389082  1
  Ti  Ti39  1  0.39915963  0.61214887  0.05352310  1
  Ti  Ti40  1  0.37709109  0.61859203  0.34703481  1
  Ti  Ti41  1  0.37987133  0.57657532  0.70358713  1
  Ti  Ti42  1  0.50454052  0.96939653  0.08030855  1
  Ti  Ti43  1  0.41488624  0.91183289  0.41472499  1
  Ti  Ti44  1  0.45252366  0.88700161  0.73965527  1
  Ti  Ti45  1  0.73620470  0.29276560  0.00891539  1
  Ti  Ti46  1  0.68816843  0.27744488  0.42144421  1
  Ti  Ti47  1  0.77588175  0.27291810  0.78843586  1
  Ti  Ti48  1  0.71347670  0.55196947  0.05262638  1
  Ti  Ti49  1  0.65966797  0.62504989  0.43945442  1
  Ti  Ti50  1  0.80149100  0.57218235  0.73292917  1
  Ti  Ti51  1  0.72485501  1.00228834  0.11444329  1
  Ti  Ti52  1  0.74488261  0.85184064  0.42860763  1
  Ti  Ti53  1  0.77747958  0.97794142  0.69278841  1
  Ti  Ti54  1  0.32962009  0.05116050  0.06636259  1
  Ti  Ti55  1  0.26894032  0.05429682  0.46453724  1
  Ti  Ti56  1  0.23742313  0.07348326  0.74601273  1
  Ti  Ti57  1  0.31839015  0.42192570  -0.00943991  1
  Ti  Ti58  1  0.26831931  0.40117082  0.43690684  1
  Ti  Ti59  1  0.25507892  0.43332006  0.79946716  1
  Ti  Ti60  1  0.24938304  0.77536954  0.07518745  1
  Ti  Ti61  1  0.24375498  0.76113846  0.30282577  1
  Ti  Ti62  1  0.21740001  0.64204053  0.76791276  1
  Ti  Ti63  1  0.62699803  0.12306961  0.02160510  1
  Ti  Ti64  1  0.58959168  0.11498818  0.39755278  1
  Ti  Ti65  1  0.59277183  0.08708648  0.72878772  1
  Ti  Ti66  1  0.58246198  0.46109241  0.14503348  1
  Ti  Ti67  1  0.63979458  0.45087210  0.48404757  1
  Ti  Ti68  1  0.63852894  0.45730006  0.80428499  1
  Ti  Ti69  1  0.58215008  0.68603287  0.11706297  1
  Ti  Ti70  1  0.56370308  0.78128414  0.46886813  1
  Ti  Ti71  1  0.62112956  0.75352534  0.79788861  1
  Ti  Ti72  1  0.97284566  0.06600082  0.08037221  1
  Ti  Ti73  1  0.91565550  0.08983349  0.39421434  1
  Ti  Ti74  1  0.88904598  0.11446132  0.77026841  1
  Ti  Ti75  1  0.88390079  0.43894372  0.08542329  1
  Ti  Ti76  1  0.89150704  0.53084594  0.45803456  1
  Ti  Ti77  1  0.89750964  0.40099608  0.75076687  1
  Ti  Ti78  1  0.91357502  0.74574360  0.11881819  1
  Ti  Ti79  1  0.89705596  0.72341252  0.31771788  1
  Ti  Ti80  1  0.86278605  0.75633337  0.78965187  1
  Ti  Ti81  1  0.26091770  0.19756819  0.18731665  1
  Ti  Ti82  1  0.31878648  0.28160308  0.61367184  1
  Ti  Ti83  1  0.25446702  0.22358434  0.97847890  1
  Ti  Ti84  1  0.27242510  0.60662807  0.19666151  1
  Ti  Ti85  1  0.19805523  0.54471885  0.54651634  1
  Ti  Ti86  1  0.22363792  0.60281767  0.95913459  1
  Ti  Ti87  1  0.29275090  0.97712337  0.26228925  1
  Ti  Ti88  1  0.23147977  0.85204488  0.54598441  1
  Ti  Ti89  1  0.23222729  0.93297715  0.91061795  1
  Ti  Ti90  1  0.59739425  0.25042844  0.18224760  1
  Ti  Ti91  1  0.53879781  0.30280965  0.57669451  1
  Ti  Ti92  1  0.59076851  0.25764608  0.86293693  1
  Ti  Ti93  1  0.54381867  0.50250850  0.33063098  1
  Ti  Ti94  1  0.54941673  0.63205585  0.60504999  1
  Ti  Ti95  1  0.54959367  0.56316959  0.95946346  1
  Ti  Ti96  1  0.61221523  0.87426792  0.20130269  1
  Ti  Ti97  1  0.56101015  0.97286433  0.56492658  1
  Ti  Ti98  1  0.57585038  0.94791512  0.89029841  1
  Ti  Ti99  1  0.86271508  0.24554950  0.15802298  1
  Ti  Ti100  1  0.89442806  0.22280399  0.59121347  1
  Ti  Ti101  1  0.92010304  0.18231903  0.94232983  1
  Ti  Ti102  1  0.83191524  0.57538335  0.19373393  1
  Ti  Ti103  1  0.90701302  0.67757249  0.58853509  1
  Ti  Ti104  1  0.97780615  0.46174344  0.91102212  1
  Ti  Ti105  1  0.88793912  0.92646319  0.19119762  1
  Ti  Ti106  1  1.00702812  0.89082952  0.56947179  1
  Ti  Ti107  1  0.91074427  0.89226416  0.99117488  1
  Co  Co108  1  0.23879663  0.13483381  0.33334016  1
  Co  Co109  1  0.85708176  -0.05331180  0.52876053  1
  Co  Co110  1  0.05870826  0.39596230  0.78375908  1
  Co  Co111  1  0.36524918  0.56320292  0.88693044  1
  Co  Co112  1  0.43700447  0.54040377  0.19117658  1
  Co  Co113  1  0.49818509  0.61110504  0.45350986  1
  Co  Co114  1  0.24223488  0.23948160  0.45522052  1
  Co  Co115  1  0.58947669  0.05690346  0.21042126  1
  Co  Co116  1  0.85227266  0.83316886  0.64414417  1
  Co  Co117  1  0.64334606  0.23935647  0.70201911  1
  Co  Co118  1  0.53752359  0.65581709  0.27775300  1
  Co  Co119  1  0.34771122  0.59614118  0.51297580  1
  Co  Co120  1  0.77081068  0.84642132  0.24962239  1
  Co  Co121  1  0.62256041  -0.07769617  0.73086649  1
  Co  Co122  1  -0.03101552  0.25494191  0.73961234  1
  Co  Co123  1  0.52087859  0.59866322  0.81239476  1
  Co  Co124  1  0.22346264  0.55214185  0.36005336  1
  Co  Co125  1  0.65282966  0.60526829  0.71901552  1
  Co  Co126  1  0.05007763  0.46836518  0.08251594  1
  Co  Co127  1  0.70030400  0.89475799  0.57555809  1
  Co  Co128  1  0.00144196  0.77390711  0.69945961  1
  Co  Co129  1  0.63366633  0.37341638  0.29590794  1
  Co  Co130  1  0.72128772  0.15831946  0.18483120  1
  Co  Co131  1  0.31490531  0.78033700  0.74680359  1
  Co  Co132  1  0.86268776  0.60319961  0.02690322  1
  Co  Co133  1  0.37813618  0.75943239  0.42023855  1
  Co  Co134  1  0.25158996  0.68775790  0.62107183  1
  Co  Co135  1  0.46747075  -0.04290626  0.25585086  1
  Co  Co136  1  -0.01295364  0.59919557  0.16330612  1
  Co  Co137  1  0.56893833  0.72285273  -0.05243419  1
  Co  Co138  1  0.77408227  0.85626534  0.08264597  1
  Co  Co139  1  0.52195369  0.24088357  0.32521936  1
  Co  Co140  1  0.46790505  0.12915857  0.11796618  1
  Co  Co141  1  -0.02965993  0.05624612  0.54751045  1
  Co  Co142  1  0.11736785  0.53638438  0.85066315  1
  Co  Co143  1  0.67329681  0.55620115  0.23413286  1
  Co  Co144  1  0.50469047  0.36091159  0.41986630  1
  Co  Co145  1  0.74532272  0.70664919  0.13748526  1
  Co  Co146  1  -0.06986066  0.74083936  -0.05260800  1
  Co  Co147  1  0.09161646  0.77666598  0.01682944  1
  Co  Co148  1  0.50493550  0.14766581  0.59779371  1
  Co  Co149  1  0.14941205  0.89374939  0.26431055  1
  Co  Co150  1  0.26490248  0.26721211  0.82271189  1
  Co  Co151  1  0.22741796  0.69728461  0.45630376  1
  Co  Co152  1  0.46422753  0.72144461  0.72855781  1
  Co  Co153  1  0.24975753  0.88699738  0.39809427  1
  Co  Co154  1  0.38641753  0.45931775  0.35351553  1
  Co  Co155  1  -0.00003890  0.84568299  0.29209620  1
  Co  Co156  1  0.05896464  0.27043594  0.89061614  1
  Co  Co157  1  0.77249919  0.16120306  0.34489815  1
  Co  Co158  1  0.21807465  0.33099545  0.10329730  1
  Co  Co159  1  0.69362377  0.61682813  0.87908809  1
  Co  Co160  1  0.40315001  0.27948613  -0.08020733  1
  Co  Co161  1  0.86134318  0.09005057  0.21528917  1
  Ni  Ni162  1  0.29905495  -0.06868321  0.68114629  1
  Ni  Ni163  1  0.65353672  0.17876049  0.55178972  1
  Ni  Ni164  1  0.46904476  0.37158403  0.23641196  1
  Ni  Ni165  1  -0.00577741  0.86130281  0.84643919  1
  Ni  Ni166  1  0.70863178  0.13371641  0.84562452  1
  Ni  Ni167  1  0.21294703  0.15503168  0.60159420  1
  Ni  Ni168  1  0.42563933  0.04268843  0.78710946  1
  Ni  Ni169  1  0.40561262  -0.04669685  -0.06915805  1
  Ni  Ni170  1  0.89157196  0.60287980  0.86581994  1
  Ni  Ni171  1  -0.05126050  -0.04710653  0.71498969  1
  Ni  Ni172  1  0.80908212  0.38381039  0.49761848  1
  Ni  Ni173  1  0.09279538  -0.01711610  0.79716239  1
  Ni  Ni174  1  0.30325500  0.09074923  0.89345422  1
  Ni  Ni175  1  0.14753468  0.47990473  0.68443422  1
  Ni  Ni176  1  0.51633457  0.81058323  0.31928677  1
  Ni  Ni177  1  0.16854882  0.33844069  0.56397526  1
  Ni  Ni178  1  0.16501138  0.07654609  0.03389738  1
  Ni  Ni179  1  0.87463349  0.33174497  0.90901429  1
  Ni  Ni180  1  -0.04669065  0.53237203  0.30573402  1
  Ni  Ni181  1  0.79899757  0.13331745  0.04214619  1
  Ni  Ni182  1  0.00124373  0.17276486  0.22574266  1
  Ni  Ni183  1  0.34475285  0.28532893  0.31615364  1
  Ni  Ni184  1  0.20887913  0.49416815  0.09152431  1
  Ni  Ni185  1  0.14169565  0.64225243  0.10449726  1
  Ni  Ni186  1  0.45921698  0.79682643  0.03914433  1
  Ni  Ni187  1  0.74805526  0.86996175  0.82519467  1
  Ni  Ni188  1  0.74129473  0.56670984  0.57170491  1
  Ni  Ni189  1  0.95385185  0.02070368  0.88987419  1
  Ni  Ni190  1  0.73697976  0.38924424  0.15832004  1
  Ni  Ni191  1  0.00052996  0.01189051  0.27172727  1
  Ni  Ni192  1  0.22548441  0.76819809  -0.10462482  1
  Ni  Ni193  1  0.56296904  0.80900067  0.63003918  1
  Ni  Ni194  1  -0.01888794  0.32358729  0.02991438  1
  Ni  Ni195  1  0.62341182  -0.14018108  0.02456005  1
  Ni  Ni196  1  0.02880453  0.55293944  0.55625963  1
  Ni  Ni197  1  0.88214793  0.48946977  0.61385529  1
  Ni  Ni198  1  0.07859176  -0.05207321  -0.03141570  1
  Ni  Ni199  1  0.14963899  -0.00134945  0.58226753  1
  Ni  Ni200  1  0.80772456  0.70024683  0.46182586  1
  Ni  Ni201  1  0.54275100  0.26827849  0.02064429  1
  Ni  Ni202  1  0.21196602  -0.06357126  0.10184411  1
  Ni  Ni203  1  0.46634687  0.41934808  0.04529300  1
  Ni  Ni204  1  0.78897811  0.58756972  0.34759164  1
  Ni  Ni205  1  0.44768075  0.05843160  0.46477083  1
  Ni  Ni206  1  0.87984321  0.92519127  0.36604928  1
  Ni  Ni207  1  0.36497467  0.89300791  0.13511946  1
  Ni  Ni208  1  0.62084170  0.40675485  -0.03067976  1
  Ni  Ni209  1  0.58926307  -0.05417468  0.39128988  1
  Ni  Ni210  1  0.09954696  0.79623070  0.41556411  1
  Ni  Ni211  1  0.53289605  0.34124132  0.73354074  1
  Ni  Ni212  1  0.38875818  0.40183883  0.69770824  1
  Ni  Ni213  1  0.53220282  0.48845839  0.67697828  1
  Ni  Ni214  1  0.76699422  0.14498705  0.66025097  1
