# generated using pymatgen
data_Ti108Co54Ni53
_symmetry_space_group_name_H-M   'P 1'
_cell_length_a   14.69964195
_cell_length_b   14.64544380
_cell_length_c   14.62636756
_cell_angle_alpha   90.17502907
_cell_angle_beta   90.17469901
_cell_angle_gamma   90.31205688
_symmetry_Int_Tables_number   1
_chemical_formula_structural   Ti108Co54Ni53
_chemical_formula_sum   'Ti108 Co54 Ni53'
_cell_volume   3148.72887910
_cell_formula_units_Z   1
loop_
 _symmetry_equiv_pos_site_id
 _symmetry_equiv_pos_as_xyz
  1  'x, y, z'
loop_
 _atom_site_type_symbol
 _atom_site_label
 _atom_site_symmetry_multiplicity
 _atom_site_fract_x
 _atom_site_fract_y
 _atom_site_fract_z
 _atom_site_occupancy
  Ti  Ti0  1  0.10590788  0.06515702  0.28970933  1
  Ti  Ti1  1  0.09282530  0.03994808  0.60107515  1
  Ti  Ti2  1  0.06563738  0.14167121  0.96579417  1
  Ti  Ti3  1  0.08425668  0.42261849  0.24261760  1
  Ti  Ti4  1  0.05058919  0.43226016  0.57501985  1
  Ti  Ti5  1  0.09398680  0.47737754  0.90826378  1
  Ti  Ti6  1  0.16536313  0.76466751  0.26019348  1
  Ti  Ti7  1  0.16546309  0.71067449  0.65295149  1
  Ti  Ti8  1  0.08037940  0.75207243  0.82775965  1
  Ti  Ti9  1  0.45569086  0.02349300  0.20397376  1
  Ti  Ti10  1  0.37061304  0.13753686  0.60307926  1
  Ti  Ti11  1  0.33624398  0.11435909  0.95406372  1
  Ti  Ti12  1  0.39827724  0.42815361  0.28571568  1
  Ti  Ti13  1  0.39115290  0.34972981  0.60302051  1
  Ti  Ti14  1  0.42624190  0.39233400  0.94547232  1
  Ti  Ti15  1  0.40360525  0.78169537  0.23298263  1
  Ti  Ti16  1  0.46489810  0.71646785  0.55807452  1
  Ti  Ti17  1  0.38148728  0.71797252  0.89449153  1
  Ti  Ti18  1  0.66368681  0.05537904  0.21508574  1
  Ti  Ti19  1  0.77688235  0.07077977  0.54003516  1
  Ti  Ti20  1  0.76034121  0.12404144  0.91541846  1
  Ti  Ti21  1  0.72473772  0.36076736  0.22066775  1
  Ti  Ti22  1  0.75078195  0.39596283  0.56672631  1
  Ti  Ti23  1  0.81793173  0.30993478  0.93087853  1
  Ti  Ti24  1  0.72988148  0.79727950  0.33446456  1
  Ti  Ti25  1  0.65794287  0.73012617  0.52164372  1
  Ti  Ti26  1  0.85030406  0.68225416  0.95558921  1
  Ti  Ti27  1  0.05604768  0.29076698  0.10147484  1
  Ti  Ti28  1  0.08324769  0.23549035  0.48231052  1
  Ti  Ti29  1  0.09501811  0.23864096  0.68407384  1
  Ti  Ti30  1  0.04433908  0.64365586  0.06233099  1
  Ti  Ti31  1  0.05693723  0.56539509  0.39352465  1
  Ti  Ti32  1  0.04211798  0.57251143  0.73152225  1
  Ti  Ti33  1  0.07108334  0.93175573  0.01428615  1
  Ti  Ti34  1  0.03115595  0.89050422  0.40351891  1
  Ti  Ti35  1  0.13349489  0.94022900  0.77353651  1
  Ti  Ti36  1  0.37325078  0.31863472  0.12541872  1
  Ti  Ti37  1  0.44295484  0.25261019  0.42380924  1
  Ti  Ti38  1  0.48561221  0.29847722  0.75944535  1
  Ti  Ti39  1  0.48904531  0.49363528  0.11987491  1
  Ti  Ti40  1  0.37092556  0.56216873  0.42114306  1
  Ti  Ti41  1  0.49345925  0.63121463  0.74217489  1
  Ti  Ti42  1  0.45062997  0.85341049  0.07158039  1
  Ti  Ti43  1  0.34926800  0.87133523  0.44347680  1
  Ti  Ti44  1  0.38056005  0.87611133  0.65187712  1
  Ti  Ti45  1  0.75768019  0.20224887  0.10084111  1
  Ti  Ti46  1  0.70485320  0.14837510  0.36822530  1
  Ti  Ti47  1  0.78555777  0.35098683  0.75560254  1
  Ti  Ti48  1  0.74184752  0.65302917  0.14907810  1
  Ti  Ti49  1  0.72756926  0.61581826  0.39121403  1
  Ti  Ti50  1  0.69907550  0.61692532  0.83181719  1
  Ti  Ti51  1  0.77651331  0.90778064  0.16031987  1
  Ti  Ti52  1  0.79747375  0.96617523  0.37160505  1
  Ti  Ti53  1  0.82967019  0.92411035  0.72191095  1
  Ti  Ti54  1  0.21364800  0.04276763  0.10583703  1
  Ti  Ti55  1  0.24304834  0.04797505  0.46750240  1
  Ti  Ti56  1  0.25580532  0.10607476  0.76302891  1
  Ti  Ti57  1  0.20483707  0.38422291  0.04011210  1
  Ti  Ti58  1  0.23494228  0.34362324  0.36641807  1
  Ti  Ti59  1  0.28950446  0.40638070  0.78182905  1
  Ti  Ti60  1  0.25420304  0.72353483  0.07039203  1
  Ti  Ti61  1  0.20822388  0.68022272  0.43544800  1
  Ti  Ti62  1  0.23591613  0.60203060  0.79319024  1
  Ti  Ti63  1  0.54926162  0.13056726  0.06595872  1
  Ti  Ti64  1  0.54425684  0.08867579  0.48405135  1
  Ti  Ti65  1  0.62815058  0.12847698  0.66770123  1
  Ti  Ti66  1  0.57713482  0.32218769  0.08860781  1
  Ti  Ti67  1  0.69096871  0.41779712  0.39230071  1
  Ti  Ti68  1  0.61097519  0.45749712  0.70345941  1
  Ti  Ti69  1  0.55461724  0.66907858  0.11802936  1
  Ti  Ti70  1  0.52952928  0.79238926  0.39525364  1
  Ti  Ti71  1  0.69492910  0.79469803  0.69834935  1
  Ti  Ti72  1  0.90107248  0.05362458  0.03557947  1
  Ti  Ti73  1  0.91291610  0.16153101  0.40597848  1
  Ti  Ti74  1  0.84678819  0.13157913  0.71805052  1
  Ti  Ti75  1  0.88762070  0.37594711  0.11173314  1
  Ti  Ti76  1  0.91914168  0.40657883  0.40711470  1
  Ti  Ti77  1  0.90006920  0.47315395  0.66906598  1
  Ti  Ti78  1  0.91961738  0.76520782  0.14714802  1
  Ti  Ti79  1  0.90515513  0.72961378  0.44774936  1
  Ti  Ti80  1  0.88435786  0.71800032  0.76133665  1
  Ti  Ti81  1  0.19536710  0.23086699  0.20264380  1
  Ti  Ti82  1  0.21432805  0.35649043  0.57754797  1
  Ti  Ti83  1  0.17886758  0.26524090  0.87057782  1
  Ti  Ti84  1  0.29038999  0.59663878  0.22307050  1
  Ti  Ti85  1  0.32504815  0.57049084  0.61971990  1
  Ti  Ti86  1  0.30117000  0.55103019  0.97264018  1
  Ti  Ti87  1  0.29840746  0.98085207  0.28021019  1
  Ti  Ti88  1  0.18035116  0.87125728  0.54561638  1
  Ti  Ti89  1  0.27395770  0.89962493  0.94766419  1
  Ti  Ti90  1  0.47258639  0.21870007  0.24275399  1
  Ti  Ti91  1  0.56471519  0.36361030  0.52668768  1
  Ti  Ti92  1  0.62006507  0.31159091  0.89875155  1
  Ti  Ti93  1  0.59962045  0.54305172  0.27671063  1
  Ti  Ti94  1  0.50993205  0.53850555  0.55303943  1
  Ti  Ti95  1  0.52814663  0.59271894  0.94067615  1
  Ti  Ti96  1  0.58355922  0.88720437  0.24560455  1
  Ti  Ti97  1  0.56964084  0.90710097  0.55860033  1
  Ti  Ti98  1  0.64964175  0.87301099  0.96190043  1
  Ti  Ti99  1  0.95287144  0.18086700  0.21430331  1
  Ti  Ti100  1  0.91169952  0.28244396  0.56244819  1
  Ti  Ti101  1  0.95699126  0.22364308  0.84020534  1
  Ti  Ti102  1  0.94200685  0.55056498  0.22105958  1
  Ti  Ti103  1  0.80722816  0.62397790  0.58437355  1
  Ti  Ti104  1  0.87554997  0.49232992  0.95388003  1
  Ti  Ti105  1  0.97546755  0.95243042  0.18263705  1
  Ti  Ti106  1  0.99568786  0.85800710  0.62083873  1
  Ti  Ti107  1  0.86384991  0.89536930  0.93574605  1
  Co  Co108  1  0.87244646  0.03887387  0.84995307  1
  Co  Co109  1  0.66096908  0.49794428  0.13497496  1
  Co  Co110  1  -0.05415546  0.55582968  0.52952430  1
  Co  Co111  1  0.54549297  0.10310704  0.32407100  1
  Co  Co112  1  0.24139941  0.40339328  0.20744216  1
  Co  Co113  1  0.26176099  -0.00318792  0.63539869  1
  Co  Co114  1  0.33482993  0.48607870  0.10879200  1
  Co  Co115  1  0.06839764  0.74990618  0.48140595  1
  Co  Co116  1  0.09456633  0.40078623  0.42203060  1
  Co  Co117  1  0.75788823  0.79435151  0.85805089  1
  Co  Co118  1  0.63551808  0.80466946  0.11802909  1
  Co  Co119  1  0.72755151  0.55529113  0.00242230  1
  Co  Co120  1  0.66538935  0.53076277  0.52612572  1
  Co  Co121  1  0.55381471  0.37678598  0.24323286  1
  Co  Co122  1  0.59526260  0.45616546  -0.00974640  1
  Co  Co123  1  -0.01479564  0.78339570  -0.03087823  1
  Co  Co124  1  0.86044869  0.56099255  0.80596165  1
  Co  Co125  1  0.31258364  0.27646608  -0.01764914  1
  Co  Co126  1  0.95329026  0.42741466  0.82098062  1
  Co  Co127  1  0.38420434  0.09415627  0.40427531  1
  Co  Co128  1  -0.04766966  0.31293019  0.70574307  1
  Co  Co129  1  0.18530583  0.50864264  0.66573392  1
  Co  Co130  1  0.19438708  0.19498149  0.04474980  1
  Co  Co131  1  0.40131109  0.65716138  0.07068283  1
  Co  Co132  1  0.47117135  0.23562143  -0.02870617  1
  Co  Co133  1  0.55029188  0.62872043  0.41867898  1
  Co  Co134  1  0.63281001  0.21330200  0.21537757  1
  Co  Co135  1  0.80310262  0.22517881  0.26605747  1
  Co  Co136  1  0.20509564  0.15602871  0.59951920  1
  Co  Co137  1  0.36668848  0.15849290  0.11066844  1
  Co  Co138  1  0.21731531  0.51189407  0.33657230  1
  Co  Co139  1  0.24172535  0.76853372  0.84473210  1
  Co  Co140  1  0.14966442  0.79689919  -0.02654478  1
  Co  Co141  1  0.27930030  0.26394714  0.70143634  1
  Co  Co142  1  0.59550024  0.27890952  0.36746690  1
  Co  Co143  1  0.74802687  0.52922838  0.69664373  1
  Co  Co144  1  0.23466305  0.84312575  0.70618277  1
  Co  Co145  1  0.05642606  0.26961344  0.31399566  1
  Co  Co146  1  0.88465616  0.56536993  0.38593083  1
  Co  Co147  1  0.51571816  0.45524173  0.39625726  1
  Co  Co148  1  0.05443879  0.07532337  0.44615202  1
  Co  Co149  1  0.66697386  0.70060420  -0.02109892  1
  Co  Co150  1  0.11551411  0.60608490  0.23831517  1
  Co  Co151  1  0.73172739  0.38359430  0.03815137  1
  Co  Co152  1  0.05740379  0.09838267  0.11986772  1
  Co  Co153  1  0.35090505  0.71416278  0.71451883  1
  Co  Co154  1  0.91560434  0.34945325  0.26078796  1
  Co  Co155  1  0.63193559  0.30293486  0.67376918  1
  Co  Co156  1  0.51806080  0.75985285  -0.02532380  1
  Co  Co157  1  0.62874303  0.64626799  0.65891448  1
  Co  Co158  1  0.53741743  0.45792540  0.84150059  1
  Co  Co159  1  0.35970503  0.40434100  0.45822395  1
  Co  Co160  1  0.60461430  0.71480692  0.27065362  1
  Co  Co161  1  0.71790699  0.45508184  0.86700707  1
  Ni  Ni162  1  -0.02189304  0.69185899  0.61984223  1
  Ni  Ni163  1  0.78446502  0.51335346  0.26216846  1
  Ni  Ni164  1  0.18895070  0.17481304  0.37007255  1
  Ni  Ni165  1  0.76623012  0.22991897  0.62019472  1
  Ni  Ni166  1  0.10145136  0.59947470  0.55467965  1
  Ni  Ni167  1  0.45323620  0.62043196  0.27144951  1
  Ni  Ni168  1  0.83905942  0.79219303  0.59834396  1
  Ni  Ni169  1  0.44083271  0.46570386  0.70392326  1
  Ni  Ni170  1  0.63411519  -0.03329242  0.40127118  1
  Ni  Ni171  1  0.29005909  0.23114513  0.48520013  1
  Ni  Ni172  1  0.10585660  0.39580632  0.75411993  1
  Ni  Ni173  1  0.50710477  0.22197598  0.59840188  1
  Ni  Ni174  1  0.69005755  -0.02332162  0.65287839  1
  Ni  Ni175  1  0.36774709  -0.00369610  0.06703869  1
  Ni  Ni176  1  0.37262844  0.71873947  0.38592214  1
  Ni  Ni177  1  0.35782606  0.23440625  0.83669061  1
  Ni  Ni178  1  0.02829504  0.46848191  0.07099638  1
  Ni  Ni179  1  0.73185041  0.03346417  0.05364683  1
  Ni  Ni180  1  0.46824295  0.95414488  0.36315854  1
  Ni  Ni181  1  0.58516369  -0.03472330  0.09072639  1
  Ni  Ni182  1  0.21933991  0.50292858  0.49615451  1
  Ni  Ni183  1  0.64945262  0.21844137  0.51455980  1
  Ni  Ni184  1  0.52692254  0.79372987  0.68842455  1
  Ni  Ni185  1  0.09210385  0.11733086  0.79255789  1
  Ni  Ni186  1  -0.05370232  0.01588976  0.33233372  1
  Ni  Ni187  1  0.73595565  0.89027248  0.51468148  1
  Ni  Ni188  1  0.01775323  0.00381681  -0.11814390  1
  Ni  Ni189  1  0.91778389  0.21527450  0.02860102  1
  Ni  Ni190  1  0.78125089  0.79590673  0.04433766  1
  Ni  Ni191  1  0.78646293  0.28043674  0.43832017  1
  Ni  Ni192  1  0.19383615  0.89332473  0.37491674  1
  Ni  Ni193  1  0.14225758  -0.07480250  0.21235557  1
  Ni  Ni194  1  0.70281687  0.21092530  0.79054311  1
  Ni  Ni195  1  -0.04778587  0.12664000  0.58096682  1
  Ni  Ni196  1  -0.03027592  0.86957378  0.80227305  1
  Ni  Ni197  1  0.82977252  0.06363777  0.21427158  1
  Ni  Ni198  1  0.30531721  0.74408124  0.55351986  1
  Ni  Ni199  1  0.89728017  0.84513352  0.29819803  1
  Ni  Ni200  1  0.16130994  0.63769270  0.93948672  1
  Ni  Ni201  1  -0.00874153  0.34593917  -0.04216042  1
  Ni  Ni202  1  0.18640653  0.03895428  0.91062200  1
  Ni  Ni203  1  0.59247626  0.74496228  0.83205332  1
  Ni  Ni204  1  0.01038025  0.71176894  0.31218948  1
  Ni  Ni205  1  0.41438792  -0.00756700  0.53555228  1
  Ni  Ni206  1  0.31860845  0.15003957  0.26842872  1
  Ni  Ni207  1  0.92074552  -0.01929019  0.50766133  1
  Ni  Ni208  1  0.84736803  0.68431755  0.28013738  1
  Ni  Ni209  1  0.39013717  0.54165059  0.83716926  1
  Ni  Ni210  1  0.28316266  0.87203153  0.13907953  1
  Ni  Ni211  1  0.17657433  0.54609706  0.09335424  1
  Ni  Ni212  1  0.07877876  0.80250708  0.12011027  1
  Ni  Ni213  1  -0.02582248  0.01333701  0.71376962  1
  Ni  Ni214  1  -0.00523300  0.62054912  0.89070648  1
