# generated using pymatgen
data_Ti108Co54Ni53
_symmetry_space_group_name_H-M   'P 1'
_cell_length_a   14.68216262
_cell_length_b   14.56106047
_cell_length_c   14.69802500
_cell_angle_alpha   90.26195233
_cell_angle_beta   89.96247469
_cell_angle_gamma   89.75447855
_symmetry_Int_Tables_number   1
_chemical_formula_structural   Ti108Co54Ni53
_chemical_formula_sum   'Ti108 Co54 Ni53'
_cell_volume   3142.19687365
_cell_formula_units_Z   1
loop_
 _symmetry_equiv_pos_site_id
 _symmetry_equiv_pos_as_xyz
  1  'x, y, z'
loop_
 _atom_site_type_symbol
 _atom_site_label
 _atom_site_symmetry_multiplicity
 _atom_site_fract_x
 _atom_site_fract_y
 _atom_site_fract_z
 _atom_site_occupancy
  Ti  Ti0  1  0.07962528  0.10391093  0.20473931  1
  Ti  Ti1  1  0.09088280  0.09178005  0.64218217  1
  Ti  Ti2  1  0.03624071  0.15798421  0.96181367  1
  Ti  Ti3  1  0.13740927  0.43192263  0.21803006  1
  Ti  Ti4  1  0.03649502  0.37646594  0.58170485  1
  Ti  Ti5  1  0.12466125  0.50120427  0.89609797  1
  Ti  Ti6  1  0.15731895  0.72635898  0.22809603  1
  Ti  Ti7  1  0.05385924  0.74561988  0.50236792  1
  Ti  Ti8  1  -0.01803420  0.76294933  0.95692700  1
  Ti  Ti9  1  0.46946575  0.07895909  0.22868612  1
  Ti  Ti10  1  0.39805017  0.12791148  0.56195072  1
  Ti  Ti11  1  0.40193358  0.14618320  0.87311093  1
  Ti  Ti12  1  0.47849446  0.40641301  0.31733421  1
  Ti  Ti13  1  0.39893185  0.43852972  0.63853433  1
  Ti  Ti14  1  0.36586439  0.45148990  0.88543996  1
  Ti  Ti15  1  0.43912297  0.76245428  0.18323085  1
  Ti  Ti16  1  0.38230140  0.73284434  0.64279151  1
  Ti  Ti17  1  0.42844557  0.68637254  0.96329828  1
  Ti  Ti18  1  0.74977144  0.03734078  0.21271278  1
  Ti  Ti19  1  0.73937497  0.09190936  0.40506287  1
  Ti  Ti20  1  0.70242764  0.04530411  0.87320613  1
  Ti  Ti21  1  0.78217471  0.39461187  0.26526163  1
  Ti  Ti22  1  0.71681873  0.35202405  0.61395787  1
  Ti  Ti23  1  0.71622476  0.36540395  0.95172035  1
  Ti  Ti24  1  0.75273227  0.68561859  0.26165041  1
  Ti  Ti25  1  0.76945061  0.83193584  0.54678275  1
  Ti  Ti26  1  0.75476229  0.82331191  0.83679604  1
  Ti  Ti27  1  0.05711175  0.27950302  0.11569133  1
  Ti  Ti28  1  0.11749314  0.22295866  0.47538985  1
  Ti  Ti29  1  0.02688985  0.27220005  0.77163512  1
  Ti  Ti30  1  0.08534593  0.63746048  0.07068546  1
  Ti  Ti31  1  0.12133815  0.56307611  0.54614348  1
  Ti  Ti32  1  -0.00739352  0.62314713  0.80281767  1
  Ti  Ti33  1  0.10762234  0.90059977  0.17341065  1
  Ti  Ti34  1  0.12698145  0.88282123  0.37292380  1
  Ti  Ti35  1  0.00988231  0.93685911  0.75169810  1
  Ti  Ti36  1  0.47587307  0.27973420  0.15996744  1
  Ti  Ti37  1  0.45639887  0.26375086  0.43159831  1
  Ti  Ti38  1  0.42722879  0.25547934  0.71105817  1
  Ti  Ti39  1  0.47228919  0.53136611  0.18545896  1
  Ti  Ti40  1  0.42882049  0.61449466  0.37498601  1
  Ti  Ti41  1  0.46651370  0.58268677  0.75841588  1
  Ti  Ti42  1  0.39001796  0.94486052  0.10584995  1
  Ti  Ti43  1  0.42350766  0.92409712  0.44825384  1
  Ti  Ti44  1  0.45766774  0.92352915  0.73344979  1
  Ti  Ti45  1  0.76610910  0.23094342  0.11147507  1
  Ti  Ti46  1  0.77963802  0.28473883  0.42845074  1
  Ti  Ti47  1  0.73024199  0.23546366  0.77524472  1
  Ti  Ti48  1  0.68602689  0.56937150  0.02224071  1
  Ti  Ti49  1  0.71284106  0.58822748  0.43455555  1
  Ti  Ti50  1  0.81506447  0.62242847  0.72116165  1
  Ti  Ti51  1  0.79963216  0.94405673  0.05304347  1
  Ti  Ti52  1  0.78256729  0.90567933  0.36627996  1
  Ti  Ti53  1  0.65957588  0.94325686  0.70113393  1
  Ti  Ti54  1  0.32480679  0.16952050  0.11952354  1
  Ti  Ti55  1  0.25455701  0.03054503  0.45811128  1
  Ti  Ti56  1  0.23605834  0.16749358  0.75354037  1
  Ti  Ti57  1  0.32563808  0.44642613  0.08669364  1
  Ti  Ti58  1  0.15016499  0.43366427  0.41015043  1
  Ti  Ti59  1  0.21526340  0.47108727  0.73687372  1
  Ti  Ti60  1  0.26099318  0.78645889  0.06763772  1
  Ti  Ti61  1  0.21479501  0.69196239  0.40935809  1
  Ti  Ti62  1  0.18467665  0.67659167  0.74879805  1
  Ti  Ti63  1  0.53051904  0.06492927  0.03067528  1
  Ti  Ti64  1  0.54950722  0.08980973  0.43299149  1
  Ti  Ti65  1  0.55642549  0.10761981  0.74183739  1
  Ti  Ti66  1  0.52943307  0.40120562  0.02371999  1
  Ti  Ti67  1  0.58434291  0.44315848  0.49911942  1
  Ti  Ti68  1  0.58554427  0.43891118  0.83689455  1
  Ti  Ti69  1  0.65656531  0.76436104  0.11015410  1
  Ti  Ti70  1  0.54617662  0.71789686  0.48042265  1
  Ti  Ti71  1  0.57853762  0.76565356  0.67236889  1
  Ti  Ti72  1  0.91907237  0.09593221  0.11115095  1
  Ti  Ti73  1  0.94980052  0.08342271  0.43300252  1
  Ti  Ti74  1  0.90127307  0.13403306  0.81377476  1
  Ti  Ti75  1  0.99010364  0.46811849  0.07825241  1
  Ti  Ti76  1  0.94890806  0.42186126  0.40333336  1
  Ti  Ti77  1  0.89064035  0.42866611  0.70453053  1
  Ti  Ti78  1  0.86402700  0.66597151  0.08538060  1
  Ti  Ti79  1  0.88244824  0.71178855  0.42145108  1
  Ti  Ti80  1  0.92283043  0.76627597  0.65749085  1
  Ti  Ti81  1  0.21822685  0.25026900  0.27274430  1
  Ti  Ti82  1  0.29606586  0.30884699  0.52860516  1
  Ti  Ti83  1  0.21712225  0.23543609  0.94631735  1
  Ti  Ti84  1  0.30002166  0.51356541  0.29197657  1
  Ti  Ti85  1  0.30736058  0.55214527  0.50443311  1
  Ti  Ti86  1  0.25311917  0.60040011  0.99213474  1
  Ti  Ti87  1  0.26520994  1.02150983  0.25457235  1
  Ti  Ti88  1  0.22671811  0.85531014  0.54777534  1
  Ti  Ti89  1  0.17942762  1.01727571  0.93489230  1
  Ti  Ti90  1  0.61826626  0.23335686  0.29356117  1
  Ti  Ti91  1  0.61716071  0.18133390  0.59030603  1
  Ti  Ti92  1  0.59677229  0.20840336  0.91180711  1
  Ti  Ti93  1  0.65428695  0.52998530  0.22189712  1
  Ti  Ti94  1  0.63779297  0.59450264  0.63098739  1
  Ti  Ti95  1  0.65079067  0.64605134  0.82614597  1
  Ti  Ti96  1  0.58523825  0.85866413  0.29197549  1
  Ti  Ti97  1  0.61203379  0.91293872  0.48457513  1
  Ti  Ti98  1  0.62530591  0.89924911  0.97712242  1
  Ti  Ti99  1  0.93334519  0.24930922  0.26182923  1
  Ti  Ti100  1  0.82103419  0.16456350  0.57057197  1
  Ti  Ti101  1  0.91016392  0.30402619  0.97259882  1
  Ti  Ti102  1  0.97937408  0.60232734  0.24826007  1
  Ti  Ti103  1  0.92091171  0.55642879  0.55438448  1
  Ti  Ti104  1  0.82588386  0.50538130  0.87452098  1
  Ti  Ti105  1  0.92196418  0.92067248  0.23028833  1
  Ti  Ti106  1  0.99235468  0.92132532  0.55676464  1
  Ti  Ti107  1  0.97056731  0.96135545  0.92995014  1
  Co  Co108  1  0.46596710  0.20781477  0.01457644  1
  Co  Co109  1  0.36565263  0.62869608  0.11427200  1
  Co  Co110  1  0.21407301  0.69966875  0.58630256  1
  Co  Co111  1  0.87439241  0.35326941  0.55179779  1
  Co  Co112  1  0.84717923  0.33137137  0.83269582  1
  Co  Co113  1  0.31872644  0.30077689  0.83941457  1
  Co  Co114  1  0.59875530  0.37354525  0.19861450  1
  Co  Co115  1  0.61927991  0.25546730  0.06637726  1
  Co  Co116  1  -0.10476931  0.08299930  0.27878915  1
  Co  Co117  1  0.78389214  0.44302409  0.44943773  1
  Co  Co118  1  -0.05836710  0.24742081  0.43495378  1
  Co  Co119  1  -0.06109565  0.87434330  0.40947271  1
  Co  Co120  1  0.51736744  0.01950055  0.59758905  1
  Co  Co121  1  0.95569208  -0.11517406  0.07282306  1
  Co  Co122  1  0.84076932  -0.02701524  0.82794474  1
  Co  Co123  1  0.33727316  0.36047218  0.21278303  1
  Co  Co124  1  0.03672259  -0.00222612  0.32216540  1
  Co  Co125  1  0.35713854  0.31579226  -0.00090023  1
  Co  Co126  1  0.64691377  0.40219887  0.35400897  1
  Co  Co127  1  0.17486610  0.13460580  0.07415650  1
  Co  Co128  1  -0.08510823  0.81403220  0.81689567  1
  Co  Co129  1  0.05601097  0.49679976  0.70129616  1
  Co  Co130  1  0.03724567  0.74203012  0.33823546  1
  Co  Co131  1  0.76587953  0.50520543  0.59242543  1
  Co  Co132  1  0.46972202  0.58890125  0.58066590  1
  Co  Co133  1  0.42208542  0.44289468  0.46935341  1
  Co  Co134  1  0.62054157  0.26412651  0.45621522  1
  Co  Co135  1  0.73427729  0.76095222  0.68958330  1
  Co  Co136  1  0.81979221  0.53472158  0.17095230  1
  Co  Co137  1  0.41881104  -0.07228522  0.27012605  1
  Co  Co138  1  0.56729277  0.55078452  0.36578376  1
  Co  Co139  1  0.27362688  0.85990338  0.21142871  1
  Co  Co140  1  0.83670093  0.48101301  0.02302513  1
  Co  Co141  1  0.71237548  0.41439245  0.10287980  1
  Co  Co142  1  0.28252525  0.19000074  0.41854109  1
  Co  Co143  1  0.88440579  0.76776738  0.26799263  1
  Co  Co144  1  0.59902442  0.72929746  -0.05232244  1
  Co  Co145  1  0.62001054  0.01634019  0.31061674  1
  Co  Co146  1  0.22858261  -0.02745694  0.09053413  1
  Co  Co147  1  0.16203713  0.33814071  0.81565268  1
  Co  Co148  1  -0.02759228  0.42300226  0.24001514  1
  Co  Co149  1  0.59240898  0.85665534  0.82413372  1
  Co  Co150  1  0.76819764  0.21128708  0.93757120  1
  Co  Co151  1  0.50598663  0.31093271  0.57740820  1
  Co  Co152  1  0.79230743  0.67028886  0.56041473  1
  Co  Co153  1  0.53853723  0.01124523  0.86586845  1
  Co  Co154  1  0.14023720  0.57810571  0.32074418  1
  Co  Co155  1  -0.13105604  0.26209783  0.69067849  1
  Co  Co156  1  0.35877797  0.73892727  0.48642876  1
  Co  Co157  1  0.01112437  0.58750747  0.41926492  1
  Co  Co158  1  0.19697160  0.42286376  0.58210902  1
  Co  Co159  1  0.39161024  0.07884908  0.71616870  1
  Co  Co160  1  0.13776075  0.25960903  0.63886958  1
  Co  Co161  1  0.47855345  0.85297168  0.57969864  1
  Ni  Ni162  1  0.71887225  0.46668017  0.74777736  1
  Ni  Ni163  1  -0.01681734  0.20510774  0.59000653  1
  Ni  Ni164  1  0.68953443  0.03453500  0.56331410  1
  Ni  Ni165  1  0.14711733  0.11280620  0.35403634  1
  Ni  Ni166  1  0.39473760  0.07939388  0.37618329  1
  Ni  Ni167  1  0.07436140  0.33932425  -0.04386150  1
  Ni  Ni168  1  0.81283237  0.79824140  -0.00862534  1
  Ni  Ni169  1  0.09866450  0.02609177  0.48989085  1
  Ni  Ni170  1  0.49504376  0.82416594  0.04249190  1
  Ni  Ni171  1  0.38299386  0.21800039  0.28623359  1
  Ni  Ni172  1  0.70356778  0.08819372  0.03967313  1
  Ni  Ni173  1  0.83607755  0.67242191  0.88910828  1
  Ni  Ni174  1  0.31200831  0.60671859  0.83497780  1
  Ni  Ni175  1  0.85330610  0.07943072  -0.03708274  1
  Ni  Ni176  1  0.61425390  0.11978184  0.17112260  1
  Ni  Ni177  1  0.56978679  0.68472511  0.26228180  1
  Ni  Ni178  1  0.83924288  0.91382236  0.67981693  1
  Ni  Ni179  1  0.32744137  0.06995178  -0.00650103  1
  Ni  Ni180  1  0.04822516  0.65838011  0.65210502  1
  Ni  Ni181  1  0.27442069  0.32195664  0.69046604  1
  Ni  Ni182  1  0.59447508  -0.05096674  0.14667650  1
  Ni  Ni183  1  0.47525851  0.31519651  0.87463932  1
  Ni  Ni184  1  0.74906130  0.86523485  0.20558140  1
  Ni  Ni185  1  -0.03631395  0.58363871  -0.03989939  1
  Ni  Ni186  1  0.06977222  0.30347194  0.32845323  1
  Ni  Ni187  1  0.56081480  0.45176733  0.67066404  1
  Ni  Ni188  1  0.78195650  0.19871467  0.27821515  1
  Ni  Ni189  1  0.09999808  0.81572575  0.65946428  1
  Ni  Ni190  1  0.29264651  0.85078859  0.37389635  1
  Ni  Ni191  1  0.30676941  0.36277480  0.37172873  1
  Ni  Ni192  1  0.54186748  0.64722223  0.08757038  1
  Ni  Ni193  1  0.83853919  -0.01320254  0.51616017  1
  Ni  Ni194  1  0.48131725  0.73864919  0.80699662  1
  Ni  Ni195  1  0.31534325  0.69097192  0.26260983  1
  Ni  Ni196  1  0.84678500  0.54324554  0.33258868  1
  Ni  Ni197  1  0.44420739  0.78186732  0.35259683  1
  Ni  Ni198  1  0.06448572  0.01257614  0.05919274  1
  Ni  Ni199  1  0.31542557  0.58569387  0.66813376  1
  Ni  Ni200  1  0.11982649  0.85735544  0.00508854  1
  Ni  Ni201  1  -0.01678406  0.43603368  0.84963823  1
  Ni  Ni202  1  0.22034970  0.30460540  0.10425667  1
  Ni  Ni203  1  0.87452524  0.35687411  0.12741051  1
  Ni  Ni204  1  0.34950882  -0.03666225  0.60190383  1
  Ni  Ni205  1  0.21576512  0.58034252  0.16229036  1
  Ni  Ni206  1  0.69063619  0.76354050  0.40624496  1
  Ni  Ni207  1  0.15946745  0.45563388  0.05182665  1
  Ni  Ni208  1  0.12591692  0.68283448  0.91231987  1
  Ni  Ni209  1  0.58484179  0.29804126  0.73762585  1
  Ni  Ni210  1  0.08021316  0.09200962  0.81361197  1
  Ni  Ni211  1  -0.07724970  0.05962521  0.65568877  1
  Ni  Ni212  1  0.00433634  0.75597304  0.15868162  1
  Ni  Ni213  1  0.53628061  0.56136959  -0.05992973  1
  Ni  Ni214  1  0.76113989  0.07993086  0.71005360  1
