# generated using pymatgen
data_Ti108Co54Ni53
_symmetry_space_group_name_H-M   'P 1'
_cell_length_a   14.61987868
_cell_length_b   14.65920117
_cell_length_c   14.72828850
_cell_angle_alpha   90.11466170
_cell_angle_beta   90.18624030
_cell_angle_gamma   90.18527119
_symmetry_Int_Tables_number   1
_chemical_formula_structural   Ti108Co54Ni53
_chemical_formula_sum   'Ti108 Co54 Ni53'
_cell_volume   3156.46452314
_cell_formula_units_Z   1
loop_
 _symmetry_equiv_pos_site_id
 _symmetry_equiv_pos_as_xyz
  1  'x, y, z'
loop_
 _atom_site_type_symbol
 _atom_site_label
 _atom_site_symmetry_multiplicity
 _atom_site_fract_x
 _atom_site_fract_y
 _atom_site_fract_z
 _atom_site_occupancy
  Ti  Ti0  1  0.02890343  0.10059290  0.26766782  1
  Ti  Ti1  1  0.13081324  0.13864278  0.61146673  1
  Ti  Ti2  1  0.15325198  0.09615404  0.93975618  1
  Ti  Ti3  1  0.12914212  0.39549816  0.29337243  1
  Ti  Ti4  1  0.10574454  0.47210961  0.64534824  1
  Ti  Ti5  1  0.10207929  0.41709596  0.93527395  1
  Ti  Ti6  1  0.10967241  0.77559804  0.28412687  1
  Ti  Ti7  1  0.09598874  0.69641695  0.63407820  1
  Ti  Ti8  1  -0.00060817  0.74438465  0.95947237  1
  Ti  Ti9  1  0.35725179  0.02495136  0.24840507  1
  Ti  Ti10  1  0.40949394  0.07761408  0.56333825  1
  Ti  Ti11  1  0.46372987  0.07146623  0.88167471  1
  Ti  Ti12  1  0.42495424  0.43410184  0.18766680  1
  Ti  Ti13  1  0.41137137  0.45627103  0.59314651  1
  Ti  Ti14  1  0.42222492  0.40401524  0.86702462  1
  Ti  Ti15  1  0.44884889  0.75437085  0.28546825  1
  Ti  Ti16  1  0.45812347  0.64476674  0.58973876  1
  Ti  Ti17  1  0.34112763  0.75067559  0.97744216  1
  Ti  Ti18  1  0.67576090  0.06059268  0.21875630  1
  Ti  Ti19  1  0.78001284  0.03063318  0.61863760  1
  Ti  Ti20  1  0.70622244  0.05024718  0.89886921  1
  Ti  Ti21  1  0.74693488  0.32095332  0.19431310  1
  Ti  Ti22  1  0.65039033  0.37343389  0.54984112  1
  Ti  Ti23  1  0.77965282  0.38918693  0.98434263  1
  Ti  Ti24  1  0.77374181  0.75725354  0.26704852  1
  Ti  Ti25  1  0.77186035  0.80883509  0.58082917  1
  Ti  Ti26  1  0.80113897  0.75054580  0.86668389  1
  Ti  Ti27  1  0.08313720  0.26677577  0.06778189  1
  Ti  Ti28  1  0.12397905  0.25031483  0.45221091  1
  Ti  Ti29  1  0.02044719  0.30844046  0.76914575  1
  Ti  Ti30  1  0.09560893  0.57743344  0.03997288  1
  Ti  Ti31  1  0.04007889  0.60023280  0.35342595  1
  Ti  Ti32  1  0.08947405  0.61058864  0.81996954  1
  Ti  Ti33  1  0.07948559  0.93480623  0.04511970  1
  Ti  Ti34  1  0.04593994  0.92909032  0.37911840  1
  Ti  Ti35  1  0.09166379  0.91740005  0.68598285  1
  Ti  Ti36  1  0.45201641  0.25344941  0.09496850  1
  Ti  Ti37  1  0.42060296  0.21951143  0.42303927  1
  Ti  Ti38  1  0.40817223  0.26442321  0.72317637  1
  Ti  Ti39  1  0.41889416  0.56370724  0.02160928  1
  Ti  Ti40  1  0.52836824  0.61062086  0.40551024  1
  Ti  Ti41  1  0.41722448  0.60687257  0.78788966  1
  Ti  Ti42  1  0.38953617  0.86962775  0.13394990  1
  Ti  Ti43  1  0.36749307  0.90240451  0.45146487  1
  Ti  Ti44  1  0.40802839  0.92865096  0.69222402  1
  Ti  Ti45  1  0.76918473  0.16478320  0.06079376  1
  Ti  Ti46  1  0.76779709  0.19284244  0.47164051  1
  Ti  Ti47  1  0.76846308  0.32469704  0.70658815  1
  Ti  Ti48  1  0.66864211  0.56173798  0.00725529  1
  Ti  Ti49  1  0.71395380  0.62529735  0.50083044  1
  Ti  Ti50  1  0.80436528  0.61808422  0.70266588  1
  Ti  Ti51  1  0.78042002  0.97380402  0.08569205  1
  Ti  Ti52  1  0.71116234  0.94205307  0.44737579  1
  Ti  Ti53  1  0.72377069  0.91163066  0.75866441  1
  Ti  Ti54  1  0.25458781  0.13904250  0.12050655  1
  Ti  Ti55  1  0.22643556  0.04471476  0.42374950  1
  Ti  Ti56  1  0.24568222  0.06393712  0.73595925  1
  Ti  Ti57  1  0.22204992  0.44861961  0.09499445  1
  Ti  Ti58  1  0.31621738  0.39767281  0.43021870  1
  Ti  Ti59  1  0.22700997  0.31323094  0.79279477  1
  Ti  Ti60  1  0.16256085  0.76912579  0.09163886  1
  Ti  Ti61  1  0.27153239  0.71116750  0.36752278  1
  Ti  Ti62  1  0.23157784  0.74817506  0.79746989  1
  Ti  Ti63  1  0.45848658  0.06222651  0.07810244  1
  Ti  Ti64  1  0.59225980  0.09021581  0.41966075  1
  Ti  Ti65  1  0.59810055  0.10807462  0.73494095  1
  Ti  Ti66  1  0.54393527  0.41906109  0.02821125  1
  Ti  Ti67  1  0.60181743  0.40622144  0.33422037  1
  Ti  Ti68  1  0.63902022  0.40689640  0.84174103  1
  Ti  Ti69  1  0.55799399  0.74916772  0.10640483  1
  Ti  Ti70  1  0.55519382  0.79940967  0.44814836  1
  Ti  Ti71  1  0.51810687  0.76996294  0.73913203  1
  Ti  Ti72  1  0.95409470  0.09385854  0.06006560  1
  Ti  Ti73  1  0.99108300  0.10715315  0.45715791  1
  Ti  Ti74  1  0.98865072  0.08836090  0.79189263  1
  Ti  Ti75  1  0.95141581  0.43113301  0.09805204  1
  Ti  Ti76  1  0.99169127  0.40734661  0.45608813  1
  Ti  Ti77  1  0.91734191  0.42975182  0.65315507  1
  Ti  Ti78  1  0.82464173  0.74338780  0.07318978  1
  Ti  Ti79  1  0.87618259  0.83187509  0.40520816  1
  Ti  Ti80  1  0.92370244  0.78867884  0.71836425  1
  Ti  Ti81  1  0.25450156  0.24454568  0.31988667  1
  Ti  Ti82  1  0.23139169  0.31970528  0.60602503  1
  Ti  Ti83  1  0.26093571  0.26690630  0.97939752  1
  Ti  Ti84  1  0.20738124  0.58570516  0.22429153  1
  Ti  Ti85  1  0.24826567  0.60320783  0.54885776  1
  Ti  Ti86  1  0.27153787  0.57102062  0.89708530  1
  Ti  Ti87  1  0.18449710  0.93814260  0.21979305  1
  Ti  Ti88  1  0.23610095  0.82229646  0.56381333  1
  Ti  Ti89  1  0.29335241  0.94806169  0.89200834  1
  Ti  Ti90  1  0.52319677  0.17023346  0.26434575  1
  Ti  Ti91  1  0.54719844  0.21853307  0.57498604  1
  Ti  Ti92  1  0.59515986  0.20026680  0.96080489  1
  Ti  Ti93  1  0.54825712  0.57637866  0.20424390  1
  Ti  Ti94  1  0.60779949  0.54314348  0.68133985  1
  Ti  Ti95  1  0.63039249  0.64770992  0.83917467  1
  Ti  Ti96  1  0.62673786  0.87788650  0.28515660  1
  Ti  Ti97  1  0.59854802  0.90435004  0.61936989  1
  Ti  Ti98  1  0.58745438  0.90534718  0.99028551  1
  Ti  Ti99  1  0.93020311  0.24445029  0.20113360  1
  Ti  Ti100  1  0.91491662  0.21150485  0.62871356  1
  Ti  Ti101  1  0.85226611  0.22873076  0.87638943  1
  Ti  Ti102  1  0.89865523  0.60641681  0.21691261  1
  Ti  Ti103  1  0.90712021  0.57383819  0.52411151  1
  Ti  Ti104  1  0.89828265  0.53738614  0.93617278  1
  Ti  Ti105  1  0.94484579  0.91273025  0.19749210  1
  Ti  Ti106  1  0.93979053  0.91196338  0.56448921  1
  Ti  Ti107  1  0.98871536  0.91543707  0.86736879  1
  Co  Co108  1  0.13813563  0.69527550  0.45215754  1
  Co  Co109  1  0.18996674  0.86588896  0.41247964  1
  Co  Co110  1  0.89848068  0.95240055  0.72101420  1
  Co  Co111  1  0.69545873  0.21849880  0.82494044  1
  Co  Co112  1  0.83114665  -0.06544024  0.86593484  1
  Co  Co113  1  0.69314788  0.82999123  0.13336121  1
  Co  Co114  1  0.05658928  0.49888742  0.19636544  1
  Co  Co115  1  0.27090797  0.18498269  0.49973850  1
  Co  Co116  1  0.30218536  0.17443676  0.83634638  1
  Co  Co117  1  0.11804647  0.23634023  0.21801926  1
  Co  Co118  1  0.05278151  0.31459572  0.59453712  1
  Co  Co119  1  0.45666509  0.47754001  0.34523471  1
  Co  Co120  1  0.50791056  0.41986479  0.71834350  1
  Co  Co121  1  0.19274718  0.09613937  0.27297904  1
  Co  Co122  1  -0.00767825  0.78302362  0.11853254  1
  Co  Co123  1  0.61099733  0.70923655  0.28519471  1
  Co  Co124  1  0.61722760  0.06132604  0.57469021  1
  Co  Co125  1  0.26384642  0.42029242  -0.07972718  1
  Co  Co126  1  0.06609619  0.77609738  0.80688971  1
  Co  Co127  1  0.60977048  0.29564622  0.69812964  1
  Co  Co128  1  0.42263451  0.23304998  -0.06312199  1
  Co  Co129  1  0.29117740  0.44119500  0.27953281  1
  Co  Co130  1  0.87840881  0.07083993  -0.07068550  1
  Co  Co131  1  0.05452594  0.65607382  0.18639654  1
  Co  Co132  1  0.57254790  0.33113922  0.19938401  1
  Co  Co133  1  0.85227249  0.08632429  0.19876904  1
  Co  Co134  1  -0.05948685  0.61955481  0.06638676  1
  Co  Co135  1  0.85661036  0.02013785  0.48140390  1
  Co  Co136  1  0.75629036  0.07121040  0.35676066  1
  Co  Co137  1  0.13716338  -0.02898786  0.83369537  1
  Co  Co138  1  0.65816926  0.46564323  0.15208937  1
  Co  Co139  1  0.31014900  -0.12709422  0.29789375  1
  Co  Co140  1  0.52196513  -0.04319386  0.48318980  1
  Co  Co141  1  0.43545765  0.32255736  0.30479755  1
  Co  Co142  1  0.33256045  0.44872842  0.73973137  1
  Co  Co143  1  0.49907618  0.71839460  0.92995664  1
  Co  Co144  1  0.38595132  0.28999621  0.56297662  1
  Co  Co145  1  0.17067391  0.69075214  0.94547761  1
  Co  Co146  1  0.38561969  0.80608111  0.82225657  1
  Co  Co147  1  0.61500820  0.18732934  0.13672761  1
  Co  Co148  1  -0.05096437  0.75596106  0.27914125  1
  Co  Co149  1  0.07110101  0.56104701  0.51633498  1
  Co  Co150  1  0.01459456  0.26891477  0.33828150  1
  Co  Co151  1  0.60598987  0.71101425  0.57780661  1
  Co  Co152  1  0.66853742  0.72200323  -0.00619871  1
  Co  Co153  1  0.62374929  0.05610049  0.04402280  1
  Co  Co154  1  0.71231113  0.76843053  0.42030766  1
  Co  Co155  1  0.45963346  0.82289465  0.58317333  1
  Co  Co156  1  0.78238734  0.92713288  0.25247060  1
  Co  Co157  1  0.26564354  -0.00333961  0.58734033  1
  Co  Co158  1  -0.06716181  0.25815030  0.47622495  1
  Co  Co159  1  0.87925885  0.17297419  0.34422333  1
  Co  Co160  1  0.57804362  0.51679057  0.52484834  1
  Co  Co161  1  0.26624991  0.62446554  0.07232977  1
  Ni  Ni162  1  0.71934534  0.18650000  0.63418675  1
  Ni  Ni163  1  0.19800240  0.54567907  0.39365003  1
  Ni  Ni164  1  0.53277938  0.27337816  0.82956872  1
  Ni  Ni165  1  0.65779888  0.31749765  0.05713868  1
  Ni  Ni166  1  0.75880753  0.49307011  0.60021841  1
  Ni  Ni167  1  -0.08904990  -0.10513311  0.01613375  1
  Ni  Ni168  1  0.10867365  -0.01971011  0.52990904  1
  Ni  Ni169  1  0.69499256  0.74769735  0.71461043  1
  Ni  Ni170  1  0.17363446  0.46915477  0.79141259  1
  Ni  Ni171  1  0.26885905  -0.03429152  0.06496068  1
  Ni  Ni172  1  0.37708984  0.59399624  0.26221462  1
  Ni  Ni173  1  0.67865086  0.22194364  0.31345421  1
  Ni  Ni174  1  0.70090436  0.64624811  0.15240656  1
  Ni  Ni175  1  0.39522527  0.73155367  0.46604679  1
  Ni  Ni176  1  0.02218986  0.21156315  0.92102742  1
  Ni  Ni177  1  -0.00280898  0.47335772  0.80264263  1
  Ni  Ni178  1  0.63283391  0.81438237  0.85866969  1
  Ni  Ni179  1  0.34162109  0.73844227  0.66828509  1
  Ni  Ni180  1  0.91829444  0.73203228  0.55848577  1
  Ni  Ni181  1  0.52867892  0.53584944  -0.10192371  1
  Ni  Ni182  1  0.32643018  0.10010677  -0.02208218  1
  Ni  Ni183  1  -0.04818035  0.36630121  -0.06765539  1
  Ni  Ni184  1  0.36230252  0.57119569  0.43522126  1
  Ni  Ni185  1  0.28125601  0.74495889  0.19961197  1
  Ni  Ni186  1  0.74707346  0.86138004  -0.02563784  1
  Ni  Ni187  1  0.43245912  0.89420030  -0.04231357  1
  Ni  Ni188  1  0.54710700  -0.05451160  0.80102727  1
  Ni  Ni189  1  0.37198781  0.38667606  0.03348642  1
  Ni  Ni190  1  0.27103968  0.30999113  0.16096549  1
  Ni  Ni191  1  0.42162597  0.05994369  0.39404391  1
  Ni  Ni192  1  -0.02502373  0.59548413  0.67778068  1
  Ni  Ni193  1  -0.02025782  0.06005925  0.62348861  1
  Ni  Ni194  1  -0.09757281  0.00402994  0.33305659  1
  Ni  Ni195  1  0.10698083  0.07917255  0.12083988  1
  Ni  Ni196  1  0.41591441  0.09883105  0.72878204  1
  Ni  Ni197  1  0.84460698  0.40760666  0.82033334  1
  Ni  Ni198  1  0.06558492  0.81735954  0.52084021  1
  Ni  Ni199  1  0.81024926  0.09689639  0.77072272  1
  Ni  Ni200  1  0.25449433  0.88984746  0.72536875  1
  Ni  Ni201  1  0.41201123  0.68562390  0.13006731  1
  Ni  Ni202  1  0.89221866  0.27392907  0.04599060  1
  Ni  Ni203  1  0.82066755  0.35395767  0.53962204  1
  Ni  Ni204  1  0.75295369  0.53684989  0.84981239  1
  Ni  Ni205  1  0.37005298  0.18865049  0.22480364  1
  Ni  Ni206  1  0.54790170  -0.05889856  0.15304730  1
  Ni  Ni207  1  0.49752612  0.37012431  0.46547512  1
  Ni  Ni208  1  0.92661677  0.65085578  0.82293721  1
  Ni  Ni209  1  0.80308296  0.51707922  0.10138632  1
  Ni  Ni210  1  0.13018881  0.17753371  0.79345766  1
  Ni  Ni211  1  0.15603830  0.41808328  0.48911494  1
  Ni  Ni212  1  0.24715555  0.59954438  0.71468116  1
  Ni  Ni213  1  0.47465013  0.92746618  0.31448155  1
  Ni  Ni214  1  0.16580730  0.84911007  -0.06237070  1
