# generated using pymatgen
data_Ti108Co54Ni53
_symmetry_space_group_name_H-M   'P 1'
_cell_length_a   14.60504117
_cell_length_b   14.52748816
_cell_length_c   14.52343846
_cell_angle_alpha   90.12358994
_cell_angle_beta   90.24709713
_cell_angle_gamma   89.81312503
_symmetry_Int_Tables_number   1
_chemical_formula_structural   Ti108Co54Ni53
_chemical_formula_sum   'Ti108 Co54 Ni53'
_cell_volume   3081.45208130
_cell_formula_units_Z   1
loop_
 _symmetry_equiv_pos_site_id
 _symmetry_equiv_pos_as_xyz
  1  'x, y, z'
loop_
 _atom_site_type_symbol
 _atom_site_label
 _atom_site_symmetry_multiplicity
 _atom_site_fract_x
 _atom_site_fract_y
 _atom_site_fract_z
 _atom_site_occupancy
  Ti  Ti0  1  0.04491457  0.11884174  0.20661330  1
  Ti  Ti1  1  0.14068504  0.13979754  0.55382475  1
  Ti  Ti2  1  -0.01410272  0.07681483  0.86123771  1
  Ti  Ti3  1  0.05201625  0.40374596  0.20591054  1
  Ti  Ti4  1  0.05393444  0.44313307  0.65029034  1
  Ti  Ti5  1  0.07485930  0.38315873  0.90907119  1
  Ti  Ti6  1  0.12470495  0.78131431  0.23248159  1
  Ti  Ti7  1  0.08292708  0.70334816  0.52732782  1
  Ti  Ti8  1  0.18292031  0.71629078  0.91689381  1
  Ti  Ti9  1  0.36678648  0.14771273  0.24262608  1
  Ti  Ti10  1  0.43610460  0.01824161  0.56415169  1
  Ti  Ti11  1  0.47191549  0.02859456  0.96159090  1
  Ti  Ti12  1  0.41161422  0.46911312  0.25348565  1
  Ti  Ti13  1  0.39087283  0.41600889  0.58631211  1
  Ti  Ti14  1  0.38450516  0.39047015  0.92986177  1
  Ti  Ti15  1  0.41801483  0.79625186  0.24860946  1
  Ti  Ti16  1  0.42428870  0.75168677  0.56851267  1
  Ti  Ti17  1  0.37648773  0.79037210  0.90525594  1
  Ti  Ti18  1  0.71015284  0.14140252  0.26275497  1
  Ti  Ti19  1  0.74178737  0.01526844  0.53272506  1
  Ti  Ti20  1  0.67423128  0.14432309  0.87952378  1
  Ti  Ti21  1  0.74422258  0.37602594  0.29386771  1
  Ti  Ti22  1  0.77976591  0.46479010  0.63169191  1
  Ti  Ti23  1  0.76696063  0.34273731  0.89257460  1
  Ti  Ti24  1  0.77229086  0.76948136  0.19719201  1
  Ti  Ti25  1  0.70512299  0.68410455  0.51924324  1
  Ti  Ti26  1  0.78834122  0.74566611  0.95501497  1
  Ti  Ti27  1  0.11755442  0.24598234  0.06422971  1
  Ti  Ti28  1  0.11237383  0.31305389  0.46606394  1
  Ti  Ti29  1  0.14767623  0.31897216  0.74236916  1
  Ti  Ti30  1  0.14769046  0.64975020  0.08819981  1
  Ti  Ti31  1  0.07474197  0.51768488  0.46996522  1
  Ti  Ti32  1  0.05587840  0.65421280  0.79557775  1
  Ti  Ti33  1  0.15175471  0.97763705  0.08263584  1
  Ti  Ti34  1  0.04422829  0.98399771  0.46140654  1
  Ti  Ti35  1  0.05859245  0.82876582  0.67944173  1
  Ti  Ti36  1  0.42163669  0.22136290  0.03432702  1
  Ti  Ti37  1  0.42572010  0.22197651  0.45525794  1
  Ti  Ti38  1  0.46335621  0.15364579  0.80090163  1
  Ti  Ti39  1  0.46509961  0.55499651  0.04430484  1
  Ti  Ti40  1  0.38117890  0.56853086  0.47347381  1
  Ti  Ti41  1  0.40881606  0.59492916  0.68016020  1
  Ti  Ti42  1  0.35855300  0.97473931  0.14207122  1
  Ti  Ti43  1  0.35127020  0.87814673  0.44166195  1
  Ti  Ti44  1  0.47115968  0.94397646  0.75755125  1
  Ti  Ti45  1  0.80097384  0.27577119  0.12196271  1
  Ti  Ti46  1  0.74667305  0.21766708  0.46842160  1
  Ti  Ti47  1  0.76377992  0.25254701  0.69156497  1
  Ti  Ti48  1  0.68489977  0.48310089  0.11981789  1
  Ti  Ti49  1  0.77879714  0.55741083  0.38280883  1
  Ti  Ti50  1  0.72773029  0.62385119  0.73466460  1
  Ti  Ti51  1  0.74584489  0.96147123  0.14132130  1
  Ti  Ti52  1  0.71912060  0.84628592  0.39919655  1
  Ti  Ti53  1  0.70633143  0.81835500  0.73788466  1
  Ti  Ti54  1  0.26996499  0.11796756  0.03863416  1
  Ti  Ti55  1  0.25257551  0.06292386  0.41601741  1
  Ti  Ti56  1  0.20327930  0.03678812  0.75149148  1
  Ti  Ti57  1  0.19762981  0.43539600  0.07213838  1
  Ti  Ti58  1  0.26820576  0.41111898  0.41584681  1
  Ti  Ti59  1  0.30588165  0.44578677  0.75639641  1
  Ti  Ti60  1  0.27477087  0.81623804  0.08079504  1
  Ti  Ti61  1  0.25280667  0.72818016  0.39388655  1
  Ti  Ti62  1  0.23727780  0.78228298  0.71909662  1
  Ti  Ti63  1  0.55792543  0.06448441  0.13943467  1
  Ti  Ti64  1  0.58128919  0.07960564  0.37458081  1
  Ti  Ti65  1  0.61220961  0.11763589  0.66059009  1
  Ti  Ti66  1  0.53393754  0.39522056  0.06642247  1
  Ti  Ti67  1  0.58650720  0.37964243  0.45017031  1
  Ti  Ti68  1  0.65246679  0.42809952  0.77313145  1
  Ti  Ti69  1  0.54962474  0.73459280  0.07190763  1
  Ti  Ti70  1  0.53833553  0.73412505  0.40209881  1
  Ti  Ti71  1  0.50014005  0.74448078  0.77001280  1
  Ti  Ti72  1  0.88498692  0.08132760  0.06445747  1
  Ti  Ti73  1  0.97010675  0.17499062  0.44719458  1
  Ti  Ti74  1  0.94727519  0.18700520  0.71085849  1
  Ti  Ti75  1  0.87091271  0.46452077  0.12366276  1
  Ti  Ti76  1  0.93648354  0.39698848  0.39382677  1
  Ti  Ti77  1  0.91585765  0.36508682  0.77076535  1
  Ti  Ti78  1  0.88402090  0.65414830  0.09561919  1
  Ti  Ti79  1  0.89538457  0.75622576  0.39202476  1
  Ti  Ti80  1  0.89452484  0.74326144  0.71651776  1
  Ti  Ti81  1  0.19296331  0.26267071  0.28053837  1
  Ti  Ti82  1  0.27284032  0.27494666  0.60128828  1
  Ti  Ti83  1  0.25135288  0.21286811  0.85033919  1
  Ti  Ti84  1  0.19855957  0.56470910  0.27737164  1
  Ti  Ti85  1  0.20337464  0.58426766  0.64380534  1
  Ti  Ti86  1  0.29127778  0.56821796  0.94190039  1
  Ti  Ti87  1  0.14298589  0.96966634  0.27897850  1
  Ti  Ti88  1  0.22620204  0.96044671  0.58037629  1
  Ti  Ti89  1  0.18151836  0.89680136  0.89695908  1
  Ti  Ti90  1  0.60344584  0.26484846  0.17341048  1
  Ti  Ti91  1  0.52186333  0.30403234  0.64865305  1
  Ti  Ti92  1  0.55016410  0.30992110  0.89297791  1
  Ti  Ti93  1  0.59283794  0.60449110  0.23576514  1
  Ti  Ti94  1  0.56660300  0.50196015  0.62783424  1
  Ti  Ti95  1  0.65708143  0.56645752  0.92972152  1
  Ti  Ti96  1  0.59919141  0.87288857  0.23398375  1
  Ti  Ti97  1  0.58007951  0.94135967  0.49385346  1
  Ti  Ti98  1  0.58798756  0.87266449  0.91203131  1
  Ti  Ti99  1  0.87210280  0.20607530  0.29751044  1
  Ti  Ti100  1  0.90296547  0.30722738  0.56621413  1
  Ti  Ti101  1  0.93598948  0.24874283  0.96015675  1
  Ti  Ti102  1  1.00375752  0.61114636  0.24787932  1
  Ti  Ti103  1  0.88470163  0.64088090  0.55659034  1
  Ti  Ti104  1  0.95852309  0.53859586  0.95274334  1
  Ti  Ti105  1  0.96944041  0.92995763  0.17503379  1
  Ti  Ti106  1  0.90598227  0.95814893  0.63142518  1
  Ti  Ti107  1  0.99056142  0.91079847  0.97163715  1
  Co  Co108  1  0.44056381  0.17175250  0.63035826  1
  Co  Co109  1  0.29521399  0.65098673  0.78951870  1
  Co  Co110  1  0.06098247  -0.04502668  0.79694454  1
  Co  Co111  1  0.85289209  0.05935746  0.22242221  1
  Co  Co112  1  0.42728427  0.05479715  0.40741532  1
  Co  Co113  1  -0.00168149  0.49880974  0.80219164  1
  Co  Co114  1  0.89890743  0.35221967  0.23743449  1
  Co  Co115  1  -0.02385832  0.02927073  0.32247465  1
  Co  Co116  1  -0.01644258  0.10486193  0.58409820  1
  Co  Co117  1  0.10522518  0.15144590  0.71871705  1
  Co  Co118  1  0.35536211  0.88111251  0.63686748  1
  Co  Co119  1  0.62857516  0.25655286  0.76464675  1
  Co  Co120  1  0.30513509  0.12031860  0.55978718  1
  Co  Co121  1  0.12261843  0.55442829  -0.05094465  1
  Co  Co122  1  0.82831047  0.13610048  0.58587519  1
  Co  Co123  1  0.21543340  0.57647585  0.45008044  1
  Co  Co124  1  0.88758937  0.55944626  0.70619997  1
  Co  Co125  1  0.78648029  0.18720288  -0.01774585  1
  Co  Co126  1  0.19817458  0.81417386  0.55051177  1
  Co  Co127  1  0.11976804  0.42489105  0.34265235  1
  Co  Co128  1  0.35738031  0.30153794  0.31476571  1
  Co  Co129  1  -0.00994742  0.71286340  -0.02665584  1
  Co  Co130  1  0.35837530  0.05521100  0.70482868  1
  Co  Co131  1  0.89217412  0.50501935  0.27940678  1
  Co  Co132  1  0.71321510  0.12531004  0.10538195  1
  Co  Co133  1  0.50009391  0.89249519  0.37375129  1
  Co  Co134  1  0.07394434  -0.00972010  0.64120391  1
  Co  Co135  1  0.25367022  0.41586694  0.22936140  1
  Co  Co136  1  0.35914113  0.68864115  0.03656663  1
  Co  Co137  1  0.86938462  -0.07801115  0.45871761  1
  Co  Co138  1  -0.00229852  0.84211724  0.52059730  1
  Co  Co139  1  0.84149483  0.79783619  0.56376203  1
  Co  Co140  1  0.28400219  0.26426142  0.14954444  1
  Co  Co141  1  0.22680751  0.40885086  0.89641614  1
  Co  Co142  1  0.69876001  0.66253658  0.07661161  1
  Co  Co143  1  0.05286980  0.22962032  0.85012000  1
  Co  Co144  1  0.01003551  0.85784258  0.33540107  1
  Co  Co145  1  0.05873240  0.27194887  0.61074176  1
  Co  Co146  1  0.59006974  0.02328935  0.82978661  1
  Co  Co147  1  0.11399269  0.13354065  0.36495813  1
  Co  Co148  1  0.47308668  0.42757167  0.75703413  1
  Co  Co149  1  0.41510988  0.55875602  0.84275075  1
  Co  Co150  1  0.16745012  -0.12500810  0.40664239  1
  Co  Co151  1  0.02420451  0.60519248  0.64341352  1
  Co  Co152  1  0.84193739  0.07862517  0.41107799  1
  Co  Co153  1  0.25905520  0.22709283  0.43231923  1
  Co  Co154  1  0.50723807  0.18442994  0.27833238  1
  Co  Co155  1  0.04396076  0.80595469  0.85168322  1
  Co  Co156  1  0.28147465  0.68560807  0.55867514  1
  Co  Co157  1  0.26652396  0.84332801  0.26068968  1
  Co  Co158  1  0.94574830  0.59401136  0.40929837  1
  Co  Co159  1  0.66590296  0.84670033  0.06054179  1
  Co  Co160  1  0.53139530  0.47434073  -0.09034700  1
  Co  Co161  1  0.21912806  0.43528752  0.57871868  1
  Ni  Ni162  1  0.26257767  0.28896678  -0.00484163  1
  Ni  Ni163  1  0.84044970  0.19081369  0.83239701  1
  Ni  Ni164  1  0.58150934  0.18010663  0.51117218  1
  Ni  Ni165  1  0.31927347  -0.04999167  -0.01882003  1
  Ni  Ni166  1  0.67141693  0.34359782  0.59074829  1
  Ni  Ni167  1  0.08295167  0.69080842  0.36817124  1
  Ni  Ni168  1  0.16104979  0.51881431  0.79411331  1
  Ni  Ni169  1  0.69568187  0.69804993  0.33308914  1
  Ni  Ni170  1  0.64215963  -0.03796329  0.68153113  1
  Ni  Ni171  1  0.47056164  0.88176226  0.04852153  1
  Ni  Ni172  1  0.72049483  -0.00671809  0.33157774  1
  Ni  Ni173  1  0.02874626  0.27047377  0.30919810  1
  Ni  Ni174  1  0.56527417  0.58576199  0.77878174  1
  Ni  Ni175  1  0.67406369  0.51474179  0.50309949  1
  Ni  Ni176  1  0.87588138  0.64548841  0.85527892  1
  Ni  Ni177  1  0.64600194  0.72291268  0.87237566  1
  Ni  Ni178  1  0.31385640  0.91126694  0.79359466  1
  Ni  Ni179  1  0.47933364  -0.00463410  0.25723672  1
  Ni  Ni180  1  0.27923031  0.69128573  0.19795743  1
  Ni  Ni181  1  0.21566877  0.10052975  0.20224469  1
  Ni  Ni182  1  0.43846407  0.31496707  0.17721890  1
  Ni  Ni183  1  0.53627451  0.53779789  0.37862710  1
  Ni  Ni184  1  0.32612671  -0.02151580  0.30238085  1
  Ni  Ni185  1  0.86143285  0.85103039  0.06081795  1
  Ni  Ni186  1  -0.03382113  0.24242042  0.14061031  1
  Ni  Ni187  1  0.59633287  0.70850369  0.64242178  1
  Ni  Ni188  1  0.68951760  0.84428575  0.57431086  1
  Ni  Ni189  1  0.04369203  0.09971008  0.02208117  1
  Ni  Ni190  1  0.78009360  0.38806895  0.46466340  1
  Ni  Ni191  1  0.31095851  0.54562899  0.12994368  1
  Ni  Ni192  1  -0.01458850  0.76846188  0.14530059  1
  Ni  Ni193  1  0.80852233  0.49654181  0.83237996  1
  Ni  Ni194  1  0.16391166  0.06502520  -0.08282137  1
  Ni  Ni195  1  0.44024236  0.64549544  0.18027398  1
  Ni  Ni196  1  0.43289097  0.41163398  0.42095353  1
  Ni  Ni197  1  0.79897833  0.54651047  -0.00651678  1
  Ni  Ni198  1  0.76868723  0.59706266  0.21613245  1
  Ni  Ni199  1  0.58391378  0.42409483  0.25744239  1
  Ni  Ni200  1  0.64694299  0.01307470  -0.00529347  1
  Ni  Ni201  1  0.67403900  0.31402243  0.02182108  1
  Ni  Ni202  1  0.37474158  0.62951697  0.32446395  1
  Ni  Ni203  1  0.85260297  0.90282869  0.29386815  1
  Ni  Ni204  1  0.10787404  0.81486833  0.04158919  1
  Ni  Ni205  1  0.52839435  0.86101451  0.62745245  1
  Ni  Ni206  1  0.33424365  0.06547314  0.86912551  1
  Ni  Ni207  1  0.58005106  0.17667104  0.01464293  1
  Ni  Ni208  1  0.50108703  0.66748917  0.92342237  1
  Ni  Ni209  1  0.04093274  0.53049279  0.09884362  1
  Ni  Ni210  1  0.53125533  0.61897889  0.52168158  1
  Ni  Ni211  1  0.36848018  0.28999720  0.74191102  1
  Ni  Ni212  1  -0.07636829  0.47511829  0.54937525  1
  Ni  Ni213  1  -0.01040283  0.37880219  0.04885106  1
  Ni  Ni214  1  0.62784099  0.25729406  0.35321518  1
