# generated using pymatgen
data_Ti108Co54Ni53
_symmetry_space_group_name_H-M   'P 1'
_cell_length_a   14.58191792
_cell_length_b   14.65182363
_cell_length_c   14.65316191
_cell_angle_alpha   90.11976366
_cell_angle_beta   89.96529208
_cell_angle_gamma   89.69157835
_symmetry_Int_Tables_number   1
_chemical_formula_structural   Ti108Co54Ni53
_chemical_formula_sum   'Ti108 Co54 Ni53'
_cell_volume   3130.62000436
_cell_formula_units_Z   1
loop_
 _symmetry_equiv_pos_site_id
 _symmetry_equiv_pos_as_xyz
  1  'x, y, z'
loop_
 _atom_site_type_symbol
 _atom_site_label
 _atom_site_symmetry_multiplicity
 _atom_site_fract_x
 _atom_site_fract_y
 _atom_site_fract_z
 _atom_site_occupancy
  Ti  Ti0  1  0.17081651  0.12771508  0.25332805  1
  Ti  Ti1  1  0.10951550  0.03872079  0.55239241  1
  Ti  Ti2  1  0.01947824  0.05337620  0.87875706  1
  Ti  Ti3  1  -0.01093907  0.39445705  0.27223768  1
  Ti  Ti4  1  0.02735070  0.38106099  0.59147010  1
  Ti  Ti5  1  0.03276879  0.34376866  0.95785716  1
  Ti  Ti6  1  0.14380903  0.80078489  0.23953076  1
  Ti  Ti7  1  0.18331065  0.73992407  0.55484203  1
  Ti  Ti8  1  0.06720819  0.76352654  0.93644794  1
  Ti  Ti9  1  0.40198642  0.04425581  0.20447273  1
  Ti  Ti10  1  0.48264042  0.14738920  0.55570788  1
  Ti  Ti11  1  0.38024379  0.06042827  0.86656366  1
  Ti  Ti12  1  0.41606482  0.47669605  0.24109487  1
  Ti  Ti13  1  0.41816970  0.41414975  0.60408111  1
  Ti  Ti14  1  0.40779788  0.43108996  0.92807460  1
  Ti  Ti15  1  0.42363052  0.83258051  0.21417565  1
  Ti  Ti16  1  0.48753869  0.82881452  0.50781906  1
  Ti  Ti17  1  0.34349014  0.74890438  0.90850497  1
  Ti  Ti18  1  0.78457363  0.07502019  0.28932558  1
  Ti  Ti19  1  0.78049937  0.05055539  0.59159261  1
  Ti  Ti20  1  0.69064954  0.01153082  0.92570803  1
  Ti  Ti21  1  0.68346622  0.36070274  0.26337625  1
  Ti  Ti22  1  0.66748541  0.38356319  0.66544038  1
  Ti  Ti23  1  0.70887663  0.41276562  0.86222033  1
  Ti  Ti24  1  0.78390167  0.70668550  0.25566169  1
  Ti  Ti25  1  0.77675775  0.79018948  0.52094035  1
  Ti  Ti26  1  0.70419551  0.70810710  0.93381246  1
  Ti  Ti27  1  0.11086117  0.21527537  0.10921952  1
  Ti  Ti28  1  0.13395939  0.30485148  0.41010925  1
  Ti  Ti29  1  0.11598080  0.23898667  0.78688928  1
  Ti  Ti30  1  0.08459711  0.60591578  0.03298701  1
  Ti  Ti31  1  0.09140388  0.55902755  0.40122296  1
  Ti  Ti32  1  0.12526564  0.57056260  0.82186363  1
  Ti  Ti33  1  0.05580078  0.97375645  0.18595829  1
  Ti  Ti34  1  0.06905932  0.94572422  0.38737624  1
  Ti  Ti35  1  0.08973595  0.93302216  0.71606174  1
  Ti  Ti36  1  0.41125924  0.25430571  0.03669686  1
  Ti  Ti37  1  0.35612519  0.26470924  0.45949947  1
  Ti  Ti38  1  0.42979165  0.26528749  0.81973759  1
  Ti  Ti39  1  0.47094302  0.55779864  0.06751780  1
  Ti  Ti40  1  0.41207199  0.63817761  0.36578404  1
  Ti  Ti41  1  0.34212252  0.59634485  0.77272854  1
  Ti  Ti42  1  0.36795481  0.92124734  0.02398967  1
  Ti  Ti43  1  0.39370147  0.95543067  0.38696230  1
  Ti  Ti44  1  0.46385993  0.97369848  0.69280455  1
  Ti  Ti45  1  0.76803961  0.31662191  0.07302993  1
  Ti  Ti46  1  0.70876498  0.32710669  0.46285981  1
  Ti  Ti47  1  0.80594524  0.27335410  0.78114365  1
  Ti  Ti48  1  0.80044034  0.59181519  0.10164624  1
  Ti  Ti49  1  0.71445404  0.53746979  0.38032064  1
  Ti  Ti50  1  0.77321651  0.55507381  0.68849323  1
  Ti  Ti51  1  0.69987205  0.90946609  0.14456353  1
  Ti  Ti52  1  0.76305344  0.87977889  0.32236174  1
  Ti  Ti53  1  0.75386644  0.96981672  0.75475534  1
  Ti  Ti54  1  0.24607350  0.10251823  -0.00373258  1
  Ti  Ti55  1  0.23560789  0.09069918  0.42391982  1
  Ti  Ti56  1  0.25162355  0.06205204  0.70320836  1
  Ti  Ti57  1  0.20844993  0.47427704  0.12311420  1
  Ti  Ti58  1  0.29706223  0.44016040  0.40845159  1
  Ti  Ti59  1  0.26488306  0.36240167  0.73000712  1
  Ti  Ti60  1  0.21915506  0.75106223  0.05696935  1
  Ti  Ti61  1  0.28951908  0.78304916  0.37524746  1
  Ti  Ti62  1  0.30445182  0.80737208  0.72037189  1
  Ti  Ti63  1  0.58093399  0.07397225  0.08007439  1
  Ti  Ti64  1  0.64270213  0.06936285  0.43618084  1
  Ti  Ti65  1  0.56139267  0.10966789  0.79118358  1
  Ti  Ti66  1  0.58691491  0.40282769  0.06416744  1
  Ti  Ti67  1  0.51725998  0.39958117  0.39572768  1
  Ti  Ti68  1  0.51671376  0.44525800  0.76651741  1
  Ti  Ti69  1  0.55449309  0.74037490  0.08629587  1
  Ti  Ti70  1  0.62961568  0.71901693  0.39625158  1
  Ti  Ti71  1  0.63135337  0.70322615  0.69150472  1
  Ti  Ti72  1  0.78913267  0.08032352  0.08562049  1
  Ti  Ti73  1  0.92204091  0.07801907  0.44575877  1
  Ti  Ti74  1  0.89602976  0.10983100  0.75149487  1
  Ti  Ti75  1  0.95086473  0.48296593  0.07837030  1
  Ti  Ti76  1  0.92298737  0.27055077  0.40706669  1
  Ti  Ti77  1  0.95069880  0.39867214  0.78682466  1
  Ti  Ti78  1  0.87881878  0.77287840  0.07577851  1
  Ti  Ti79  1  0.97749079  0.72021461  0.47345805  1
  Ti  Ti80  1  0.87895655  0.79452776  0.85857893  1
  Ti  Ti81  1  0.26895442  0.31089787  0.22112193  1
  Ti  Ti82  1  0.17037368  0.22743407  0.59915868  1
  Ti  Ti83  1  0.23860449  0.32026695  0.95361400  1
  Ti  Ti84  1  0.23558315  0.57720367  0.28522873  1
  Ti  Ti85  1  0.27522278  0.55279267  0.59913835  1
  Ti  Ti86  1  0.28423028  0.58023443  0.97049521  1
  Ti  Ti87  1  0.24442598  0.95812077  0.28343662  1
  Ti  Ti88  1  0.34625070  0.97872561  0.55933787  1
  Ti  Ti89  1  0.20925106  0.90204497  0.88667454  1
  Ti  Ti90  1  0.54799288  0.20850894  0.24831387  1
  Ti  Ti91  1  0.65472459  0.20491710  0.61444789  1
  Ti  Ti92  1  0.68264925  0.21334822  0.93838581  1
  Ti  Ti93  1  0.61099984  0.60206543  0.22194726  1
  Ti  Ti94  1  0.57923557  0.51415608  0.55274671  1
  Ti  Ti95  1  0.51268768  0.63499452  0.88891448  1
  Ti  Ti96  1  0.56579839  0.92796352  0.31540117  1
  Ti  Ti97  1  0.64705556  0.88861853  0.61961292  1
  Ti  Ti98  1  0.56677567  0.86796455  0.82010792  1
  Ti  Ti99  1  0.86854249  0.23228276  0.22506211  1
  Ti  Ti100  1  0.85103424  0.23952354  0.59269666  1
  Ti  Ti101  1  0.93744326  0.17466959  1.01772761  1
  Ti  Ti102  1  0.90110896  0.56010325  0.29616459  1
  Ti  Ti103  1  0.88373493  0.54956627  0.50456028  1
  Ti  Ti104  1  0.83817720  0.55546891  0.88811450  1
  Ti  Ti105  1  0.94816198  0.81382734  0.25409678  1
  Ti  Ti106  1  0.91987894  0.91230944  0.57465220  1
  Ti  Ti107  1  0.95286579  0.94757460  1.02514376  1
  Co  Co108  1  0.72058755  0.13257255  0.75896081  1
  Co  Co109  1  -0.07776324  -0.05086911  0.72959687  1
  Co  Co110  1  0.35871736  0.42063125  0.08213499  1
  Co  Co111  1  0.01852374  0.67351532  0.30644899  1
  Co  Co112  1  0.69344627  0.48131769  0.15793806  1
  Co  Co113  1  0.20162340  0.70896417  0.86510331  1
  Co  Co114  1  0.61734685  0.78745178  0.23757362  1
  Co  Co115  1  -0.01778421  0.24756019  0.68963776  1
  Co  Co116  1  0.51833174  -0.00838515  0.50888708  1
  Co  Co117  1  0.07529644  0.09965342  0.70916198  1
  Co  Co118  1  0.51484125  -0.01638202  0.93446229  1
  Co  Co119  1  0.11509986  0.39926495  0.81686472  1
  Co  Co120  1  0.21904032  0.02066684  0.12912586  1
  Co  Co121  1  0.95390257  0.64540391  0.15613337  1
  Co  Co122  1  0.79432989  -0.02772740  0.45064621  1
  Co  Co123  1  0.40315885  0.12926666  0.70909231  1
  Co  Co124  1  0.37136073  0.69085439  0.62696984  1
  Co  Co125  1  0.04874842  0.24799785  0.26002408  1
  Co  Co126  1  0.45164488  0.73056357  0.78674169  1
  Co  Co127  1  0.40998675  0.07746514  0.04725753  1
  Co  Co128  1  0.45996096  0.65731365  0.21358213  1
  Co  Co129  1  0.79422486  0.82394322  0.68669408  1
  Co  Co130  1  0.76154310  0.46344675  0.00766814  1
  Co  Co131  1  -0.00347821  0.50854738  0.90823450  1
  Co  Co132  1  -0.05146327  0.09499506  0.16325641  1
  Co  Co133  1  0.54606584  0.33416589  0.54299835  1
  Co  Co134  1  0.27961745  0.87443820  0.15029266  1
  Co  Co135  1  -0.04141847  0.22653411  0.85650153  1
  Co  Co136  1  0.16063043  0.41811544  0.29336525  1
  Co  Co137  1  -0.00860957  0.44049844  0.42963514  1
  Co  Co138  1  0.14637125  0.65418096  0.17393069  1
  Co  Co139  1  0.84027095  0.40226437  0.67121378  1
  Co  Co140  1  0.06147888  0.53057693  0.21605309  1
  Co  Co141  1  0.29560353  0.16952459  0.13842366  1
  Co  Co142  1  0.33134660  0.14930759  0.30904069  1
  Co  Co143  1  0.95538205  0.07591291  0.60631151  1
  Co  Co144  1  0.50943497  0.27203355  0.68184639  1
  Co  Co145  1  0.81745889  0.68108045  0.40962908  1
  Co  Co146  1  0.72169165  0.84327236  0.84590715  1
  Co  Co147  1  0.70561483  0.19278449  0.16777564  1
  Co  Co148  1  0.70454620  0.21472971  0.32866047  1
  Co  Co149  1  0.77453803  0.16181479  0.46321833  1
  Co  Co150  1  0.48290217  0.78448036  0.35335085  1
  Co  Co151  1  0.07744050  0.06501291  0.04867080  1
  Co  Co152  1  0.86534924  -0.03096088  0.88113429  1
  Co  Co153  1  0.54949702  0.55489267  0.37383650  1
  Co  Co154  1  0.21660831  -0.08847319  0.44901986  1
  Co  Co155  1  0.87092881  0.38223430  0.51627087  1
  Co  Co156  1  0.85797300  0.33889611  0.93354845  1
  Co  Co157  1  0.85846582  -0.05770241  0.15981693  1
  Co  Co158  1  0.54784356  0.31886540  0.92123040  1
  Co  Co159  1  0.06912960  0.86474787  0.53542719  1
  Co  Co160  1  0.58464400  0.24057463  0.07408208  1
  Co  Co161  1  0.77207933  0.69269417  0.78227064  1
  Ni  Ni162  1  0.30708527  0.13480022  0.56078469  1
  Ni  Ni163  1  0.32824871  0.81571574  0.53379335  1
  Ni  Ni164  1  0.11531275  0.77413411  0.40019039  1
  Ni  Ni165  1  0.62532248  0.05955092  0.24430465  1
  Ni  Ni166  1  0.64773668  0.88893897  0.45406142  1
  Ni  Ni167  1  0.47635837  0.33963356  0.16875143  1
  Ni  Ni168  1  0.08846758  0.37568985  0.13591688  1
  Ni  Ni169  1  0.49903695  0.80859884  0.66551261  1
  Ni  Ni170  1  0.65459383  0.57408713  0.80929374  1
  Ni  Ni171  1  0.52893261  -0.08030039  0.12097433  1
  Ni  Ni172  1  -0.06699448  0.65269184  -0.02249900  1
  Ni  Ni173  1  0.01648665  0.89117366  0.85567330  1
  Ni  Ni174  1  0.49149975  0.59175076  0.68302329  1
  Ni  Ni175  1  0.56003914  0.23226571  0.41851090  1
  Ni  Ni176  1  0.90658966  0.85207117  0.41101523  1
  Ni  Ni177  1  0.82386063  0.12689361  -0.09300322  1
  Ni  Ni178  1  0.48542609  0.09217726  0.36448401  1
  Ni  Ni179  1  0.39116078  0.89785934  0.83954237  1
  Ni  Ni180  1  -0.07977884  -0.01912884  0.30295056  1
  Ni  Ni181  1  0.70294087  0.63752779  0.54050088  1
  Ni  Ni182  1  0.17836991  0.06041974  0.84386330  1
  Ni  Ni183  1  0.38805061  0.72749329  0.07156365  1
  Ni  Ni184  1  0.79107620  0.88309433  -0.00374926  1
  Ni  Ni185  1  0.40835543  0.30617846  0.31242267  1
  Ni  Ni186  1  0.61525953  0.04630834  0.64631053  1
  Ni  Ni187  1  0.07058974  0.13968738  0.39020100  1
  Ni  Ni188  1  0.23408932  0.37680267  0.55300118  1
  Ni  Ni189  1  0.02202270  0.21206600  0.53041627  1
  Ni  Ni190  1  0.26239285  0.46836637  0.84656518  1
  Ni  Ni191  1  0.57236017  0.48527387  -0.07749353  1
  Ni  Ni192  1  0.62989870  0.27512373  0.78758142  1
  Ni  Ni193  1  0.48639675  0.81205878  -0.04625082  1
  Ni  Ni194  1  0.74262633  0.47404267  0.54176213  1
  Ni  Ni195  1  0.63092908  -0.13274046  -0.00773462  1
  Ni  Ni196  1  0.04481837  0.78356887  0.10507432  1
  Ni  Ni197  1  0.63879572  0.58868368  0.03464348  1
  Ni  Ni198  1  0.52085516  0.66657498  0.52785559  1
  Ni  Ni199  1  0.29664467  0.72232113  0.21578491  1
  Ni  Ni200  1  0.83011223  0.41115654  0.36007238  1
  Ni  Ni201  1  0.25070765  0.61938016  0.44732026  1
  Ni  Ni202  1  0.11039274  0.18933909  -0.05881435  1
  Ni  Ni203  1  0.21140631  0.90059357  0.61574398  1
  Ni  Ni204  1  0.35239206  0.26714327  0.63211205  1
  Ni  Ni205  1  0.51745122  0.15267757  -0.05561554  1
  Ni  Ni206  1  0.71405392  0.74160806  0.10226187  1
  Ni  Ni207  1  0.13867395  0.90501908  0.03902175  1
  Ni  Ni208  1  0.41560380  0.54058780  0.49675381  1
  Ni  Ni209  1  0.14786620  0.46566789  -0.03443841  1
  Ni  Ni210  1  0.14859165  0.47121071  0.67481764  1
  Ni  Ni211  1  0.83693916  0.41775677  0.19295419  1
  Ni  Ni212  1  0.32399430  0.58785552  0.13507495  1
  Ni  Ni213  1  -0.05933855  0.31725574  0.10212967  1
  Ni  Ni214  1  0.27676199  0.19826292  0.83594813  1
