# generated using pymatgen
data_Ti108Co54Ni53
_symmetry_space_group_name_H-M   'P 1'
_cell_length_a   14.59295085
_cell_length_b   14.64231866
_cell_length_c   14.57908219
_cell_angle_alpha   90.14908929
_cell_angle_beta   89.74961649
_cell_angle_gamma   90.01138243
_symmetry_Int_Tables_number   1
_chemical_formula_structural   Ti108Co54Ni53
_chemical_formula_sum   'Ti108 Co54 Ni53'
_cell_volume   3115.13974239
_cell_formula_units_Z   1
loop_
 _symmetry_equiv_pos_site_id
 _symmetry_equiv_pos_as_xyz
  1  'x, y, z'
loop_
 _atom_site_type_symbol
 _atom_site_label
 _atom_site_symmetry_multiplicity
 _atom_site_fract_x
 _atom_site_fract_y
 _atom_site_fract_z
 _atom_site_occupancy
  Ti  Ti0  1  0.14478521  0.04428802  0.22238473  1
  Ti  Ti1  1  0.14680843  0.04537752  0.61422225  1
  Ti  Ti2  1  0.07502676  0.11006401  0.98877702  1
  Ti  Ti3  1  0.13916232  0.38330201  0.23044341  1
  Ti  Ti4  1  0.06322167  0.49365626  0.64207353  1
  Ti  Ti5  1  0.13145357  0.40872920  1.00197583  1
  Ti  Ti6  1  0.04259718  0.80951400  0.31426687  1
  Ti  Ti7  1  0.06422759  0.83875513  0.52362191  1
  Ti  Ti8  1  0.08194400  0.70030852  0.98037953  1
  Ti  Ti9  1  0.45277036  0.12935224  0.27572111  1
  Ti  Ti10  1  0.42028297  0.17372115  0.61615759  1
  Ti  Ti11  1  0.44211552  0.03792385  0.94923748  1
  Ti  Ti12  1  0.37424655  0.41328252  0.32093450  1
  Ti  Ti13  1  0.38759520  0.46184094  0.66566103  1
  Ti  Ti14  1  0.38092765  0.43800283  0.94988149  1
  Ti  Ti15  1  0.40090566  0.74578128  0.21885062  1
  Ti  Ti16  1  0.41896401  0.80801630  0.52740092  1
  Ti  Ti17  1  0.47818319  0.76144265  0.85612589  1
  Ti  Ti18  1  0.78835504  0.09252052  0.19437318  1
  Ti  Ti19  1  0.79384903  0.10770722  0.53120326  1
  Ti  Ti20  1  0.70726181  0.16412762  0.88124080  1
  Ti  Ti21  1  0.78934505  0.42976472  0.24059048  1
  Ti  Ti22  1  0.69791337  0.41989840  0.53513057  1
  Ti  Ti23  1  0.62942118  0.43926089  0.90547940  1
  Ti  Ti24  1  0.69796655  0.81610194  0.25593009  1
  Ti  Ti25  1  0.71438750  0.77810383  0.62141727  1
  Ti  Ti26  1  0.71072283  0.76306192  0.86422261  1
  Ti  Ti27  1  0.03489781  0.21720531  0.15838169  1
  Ti  Ti28  1  0.06754852  0.28603247  0.40546125  1
  Ti  Ti29  1  0.13743145  0.21324967  0.77607885  1
  Ti  Ti30  1  0.09225207  0.56969933  0.14348118  1
  Ti  Ti31  1  0.08732318  0.62876087  0.41595557  1
  Ti  Ti32  1  0.21745182  0.61125886  0.71664601  1
  Ti  Ti33  1  0.03145427  0.90951135  0.02759088  1
  Ti  Ti34  1  0.13698009  0.96240907  0.40355030  1
  Ti  Ti35  1  0.11933825  0.89115428  0.76602404  1
  Ti  Ti36  1  0.42797689  0.17828948  0.08481350  1
  Ti  Ti37  1  0.38344096  0.27450663  0.44737090  1
  Ti  Ti38  1  0.36129723  0.30012361  0.76799499  1
  Ti  Ti39  1  0.40857338  0.60792549  0.05616636  1
  Ti  Ti40  1  0.48668425  0.69187634  0.39823839  1
  Ti  Ti41  1  0.40995099  0.65010091  0.70298200  1
  Ti  Ti42  1  0.33985952  0.91277156  0.09085596  1
  Ti  Ti43  1  0.42928180  0.96893732  0.41005231  1
  Ti  Ti44  1  0.39793455  0.97276694  0.65210977  1
  Ti  Ti45  1  0.62220478  0.22984775  0.15817396  1
  Ti  Ti46  1  0.71792848  0.25762609  0.35160199  1
  Ti  Ti47  1  0.68666244  0.23033763  0.68302229  1
  Ti  Ti48  1  0.67575630  0.56970277  0.11646744  1
  Ti  Ti49  1  0.77682135  0.56399008  0.43481209  1
  Ti  Ti50  1  0.81286131  0.64372350  0.73214696  1
  Ti  Ti51  1  0.75563939  0.84578544  0.03982211  1
  Ti  Ti52  1  0.77306354  0.91270567  0.45913000  1
  Ti  Ti53  1  0.71752594  0.96693787  0.81680895  1
  Ti  Ti54  1  0.24341755  0.13890715  0.07179351  1
  Ti  Ti55  1  0.27235906  0.11563355  0.38281166  1
  Ti  Ti56  1  0.27901516  0.00969433  0.79265167  1
  Ti  Ti57  1  0.35862642  0.42980689  0.13792899  1
  Ti  Ti58  1  0.19356708  0.45054429  0.43782882  1
  Ti  Ti59  1  0.18702407  0.40356037  0.74755025  1
  Ti  Ti60  1  0.24834774  0.68990157  0.10397228  1
  Ti  Ti61  1  0.22331667  0.76648534  0.44591733  1
  Ti  Ti62  1  0.30913216  0.80745279  0.76834629  1
  Ti  Ti63  1  0.61067970  0.03906611  0.08008169  1
  Ti  Ti64  1  0.61644560  0.08594565  0.41957764  1
  Ti  Ti65  1  0.56508738  0.07417046  0.73280184  1
  Ti  Ti66  1  0.51642506  0.34336687  0.04443201  1
  Ti  Ti67  1  0.53336140  0.40585216  0.43471909  1
  Ti  Ti68  1  0.61289712  0.41845278  0.70095527  1
  Ti  Ti69  1  0.55087852  0.84560014  0.13435073  1
  Ti  Ti70  1  0.67919740  0.73676393  0.44364677  1
  Ti  Ti71  1  0.60295386  0.67613420  0.72526768  1
  Ti  Ti72  1  0.89132504  0.12329478  0.01665217  1
  Ti  Ti73  1  0.96877092  0.02783740  0.50524226  1
  Ti  Ti74  1  0.90451771  0.03690214  0.71178379  1
  Ti  Ti75  1  0.91070759  0.35944856  0.10111177  1
  Ti  Ti76  1  0.87036517  0.38231154  0.40055603  1
  Ti  Ti77  1  0.92029146  0.35877256  0.58285748  1
  Ti  Ti78  1  0.91672650  0.78916534  0.15790585  1
  Ti  Ti79  1  0.91095868  0.71560826  0.43329814  1
  Ti  Ti80  1  1.00341731  0.72404045  0.73791992  1
  Ti  Ti81  1  0.29291920  0.25640107  0.22871052  1
  Ti  Ti82  1  0.21139317  0.20874360  0.53765273  1
  Ti  Ti83  1  0.30726280  0.18186171  0.89661870  1
  Ti  Ti84  1  0.24876061  0.54782924  0.25986015  1
  Ti  Ti85  1  0.31918302  0.59578188  0.50952819  1
  Ti  Ti86  1  0.23292399  0.57533815  0.91655238  1
  Ti  Ti87  1  0.22137341  0.83816991  0.24829640  1
  Ti  Ti88  1  0.23895339  0.89257257  0.60755304  1
  Ti  Ti89  1  0.21863891  0.84678535  0.93803514  1
  Ti  Ti90  1  0.58992795  0.38848950  0.23447924  1
  Ti  Ti91  1  0.58811294  0.23818235  0.52155032  1
  Ti  Ti92  1  0.52504495  0.24055933  0.87165761  1
  Ti  Ti93  1  0.56534117  0.55222499  0.28503604  1
  Ti  Ti94  1  0.51764587  0.55449610  0.56519258  1
  Ti  Ti95  1  0.59969123  0.61807650  0.92456729  1
  Ti  Ti96  1  0.56711502  0.97273861  0.26507818  1
  Ti  Ti97  1  0.59121105  0.90676304  0.60115599  1
  Ti  Ti98  1  0.57691373  0.88809914  0.94936892  1
  Ti  Ti99  1  0.91958018  0.19153880  0.30868866  1
  Ti  Ti100  1  1.02555740  0.18962551  0.60845813  1
  Ti  Ti101  1  0.87974682  0.23262749  0.79232803  1
  Ti  Ti102  1  0.84346638  0.61215935  0.24092177  1
  Ti  Ti103  1  0.93704402  0.55646350  0.53780365  1
  Ti  Ti104  1  0.80646648  0.63074754  0.96461431  1
  Ti  Ti105  1  0.88125438  0.94318272  0.25458238  1
  Ti  Ti106  1  0.89120999  0.84013215  0.59863199  1
  Ti  Ti107  1  0.87785183  0.89679242  0.89590715  1
  Co  Co108  1  0.78493148  0.69970365  0.11342131  1
  Co  Co109  1  0.61439815  0.57620495  0.44190240  1
  Co  Co110  1  0.75877688  -0.05120109  0.62915778  1
  Co  Co111  1  0.06226920  0.07470571  0.75575245  1
  Co  Co112  1  0.64063869  0.11858864  0.26163038  1
  Co  Co113  1  0.78613716  0.35146196  0.67556534  1
  Co  Co114  1  0.38235870  0.87885137  0.92556606  1
  Co  Co115  1  0.17566001  0.83366546  0.09245076  1
  Co  Co116  1  0.42082907  0.12454351  0.78239329  1
  Co  Co117  1  0.17064307  -0.01231448  0.07075926  1
  Co  Co118  1  0.71932318  0.94684698  0.15952616  1
  Co  Co119  1  0.05204798  0.91421431  0.19129287  1
  Co  Co120  1  0.00684003  0.69727651  0.57555851  1
  Co  Co121  1  0.52831429  0.82080674  0.31958912  1
  Co  Co122  1  0.52748383  0.54463774  0.76089053  1
  Co  Co123  1  0.43422567  0.53713133  0.40068958  1
  Co  Co124  1  0.03334621  0.82475245  0.88270054  1
  Co  Co125  1  0.71878795  0.32081531  0.82157520  1
  Co  Co126  1  0.23917821  0.51778610  0.07354781  1
  Co  Co127  1  -0.04442317  0.49327377  0.19613566  1
  Co  Co128  1  0.00808612  0.02660731  0.32415692  1
  Co  Co129  1  0.75502186  0.09427903  0.71940570  1
  Co  Co130  1  0.35487404  0.43031193  0.49699238  1
  Co  Co131  1  0.45905819  0.01969869  0.13241030  1
  Co  Co132  1  0.15401494  0.61921657  0.55907278  1
  Co  Co133  1  -0.03435318  0.34979656  0.26577938  1
  Co  Co134  1  0.16768488  0.68647114  0.27695563  1
  Co  Co135  1  0.28372019  -0.02760838  0.31035379  1
  Co  Co136  1  0.14852589  0.19903750  0.28108975  1
  Co  Co137  1  0.44804076  0.13545689  0.44002086  1
  Co  Co138  1  0.35770160  0.82233021  0.36554240  1
  Co  Co139  1  0.58889075  0.04646240  0.89136520  1
  Co  Co140  1  0.28146784  -0.06892297  0.46839365  1
  Co  Co141  1  0.68786991  0.43791431  0.36787857  1
  Co  Co142  1  0.88076319  -0.04485510  0.07949580  1
  Co  Co143  1  0.23540371  0.30506832  0.37931482  1
  Co  Co144  1  0.57263006  0.17291038  0.00509910  1
  Co  Co145  1  0.31135353  0.06960305  0.54565351  1
  Co  Co146  1  0.55357034  0.71598531  0.56237191  1
  Co  Co147  1  0.86983913  0.20486365  0.63450318  1
  Co  Co148  1  0.69762069  0.54498895  0.78827636  1
  Co  Co149  1  0.82188063  0.67343123  0.56408113  1
  Co  Co150  1  -0.00145029  0.65494830  0.26728505  1
  Co  Co151  1  0.71946307  -0.01509032  0.32413982  1
  Co  Co152  1  0.31459837  0.08692662  0.20489461  1
  Co  Co153  1  0.88619161  0.73346548  0.84925583  1
  Co  Co154  1  0.41151296  0.91209700  0.23988276  1
  Co  Co155  1  0.32959486  0.49985200  0.80597191  1
  Co  Co156  1  -0.01542409  0.01483972  -0.11554899  1
  Co  Co157  1  0.07012013  0.73780772  0.14730043  1
  Co  Co158  1  0.92517459  0.53680973  0.36360930  1
  Co  Co159  1  0.84518437  0.08195883  0.86111433  1
  Co  Co160  1  0.67605233  0.59346738  0.60434858  1
  Co  Co161  1  0.16245322  0.72316901  0.82646132  1
  Ni  Ni162  1  0.54957717  0.24722153  0.34690270  1
  Ni  Ni163  1  0.52654950  0.26111295  0.71286065  1
  Ni  Ni164  1  0.32101679  0.29832965  0.03337139  1
  Ni  Ni165  1  0.73781595  0.17079656  0.05344956  1
  Ni  Ni166  1  0.75135541  0.01148386  -0.01319510  1
  Ni  Ni167  1  0.28282571  0.01726511  -0.04071518  1
  Ni  Ni168  1  0.28700992  0.32254762  0.62173964  1
  Ni  Ni169  1  0.09045441  0.12469417  0.43913600  1
  Ni  Ni170  1  0.46971993  0.81055936  0.68878496  1
  Ni  Ni171  1  0.67201768  0.29823308  -0.02258368  1
  Ni  Ni172  1  0.25286504  0.36004763  0.88666592  1
  Ni  Ni173  1  0.17153624  0.28675551  0.10522836  1
  Ni  Ni174  1  0.15816633  0.24728305  -0.05280011  1
  Ni  Ni175  1  0.02640104  0.32770027  0.71342214  1
  Ni  Ni176  1  0.32010065  0.66023127  0.35401258  1
  Ni  Ni177  1  0.60375731  0.91094657  0.43224951  1
  Ni  Ni178  1  0.53625170  0.50405311  0.05084364  1
  Ni  Ni179  1  -0.05804374  0.62861505  0.09086557  1
  Ni  Ni180  1  0.85210626  0.05714274  0.38065016  1
  Ni  Ni181  1  -0.06360249  0.89436983  0.41442221  1
  Ni  Ni182  1  0.82845226  0.50586237  0.08312642  1
  Ni  Ni183  1  0.41172763  0.57611546  0.22957311  1
  Ni  Ni184  1  0.81040756  0.50430769  0.62971809  1
  Ni  Ni185  1  0.22850021  0.47632834  0.59940018  1
  Ni  Ni186  1  0.14523407  0.75826980  0.65572647  1
  Ni  Ni187  1  0.00052617  0.26764157  -0.00579479  1
  Ni  Ni188  1  0.84441349  0.78223348  0.31058014  1
  Ni  Ni189  1  0.45771448  0.29389639  0.20866932  1
  Ni  Ni190  1  0.07573232  0.50580949  0.30859935  1
  Ni  Ni191  1  0.27544781  0.15216398  0.70022119  1
  Ni  Ni192  1  0.02680381  0.44085758  0.45900422  1
  Ni  Ni193  1  0.53936673  0.66573652  0.15221578  1
  Ni  Ni194  1  0.77494746  0.27382470  0.51653275  1
  Ni  Ni195  1  -0.03105264  0.06519788  0.16445998  1
  Ni  Ni196  1  0.46726968  0.34258180  0.58594246  1
  Ni  Ni197  1  0.63839033  0.73158751  0.03466936  1
  Ni  Ni198  1  0.69162507  0.65426601  0.29404745  1
  Ni  Ni199  1  0.92090689  0.76450636  0.00001621  1
  Ni  Ni200  1  0.45869024  0.76394377  0.02782860  1
  Ni  Ni201  1  0.47061303  -0.05671830  0.80148643  1
  Ni  Ni202  1  0.50230219  0.03484065  0.54649997  1
  Ni  Ni203  1  0.11281454  0.34544402  0.57136482  1
  Ni  Ni204  1  0.29403429  0.72840358  0.60631577  1
  Ni  Ni205  1  0.14056543  -0.00754010  0.89153787  1
  Ni  Ni206  1  0.43980614  0.58741259  0.89002184  1
  Ni  Ni207  1  0.60959592  0.85358091  0.76443332  1
  Ni  Ni208  1  0.64950061  0.07268732  0.58917332  1
  Ni  Ni209  1  0.79364602  0.26777365  0.18664821  1
  Ni  Ni210  1  0.81148996  0.83752847  0.74629542  1
  Ni  Ni211  1  0.02114432  -0.06153587  0.65023838  1
  Ni  Ni212  1  0.32655566  0.71265920  -0.07256964  1
  Ni  Ni213  1  0.69548950  0.40025390  0.09865744  1
  Ni  Ni214  1  0.48357205  0.40339722  0.82144964  1
