# generated using pymatgen
data_Ti108Co54Ni53
_symmetry_space_group_name_H-M   'P 1'
_cell_length_a   14.66078938
_cell_length_b   14.62151756
_cell_length_c   14.65630761
_cell_angle_alpha   90.03345629
_cell_angle_beta   90.12096143
_cell_angle_gamma   90.35549970
_symmetry_Int_Tables_number   1
_chemical_formula_structural   Ti108Co54Ni53
_chemical_formula_sum   'Ti108 Co54 Ni53'
_cell_volume   3141.70187574
_cell_formula_units_Z   1
loop_
 _symmetry_equiv_pos_site_id
 _symmetry_equiv_pos_as_xyz
  1  'x, y, z'
loop_
 _atom_site_type_symbol
 _atom_site_label
 _atom_site_symmetry_multiplicity
 _atom_site_fract_x
 _atom_site_fract_y
 _atom_site_fract_z
 _atom_site_occupancy
  Ti  Ti0  1  0.15818394  0.11399840  0.28117432  1
  Ti  Ti1  1  -0.00711360  -0.00129405  0.55360402  1
  Ti  Ti2  1  0.04053569  0.02837005  0.90806017  1
  Ti  Ti3  1  0.01332391  0.42459014  0.21704770  1
  Ti  Ti4  1  0.08374974  0.40706835  0.54823756  1
  Ti  Ti5  1  0.06224055  0.48639269  0.98132684  1
  Ti  Ti6  1  0.07894004  0.71297925  0.29550403  1
  Ti  Ti7  1  0.14664484  0.72301187  0.62685219  1
  Ti  Ti8  1  0.10575554  0.67037899  0.92659128  1
  Ti  Ti9  1  0.47229764  0.04951433  0.25266811  1
  Ti  Ti10  1  0.42809251  0.04631054  0.61174781  1
  Ti  Ti11  1  0.42965156  0.07735493  0.82161576  1
  Ti  Ti12  1  0.46621761  0.35838327  0.25611274  1
  Ti  Ti13  1  0.46996654  0.46381828  0.53023666  1
  Ti  Ti14  1  0.42032964  0.37457730  0.96135123  1
  Ti  Ti15  1  0.39253868  0.70982236  0.23532043  1
  Ti  Ti16  1  0.36383725  0.77507840  0.63834042  1
  Ti  Ti17  1  0.38536748  0.77169871  0.94519817  1
  Ti  Ti18  1  0.80275200  0.15064874  0.26829147  1
  Ti  Ti19  1  0.83377035  0.08837733  0.60377428  1
  Ti  Ti20  1  0.74174877  0.06894930  0.98689341  1
  Ti  Ti21  1  0.77873807  0.45371340  0.26011860  1
  Ti  Ti22  1  0.73459774  0.40400506  0.63008561  1
  Ti  Ti23  1  0.74883194  0.36810516  0.92521445  1
  Ti  Ti24  1  0.72678186  0.72747786  0.24451196  1
  Ti  Ti25  1  0.79751768  0.71504969  0.62815575  1
  Ti  Ti26  1  0.68986886  0.78429973  0.94209307  1
  Ti  Ti27  1  0.12821284  0.22964316  0.11789107  1
  Ti  Ti28  1  0.08404054  0.21305063  0.43536187  1
  Ti  Ti29  1  0.05592866  0.11035074  0.71815343  1
  Ti  Ti30  1  0.06164616  0.61975020  0.12122658  1
  Ti  Ti31  1  0.07655958  0.53918955  0.38905841  1
  Ti  Ti32  1  0.08232921  0.57367089  0.72186737  1
  Ti  Ti33  1  0.09054501  0.94090638  0.07157677  1
  Ti  Ti34  1  0.08624108  0.99558580  0.39763715  1
  Ti  Ti35  1  0.04020314  0.89338140  0.71744638  1
  Ti  Ti36  1  0.52367768  0.27637871  0.10749272  1
  Ti  Ti37  1  0.36467371  0.32653457  0.44405856  1
  Ti  Ti38  1  0.37390770  0.20817309  0.69380653  1
  Ti  Ti39  1  0.39094985  0.50359339  0.11036987  1
  Ti  Ti40  1  0.45467093  0.62212711  0.41788521  1
  Ti  Ti41  1  0.44754752  0.62616162  0.76709401  1
  Ti  Ti42  1  0.42524120  0.97169487  0.08420670  1
  Ti  Ti43  1  0.42460141  0.97151182  0.42701629  1
  Ti  Ti44  1  0.33331972  0.90538831  0.80139842  1
  Ti  Ti45  1  0.71287883  0.23809746  0.09602395  1
  Ti  Ti46  1  0.72390338  0.27962475  0.41677357  1
  Ti  Ti47  1  0.70708136  0.21247006  0.68865358  1
  Ti  Ti48  1  0.77453514  0.51316564  0.06715407  1
  Ti  Ti49  1  0.78238118  0.59414852  0.41952038  1
  Ti  Ti50  1  0.88210369  0.57941765  0.72225752  1
  Ti  Ti51  1  0.77861945  0.89907153  0.09432359  1
  Ti  Ti52  1  0.73848072  0.86424906  0.38874464  1
  Ti  Ti53  1  0.74045517  0.91439186  0.71306233  1
  Ti  Ti54  1  0.25377908  0.06061239  0.13018361  1
  Ti  Ti55  1  0.27508317  0.09671526  0.49057624  1
  Ti  Ti56  1  0.24710197  0.05550598  0.70880925  1
  Ti  Ti57  1  0.19922353  0.41769920  0.12186817  1
  Ti  Ti58  1  0.27476596  0.49894875  0.40738506  1
  Ti  Ti59  1  0.33663822  0.45537555  0.72540180  1
  Ti  Ti60  1  0.21234936  0.76002485  0.06292346  1
  Ti  Ti61  1  0.34038582  0.79247495  0.40729555  1
  Ti  Ti62  1  0.26388888  0.70328896  0.79805023  1
  Ti  Ti63  1  0.55389417  0.11896200  -0.01457885  1
  Ti  Ti64  1  0.57282348  0.10702528  0.47775057  1
  Ti  Ti65  1  0.62492376  0.05729847  0.80428749  1
  Ti  Ti66  1  0.58393278  0.46250581  0.03229034  1
  Ti  Ti67  1  0.61401679  0.42978231  0.36765343  1
  Ti  Ti68  1  0.53679128  0.44235294  0.70084202  1
  Ti  Ti69  1  0.54120889  0.67690534  0.08985711  1
  Ti  Ti70  1  0.56159127  0.78337415  0.41719605  1
  Ti  Ti71  1  0.61720714  0.73438012  0.72722954  1
  Ti  Ti72  1  0.91304975  0.11372353  0.08528601  1
  Ti  Ti73  1  0.85339508  0.02950775  0.41324873  1
  Ti  Ti74  1  0.81664373  0.10709950  0.80927788  1
  Ti  Ti75  1  0.88672055  0.33702025  0.07536528  1
  Ti  Ti76  1  0.90784009  0.34660462  0.38727676  1
  Ti  Ti77  1  0.95135972  0.39441772  0.70276406  1
  Ti  Ti78  1  0.93549522  0.77539260  0.10120469  1
  Ti  Ti79  1  0.95217725  0.84775734  0.38373724  1
  Ti  Ti80  1  0.95293971  0.72471290  0.83015700  1
  Ti  Ti81  1  0.32127702  0.21979608  0.22996921  1
  Ti  Ti82  1  0.22656847  0.26935355  0.58048395  1
  Ti  Ti83  1  0.28630095  0.22599915  1.00276044  1
  Ti  Ti84  1  0.22619552  0.60646806  0.19992787  1
  Ti  Ti85  1  0.29218088  0.63322117  0.52773293  1
  Ti  Ti86  1  0.32705817  0.55755785  0.91484537  1
  Ti  Ti87  1  0.30220877  0.91783675  0.25805428  1
  Ti  Ti88  1  0.16528497  0.94451807  0.57037802  1
  Ti  Ti89  1  0.23878888  0.96077038  0.95784955  1
  Ti  Ti90  1  0.58515761  0.20062218  0.29498885  1
  Ti  Ti91  1  0.56434867  0.28014703  0.58468089  1
  Ti  Ti92  1  0.53555473  0.25160550  0.80471011  1
  Ti  Ti93  1  0.53220746  0.55550416  0.24452136  1
  Ti  Ti94  1  0.60885419  0.62350371  0.57296604  1
  Ti  Ti95  1  0.62067800  0.55032232  0.84491453  1
  Ti  Ti96  1  0.61553066  0.91301290  0.23395028  1
  Ti  Ti97  1  0.57054544  0.91498520  0.59058249  1
  Ti  Ti98  1  0.52293223  0.92117428  0.91672737  1
  Ti  Ti99  1  0.99294550  0.22931867  0.25046120  1
  Ti  Ti100  1  0.86732967  0.28546996  0.56869938  1
  Ti  Ti101  1  0.95329417  0.32789259  0.88557224  1
  Ti  Ti102  1  0.89484412  0.62189062  0.23585448  1
  Ti  Ti103  1  0.97063360  0.60415132  0.54123350  1
  Ti  Ti104  1  0.80008563  0.60800383  0.89805734  1
  Ti  Ti105  1  0.95019841  0.95624016  0.21191708  1
  Ti  Ti106  1  0.85230826  0.88556943  0.55909335  1
  Ti  Ti107  1  0.87547509  0.91769142  0.86483050  1
  Co  Co108  1  0.04087643  0.34709224  0.05497746  1
  Co  Co109  1  0.78260799  0.73774382  0.79827050  1
  Co  Co110  1  0.15387134  0.10037582  0.00983628  1
  Co  Co111  1  -0.02442697  0.08454526  0.31086175  1
  Co  Co112  1  -0.01360455  0.54482617  0.84781708  1
  Co  Co113  1  0.05960573  0.07845635  0.15376407  1
  Co  Co114  1  0.60995053  0.87207286  0.79506297  1
  Co  Co115  1  0.72190770  0.16216315  0.51597891  1
  Co  Co116  1  0.10807571  0.76311350  0.78538557  1
  Co  Co117  1  0.92480951  0.20948224  0.70564670  1
  Co  Co118  1  0.14475718  0.83711839  0.38129104  1
  Co  Co119  1  0.44250811  0.45982019  0.37422985  1
  Co  Co120  1  0.22543852  0.85800002  0.69343246  1
  Co  Co121  1  0.61336023  0.42578438  0.18207218  1
  Co  Co122  1  0.50574095  0.82875840  0.04954661  1
  Co  Co123  1  0.68554565  0.30322311  0.24466665  1
  Co  Co124  1  -0.07768958  0.44761345  0.53852179  1
  Co  Co125  1  0.88005823  0.18737502  0.41921264  1
  Co  Co126  1  0.15650568  0.29289574  0.27007701  1
  Co  Co127  1  0.25425026  -0.05068665  0.41771631  1
  Co  Co128  1  0.14703224  0.55715948  0.55700081  1
  Co  Co129  1  0.65312550  0.61243199  -0.00812471  1
  Co  Co130  1  0.25682713  0.21737100  0.38690828  1
  Co  Co131  1  0.86979599  0.80331378  0.24932560  1
  Co  Co132  1  0.25695886  0.66357099  0.35629382  1
  Co  Co133  1  0.22877881  0.80575296  0.51752256  1
  Co  Co134  1  0.16611738  0.46695236  0.27382493  1
  Co  Co135  1  0.70876822  0.59510344  0.71405005  1
  Co  Co136  1  0.43127211  0.59590071  0.61248301  1
  Co  Co137  1  0.38766859  0.32323237  0.80738798  1
  Co  Co138  1  0.15757972  -0.03965356  0.80538149  1
  Co  Co139  1  0.43557705  0.21425173  -0.06679068  1
  Co  Co140  1  0.30158979  0.37970728  0.28221731  1
  Co  Co141  1  0.53736005  0.13495920  0.68151496  1
  Co  Co142  1  -0.04705090  0.67277737  0.39242075  1
  Co  Co143  1  0.88411499  0.84001022  0.71432250  1
  Co  Co144  1  0.78480910  0.43080705  0.45309402  1
  Co  Co145  1  0.89100979  0.46621427  -0.04879359  1
  Co  Co146  1  0.22761822  0.77835398  0.23917393  1
  Co  Co147  1  0.39942427  0.34730514  0.62026638  1
  Co  Co148  1  0.91458380  0.51174876  0.36341833  1
  Co  Co149  1  0.06160715  0.26998616  0.63182548  1
  Co  Co150  1  0.13360054  0.11731084  0.57187609  1
  Co  Co151  1  0.46429889  0.86877149  0.29604552  1
  Co  Co152  1  0.53204754  0.29675478  0.42720084  1
  Co  Co153  1  0.46782569  0.47173144  0.84361567  1
  Co  Co154  1  0.72021823  -0.05631647  0.89270725  1
  Co  Co155  1  0.57838660  -0.05559262  0.40400821  1
  Co  Co156  1  0.19660742  0.35760929  0.43092141  1
  Co  Co157  1  0.05546234  0.37613990  0.36859299  1
  Co  Co158  1  0.64898117  0.80135605  0.11262277  1
  Co  Co159  1  0.26766737  0.43883241  0.56552714  1
  Co  Co160  1  0.57793225  0.11549281  0.14838647  1
  Co  Co161  1  0.20732238  0.81425667  0.90241226  1
  Ni  Ni162  1  0.79410219  0.54711645  0.57845540  1
  Ni  Ni163  1  0.69276670  0.20583959  0.87491350  1
  Ni  Ni164  1  0.62235455  0.62488428  0.37555679  1
  Ni  Ni165  1  0.60232444  -0.03373468  0.07214770  1
  Ni  Ni166  1  0.66979499  0.05304642  0.64108639  1
  Ni  Ni167  1  0.48235790  0.58117566  -0.03432894  1
  Ni  Ni168  1  0.83580403  0.21718169  -0.03771614  1
  Ni  Ni169  1  0.11762010  0.69007674  0.46052002  1
  Ni  Ni170  1  0.35725996  0.65995293  0.06440930  1
  Ni  Ni171  1  -0.06098068  0.63248436  -0.00509256  1
  Ni  Ni172  1  0.72914562  0.05582488  0.15105303  1
  Ni  Ni173  1  0.13305258  -0.06213467  0.24133537  1
  Ni  Ni174  1  0.56012716  0.73576431  0.25355303  1
  Ni  Ni175  1  0.82958162  0.74800734  0.46173840  1
  Ni  Ni176  1  0.64397241  0.48310091  0.51504514  1
  Ni  Ni177  1  0.81683576  0.30427716  0.77559350  1
  Ni  Ni178  1  0.65673998  0.35721543  0.78129256  1
  Ni  Ni179  1  0.04229324  0.85483399  -0.07733809  1
  Ni  Ni180  1  0.68390327  0.80353733  0.54958323  1
  Ni  Ni181  1  -0.06629585  0.50888957  0.10699451  1
  Ni  Ni182  1  0.84519631  0.30490643  0.22761787  1
  Ni  Ni183  1  0.29406678  0.17332974  0.84123220  1
  Ni  Ni184  1  0.79430629  -0.04382482  0.26322876  1
  Ni  Ni185  1  0.34967008  0.33955982  0.11722483  1
  Ni  Ni186  1  -0.02331847  0.16182310  0.54856216  1
  Ni  Ni187  1  0.78319986  0.46509711  0.79002354  1
  Ni  Ni188  1  0.35434423  0.82286245  0.12031728  1
  Ni  Ni189  1  0.68030034  0.58361147  0.17652438  1
  Ni  Ni190  1  -0.07235465  -0.05822759  0.02250043  1
  Ni  Ni191  1  0.41354134  0.14900287  0.09996383  1
  Ni  Ni192  1  0.36102117  0.54139831  0.26651562  1
  Ni  Ni193  1  0.31691050  0.07181824  0.32033508  1
  Ni  Ni194  1  0.45473879  0.79316769  0.78634807  1
  Ni  Ni195  1  0.59072058  0.30279645  -0.03950997  1
  Ni  Ni196  1  0.85828090  0.78235639  -0.04231873  1
  Ni  Ni197  1  0.04108552  0.82634495  0.52860908  1
  Ni  Ni198  1  0.66926560  0.05428798  0.32585108  1
  Ni  Ni199  1  0.51176289  0.75350944  0.57702406  1
  Ni  Ni200  1  -0.08316886  0.00687075  0.72224184  1
  Ni  Ni201  1  0.43010284  0.18051014  0.36376613  1
  Ni  Ni202  1  0.71163788  -0.01587521  0.50216805  1
  Ni  Ni203  1  0.25667637  0.58743394  0.68402658  1
  Ni  Ni204  1  0.20959298  0.57312444  0.03317729  1
  Ni  Ni205  1  0.48287796  -0.05416464  0.73194919  1
  Ni  Ni206  1  0.33192137  -0.07621457  0.57100337  1
  Ni  Ni207  1  0.35435524  0.07260863  -0.03292389  1
  Ni  Ni208  1  -0.01562907  0.72211009  0.66297221  1
  Ni  Ni209  1  0.54548602  0.72220826  0.90092888  1
  Ni  Ni210  1  0.17750605  0.53667171  0.85095078  1
  Ni  Ni211  1  0.08200559  0.80097811  0.16096672  1
  Ni  Ni212  1  -0.04131527  0.16054783  0.86327945  1
  Ni  Ni213  1  0.42482039  0.19691786  0.52862742  1
  Ni  Ni214  1  0.77398361  0.69189924  0.07838290  1
