# generated using pymatgen
data_Ti108Co54Ni53
_symmetry_space_group_name_H-M   'P 1'
_cell_length_a   14.70495740
_cell_length_b   14.67028591
_cell_length_c   14.66766865
_cell_angle_alpha   90.12275441
_cell_angle_beta   89.96861743
_cell_angle_gamma   90.13378100
_symmetry_Int_Tables_number   1
_chemical_formula_structural   Ti108Co54Ni53
_chemical_formula_sum   'Ti108 Co54 Ni53'
_cell_volume   3164.18009611
_cell_formula_units_Z   1
loop_
 _symmetry_equiv_pos_site_id
 _symmetry_equiv_pos_as_xyz
  1  'x, y, z'
loop_
 _atom_site_type_symbol
 _atom_site_label
 _atom_site_symmetry_multiplicity
 _atom_site_fract_x
 _atom_site_fract_y
 _atom_site_fract_z
 _atom_site_occupancy
  Ti  Ti0  1  0.00239620  0.00980114  0.24887036  1
  Ti  Ti1  1  0.08352710  0.08000236  0.56735830  1
  Ti  Ti2  1  0.04043188  0.04248363  0.94970227  1
  Ti  Ti3  1  0.08492953  0.41693534  0.25044295  1
  Ti  Ti4  1  0.08486581  0.43802352  0.63807716  1
  Ti  Ti5  1  0.06491197  0.49567377  0.96351837  1
  Ti  Ti6  1  0.05979816  0.77418576  0.31523855  1
  Ti  Ti7  1  0.06502114  0.68843465  0.54589957  1
  Ti  Ti8  1  0.05538283  0.67540701  0.89660519  1
  Ti  Ti9  1  0.40985434  0.11114946  0.20592556  1
  Ti  Ti10  1  0.34717557  0.10313995  0.59159695  1
  Ti  Ti11  1  0.44038631  0.11864287  0.77329863  1
  Ti  Ti12  1  0.35608770  0.42202860  0.27223717  1
  Ti  Ti13  1  0.48753789  0.41734588  0.56938365  1
  Ti  Ti14  1  0.45434567  0.39069092  0.92295470  1
  Ti  Ti15  1  0.40101527  0.60374278  0.27511414  1
  Ti  Ti16  1  0.43273151  0.78184846  0.54599148  1
  Ti  Ti17  1  0.35083788  0.69088422  0.90696407  1
  Ti  Ti18  1  0.81843880  0.02194077  0.31607260  1
  Ti  Ti19  1  0.81726854  0.03539747  0.58591402  1
  Ti  Ti20  1  0.72967795  0.09075149  0.92152423  1
  Ti  Ti21  1  0.78063306  0.30391330  0.24792550  1
  Ti  Ti22  1  0.76702712  0.43567162  0.53902926  1
  Ti  Ti23  1  0.77257176  0.41435340  0.93516099  1
  Ti  Ti24  1  0.68415500  0.70765948  0.24603899  1
  Ti  Ti25  1  0.72327478  0.75169692  0.63853195  1
  Ti  Ti26  1  0.75322874  0.84286021  0.89150604  1
  Ti  Ti27  1  0.06336132  0.35677038  0.07436871  1
  Ti  Ti28  1  0.04507835  0.27626037  0.38649373  1
  Ti  Ti29  1  0.06920409  0.24065650  0.69538726  1
  Ti  Ti30  1  0.07794097  0.68926113  0.08847415  1
  Ti  Ti31  1  0.10091867  0.58476581  0.35875858  1
  Ti  Ti32  1  0.14175468  0.63054052  0.72369646  1
  Ti  Ti33  1  0.08604014  0.89750453  0.09646314  1
  Ti  Ti34  1  0.10294765  0.89795493  0.45194371  1
  Ti  Ti35  1  0.12698051  0.92263742  0.65121819  1
  Ti  Ti36  1  0.50385931  0.23302627  0.07836615  1
  Ti  Ti37  1  0.43133490  0.26093491  0.32477787  1
  Ti  Ti38  1  0.36301216  0.30560406  0.68769628  1
  Ti  Ti39  1  0.37594576  0.68042825  0.08912316  1
  Ti  Ti40  1  0.46893134  0.58198755  0.45114592  1
  Ti  Ti41  1  0.44201784  0.57003628  0.79317224  1
  Ti  Ti42  1  0.46912481  0.87630558  0.13133212  1
  Ti  Ti43  1  0.38408691  0.94649790  0.45119464  1
  Ti  Ti44  1  0.48012496  0.91847748  0.73221937  1
  Ti  Ti45  1  0.72813532  0.22112825  0.07145602  1
  Ti  Ti46  1  0.71339853  0.17183433  0.38085634  1
  Ti  Ti47  1  0.73040857  0.32248297  0.74482756  1
  Ti  Ti48  1  0.72949142  0.58134798  0.08913786  1
  Ti  Ti49  1  0.73728967  0.59382990  0.40657142  1
  Ti  Ti50  1  0.72349158  0.53457064  0.77760346  1
  Ti  Ti51  1  0.69677066  0.82563755  0.07956786  1
  Ti  Ti52  1  0.72656318  0.83057855  0.41525019  1
  Ti  Ti53  1  0.73852306  0.99970171  0.76082411  1
  Ti  Ti54  1  0.21154416  0.11773779  0.18944869  1
  Ti  Ti55  1  0.23771697  0.11818651  0.41354757  1
  Ti  Ti56  1  0.22735926  0.14718611  0.75397571  1
  Ti  Ti57  1  0.26985608  0.38902840  0.09386120  1
  Ti  Ti58  1  0.19944029  0.44402434  0.44009904  1
  Ti  Ti59  1  0.20089211  0.37401712  0.76928370  1
  Ti  Ti60  1  0.24573971  0.80813810  0.02075136  1
  Ti  Ti61  1  0.33763921  0.73460316  0.38993076  1
  Ti  Ti62  1  0.34906988  0.73338311  0.72157297  1
  Ti  Ti63  1  0.58709628  0.04946986  0.13358966  1
  Ti  Ti64  1  0.56665422  0.08657599  0.47915768  1
  Ti  Ti65  1  0.60960939  0.10657178  0.66543406  1
  Ti  Ti66  1  0.60214235  0.40743236  0.06510525  1
  Ti  Ti67  1  0.61745465  0.39783132  0.39927876  1
  Ti  Ti68  1  0.53584470  0.28960855  0.74883778  1
  Ti  Ti69  1  0.55620539  0.70979863  0.06180349  1
  Ti  Ti70  1  0.53966754  0.77343054  0.37156708  1
  Ti  Ti71  1  0.62410645  0.70261459  0.79300423  1
  Ti  Ti72  1  0.86934428  0.10138583  0.13738712  1
  Ti  Ti73  1  0.93436862  0.10602716  0.44142360  1
  Ti  Ti74  1  0.92461143  0.13814212  0.80336587  1
  Ti  Ti75  1  0.89121467  0.46461308  0.08898991  1
  Ti  Ti76  1  0.93542646  0.44434378  0.41019336  1
  Ti  Ti77  1  0.92512704  0.36028219  0.76640111  1
  Ti  Ti78  1  0.90841134  0.78273311  0.03352225  1
  Ti  Ti79  1  0.92237066  0.79086506  0.46402006  1
  Ti  Ti80  1  0.91939550  0.72297450  0.70972574  1
  Ti  Ti81  1  0.22890981  0.28826601  0.32743037  1
  Ti  Ti82  1  0.32526121  0.29242441  0.49698263  1
  Ti  Ti83  1  0.20142081  0.29389175  0.93503123  1
  Ti  Ti84  1  0.21695004  0.64351216  0.20972440  1
  Ti  Ti85  1  0.25191501  0.63191797  0.55248035  1
  Ti  Ti86  1  0.23329590  0.54491176  0.86824611  1
  Ti  Ti87  1  0.28339106  0.92593100  0.18051561  1
  Ti  Ti88  1  0.31590881  0.91741001  0.64916482  1
  Ti  Ti89  1  0.17956651  0.90826978  0.83901905  1
  Ti  Ti90  1  0.59153189  0.29553943  0.22858621  1
  Ti  Ti91  1  0.63974135  0.28954717  0.56824719  1
  Ti  Ti92  1  0.63213174  0.28232914  0.92461908  1
  Ti  Ti93  1  0.54339599  0.55455715  0.16986005  1
  Ti  Ti94  1  0.56640788  0.59949918  0.63824425  1
  Ti  Ti95  1  0.60700412  0.54771347  0.93641633  1
  Ti  Ti96  1  0.63681995  0.98546092  0.32349516  1
  Ti  Ti97  1  0.64803104  0.92570588  0.59688287  1
  Ti  Ti98  1  0.55595009  0.85909203  0.91739763  1
  Ti  Ti99  1  1.02204931  0.21321602  0.18611774  1
  Ti  Ti100  1  0.85631665  0.26191790  0.58819403  1
  Ti  Ti101  1  0.97981761  0.23481709  0.96783912  1
  Ti  Ti102  1  0.94602553  0.62755615  0.23127580  1
  Ti  Ti103  1  0.88826643  0.57980165  0.56242771  1
  Ti  Ti104  1  0.91449352  0.55294642  0.83541493  1
  Ti  Ti105  1  0.83202640  0.86605296  0.21044360  1
  Ti  Ti106  1  0.93764120  0.95007071  0.70169852  1
  Ti  Ti107  1  0.95430457  0.86720475  0.87586134  1
  Co  Co108  1  0.47547336  0.00626396  0.59318441  1
  Co  Co109  1  0.10309795  0.17601844  0.86040706  1
  Co  Co110  1  0.87412540  0.11605889  -0.01703552  1
  Co  Co111  1  0.28330217  0.57642850  0.38656012  1
  Co  Co112  1  0.81321785  0.84871563  0.74378412  1
  Co  Co113  1  0.77581758  0.30317220  0.44375778  1
  Co  Co114  1  0.62000341  0.52604171  0.50334073  1
  Co  Co115  1  0.83552203  0.46563726  0.68710028  1
  Co  Co116  1  0.81014114  0.93294183  0.01624719  1
  Co  Co117  1  0.12596836  0.19072012  0.03614051  1
  Co  Co118  1  0.79010198  0.68674794  0.80874306  1
  Co  Co119  1  0.34379798  0.42681106  0.81764442  1
  Co  Co120  1  0.34186239  0.49475596  0.52890893  1
  Co  Co121  1  0.21900384  0.48977580  0.25761517  1
  Co  Co122  1  -0.01211169  0.56582925  0.68262071  1
  Co  Co123  1  0.82390088  -0.13116793  0.57512051  1
  Co  Co124  1  0.41648324  0.81971932  -0.01117386  1
  Co  Co125  1  -0.02596552  0.80366686  0.18853889  1
  Co  Co126  1  -0.05418579  -0.03137671  0.07203555  1
  Co  Co127  1  0.48622308  0.44008727  0.72948937  1
  Co  Co128  1  0.96108575  -0.03457817  0.52224682  1
  Co  Co129  1  0.51458076  0.44706483  0.28953097  1
  Co  Co130  1  0.72791160  -0.00313223  0.45779248  1
  Co  Co131  1  0.47851711  0.21867414  0.90583820  1
  Co  Co132  1  -0.05573842  0.11789214  0.64168333  1
  Co  Co133  1  0.28879948  0.54249055  0.70394273  1
  Co  Co134  1  0.79376540  0.70652629  0.50053958  1
  Co  Co135  1  -0.06811627  0.38827207  -0.06100464  1
  Co  Co136  1  0.61438576  0.70511122  0.50057633  1
  Co  Co137  1  0.06102487  0.33483773  0.84539341  1
  Co  Co138  1  0.41955075  0.40891482  0.41967407  1
  Co  Co139  1  0.33818363  0.25799076  0.83825919  1
  Co  Co140  1  0.58068814  0.11889053  -0.01558507  1
  Co  Co141  1  0.16529024  0.80605454  0.20080410  1
  Co  Co142  1  0.14282968  0.31819331  0.51633107  1
  Co  Co143  1  0.84042965  0.73057372  0.31697424  1
  Co  Co144  1  0.65110690  -0.03194435  -0.00316823  1
  Co  Co145  1  0.58545247  0.59889724  0.33661098  1
  Co  Co146  1  -0.05654489  0.40120448  0.57263606  1
  Co  Co147  1  0.08874631  0.82378066  -0.05018605  1
  Co  Co148  1  0.72958580  0.58947147  0.61585504  1
  Co  Co149  1  0.79032397  0.57764772  -0.06135290  1
  Co  Co150  1  0.32296396  0.77015916  0.20743678  1
  Co  Co151  1  -0.06064348  0.61436812  0.02457543  1
  Co  Co152  1  0.07568741  0.06232748  0.11444052  1
  Co  Co153  1  0.21334563  0.64820863  -0.00104518  1
  Co  Co154  1  0.89076222  0.29221367  0.10372274  1
  Co  Co155  1  0.07538750  0.49859525  0.80336465  1
  Co  Co156  1  0.34278138  0.53002221  0.13624510  1
  Co  Co157  1  0.58177345  0.00167302  0.83358859  1
  Co  Co158  1  0.74715769  0.38417811  0.10896131  1
  Co  Co159  1  0.82712897  0.70143909  0.14803381  1
  Co  Co160  1  0.20620341  0.74152866  0.84750688  1
  Co  Co161  1  0.61119230  0.41940192  0.83679262  1
  Ni  Ni162  1  0.54698234  0.77067684  0.65452165  1
  Ni  Ni163  1  0.32340614  0.01697570  0.31484193  1
  Ni  Ni164  1  0.17696474  0.27933688  0.17499103  1
  Ni  Ni165  1  0.72518705  0.15775648  0.54215344  1
  Ni  Ni166  1  0.18292303  0.52239107  0.09021325  1
  Ni  Ni167  1  0.00008469  0.82752018  0.60752631  1
  Ni  Ni168  1  0.48027292  0.19867490  0.60853937  1
  Ni  Ni169  1  0.78583116  0.43799152  0.35174431  1
  Ni  Ni170  1  0.48774486  -0.01365688  0.26932119  1
  Ni  Ni171  1  0.40575587  0.85979798  0.30370487  1
  Ni  Ni172  1  0.63934714  0.43995581  0.65812788  1
  Ni  Ni173  1  0.03561734  0.52809842  0.14005236  1
  Ni  Ni174  1  0.34100100  0.85463831  0.83747302  1
  Ni  Ni175  1  0.46217683  0.54528470  0.01381741  1
  Ni  Ni176  1  0.70474239  0.13902018  0.22021406  1
  Ni  Ni177  1  0.31510456  0.01076867  0.78079648  1
  Ni  Ni178  1  0.24718301  0.40135357  0.61007226  1
  Ni  Ni179  1  0.81459341  0.25156864  0.87517807  1
  Ni  Ni180  1  0.20080049  0.77683139  0.66864526  1
  Ni  Ni181  1  -0.06304065  -0.09616801  0.35048437  1
  Ni  Ni182  1  0.41390306  0.12406474  0.42229066  1
  Ni  Ni183  1  0.04723747  0.52820375  0.50694329  1
  Ni  Ni184  1  0.79495598  0.56992776  0.24811957  1
  Ni  Ni185  1  0.40882124  0.61984703  0.61539305  1
  Ni  Ni186  1  -0.06489622  0.34501869  0.26556713  1
  Ni  Ni187  1  0.06587131  0.79757111  0.76626447  1
  Ni  Ni188  1  0.51173015  0.26693510  0.46505900  1
  Ni  Ni189  1  0.36233586  0.27769695  0.00780354  1
  Ni  Ni190  1  0.55254250  0.90102630  0.47352160  1
  Ni  Ni191  1  0.86570253  -0.00368281  0.87225505  1
  Ni  Ni192  1  0.06932301  0.05700555  0.74815015  1
  Ni  Ni193  1  0.61049784  0.85907523  0.22298089  1
  Ni  Ni194  1  0.22371246  -0.01032936  0.52423099  1
  Ni  Ni195  1  -0.06073454  0.62505121  0.40670024  1
  Ni  Ni196  1  0.24095348  0.86122354  0.34697092  1
  Ni  Ni197  1  0.67043512  0.46026142  0.23470947  1
  Ni  Ni198  1  0.61174712  0.15668252  0.81816332  1
  Ni  Ni199  1  0.17580891  0.72115572  0.41972246  1
  Ni  Ni200  1  0.15613398  -0.02003408  0.28172960  1
  Ni  Ni201  1  0.34731418  0.26428017  0.17916454  1
  Ni  Ni202  1  0.89739382  0.17762187  0.29783054  1
  Ni  Ni203  1  0.20722545  0.18973512  0.58213400  1
  Ni  Ni204  1  0.09946280  0.13531666  0.32238000  1
  Ni  Ni205  1  0.78010992  0.16613859  0.71636179  1
  Ni  Ni206  1  0.68523484  0.70321732  -0.04624956  1
  Ni  Ni207  1  0.63734392  0.86437852  0.75721560  1
  Ni  Ni208  1  0.44825057  0.39721477  0.12432774  1
  Ni  Ni209  1  0.00910930  0.23232578  0.53866541  1
  Ni  Ni210  1  0.73635367  -0.00972535  0.15497383  1
  Ni  Ni211  1  0.55178190  0.14166482  0.30797661  1
  Ni  Ni212  1  0.51147955  0.68889308  0.90858082  1
  Ni  Ni213  1  0.25859474  0.82379739  0.51927375  1
  Ni  Ni214  1  0.49574174  0.72983380  0.21862324  1
