# generated using pymatgen
data_Ti108Co54Ni53
_symmetry_space_group_name_H-M   'P 1'
_cell_length_a   14.63188125
_cell_length_b   14.56977067
_cell_length_c   14.63167483
_cell_angle_alpha   90.12068222
_cell_angle_beta   90.43786173
_cell_angle_gamma   90.34123544
_symmetry_Int_Tables_number   1
_chemical_formula_structural   Ti108Co54Ni53
_chemical_formula_sum   'Ti108 Co54 Ni53'
_cell_volume   3119.07296869
_cell_formula_units_Z   1
loop_
 _symmetry_equiv_pos_site_id
 _symmetry_equiv_pos_as_xyz
  1  'x, y, z'
loop_
 _atom_site_type_symbol
 _atom_site_label
 _atom_site_symmetry_multiplicity
 _atom_site_fract_x
 _atom_site_fract_y
 _atom_site_fract_z
 _atom_site_occupancy
  Ti  Ti0  1  0.14575060  0.08868384  0.28545274  1
  Ti  Ti1  1  0.07293490  0.09353759  0.73478829  1
  Ti  Ti2  1  0.08536401  0.15942424  0.94494271  1
  Ti  Ti3  1  0.13452449  0.37135173  0.31078079  1
  Ti  Ti4  1  0.06206326  0.46235460  0.58724092  1
  Ti  Ti5  1  0.05033649  0.39516652  0.86861326  1
  Ti  Ti6  1  0.12607493  0.80891481  0.27222779  1
  Ti  Ti7  1  0.11278436  0.79489733  0.52173610  1
  Ti  Ti8  1  0.08320565  0.76836892  0.85635076  1
  Ti  Ti9  1  0.48936161  0.03539277  0.24745923  1
  Ti  Ti10  1  0.38989773  0.03979686  0.64840025  1
  Ti  Ti11  1  0.41544807  0.01963338  0.96544034  1
  Ti  Ti12  1  0.39289660  0.41261882  0.23484607  1
  Ti  Ti13  1  0.39028841  0.40557743  0.59830824  1
  Ti  Ti14  1  0.43186144  0.35508445  0.88366915  1
  Ti  Ti15  1  0.35778293  0.76657403  0.25532461  1
  Ti  Ti16  1  0.41827847  0.68133011  0.58254224  1
  Ti  Ti17  1  0.45892034  0.71307339  0.88679815  1
  Ti  Ti18  1  0.79317421  0.14691482  0.24535606  1
  Ti  Ti19  1  0.74323253  0.08375449  0.55814076  1
  Ti  Ti20  1  0.76941888  0.08635964  0.90767147  1
  Ti  Ti21  1  0.80949266  0.38881959  0.29056108  1
  Ti  Ti22  1  0.70392967  0.42513865  0.57973571  1
  Ti  Ti23  1  0.80774599  0.43958671  0.89473487  1
  Ti  Ti24  1  0.70553847  0.76165925  0.25026834  1
  Ti  Ti25  1  0.77910048  0.71325796  0.61852126  1
  Ti  Ti26  1  0.64475115  0.73751073  0.89643678  1
  Ti  Ti27  1  0.06490308  0.21701019  0.14836875  1
  Ti  Ti28  1  0.03471921  0.20414984  0.38548124  1
  Ti  Ti29  1  0.11634761  0.30613548  0.68375698  1
  Ti  Ti30  1  0.11207305  0.50904071  0.03760810  1
  Ti  Ti31  1  0.10599266  0.55796349  0.37573767  1
  Ti  Ti32  1  0.10260345  0.56686091  0.77048091  1
  Ti  Ti33  1  0.10841453  0.89091944  0.08770886  1
  Ti  Ti34  1  0.10243143  0.94764031  0.42231851  1
  Ti  Ti35  1  0.02496982  0.83615724  0.67600002  1
  Ti  Ti36  1  0.38432738  0.29330370  0.06529804  1
  Ti  Ti37  1  0.43456781  0.25756650  0.45979879  1
  Ti  Ti38  1  0.46112031  0.18050007  0.77853125  1
  Ti  Ti39  1  0.44760823  0.61640852  0.05030828  1
  Ti  Ti40  1  0.42307501  0.58771109  0.33567871  1
  Ti  Ti41  1  0.38699019  0.54197694  0.74451906  1
  Ti  Ti42  1  0.41550678  0.90590220  0.12276582  1
  Ti  Ti43  1  0.36619144  0.97438291  0.39628497  1
  Ti  Ti44  1  0.43118494  0.89337072  0.78941386  1
  Ti  Ti45  1  0.68318447  0.28633315  0.15255307  1
  Ti  Ti46  1  0.63349228  0.24565297  0.49044983  1
  Ti  Ti47  1  0.72117547  0.17325537  0.72831589  1
  Ti  Ti48  1  0.75491510  0.57972687  0.19381763  1
  Ti  Ti49  1  0.80463929  0.64635518  0.42301682  1
  Ti  Ti50  1  0.81218935  0.53330559  0.71039491  1
  Ti  Ti51  1  0.72341361  0.99429378  0.10674931  1
  Ti  Ti52  1  0.67969937  0.89611949  0.39645473  1
  Ti  Ti53  1  0.76888328  0.96856097  0.72241745  1
  Ti  Ti54  1  0.32109548  0.10376896  0.10767633  1
  Ti  Ti55  1  0.21096346  0.08732967  0.47581256  1
  Ti  Ti56  1  0.25418187  0.16354759  0.74014774  1
  Ti  Ti57  1  0.31196340  0.46202929  0.06588945  1
  Ti  Ti58  1  0.25300228  0.39828009  0.46653758  1
  Ti  Ti59  1  0.25465949  0.40208172  0.80810576  1
  Ti  Ti60  1  0.25483056  0.65894153  0.06856776  1
  Ti  Ti61  1  0.25770301  0.70020844  0.41922857  1
  Ti  Ti62  1  0.23990728  0.82270037  0.75074575  1
  Ti  Ti63  1  0.50427574  0.16217581  0.10428289  1
  Ti  Ti64  1  0.64032221  0.09570736  0.38084114  1
  Ti  Ti65  1  0.57422566  0.01067618  0.67852286  1
  Ti  Ti66  1  0.65679090  0.46931730  0.04408176  1
  Ti  Ti67  1  0.61780971  0.43091294  0.38068204  1
  Ti  Ti68  1  0.64345849  0.49183311  0.77297212  1
  Ti  Ti69  1  0.57445431  0.79777523  0.08258092  1
  Ti  Ti70  1  0.61429027  0.70372431  0.41518908  1
  Ti  Ti71  1  0.56404586  0.77965327  0.69758600  1
  Ti  Ti72  1  0.91827394  0.08757867  0.07280010  1
  Ti  Ti73  1  0.84866007  0.02102919  0.39647372  1
  Ti  Ti74  1  0.91454197  0.14751049  0.64350144  1
  Ti  Ti75  1  0.94302108  0.43923450  0.07402057  1
  Ti  Ti76  1  0.96473637  0.38455786  0.43071821  1
  Ti  Ti77  1  0.88835252  0.32740510  0.73297390  1
  Ti  Ti78  1  0.95456925  0.63469973  0.11297142  1
  Ti  Ti79  1  0.98045527  0.71569657  0.40352156  1
  Ti  Ti80  1  0.92549926  0.69148739  0.76818945  1
  Ti  Ti81  1  0.24759357  0.25464475  0.20400670  1
  Ti  Ti82  1  0.27313594  0.23745780  0.57280814  1
  Ti  Ti83  1  0.30448666  0.19502815  0.92078937  1
  Ti  Ti84  1  0.21031026  0.52486427  0.21092293  1
  Ti  Ti85  1  0.23038477  0.58353548  0.57257654  1
  Ti  Ti86  1  0.27389473  0.67713904  0.88830119  1
  Ti  Ti87  1  0.26442387  0.95879940  0.23418282  1
  Ti  Ti88  1  0.25827834  0.91867960  0.56879628  1
  Ti  Ti89  1  0.20297988  0.98699701  0.90044922  1
  Ti  Ti90  1  0.53927418  0.26861880  0.28944098  1
  Ti  Ti91  1  0.57407836  0.29786901  0.66056013  1
  Ti  Ti92  1  0.60671190  0.29085713  0.97562065  1
  Ti  Ti93  1  0.54486824  0.53376192  0.18601504  1
  Ti  Ti94  1  0.60645953  0.60966555  0.60660655  1
  Ti  Ti95  1  0.52684158  0.52752880  0.90040852  1
  Ti  Ti96  1  0.50973610  0.85544887  0.31989085  1
  Ti  Ti97  1  0.50938426  0.85512363  0.52192410  1
  Ti  Ti98  1  0.62359645  0.96677396  0.93617972  1
  Ti  Ti99  1  0.88671883  0.27695055  0.13590020  1
  Ti  Ti100  1  0.85812420  0.20276439  0.47256440  1
  Ti  Ti101  1  0.90099212  0.24452675  0.93318594  1
  Ti  Ti102  1  0.92574663  0.53600763  0.29404089  1
  Ti  Ti103  1  0.96075317  0.62730170  0.60376289  1
  Ti  Ti104  1  0.96402300  0.57153312  0.91549226  1
  Ti  Ti105  1  0.91025828  0.85487728  0.27263992  1
  Ti  Ti106  1  0.93692127  0.96882355  0.57649578  1
  Ti  Ti107  1  0.95661491  1.00357494  0.89183468  1
  Co  Co108  1  0.05660047  0.02268157  0.01839716  1
  Co  Co109  1  0.09724541  0.63597376  0.51564901  1
  Co  Co110  1  0.45491381  0.71945716  0.41046607  1
  Co  Co111  1  -0.06847764  -0.01179494  0.73454841  1
  Co  Co112  1  0.11727640  0.69650304  0.12593234  1
  Co  Co113  1  0.88666702  0.25420767  0.32534316  1
  Co  Co114  1  0.47378466  0.43681359  0.02848040  1
  Co  Co115  1  0.26417909  -0.04328628  0.04795583  1
  Co  Co116  1  0.68147743  0.57651931  0.91742091  1
  Co  Co117  1  0.19422419  0.80402201  -0.02484728  1
  Co  Co118  1  0.68657459  0.55463660  0.48072691  1
  Co  Co119  1  0.36537231  0.59649485  0.18679473  1
  Co  Co120  1  0.10605294  0.65575589  -0.03328917  1
  Co  Co121  1  0.20412209  0.23231853  0.04441028  1
  Co  Co122  1  0.91612351  0.77556303  0.54958882  1
  Co  Co123  1  -0.01209138  0.36274987  0.25007008  1
  Co  Co124  1  0.76501666  0.26448846  0.60079930  1
  Co  Co125  1  0.52302914  0.47501737  0.66836168  1
  Co  Co126  1  0.53181135  0.35431444  0.14950082  1
  Co  Co127  1  0.64128881  0.58358252  0.31460273  1
  Co  Co128  1  0.52483385  -0.00330352  0.44260067  1
  Co  Co129  1  0.54940508  0.11780839  0.55210668  1
  Co  Co130  1  0.85763782  0.83832532  0.68899519  1
  Co  Co131  1  0.38548941  0.72699711  0.74071512  1
  Co  Co132  1  0.61169626  0.89474569  0.20849680  1
  Co  Co133  1  -0.06192390  0.85243560  0.82771036  1
  Co  Co134  1  0.03804087  0.66821482  0.25988863  1
  Co  Co135  1  0.86661773  0.69244443  0.26178912  1
  Co  Co136  1  0.43716073  0.21506402  0.61639583  1
  Co  Co137  1  0.30862937  0.11324968  0.31605369  1
  Co  Co138  1  0.47263471  0.13111821  0.37440117  1
  Co  Co139  1  0.55133565  -0.01143836  0.08584304  1
  Co  Co140  1  0.37545173  0.10050525  0.50349589  1
  Co  Co141  1  0.10901942  0.69903696  0.68013184  1
  Co  Co142  1  0.66161671  0.43012514  0.22782376  1
  Co  Co143  1  0.00664278  0.07689584  0.47820648  1
  Co  Co144  1  0.52691283  0.62620928  0.75419127  1
  Co  Co145  1  0.05109992  0.51133194  0.19619666  1
  Co  Co146  1  0.87710759  0.13214393  0.79893203  1
  Co  Co147  1  0.75133846  0.25801932  0.87073358  1
  Co  Co148  1  0.69750581  0.25730822  0.32397501  1
  Co  Co149  1  0.40556532  0.20491568  0.22580469  1
  Co  Co150  1  0.79793705  0.43320326  0.13413489  1
  Co  Co151  1  0.34347982  0.04692900  0.82053224  1
  Co  Co152  1  0.38692304  0.76566111  0.04753374  1
  Co  Co153  1  0.39855125  0.85605854  0.63766494  1
  Co  Co154  1  0.80797856  0.80052892  0.39630976  1
  Co  Co155  1  0.26296449  0.74840992  0.60746936  1
  Co  Co156  1  -0.03396083  0.54727576  0.46509938  1
  Co  Co157  1  0.81695000  0.61343553  0.85586922  1
  Co  Co158  1  0.23527242  0.87064757  0.38217570  1
  Co  Co159  1  0.22341004  0.67369167  0.26184560  1
  Co  Co160  1  0.47028915  0.18593919  -0.05642965  1
  Co  Co161  1  0.77416583  0.33489642  0.01135709  1
  Ni  Ni162  1  0.35397983  0.81987744  0.47769956  1
  Ni  Ni163  1  0.87077820  -0.00206372  0.20324850  1
  Ni  Ni164  1  0.69265811  0.65866075  0.75569515  1
  Ni  Ni165  1  0.54103236  0.39482126  0.52281408  1
  Ni  Ni166  1  0.19676737  0.52658456  -0.09692332  1
  Ni  Ni167  1  -0.03779090  0.48221898  0.74520984  1
  Ni  Ni168  1  0.81755651  0.56130373  0.02181481  1
  Ni  Ni169  1  0.63556250  0.11504678  0.19386177  1
  Ni  Ni170  1  0.08484465  -0.06595635  0.79312361  1
  Ni  Ni171  1  0.10664156  -0.00564609  0.59584436  1
  Ni  Ni172  1  0.11278757  0.31929910  0.49687171  1
  Ni  Ni173  1  0.58691974  0.32867454  0.82038439  1
  Ni  Ni174  1  0.20173662  0.22988672  0.38896649  1
  Ni  Ni175  1  0.79721459  -0.10340562  0.53173885  1
  Ni  Ni176  1  0.26855008  0.52318391  0.36500238  1
  Ni  Ni177  1  0.77059769  0.33688150  0.44929212  1
  Ni  Ni178  1  0.10347129  0.17090546  0.57933424  1
  Ni  Ni179  1  0.66333030  0.79319897  0.54676626  1
  Ni  Ni180  1  0.52561605  0.55321825  0.46534769  1
  Ni  Ni181  1  0.49612965  0.86544912  -0.04942052  1
  Ni  Ni182  1  0.88736926  0.43414789  0.58428088  1
  Ni  Ni183  1  0.52134225  0.70338725  0.22082644  1
  Ni  Ni184  1  0.62959109  0.11914242  0.01469595  1
  Ni  Ni185  1  0.13677695  0.37349449  0.13662240  1
  Ni  Ni186  1  -0.00637519  0.00433262  0.31943361  1
  Ni  Ni187  1  0.00757852  0.23445575  0.79875280  1
  Ni  Ni188  1  0.61539099  0.15778635  0.85396637  1
  Ni  Ni189  1  0.16289989  0.26243218  0.84464285  1
  Ni  Ni190  1  0.22175379  -0.00412963  0.71886625  1
  Ni  Ni191  1  0.04479333  0.31417912  0.01110076  1
  Ni  Ni192  1  0.77569361  0.17326685  0.05389657  1
  Ni  Ni193  1  -0.02421453  0.29100908  0.58291701  1
  Ni  Ni194  1  0.51299648  0.03082900  0.82748013  1
  Ni  Ni195  1  0.73206726  0.35851699  0.73940607  1
  Ni  Ni196  1  0.22049850  0.36941833  -0.03263420  1
  Ni  Ni197  1  0.61315091  0.63746372  0.05106944  1
  Ni  Ni198  1  -0.04030517  0.13549591  0.23716765  1
  Ni  Ni199  1  -0.05122191  0.88518234  0.43389509  1
  Ni  Ni200  1  0.16323177  0.07958942  0.12112838  1
  Ni  Ni201  1  0.35679740  0.30427403  0.72680259  1
  Ni  Ni202  1  0.24978781  0.81378843  0.13732692  1
  Ni  Ni203  1  0.24902420  0.63316361  0.73040966  1
  Ni  Ni204  1  0.63140246  0.89016969  0.79573673  1
  Ni  Ni205  1  -0.01172276  0.79253672  0.14935000  1
  Ni  Ni206  1  0.42869536  0.42327826  0.40140434  1
  Ni  Ni207  1  0.72553213  -0.00745141  0.27506435  1
  Ni  Ni208  1  0.36039646  0.51501610  0.91857811  1
  Ni  Ni209  1  0.64737173  -0.04232410  0.54828754  1
  Ni  Ni210  1  0.33154936  0.86077763  0.91953981  1
  Ni  Ni211  1  0.22047290  0.44596375  0.65586919  1
  Ni  Ni212  1  0.36732717  0.54741994  0.49509891  1
  Ni  Ni213  1  0.33202435  0.30425105  0.34015983  1
  Ni  Ni214  1  0.82217849  0.48441325  0.43262892  1
