# generated using pymatgen
data_Ti108Co54Ni53
_symmetry_space_group_name_H-M   'P 1'
_cell_length_a   14.64485392
_cell_length_b   14.58818791
_cell_length_c   14.60786455
_cell_angle_alpha   89.93956337
_cell_angle_beta   90.07830548
_cell_angle_gamma   90.24502374
_symmetry_Int_Tables_number   1
_chemical_formula_structural   Ti108Co54Ni53
_chemical_formula_sum   'Ti108 Co54 Ni53'
_cell_volume   3120.81848889
_cell_formula_units_Z   1
loop_
 _symmetry_equiv_pos_site_id
 _symmetry_equiv_pos_as_xyz
  1  'x, y, z'
loop_
 _atom_site_type_symbol
 _atom_site_label
 _atom_site_symmetry_multiplicity
 _atom_site_fract_x
 _atom_site_fract_y
 _atom_site_fract_z
 _atom_site_occupancy
  Ti  Ti0  1  0.04813919  0.07766716  0.27859688  1
  Ti  Ti1  1  0.06540114  0.10930038  0.64142268  1
  Ti  Ti2  1  0.10041476  0.10233745  0.85184389  1
  Ti  Ti3  1  0.18112372  0.39611041  0.23698316  1
  Ti  Ti4  1  0.09537885  0.33862534  0.55178431  1
  Ti  Ti5  1  0.10100891  0.43376433  0.93999441  1
  Ti  Ti6  1  0.13105876  0.67726513  0.22517556  1
  Ti  Ti7  1  0.11929089  0.77269678  0.56271747  1
  Ti  Ti8  1  0.06458646  0.77520462  0.90152032  1
  Ti  Ti9  1  0.47099408  0.00409060  0.17612158  1
  Ti  Ti10  1  0.46822428  0.14120517  0.57192796  1
  Ti  Ti11  1  0.42594429  0.06083607  0.84333254  1
  Ti  Ti12  1  0.47935244  0.40228728  0.20074316  1
  Ti  Ti13  1  0.38025518  0.40103074  0.53786670  1
  Ti  Ti14  1  0.40080549  0.37663472  0.87427952  1
  Ti  Ti15  1  0.41924432  0.80290950  0.22356230  1
  Ti  Ti16  1  0.45061466  0.64048989  0.58743919  1
  Ti  Ti17  1  0.40661129  0.76444266  0.94497492  1
  Ti  Ti18  1  0.82688967  0.09741671  0.26466142  1
  Ti  Ti19  1  0.72482787  0.11273094  0.61834424  1
  Ti  Ti20  1  0.76463045  0.13332681  0.95133255  1
  Ti  Ti21  1  0.75912581  0.43629440  0.29795234  1
  Ti  Ti22  1  0.77065215  0.44773795  0.61569100  1
  Ti  Ti23  1  0.73713542  0.41753006  0.92706257  1
  Ti  Ti24  1  0.77480385  0.70510670  0.26031835  1
  Ti  Ti25  1  0.72733634  0.79719304  0.56134152  1
  Ti  Ti26  1  0.75803639  0.78189122  0.93062250  1
  Ti  Ti27  1  0.13221310  0.27789523  0.08689254  1
  Ti  Ti28  1  0.08093380  0.25582964  0.36673016  1
  Ti  Ti29  1  0.02526569  0.32067977  0.79988712  1
  Ti  Ti30  1  0.03139194  0.60226425  0.06011366  1
  Ti  Ti31  1  0.03917194  0.61963888  0.40169886  1
  Ti  Ti32  1  0.11678152  0.65109546  0.72301389  1
  Ti  Ti33  1  0.12993610  0.91972923  0.10632841  1
  Ti  Ti34  1  0.03090832  0.82853111  0.34428788  1
  Ti  Ti35  1  0.09001107  0.92207407  0.75419815  1
  Ti  Ti36  1  0.35634013  0.14991836  0.05657916  1
  Ti  Ti37  1  0.54194390  0.25849893  0.42801684  1
  Ti  Ti38  1  0.41018166  0.23240183  0.72706748  1
  Ti  Ti39  1  0.41362426  0.57822879  0.15878025  1
  Ti  Ti40  1  0.35193212  0.63520753  0.44070119  1
  Ti  Ti41  1  0.45839808  0.66761905  0.77916741  1
  Ti  Ti42  1  0.37177307  0.97823072  0.00682872  1
  Ti  Ti43  1  0.36952996  0.85074166  0.41483266  1
  Ti  Ti44  1  0.45785540  0.89289763  0.78924382  1
  Ti  Ti45  1  0.69180624  0.23254267  0.17231011  1
  Ti  Ti46  1  0.74820006  0.25693628  0.36730385  1
  Ti  Ti47  1  0.83942329  0.25657410  0.72496476  1
  Ti  Ti48  1  0.74001181  0.57860768  0.10687374  1
  Ti  Ti49  1  0.70878109  0.57638882  0.43384932  1
  Ti  Ti50  1  0.74168269  0.62840975  0.73423894  1
  Ti  Ti51  1  0.74730603  0.91849558  0.19930810  1
  Ti  Ti52  1  0.81465870  0.88359539  0.39867176  1
  Ti  Ti53  1  0.81433757  0.84609603  0.75011834  1
  Ti  Ti54  1  0.19434160  0.09623707  0.14857876  1
  Ti  Ti55  1  0.25945384  0.10425198  0.37742823  1
  Ti  Ti56  1  0.26050484  0.10819670  0.73713729  1
  Ti  Ti57  1  0.28015865  0.44370011  0.08084376  1
  Ti  Ti58  1  0.25077026  0.32827320  0.40152289  1
  Ti  Ti59  1  0.19495685  0.41743171  0.74336051  1
  Ti  Ti60  1  0.19668937  0.72450978  0.04962240  1
  Ti  Ti61  1  0.20796995  0.75392390  0.39311173  1
  Ti  Ti62  1  0.23918074  0.66692232  0.85937053  1
  Ti  Ti63  1  0.59637926  0.09797046  0.07036209  1
  Ti  Ti64  1  0.57642664  0.05646381  0.42815776  1
  Ti  Ti65  1  0.58668666  0.04310616  0.73931799  1
  Ti  Ti66  1  0.61874173  0.39161820  0.06919302  1
  Ti  Ti67  1  0.51297917  0.45807997  0.39536105  1
  Ti  Ti68  1  0.54181291  0.38678215  0.72607400  1
  Ti  Ti69  1  0.55134352  0.72304687  0.08480764  1
  Ti  Ti70  1  0.52534713  0.77835458  0.49019508  1
  Ti  Ti71  1  0.61370663  0.80201844  0.72864886  1
  Ti  Ti72  1  0.92523214  0.16694067  0.08029887  1
  Ti  Ti73  1  0.87945219  0.07738720  0.45330121  1
  Ti  Ti74  1  0.80533159  0.03959217  0.77319272  1
  Ti  Ti75  1  0.95656461  0.37512472  0.05961986  1
  Ti  Ti76  1  0.95146627  0.41310123  0.37723876  1
  Ti  Ti77  1  0.95527346  0.43957039  0.65511375  1
  Ti  Ti78  1  0.89031510  0.74673404  0.09912266  1
  Ti  Ti79  1  0.86660344  0.70532107  0.44248377  1
  Ti  Ti80  1  0.92498683  0.68700300  0.79123298  1
  Ti  Ti81  1  0.32740939  0.28053038  0.18735745  1
  Ti  Ti82  1  0.25745490  0.26963679  0.61794629  1
  Ti  Ti83  1  0.20712047  0.27270370  0.87118028  1
  Ti  Ti84  1  0.23204937  0.54585313  0.33953665  1
  Ti  Ti85  1  0.27970479  0.56047827  0.62990391  1
  Ti  Ti86  1  0.37464844  0.57409838  0.96563072  1
  Ti  Ti87  1  0.29413049  0.95997000  0.23504423  1
  Ti  Ti88  1  0.31626354  0.88700640  0.62795641  1
  Ti  Ti89  1  0.23599259  0.87862172  0.92069309  1
  Ti  Ti90  1  0.51098855  0.18602164  0.24434725  1
  Ti  Ti91  1  0.67432980  0.28895335  0.56410521  1
  Ti  Ti92  1  0.56838017  0.23760401  0.84694260  1
  Ti  Ti93  1  0.58907918  0.61925520  0.26785699  1
  Ti  Ti94  1  0.60741106  0.51900136  0.59877346  1
  Ti  Ti95  1  0.56712226  0.55438164  0.91098081  1
  Ti  Ti96  1  0.57277857  0.89692122  0.31498884  1
  Ti  Ti97  1  0.52282567  0.93957425  0.59290731  1
  Ti  Ti98  1  0.55792387  0.90838357  0.95733295  1
  Ti  Ti99  1  0.87261118  0.29472585  0.21669480  1
  Ti  Ti100  1  0.86958015  0.25828620  0.53314653  1
  Ti  Ti101  1  0.88109394  0.29518361  0.90938811  1
  Ti  Ti102  1  0.91222506  0.51578597  0.19140684  1
  Ti  Ti103  1  0.97195678  0.63433756  0.59702593  1
  Ti  Ti104  1  0.92555256  0.50502567  0.87665949  1
  Ti  Ti105  1  0.94433752  0.96819455  0.15352049  1
  Ti  Ti106  1  0.89417609  0.93365435  0.60487666  1
  Ti  Ti107  1  0.93831440  1.01959804  0.94601358  1
  Co  Co108  1  0.83896795  0.89755102  0.05625449  1
  Co  Co109  1  0.35333833  0.70567285  0.09170792  1
  Co  Co110  1  0.00540207  0.79377053  0.69460111  1
  Co  Co111  1  0.77968932  0.41501700  0.12916479  1
  Co  Co112  1  0.76828102  0.62476587  0.57630304  1
  Co  Co113  1  0.03043227  0.21202562  0.19632918  1
  Co  Co114  1  0.25910429  0.44240322  0.90753021  1
  Co  Co115  1  -0.00962929  0.26220804  0.65025455  1
  Co  Co116  1  0.16701838  0.62301654  0.51005756  1
  Co  Co117  1  0.57546060  0.39316194  0.90256733  1
  Co  Co118  1  0.11955456  0.51180922  0.63416606  1
  Co  Co119  1  0.86838500  0.51183696  0.02717543  1
  Co  Co120  1  0.19531301  0.16085878  -0.00950757  1
  Co  Co121  1  0.86262162  0.74633948  0.63116848  1
  Co  Co122  1  0.10340038  0.46332833  0.10365272  1
  Co  Co123  1  0.30793872  0.69216734  0.27567224  1
  Co  Co124  1  0.43315681  0.13209253  0.38868384  1
  Co  Co125  1  0.29589474  0.74465178  0.54613071  1
  Co  Co126  1  0.90273069  0.11713773  0.63419312  1
  Co  Co127  1  0.33968789  0.43782921  0.27319670  1
  Co  Co128  1  0.31283016  0.69184330  0.69997396  1
  Co  Co129  1  0.70147873  -0.05856089  0.66358013  1
  Co  Co130  1  0.25828573  -0.04534409  0.77213079  1
  Co  Co131  1  0.42546133  -0.01666563  0.33395267  1
  Co  Co132  1  0.69399933  0.33229513  0.72922671  1
  Co  Co133  1  0.13936867  0.23560110  0.72057885  1
  Co  Co134  1  -0.03740673  0.81234595  0.51458150  1
  Co  Co135  1  0.48213565  0.72682328  0.34317074  1
  Co  Co136  1  0.72112726  0.00766333  0.35767796  1
  Co  Co137  1  0.26019467  0.04978825  -0.09616648  1
  Co  Co138  1  0.66696116  0.48636834  0.78020907  1
  Co  Co139  1  0.40271710  0.03572062  0.68141311  1
  Co  Co140  1  -0.06155669  -0.03188955  0.33206376  1
  Co  Co141  1  0.71237304  0.14247268  0.45972750  1
  Co  Co142  1  0.53450590  0.37724769  0.55584103  1
  Co  Co143  1  0.65820143  0.91590705  0.83082352  1
  Co  Co144  1  0.44792927  0.85184667  0.07483751  1
  Co  Co145  1  0.79003087  0.07331790  0.10950702  1
  Co  Co146  1  0.00764041  0.18428719  0.50197838  1
  Co  Co147  1  0.18374306  0.79778177  0.72281644  1
  Co  Co148  1  0.19701320  0.21070360  0.25904356  1
  Co  Co149  1  0.34841275  0.38548845  0.70554337  1
  Co  Co150  1  0.11167317  0.42955485  0.38192441  1
  Co  Co151  1  0.05704168  0.07483760  0.05989105  1
  Co  Co152  1  -0.04012418  0.01019774  0.75236109  1
  Co  Co153  1  0.62051018  0.77208829  0.23236202  1
  Co  Co154  1  0.44998819  0.79172910  0.65138982  1
  Co  Co155  1  0.72217840  0.77860826  0.10104971  1
  Co  Co156  1  0.06634025  0.61651836  0.89719294  1
  Co  Co157  1  0.54958065  0.61536470  0.44556184  1
  Co  Co158  1  0.55891529  0.55550475  0.08546220  1
  Co  Co159  1  0.75461668  -0.01140445  0.52077804  1
  Co  Co160  1  0.24093322  0.58119560  0.15672294  1
  Co  Co161  1  0.63482797  0.24674759  -0.00696507  1
  Ni  Ni162  1  0.69641331  -0.03250285  0.02110608  1
  Ni  Ni163  1  0.63774538  0.89907944  0.46498782  1
  Ni  Ni164  1  0.15170531  -0.04243319  0.32007747  1
  Ni  Ni165  1  0.03675602  0.49350551  0.50725651  1
  Ni  Ni166  1  0.79960048  -0.05780465  0.90307672  1
  Ni  Ni167  1  0.59446471  -0.10140546  0.13195051  1
  Ni  Ni168  1  0.82395181  0.42474235  0.77594870  1
  Ni  Ni169  1  0.57936698  0.21256236  0.67692882  1
  Ni  Ni170  1  0.01916110  0.37674798  0.22261840  1
  Ni  Ni171  1  -0.04201943  0.67451867  0.25291923  1
  Ni  Ni172  1  0.66726283  0.65985453  -0.01007825  1
  Ni  Ni173  1  0.39227225  0.00288774  0.50063020  1
  Ni  Ni174  1  0.77379120  0.58375719  0.89277870  1
  Ni  Ni175  1  0.86296399  0.56656232  0.34168973  1
  Ni  Ni176  1  0.48942789  0.26896955  0.09153314  1
  Ni  Ni177  1  0.45487230  0.43322924  0.02829193  1
  Ni  Ni178  1  0.19972759  0.82466897  0.23630928  1
  Ni  Ni179  1  0.05180410  0.50298500  0.77834394  1
  Ni  Ni180  1  0.30973465  0.30374041  0.00706258  1
  Ni  Ni181  1  0.89001120  0.82935694  0.25206862  1
  Ni  Ni182  1  0.43167134  0.57238728  0.31624235  1
  Ni  Ni183  1  0.60793344  0.32923316  0.28936991  1
  Ni  Ni184  1  0.17340328  0.18579393  0.49933558  1
  Ni  Ni185  1  0.34494048  0.22067928  0.48599068  1
  Ni  Ni186  1  0.70540350  0.17367077  0.78729668  1
  Ni  Ni187  1  0.44659128  0.50743851  0.67591157  1
  Ni  Ni188  1  0.06560253  0.53211050  0.25542721  1
  Ni  Ni189  1  -0.06316587  0.15566751  0.83082553  1
  Ni  Ni190  1  0.61051691  0.68447820  0.61200417  1
  Ni  Ni191  1  0.63827527  0.06051955  0.22633871  1
  Ni  Ni192  1  0.03875822  0.22880778  -0.04781968  1
  Ni  Ni193  1  0.92215934  0.21364618  0.35469775  1
  Ni  Ni194  1  0.57155026  0.74956357  0.88515771  1
  Ni  Ni195  1  0.88050088  0.53495038  0.50186439  1
  Ni  Ni196  1  0.40449795  0.29645617  0.34177967  1
  Ni  Ni197  1  -0.09218674  0.66477446  -0.04450449  1
  Ni  Ni198  1  0.21964331  0.46082736  0.50722620  1
  Ni  Ni199  1  0.63256378  0.47478561  0.21253454  1
  Ni  Ni200  1  0.08942729  0.95229187  -0.06201435  1
  Ni  Ni201  1  0.35390528  0.12119193  0.23887706  1
  Ni  Ni202  1  0.61884614  0.06924343  0.90040234  1
  Ni  Ni203  1  0.19427898  0.56737735  -0.00363186  1
  Ni  Ni204  1  0.34952002  0.19936194  0.88382581  1
  Ni  Ni205  1  0.32648175  0.80762324  0.80219748  1
  Ni  Ni206  1  0.67075467  0.74286565  0.39063113  1
  Ni  Ni207  1  0.28877247  0.85889882  0.09348864  1
  Ni  Ni208  1  0.65827770  0.40378257  0.44118173  1
  Ni  Ni209  1  -0.05688624  0.87214461  0.85494620  1
  Ni  Ni210  1  0.33909678  0.53572812  0.79676784  1
  Ni  Ni211  1  0.03556767  0.80072593  0.16767932  1
  Ni  Ni212  1  0.79004328  0.27547169  0.04787171  1
  Ni  Ni213  1  0.81419733  0.39318569  0.46183102  1
  Ni  Ni214  1  0.49027871  0.15696316  -0.03531184  1
