# generated using pymatgen
data_Ti108Co54Ni53
_symmetry_space_group_name_H-M   'P 1'
_cell_length_a   14.65331692
_cell_length_b   14.56059948
_cell_length_c   14.65615435
_cell_angle_alpha   90.31904400
_cell_angle_beta   90.07810615
_cell_angle_gamma   89.72712397
_symmetry_Int_Tables_number   1
_chemical_formula_structural   Ti108Co54Ni53
_chemical_formula_sum   'Ti108 Co54 Ni53'
_cell_volume   3126.96616582
_cell_formula_units_Z   1
loop_
 _symmetry_equiv_pos_site_id
 _symmetry_equiv_pos_as_xyz
  1  'x, y, z'
loop_
 _atom_site_type_symbol
 _atom_site_label
 _atom_site_symmetry_multiplicity
 _atom_site_fract_x
 _atom_site_fract_y
 _atom_site_fract_z
 _atom_site_occupancy
  Ti  Ti0  1  0.13886689  -0.03556799  0.17685293  1
  Ti  Ti1  1  0.14997078  0.07275059  0.58003370  1
  Ti  Ti2  1  0.06452555  0.04410840  0.98539148  1
  Ti  Ti3  1  -0.03174909  0.45730498  0.27376882  1
  Ti  Ti4  1  0.11948538  0.37159222  0.66945762  1
  Ti  Ti5  1  0.20258649  0.43787997  0.98699915  1
  Ti  Ti6  1  0.10487009  0.73623345  0.16831078  1
  Ti  Ti7  1  0.07348942  0.71967193  0.57030378  1
  Ti  Ti8  1  -0.00110680  0.70651028  0.88167358  1
  Ti  Ti9  1  0.39387230  0.09079764  0.27060732  1
  Ti  Ti10  1  0.45823532  0.07787199  0.60342376  1
  Ti  Ti11  1  0.49037801  0.17622966  0.91448937  1
  Ti  Ti12  1  0.49788246  0.42373819  0.22873203  1
  Ti  Ti13  1  0.37282603  0.43170357  0.49674634  1
  Ti  Ti14  1  0.39583220  0.42627135  0.98115629  1
  Ti  Ti15  1  0.37905440  0.74436138  0.29763178  1
  Ti  Ti16  1  0.42057609  0.74923237  0.62667110  1
  Ti  Ti17  1  0.45700101  0.72821977  0.98133072  1
  Ti  Ti18  1  0.76491699  0.00819642  0.25577758  1
  Ti  Ti19  1  0.81279879  0.09011586  0.59474395  1
  Ti  Ti20  1  0.76579062  0.04204293  0.93914512  1
  Ti  Ti21  1  0.72835948  0.46553852  0.24203334  1
  Ti  Ti22  1  0.73805059  0.34990800  0.54066543  1
  Ti  Ti23  1  0.79527587  0.36743120  0.80929789  1
  Ti  Ti24  1  0.74880068  0.67971025  0.26157104  1
  Ti  Ti25  1  0.73881507  0.76339389  0.62530054  1
  Ti  Ti26  1  0.69291943  0.75114774  0.96084649  1
  Ti  Ti27  1  0.12940221  0.22818965  0.05444274  1
  Ti  Ti28  1  0.15399554  0.27483665  0.49217590  1
  Ti  Ti29  1  0.09765998  0.32272344  0.87544232  1
  Ti  Ti30  1  0.12061678  0.63074300  0.00068970  1
  Ti  Ti31  1  0.06486529  0.55580996  0.43398665  1
  Ti  Ti32  1  0.09885528  0.51337214  0.81414584  1
  Ti  Ti33  1  0.06209125  0.84312394  0.00999918  1
  Ti  Ti34  1  0.10307400  0.89785555  0.44185720  1
  Ti  Ti35  1  0.07180672  1.03038946  0.75855913  1
  Ti  Ti36  1  0.39643666  0.19928694  0.08187940  1
  Ti  Ti37  1  0.34443146  0.24653237  0.40031392  1
  Ti  Ti38  1  0.42154794  0.24471481  0.73457828  1
  Ti  Ti39  1  0.43599524  0.58059056  0.11676975  1
  Ti  Ti40  1  0.39315820  0.61726113  0.44728657  1
  Ti  Ti41  1  0.44617332  0.55421364  0.76898255  1
  Ti  Ti42  1  0.37484441  0.90335861  0.06396637  1
  Ti  Ti43  1  0.46696206  0.90775469  0.38222539  1
  Ti  Ti44  1  0.40281445  0.91780560  0.79600173  1
  Ti  Ti45  1  0.75293008  0.20495285  0.05444681  1
  Ti  Ti46  1  0.70109686  0.21809504  0.38413806  1
  Ti  Ti47  1  0.75096230  0.16787559  0.75848755  1
  Ti  Ti48  1  0.74477357  0.58993546  0.05020041  1
  Ti  Ti49  1  0.74866431  0.58212602  0.51280204  1
  Ti  Ti50  1  0.69296723  0.60402971  0.70111966  1
  Ti  Ti51  1  0.69424901  0.91888556  0.07628266  1
  Ti  Ti52  1  0.79802356  0.94608346  0.43119624  1
  Ti  Ti53  1  0.75232351  0.93560919  0.73373142  1
  Ti  Ti54  1  0.26128807  0.07982302  0.05509734  1
  Ti  Ti55  1  0.20816001  0.10336791  0.37383871  1
  Ti  Ti56  1  0.20639715  0.18528581  0.75989037  1
  Ti  Ti57  1  0.11722831  0.42272883  0.14896377  1
  Ti  Ti58  1  0.16739137  0.40498625  0.34259009  1
  Ti  Ti59  1  0.30328744  0.45556710  0.68627934  1
  Ti  Ti60  1  0.27312356  0.73285674  0.06606279  1
  Ti  Ti61  1  0.20680684  0.71844230  0.41693705  1
  Ti  Ti62  1  0.25551220  0.80133259  0.74824800  1
  Ti  Ti63  1  0.49457421  0.04504709  0.09613651  1
  Ti  Ti64  1  0.54164935  0.08349305  0.42661600  1
  Ti  Ti65  1  0.59892312  0.02949620  0.80833993  1
  Ti  Ti66  1  0.59229857  0.44271529  0.02314284  1
  Ti  Ti67  1  0.55396248  0.34995085  0.46952448  1
  Ti  Ti68  1  0.58385181  0.44775672  0.68520847  1
  Ti  Ti69  1  0.60156775  0.72346266  0.12848016  1
  Ti  Ti70  1  0.63237071  0.74561904  0.42325147  1
  Ti  Ti71  1  0.58212487  0.80429639  0.75267672  1
  Ti  Ti72  1  0.96796111  0.05546771  0.15330217  1
  Ti  Ti73  1  0.96125085  0.04791687  0.46694194  1
  Ti  Ti74  1  0.91232305  0.05837491  0.84223386  1
  Ti  Ti75  1  0.90566385  0.43789365  0.07086102  1
  Ti  Ti76  1  0.88418902  0.43885442  0.45644360  1
  Ti  Ti77  1  0.93696321  0.45366200  0.70519531  1
  Ti  Ti78  1  0.92016551  0.71883452  0.07054113  1
  Ti  Ti79  1  0.89182505  0.67253348  0.42896718  1
  Ti  Ti80  1  1.06239656  0.81826587  0.74678240  1
  Ti  Ti81  1  0.24940524  0.25202736  0.21700561  1
  Ti  Ti82  1  0.29529981  0.27507039  0.60883467  1
  Ti  Ti83  1  0.30240546  0.26496893  0.91516707  1
  Ti  Ti84  1  0.24336580  0.56197080  0.18464989  1
  Ti  Ti85  1  0.22805178  0.59043259  0.56720723  1
  Ti  Ti86  1  0.28574529  0.66016593  0.87864446  1
  Ti  Ti87  1  0.27361753  0.91552340  0.32610288  1
  Ti  Ti88  1  0.32467659  0.93322868  0.60987491  1
  Ti  Ti89  1  0.22966444  0.97078389  0.88847671  1
  Ti  Ti90  1  0.56529578  0.21934626  0.19673299  1
  Ti  Ti91  1  0.61399373  0.19894631  0.58694928  1
  Ti  Ti92  1  0.58292574  0.33458286  0.85109211  1
  Ti  Ti93  1  0.53860067  0.62670770  0.28604229  1
  Ti  Ti94  1  0.57181439  0.54318168  0.52163559  1
  Ti  Ti95  1  0.59334256  0.63176935  0.85415826  1
  Ti  Ti96  1  0.57646096  0.98961814  0.24906130  1
  Ti  Ti97  1  0.63272639  0.91932624  0.55048242  1
  Ti  Ti98  1  0.53533640  0.89064422  0.94414544  1
  Ti  Ti99  1  0.96286753  0.18582464  0.30719244  1
  Ti  Ti100  1  0.95377302  0.26500785  0.56370835  1
  Ti  Ti101  1  0.90849130  0.26151176  0.91389929  1
  Ti  Ti102  1  0.95658985  0.67573227  0.25979928  1
  Ti  Ti103  1  0.92574547  0.58325184  0.58580582  1
  Ti  Ti104  1  0.83759377  0.60325946  0.83792524  1
  Ti  Ti105  1  0.96412780  0.92705339  0.30267014  1
  Ti  Ti106  1  0.98736600  0.90703948  0.59856494  1
  Ti  Ti107  1  0.86452276  0.85229188  0.89157776  1
  Co  Co108  1  0.45044373  0.38296713  0.63130278  1
  Co  Co109  1  0.38472425  0.55937847  0.28334952  1
  Co  Co110  1  -0.05323641  0.43135067  0.87530902  1
  Co  Co111  1  0.64909910  0.05468441  0.64815377  1
  Co  Co112  1  -0.07828611  -0.04679971  0.00886129  1
  Co  Co113  1  0.27538830  0.31317825  0.07044860  1
  Co  Co114  1  0.38433531  0.04379118  0.42868587  1
  Co  Co115  1  0.57586635  0.18399001  0.75257500  1
  Co  Co116  1  0.00839139  0.33910901  0.38928760  1
  Co  Co117  1  0.25154276  0.75107189  0.59078922  1
  Co  Co118  1  0.43038722  0.01908408  -0.05720074  1
  Co  Co119  1  0.12166941  0.13072821  0.18282649  1
  Co  Co120  1  0.10508079  0.56472746  0.27534211  1
  Co  Co121  1  0.29626342  0.13512078  0.52756092  1
  Co  Co122  1  -0.03067827  0.06911734  0.63300132  1
  Co  Co123  1  0.84033895  0.54777556  0.34109462  1
  Co  Co124  1  -0.08043597  0.58560619  -0.01800711  1
  Co  Co125  1  0.15287202  0.88017622  0.60518300  1
  Co  Co126  1  0.67041025  0.58462075  0.36872276  1
  Co  Co127  1  0.24340938  0.35050544  0.78986699  1
  Co  Co128  1  0.06974549  0.05028816  0.32113425  1
  Co  Co129  1  0.41816447  -0.07836086  0.22236062  1
  Co  Co130  1  0.82424464  -0.09451128  0.58882795  1
  Co  Co131  1  0.91542530  -0.06449161  0.73803263  1
  Co  Co132  1  0.58266472  0.24499629  0.03257253  1
  Co  Co133  1  0.05081632  0.16991779  0.45091131  1
  Co  Co134  1  0.42916165  0.75631216  0.15047010  1
  Co  Co135  1  0.43850162  0.57401865  -0.07144709  1
  Co  Co136  1  0.29610625  0.57089103  0.01875032  1
  Co  Co137  1  0.33534903  0.82787759  0.91658824  1
  Co  Co138  1  0.46522560  0.34266395  0.09402104  1
  Co  Co139  1  0.26478969  0.84280371  0.18377249  1
  Co  Co140  1  0.40821229  0.27361221  0.23893854  1
  Co  Co141  1  0.12668255  0.84446138  0.28731408  1
  Co  Co142  1  0.17410531  0.13997056  -0.08540166  1
  Co  Co143  1  0.57929636  0.60957388  0.00991814  1
  Co  Co144  1  0.22986188  0.70100094  0.26338075  1
  Co  Co145  1  -0.01682012  0.31549030  0.75689994  1
  Co  Co146  1  0.61571213  0.54774910  0.15805507  1
  Co  Co147  1  0.70049299  0.43664681  0.41333454  1
  Co  Co148  1  0.31507798  0.09589510  0.68462017  1
  Co  Co149  1  0.64428898  -0.07738163  0.38013598  1
  Co  Co150  1  0.02006061  0.33905627  0.02323240  1
  Co  Co151  1  0.52383630  0.94023928  0.68889530  1
  Co  Co152  1  0.02117871  0.91418104  0.87283704  1
  Co  Co153  1  0.53899680  0.87298420  0.11587047  1
  Co  Co154  1  0.32660609  0.11256545  0.87012241  1
  Co  Co155  1  0.83326817  0.30217917  0.66373000  1
  Co  Co156  1  0.16804695  0.78132046  -0.10080618  1
  Co  Co157  1  0.04999235  0.48871031  -0.01708798  1
  Co  Co158  1  0.88883319  0.77050092  0.74543054  1
  Co  Co159  1  0.03853564  0.17394272  0.83794188  1
  Co  Co160  1  0.09078623  0.54343076  0.63663816  1
  Co  Co161  1  0.91047757  0.17997682  0.73233841  1
  Ni  Ni162  1  0.14805828  0.66591396  0.76765294  1
  Ni  Ni163  1  0.07190453  0.19889869  0.66142221  1
  Ni  Ni164  1  0.90299414  0.75198415  0.58473481  1
  Ni  Ni165  1  0.85772807  0.56641953  0.17441398  1
  Ni  Ni166  1  0.03587261  0.42257670  0.53376466  1
  Ni  Ni167  1  0.84259033  0.81265520  0.31036155  1
  Ni  Ni168  1  0.51030056  0.48636840  0.38083150  1
  Ni  Ni169  1  0.44893973  0.07697110  0.77348318  1
  Ni  Ni170  1  0.81030419  0.04348697  0.10091329  1
  Ni  Ni171  1  0.73664375  0.75081609  0.80056622  1
  Ni  Ni172  1  0.21925509  -0.02776617  0.72780349  1
  Ni  Ni173  1  0.20914875  0.43010255  0.51837957  1
  Ni  Ni174  1  0.35253776  0.40587250  0.33654075  1
  Ni  Ni175  1  0.62607381  0.34365120  0.30470185  1
  Ni  Ni176  1  0.41700562  0.38889413  0.81230884  1
  Ni  Ni177  1  0.46797694  -0.09589318  0.54210635  1
  Ni  Ni178  1  0.67138070  0.31182371  0.69777879  1
  Ni  Ni179  1  0.67390072  0.48611065  0.84134860  1
  Ni  Ni180  1  0.04681982  0.73711355  0.38835570  1
  Ni  Ni181  1  0.77511520  0.46539484  0.65668072  1
  Ni  Ni182  1  0.21083472  -0.09642948  0.03467667  1
  Ni  Ni183  1  0.58045285  0.69682924  0.59359312  1
  Ni  Ni184  1  -0.02431542  0.86660774  0.15219840  1
  Ni  Ni185  1  0.47882682  0.75372309  0.46130439  1
  Ni  Ni186  1  0.65882889  0.08969112  0.13557439  1
  Ni  Ni187  1  0.12403751  0.23928569  0.31943216  1
  Ni  Ni188  1  0.82862335  0.10501590  0.37623644  1
  Ni  Ni189  1  0.80221129  0.47173087  -0.05416834  1
  Ni  Ni190  1  0.33149958  0.42185121  0.17307770  1
  Ni  Ni191  1  0.01894789  0.57316427  0.13004130  1
  Ni  Ni192  1  -0.01092619  0.63792268  0.72964920  1
  Ni  Ni193  1  0.86068599  0.26041655  0.42771941  1
  Ni  Ni194  1  0.91214091  0.12464784  0.00615368  1
  Ni  Ni195  1  0.33069169  0.82561842  0.46556325  1
  Ni  Ni196  1  0.42681375  0.56179985  0.60564017  1
  Ni  Ni197  1  0.24757804  0.54837226  0.38500256  1
  Ni  Ni198  1  0.60356765  0.05996008  -0.02294566  1
  Ni  Ni199  1  0.77066120  0.76244689  0.11330870  1
  Ni  Ni200  1  0.77899663  0.78768979  0.46786234  1
  Ni  Ni201  1  0.44849572  0.23114762  0.53017578  1
  Ni  Ni202  1  0.54508839  0.80198361  0.27546199  1
  Ni  Ni203  1  0.68995515  0.90002073  0.88812494  1
  Ni  Ni204  1  0.69473833  0.07324423  0.47626967  1
  Ni  Ni205  1  0.29465056  0.49677466  0.85669252  1
  Ni  Ni206  1  0.71324428  0.34008810  -0.03729818  1
  Ni  Ni207  1  0.02816655  0.29518638  0.19301197  1
  Ni  Ni208  1  0.43152481  0.73282456  0.80352185  1
  Ni  Ni209  1  0.67334447  0.19019058  0.90087533  1
  Ni  Ni210  1  0.69628527  0.85050794  0.23485073  1
  Ni  Ni211  1  0.24356571  -0.02538918  0.48052531  1
  Ni  Ni212  1  0.51375200  0.22779102  0.35988602  1
  Ni  Ni213  1  -0.06467506  0.84456163  0.44988694  1
  Ni  Ni214  1  0.30840588  0.63745306  0.70916580  1
