# generated using pymatgen
data_Ti108Co54Ni53
_symmetry_space_group_name_H-M   'P 1'
_cell_length_a   14.70728640
_cell_length_b   14.66479909
_cell_length_c   14.72413229
_cell_angle_alpha   90.14661045
_cell_angle_beta   89.75745423
_cell_angle_gamma   89.93046198
_symmetry_Int_Tables_number   1
_chemical_formula_structural   Ti108Co54Ni53
_chemical_formula_sum   'Ti108 Co54 Ni53'
_cell_volume   3175.65078811
_cell_formula_units_Z   1
loop_
 _symmetry_equiv_pos_site_id
 _symmetry_equiv_pos_as_xyz
  1  'x, y, z'
loop_
 _atom_site_type_symbol
 _atom_site_label
 _atom_site_symmetry_multiplicity
 _atom_site_fract_x
 _atom_site_fract_y
 _atom_site_fract_z
 _atom_site_occupancy
  Ti  Ti0  1  0.05252669  0.05316052  0.23430339  1
  Ti  Ti1  1  0.04046541  0.11885518  0.55271905  1
  Ti  Ti2  1  0.06749266  0.08957329  0.99900807  1
  Ti  Ti3  1  0.07298335  0.45429031  0.26611462  1
  Ti  Ti4  1  0.08001128  0.41915530  0.58761739  1
  Ti  Ti5  1  0.13023400  0.40994355  0.84647887  1
  Ti  Ti6  1  0.12658413  0.74927299  0.19948312  1
  Ti  Ti7  1  0.05695791  0.79855259  0.60655168  1
  Ti  Ti8  1  0.03060820  0.75562847  0.88850622  1
  Ti  Ti9  1  0.34437091  0.07734872  0.25821590  1
  Ti  Ti10  1  0.49326474  0.08549713  0.63782761  1
  Ti  Ti11  1  0.35582736  0.02009014  0.90159194  1
  Ti  Ti12  1  0.38718633  0.36958413  0.29880937  1
  Ti  Ti13  1  0.45944602  0.43121221  0.63560062  1
  Ti  Ti14  1  0.46102276  0.42509628  0.83971789  1
  Ti  Ti15  1  0.39251819  0.71283172  0.30105217  1
  Ti  Ti16  1  0.47387586  0.74619944  0.57710036  1
  Ti  Ti17  1  0.38909885  0.82389821  0.95726497  1
  Ti  Ti18  1  0.68327666  0.12496882  0.35275777  1
  Ti  Ti19  1  0.68777580  0.12458659  0.55624946  1
  Ti  Ti20  1  0.76741471  0.00568971  0.98312102  1
  Ti  Ti21  1  0.75201796  0.40483006  0.18300228  1
  Ti  Ti22  1  0.81812915  0.41945023  0.66217481  1
  Ti  Ti23  1  0.79047383  0.50071847  0.86525747  1
  Ti  Ti24  1  0.68717205  0.70119147  0.26554144  1
  Ti  Ti25  1  0.81462657  0.77078349  0.54519164  1
  Ti  Ti26  1  0.70883817  0.69842055  0.90864254  1
  Ti  Ti27  1  0.07492448  0.27023895  0.11004681  1
  Ti  Ti28  1  0.14326863  0.11388760  0.38540309  1
  Ti  Ti29  1  0.17978413  0.22821475  0.78418742  1
  Ti  Ti30  1  0.10192178  0.52200012  0.00318258  1
  Ti  Ti31  1  0.00234513  0.55986632  0.40946211  1
  Ti  Ti32  1  0.00297043  0.56807976  0.83144723  1
  Ti  Ti33  1  0.10325567  0.92660634  0.11128302  1
  Ti  Ti34  1  0.08477302  0.93093678  0.45367127  1
  Ti  Ti35  1  0.05724716  0.98751963  0.82569209  1
  Ti  Ti36  1  0.39776308  0.22708372  0.12087341  1
  Ti  Ti37  1  0.34200820  0.28890035  0.48152382  1
  Ti  Ti38  1  0.36676045  0.27628606  0.71124978  1
  Ti  Ti39  1  0.42124511  0.64167251  0.08335648  1
  Ti  Ti40  1  0.37075632  0.53217310  0.39137570  1
  Ti  Ti41  1  0.36727713  0.60597997  0.62507671  1
  Ti  Ti42  1  0.40666244  0.98433541  0.08920556  1
  Ti  Ti43  1  0.42881753  0.91241082  0.34500358  1
  Ti  Ti44  1  0.41257629  0.91755230  0.73904176  1
  Ti  Ti45  1  0.80634659  0.19059792  0.09617384  1
  Ti  Ti46  1  0.81147844  0.24780265  0.41173979  1
  Ti  Ti47  1  0.77974732  0.21257920  0.71782227  1
  Ti  Ti48  1  0.76083412  0.59763667  0.12709237  1
  Ti  Ti49  1  0.77088404  0.55114891  0.41458459  1
  Ti  Ti50  1  0.73562665  0.62085784  0.72179427  1
  Ti  Ti51  1  0.78234137  0.85173987  0.13090945  1
  Ti  Ti52  1  0.73037090  0.93002047  0.44569430  1
  Ti  Ti53  1  0.73182044  0.82207868  0.72437517  1
  Ti  Ti54  1  0.24707055  0.06756227  0.06063947  1
  Ti  Ti55  1  0.31071470  0.10345121  0.44484418  1
  Ti  Ti56  1  0.22886383  0.00494586  0.72919140  1
  Ti  Ti57  1  0.29761714  0.48461080  0.09778619  1
  Ti  Ti58  1  0.19417930  0.39749250  0.40917725  1
  Ti  Ti59  1  0.26890502  0.46187568  0.70831296  1
  Ti  Ti60  1  0.23631008  0.69717869  0.03318156  1
  Ti  Ti61  1  0.22502551  0.78656837  0.40315619  1
  Ti  Ti62  1  0.24248293  0.68567145  0.73789906  1
  Ti  Ti63  1  0.61740506  0.00995949  0.10221643  1
  Ti  Ti64  1  0.50742395  0.15241821  0.43731552  1
  Ti  Ti65  1  0.63182993  -0.00689718  0.72130205  1
  Ti  Ti66  1  0.56111679  0.48145633  0.11807254  1
  Ti  Ti67  1  0.58048716  0.44735259  0.44348939  1
  Ti  Ti68  1  0.63835891  0.44296148  0.70930470  1
  Ti  Ti69  1  0.59495765  0.70701719  0.06717330  1
  Ti  Ti70  1  0.57595637  0.80578367  0.40849911  1
  Ti  Ti71  1  0.56097377  0.82411396  0.85379115  1
  Ti  Ti72  1  0.90933593  -0.00400502  0.11328936  1
  Ti  Ti73  1  0.87657420  0.13332811  0.27276744  1
  Ti  Ti74  1  0.93909669  0.08108460  0.71301227  1
  Ti  Ti75  1  0.94329685  0.43770698  0.11256296  1
  Ti  Ti76  1  0.89125278  0.39570717  0.32487334  1
  Ti  Ti77  1  0.97524710  0.38650821  0.75515772  1
  Ti  Ti78  1  0.95284414  0.79156331  0.06996360  1
  Ti  Ti79  1  0.88255094  0.71316775  0.35753859  1
  Ti  Ti80  1  0.90694732  0.72896446  0.70940429  1
  Ti  Ti81  1  0.23972541  0.32287852  0.20820165  1
  Ti  Ti82  1  0.21163900  0.18545358  0.59721001  1
  Ti  Ti83  1  0.31663395  0.21241970  0.92810105  1
  Ti  Ti84  1  0.18107023  0.61901667  0.33827289  1
  Ti  Ti85  1  0.20299749  0.55658138  0.53519524  1
  Ti  Ti86  1  0.28996047  0.51254471  0.90984955  1
  Ti  Ti87  1  0.28151520  0.85855813  0.22244468  1
  Ti  Ti88  1  0.23521976  0.87367230  0.58979827  1
  Ti  Ti89  1  0.19647071  0.90481230  0.91194878  1
  Ti  Ti90  1  0.58882912  0.29959257  0.28831893  1
  Ti  Ti91  1  0.52170205  0.26643260  0.58486453  1
  Ti  Ti92  1  0.50370580  0.19463732  0.86051487  1
  Ti  Ti93  1  0.54999676  0.62291988  0.37687105  1
  Ti  Ti94  1  0.64423238  0.62058465  0.56043985  1
  Ti  Ti95  1  0.50605677  0.64300781  0.88037922  1
  Ti  Ti96  1  0.63204415  0.94917137  0.27681966  1
  Ti  Ti97  1  0.53696699  0.92552604  0.55045117  1
  Ti  Ti98  1  0.55395925  0.99049610  0.93377952  1
  Ti  Ti99  1  1.05184947  0.26436347  0.30197700  1
  Ti  Ti100  1  0.94452787  0.29580025  0.56068153  1
  Ti  Ti101  1  0.93878802  0.26281016  0.92848675  1
  Ti  Ti102  1  0.98365824  0.62187883  0.20519866  1
  Ti  Ti103  1  1.00520159  0.59449505  0.60742408  1
  Ti  Ti104  1  0.90122484  0.60893122  1.00022212  1
  Ti  Ti105  1  0.90869060  0.91977708  0.33947935  1
  Ti  Ti106  1  0.90491663  0.97417189  0.53944668  1
  Ti  Ti107  1  0.87846296  0.91114514  0.84016690  1
  Co  Co108  1  0.28501242  0.66841174  0.19006756  1
  Co  Co109  1  0.75826221  0.26345049  0.25222293  1
  Co  Co110  1  -0.02791492  0.20881192  0.42471958  1
  Co  Co111  1  0.62843561  0.84039220  0.15365101  1
  Co  Co112  1  0.61644285  0.16572551  0.71949044  1
  Co  Co113  1  0.12194996  0.26510854  0.48324612  1
  Co  Co114  1  0.49071071  -0.07845691  0.19759007  1
  Co  Co115  1  0.48567926  0.32952856  0.42510699  1
  Co  Co116  1  0.44784961  0.11997372  0.00669597  1
  Co  Co117  1  0.08047609  0.69299228  0.73925311  1
  Co  Co118  1  0.26865867  -0.11046490  0.05917667  1
  Co  Co119  1  0.16605226  0.84688169  0.74093977  1
  Co  Co120  1  0.49840557  0.05548508  0.79838855  1
  Co  Co121  1  0.54865238  0.85150299  0.69623734  1
  Co  Co122  1  0.64091350  0.26866211  0.45910324  1
  Co  Co123  1  0.19515540  0.08778248  0.87724726  1
  Co  Co124  1  0.12192468  0.80662394  0.01497204  1
  Co  Co125  1  0.38559140  0.56152875  0.78481959  1
  Co  Co126  1  0.52038463  0.86087937  0.03642743  1
  Co  Co127  1  0.78213022  0.29092947  0.55763485  1
  Co  Co128  1  0.10650984  0.10461677  0.70606861  1
  Co  Co129  1  -0.06376208  0.45111188  0.92843429  1
  Co  Co130  1  0.24498658  0.24266890  0.35288752  1
  Co  Co131  1  0.42905589  0.39139549  0.14409493  1
  Co  Co132  1  0.82361281  0.06800881  0.42160566  1
  Co  Co133  1  0.66070626  0.30154088  0.64359321  1
  Co  Co134  1  0.18825658  0.02771206  0.54636371  1
  Co  Co135  1  0.12283690  0.53150430  0.71221388  1
  Co  Co136  1  0.04714507  0.74306726  0.34094121  1
  Co  Co137  1  0.13526494  0.42241237  0.12648675  1
  Co  Co138  1  0.53063691  0.77468394  0.25619063  1
  Co  Co139  1  0.91201513  0.29854766  0.19291233  1
  Co  Co140  1  0.88798506  0.89345945  0.67395703  1
  Co  Co141  1  0.02323486  0.38581956  0.42329553  1
  Co  Co142  1  0.21464867  0.00261029  0.21027195  1
  Co  Co143  1  0.70980177  0.71807186  0.43419952  1
  Co  Co144  1  0.37586064  0.84230067  0.48355630  1
  Co  Co145  1  0.21573513  0.37296842  -0.00646050  1
  Co  Co146  1  0.37283853  0.67763692  0.45607867  1
  Co  Co147  1  0.71978666  0.38741640  0.36482946  1
  Co  Co148  1  0.01189169  0.84683391  0.75874651  1
  Co  Co149  1  0.69859659  0.11687973  0.19436087  1
  Co  Co150  1  0.05053789  0.36865427  -0.01328680  1
  Co  Co151  1  0.06218224  -0.04027061  0.64228689  1
  Co  Co152  1  0.06502578  0.26378594  0.66977455  1
  Co  Co153  1  0.53218627  0.31128038  0.74698792  1
  Co  Co154  1  0.43212379  0.72571429  0.75326986  1
  Co  Co155  1  0.02861868  0.15696314  0.84049579  1
  Co  Co156  1  0.42943988  0.01113700  0.46745070  1
  Co  Co157  1  0.58325634  0.00525156  0.42001109  1
  Co  Co158  1  0.85362551  0.72173283  0.19947154  1
  Co  Co159  1  -0.01264941  0.05487124  0.38942757  1
  Co  Co160  1  0.52315338  0.46067755  0.28826965  1
  Co  Co161  1  0.37336809  0.16080874  0.58492963  1
  Ni  Ni162  1  0.38070949  0.36202017  -0.01151628  1
  Ni  Ni163  1  -0.01125225  -0.07046605  -0.02709366  1
  Ni  Ni164  1  0.85998562  0.14400885  0.57087029  1
  Ni  Ni165  1  0.82188087  0.59780924  0.57601657  1
  Ni  Ni166  1  0.78935093  0.02425012  0.74837035  1
  Ni  Ni167  1  0.67571133  -0.15128613  -0.00366006  1
  Ni  Ni168  1  0.34998099  -0.00841432  0.60205974  1
  Ni  Ni169  1  0.18464776  0.16193586  0.21828771  1
  Ni  Ni170  1  0.54918817  0.61539642  0.20832033  1
  Ni  Ni171  1  0.22849175  0.35168468  0.59332924  1
  Ni  Ni172  1  0.88617843  0.55543969  0.72324096  1
  Ni  Ni173  1  0.05887403  0.66537404  0.05484220  1
  Ni  Ni174  1  0.41979605  0.21183674  0.31238216  1
  Ni  Ni175  1  0.16264640  0.61374756  0.86912320  1
  Ni  Ni176  1  0.70802124  0.92010419  0.85658662  1
  Ni  Ni177  1  0.34168671  0.45273431  0.52750892  1
  Ni  Ni178  1  0.33917557  0.67479937  -0.10428411  1
  Ni  Ni179  1  0.30552262  0.82182298  0.81319202  1
  Ni  Ni180  1  0.23519222  0.22898116  0.07324357  1
  Ni  Ni181  1  0.84909373  0.54684492  0.26425711  1
  Ni  Ni182  1  -0.01869388  0.84730263  0.21808884  1
  Ni  Ni183  1  -0.03594240  0.15347390  0.12177286  1
  Ni  Ni184  1  0.80254006  0.46599063  0.02822519  1
  Ni  Ni185  1  0.40024850  0.54426505  0.22256458  1
  Ni  Ni186  1  0.66915400  0.09029077  0.85647268  1
  Ni  Ni187  1  0.09677511  0.68374616  0.48490695  1
  Ni  Ni188  1  0.82966128  0.34035467  0.82073461  1
  Ni  Ni189  1  0.12018265  0.89509695  0.29552708  1
  Ni  Ni190  1  0.76283056  0.83495000  0.31167784  1
  Ni  Ni191  1  0.39920473  0.79607484  0.12950601  1
  Ni  Ni192  1  0.44961117  0.51509539  -0.01613745  1
  Ni  Ni193  1  -0.04051005  0.81384647  0.47064104  1
  Ni  Ni194  1  0.13238563  0.23413799  -0.05668982  1
  Ni  Ni195  1  0.49011348  0.56780718  0.52639461  1
  Ni  Ni196  1  0.85875950  0.67335026  0.85229560  1
  Ni  Ni197  1  -0.09354212  0.46448361  0.51409137  1
  Ni  Ni198  1  0.52602329  0.57350053  0.69797261  1
  Ni  Ni199  1  0.25166395  0.71605803  0.55564116  1
  Ni  Ni200  1  0.64784089  0.79513149  0.57699070  1
  Ni  Ni201  1  0.83177677  0.80737895  -0.04115149  1
  Ni  Ni202  1  0.74519570  -0.05813268  0.60423463  1
  Ni  Ni203  1  0.62482168  0.54522737  0.83665731  1
  Ni  Ni204  1  0.29355396  0.35546273  0.84356960  1
  Ni  Ni205  1  0.90837931  0.09002798  -0.04393598  1
  Ni  Ni206  1  0.71982697  0.44531584  0.53440905  1
  Ni  Ni207  1  0.14990300  0.58100443  0.16735167  1
  Ni  Ni208  1  0.24982437  0.48626604  0.26370174  1
  Ni  Ni209  1  0.34434768  0.12064464  0.76311584  1
  Ni  Ni210  1  0.25118347  -0.04411988  0.38669040  1
  Ni  Ni211  1  0.67571060  0.52318083  0.27498875  1
  Ni  Ni212  1  0.78955061  -0.00935114  0.24299715  1
  Ni  Ni213  1  0.59702551  0.70574554  0.73336861  1
  Ni  Ni214  1  0.66088359  0.55854968  -0.00409369  1
