# generated using pymatgen
data_Ti108Co54Ni53
_symmetry_space_group_name_H-M   'P 1'
_cell_length_a   14.72563552
_cell_length_b   14.67230099
_cell_length_c   14.64975124
_cell_angle_alpha   90.11590415
_cell_angle_beta   90.16777722
_cell_angle_gamma   90.14568227
_symmetry_Int_Tables_number   1
_chemical_formula_structural   Ti108Co54Ni53
_chemical_formula_sum   'Ti108 Co54 Ni53'
_cell_volume   3165.17964182
_cell_formula_units_Z   1
loop_
 _symmetry_equiv_pos_site_id
 _symmetry_equiv_pos_as_xyz
  1  'x, y, z'
loop_
 _atom_site_type_symbol
 _atom_site_label
 _atom_site_symmetry_multiplicity
 _atom_site_fract_x
 _atom_site_fract_y
 _atom_site_fract_z
 _atom_site_occupancy
  Ti  Ti0  1  0.00944303  0.14631281  0.27145924  1
  Ti  Ti1  1  0.10589135  0.09276589  0.55391885  1
  Ti  Ti2  1  0.13538520  0.09072249  0.92017637  1
  Ti  Ti3  1  0.15972133  0.41387633  0.27939375  1
  Ti  Ti4  1  0.18684321  0.47563165  0.59097194  1
  Ti  Ti5  1  0.12172539  0.43822219  0.86894537  1
  Ti  Ti6  1  0.06023136  0.78372637  0.20826463  1
  Ti  Ti7  1  0.05190473  0.77893684  0.56665712  1
  Ti  Ti8  1  0.06302098  0.76416275  0.99939230  1
  Ti  Ti9  1  0.40343640  -0.01096685  0.25443388  1
  Ti  Ti10  1  0.44487514  0.12674288  0.55674669  1
  Ti  Ti11  1  0.49022790  0.10357539  0.87889979  1
  Ti  Ti12  1  0.37190202  0.37962797  0.24132461  1
  Ti  Ti13  1  0.45415205  0.35487136  0.59820482  1
  Ti  Ti14  1  0.38851597  0.34027717  0.92171561  1
  Ti  Ti15  1  0.40714218  0.79146243  0.22152003  1
  Ti  Ti16  1  0.35485072  0.78876071  0.55645910  1
  Ti  Ti17  1  0.48319791  0.78884343  0.89242919  1
  Ti  Ti18  1  0.78122820  0.03917298  0.27191596  1
  Ti  Ti19  1  0.61535302  0.03641469  0.54362641  1
  Ti  Ti20  1  0.73011250  0.15454593  0.92720624  1
  Ti  Ti21  1  0.69519458  0.40037816  0.26210202  1
  Ti  Ti22  1  0.71375690  0.43696816  0.56605953  1
  Ti  Ti23  1  0.82673080  0.46012927  0.99469381  1
  Ti  Ti24  1  0.75978280  0.84410633  0.23050855  1
  Ti  Ti25  1  0.75732438  0.78046336  0.57708844  1
  Ti  Ti26  1  0.75612905  0.74658401  0.87674775  1
  Ti  Ti27  1  0.06250884  0.20352864  0.06207963  1
  Ti  Ti28  1  0.14197657  0.21597350  0.40040205  1
  Ti  Ti29  1  0.11288114  0.24980997  0.80764401  1
  Ti  Ti30  1  0.03043414  0.55597913  0.00233479  1
  Ti  Ti31  1  0.06716702  0.51891407  0.41822418  1
  Ti  Ti32  1  0.13743270  0.64584974  0.71199373  1
  Ti  Ti33  1  0.06412763  0.97482803  0.03857136  1
  Ti  Ti34  1  0.09957109  1.00930183  0.37968136  1
  Ti  Ti35  1  0.10629059  0.84398606  0.73706792  1
  Ti  Ti36  1  0.34042057  0.27240381  0.08297828  1
  Ti  Ti37  1  0.34774377  0.27134842  0.46138972  1
  Ti  Ti38  1  0.48368457  0.26112875  0.76112867  1
  Ti  Ti39  1  0.38348774  0.59518224  0.01915879  1
  Ti  Ti40  1  0.42529752  0.61675648  0.39301291  1
  Ti  Ti41  1  0.42802858  0.63300838  0.79936912  1
  Ti  Ti42  1  0.43530353  0.95623891  0.01030772  1
  Ti  Ti43  1  0.48323087  0.80995609  0.40739042  1
  Ti  Ti44  1  0.44893253  0.96146165  0.70503282  1
  Ti  Ti45  1  0.70472955  0.24267428  0.11630603  1
  Ti  Ti46  1  0.79615200  0.28907539  0.44669884  1
  Ti  Ti47  1  0.71842569  0.34271333  0.77712046  1
  Ti  Ti48  1  0.74864198  0.63604392  0.03167699  1
  Ti  Ti49  1  0.78832619  0.67260136  0.38844738  1
  Ti  Ti50  1  0.68398947  0.55056897  0.75285727  1
  Ti  Ti51  1  0.80289455  0.95042975  0.06706168  1
  Ti  Ti52  1  0.81820603  0.88045053  0.41730732  1
  Ti  Ti53  1  0.79479159  0.88640710  0.75001726  1
  Ti  Ti54  1  0.24723475  0.02083682  0.11394279  1
  Ti  Ti55  1  0.30489993  0.03986640  0.42654489  1
  Ti  Ti56  1  0.24433789  0.00247381  0.78705375  1
  Ti  Ti57  1  0.17396268  0.38536061  0.08156519  1
  Ti  Ti58  1  0.29519567  0.45036940  0.41487739  1
  Ti  Ti59  1  0.28500906  0.35393370  0.75482889  1
  Ti  Ti60  1  0.26416665  0.72710963  0.08838069  1
  Ti  Ti61  1  0.19334366  0.75459455  0.42426236  1
  Ti  Ti62  1  0.29338425  0.78856727  0.76512214  1
  Ti  Ti63  1  0.54275014  0.08222192  0.13724008  1
  Ti  Ti64  1  0.53999149  0.11205503  0.35248724  1
  Ti  Ti65  1  0.65295697  0.02427621  0.79711037  1
  Ti  Ti66  1  0.63203970  0.41734680  0.05359516  1
  Ti  Ti67  1  0.56804152  0.41023277  0.42497039  1
  Ti  Ti68  1  0.51532866  0.46049525  0.78984144  1
  Ti  Ti69  1  0.59520988  0.74938787  0.14462684  1
  Ti  Ti70  1  0.61020196  0.67040649  0.47089266  1
  Ti  Ti71  1  0.61523138  0.72547407  0.68192131  1
  Ti  Ti72  1  0.90750126  0.09213621  0.00972146  1
  Ti  Ti73  1  0.82082246  0.09650677  0.49244971  1
  Ti  Ti74  1  1.05055832  0.06185668  0.74375682  1
  Ti  Ti75  1  0.97285336  0.40001160  0.11499719  1
  Ti  Ti76  1  0.87643862  0.45893646  0.41340862  1
  Ti  Ti77  1  0.98145430  0.47875294  0.72776738  1
  Ti  Ti78  1  0.89179776  0.75169569  0.10468205  1
  Ti  Ti79  1  1.00593559  0.71199177  0.38787411  1
  Ti  Ti80  1  0.96454324  0.74337958  0.81266975  1
  Ti  Ti81  1  0.20092521  0.21138815  0.20264143  1
  Ti  Ti82  1  0.18926085  0.28287313  0.59571709  1
  Ti  Ti83  1  0.30171018  0.18197669  0.86568129  1
  Ti  Ti84  1  0.28337871  0.56641997  0.21946800  1
  Ti  Ti85  1  0.29697564  0.60990165  0.53924831  1
  Ti  Ti86  1  0.22664995  0.61034857  0.89373856  1
  Ti  Ti87  1  0.22845171  0.88635023  0.27133274  1
  Ti  Ti88  1  0.23528830  0.92234585  0.61103961  1
  Ti  Ti89  1  0.23292369  0.87782213  0.95281205  1
  Ti  Ti90  1  0.52361251  0.26207883  0.21618677  1
  Ti  Ti91  1  0.62574958  0.23542160  0.59976347  1
  Ti  Ti92  1  0.54691587  0.23963213  1.00147232  1
  Ti  Ti93  1  0.62443637  0.58219244  0.27138596  1
  Ti  Ti94  1  0.54485752  0.53817069  0.61076799  1
  Ti  Ti95  1  0.58651563  0.57804796  0.95648398  1
  Ti  Ti96  1  0.59395999  0.91813131  0.29180424  1
  Ti  Ti97  1  0.54230889  0.85488832  0.57448658  1
  Ti  Ti98  1  0.63864862  0.90384749  0.97848923  1
  Ti  Ti99  1  0.87501279  0.31989382  0.26864091  1
  Ti  Ti100  1  0.99794594  0.28378735  0.56522535  1
  Ti  Ti101  1  0.88052036  0.27689428  0.98402670  1
  Ti  Ti102  1  0.93376997  0.59525161  0.23683876  1
  Ti  Ti103  1  0.88115532  0.59066496  0.55060936  1
  Ti  Ti104  1  0.86004218  0.57688281  0.84858767  1
  Ti  Ti105  1  0.94991587  0.91543347  0.27422583  1
  Ti  Ti106  1  0.91080854  0.93927426  0.58064065  1
  Ti  Ti107  1  0.90978275  0.88009582  0.92765223  1
  Co  Co108  1  -0.04454297  0.89924262  0.10984710  1
  Co  Co109  1  0.62577507  0.06233937  -0.00154135  1
  Co  Co110  1  0.72348254  0.52021906  0.13857972  1
  Co  Co111  1  0.16723292  0.85983591  0.11283633  1
  Co  Co112  1  0.64358392  -0.08570832  0.67839711  1
  Co  Co113  1  0.04026867  0.60144272  0.84577885  1
  Co  Co114  1  0.17041868  -0.09499733  0.47306701  1
  Co  Co115  1  0.73576190  0.79873990  0.06887142  1
  Co  Co116  1  0.65067067  0.85210292  0.45842040  1
  Co  Co117  1  -0.03650006  0.02466222  -0.12389378  1
  Co  Co118  1  0.30569142  0.64147442  0.69551327  1
  Co  Co119  1  0.33076482  0.72249203  0.34347340  1
  Co  Co120  1  0.61351525  0.73836616  -0.02109868  1
  Co  Co121  1  0.75772717  0.67576809  0.20213997  1
  Co  Co122  1  0.70002556  0.47464458  0.89262505  1
  Co  Co123  1  0.33445280  0.44736763  0.09234210  1
  Co  Co124  1  0.25281191  0.15364861  0.52367285  1
  Co  Co125  1  0.26153052  0.44152467  -0.05364710  1
  Co  Co126  1  0.52779152  -0.05211360  0.86425712  1
  Co  Co127  1  0.66041756  0.96814248  0.14784562  1
  Co  Co128  1  0.71444287  0.60847321  0.58225269  1
  Co  Co129  1  -0.01144883  0.33393621  0.40436709  1
  Co  Co130  1  0.00791969  0.88428199  0.44728107  1
  Co  Co131  1  0.78203547  -0.01120968  0.90373699  1
  Co  Co132  1  -0.10263920  0.21923988  0.14326386  1
  Co  Co133  1  0.74767880  -0.05217359  0.56134447  1
  Co  Co134  1  -0.08344712  0.68421859  -0.04136490  1
  Co  Co135  1  0.39702132  0.94641257  0.54330876  1
  Co  Co136  1  0.60018081  0.38538464  0.67161502  1
  Co  Co137  1  0.89327690  0.57620107  0.08679589  1
  Co  Co138  1  0.85240328  0.17007875  0.33251446  1
  Co  Co139  1  0.33460341  0.88177425  0.11258208  1
  Co  Co140  1  0.44438197  0.76894346  0.70437443  1
  Co  Co141  1  0.44822625  0.75705742  0.05594225  1
  Co  Co142  1  0.50801584  -0.09661593  0.14270705  1
  Co  Co143  1  0.66322934  0.75940812  0.32755992  1
  Co  Co144  1  0.14686744  0.74873247  0.86584318  1
  Co  Co145  1  0.90117293  0.76044899  0.49957566  1
  Co  Co146  1  -0.03787744  0.91982896  0.75218885  1
  Co  Co147  1  0.32713151  0.73988330  -0.07262928  1
  Co  Co148  1  0.26329506  0.29631488  0.32576470  1
  Co  Co149  1  0.20927180  0.75222908  0.60482644  1
  Co  Co150  1  0.72494239  0.31838155  -0.04651186  1
  Co  Co151  1  0.20168993  0.29006857  0.94237007  1
  Co  Co152  1  -0.00347171  0.18310538  0.89439153  1
  Co  Co153  1  0.69161677  -0.00177477  0.40390983  1
  Co  Co154  1  0.76332941  0.10191106  0.11090919  1
  Co  Co155  1  0.39235442  0.11872941  0.74943701  1
  Co  Co156  1  0.23536077  0.15933170  0.03817634  1
  Co  Co157  1  0.63728612  0.83487362  0.81732902  1
  Co  Co158  1  0.52265854  0.70274806  0.29705275  1
  Co  Co159  1  0.80074605  0.36758178  0.12375248  1
  Co  Co160  1  0.63084199  0.20520635  0.80664710  1
  Co  Co161  1  0.30635500  0.03548580  -0.05960738  1
  Ni  Ni162  1  0.41165932  0.13194759  0.02418612  1
  Ni  Ni163  1  0.21778264  0.50614873  0.74955930  1
  Ni  Ni164  1  -0.01993657  0.17003471  0.44363639  1
  Ni  Ni165  1  0.21209054  0.55174461  0.05635691  1
  Ni  Ni166  1  0.43303938  0.62242393  0.18958999  1
  Ni  Ni167  1  0.70056119  0.52630600  0.42718203  1
  Ni  Ni168  1  0.03695230  0.33916272  -0.03392271  1
  Ni  Ni169  1  0.46822779  0.46843061  -0.03564568  1
  Ni  Ni170  1  0.31433038  0.05786809  0.62913888  1
  Ni  Ni171  1  0.22171149  0.59327682  0.37805068  1
  Ni  Ni172  1  0.92157583  0.05328702  0.17215599  1
  Ni  Ni173  1  0.47012060  0.48534742  0.31352181  1
  Ni  Ni174  1  0.11724904  0.62682656  0.53155825  1
  Ni  Ni175  1  0.34299241  0.23279039  0.64501158  1
  Ni  Ni176  1  0.09054025  -0.01586806  0.20579697  1
  Ni  Ni177  1  0.10424163  0.65074177  0.12146363  1
  Ni  Ni178  1  0.89106265  0.75521235  0.28043658  1
  Ni  Ni179  1  0.20662286  0.14889570  0.70874201  1
  Ni  Ni180  1  0.36563594  0.48901576  0.66192482  1
  Ni  Ni181  1  0.80469339  0.67560182  0.71607818  1
  Ni  Ni182  1  -0.00399575  0.44646628  0.27821986  1
  Ni  Ni183  1  0.59153141  0.67149836  0.82753525  1
  Ni  Ni184  1  0.52327379  0.24453905  0.46114304  1
  Ni  Ni185  1  0.05052501  0.29773001  0.21972105  1
  Ni  Ni186  1  0.68017716  0.16214109  0.43937859  1
  Ni  Ni187  1  0.66370761  0.14320294  0.24669298  1
  Ni  Ni188  1  0.20380688  0.71357045  0.24823119  1
  Ni  Ni189  1  0.47793180  0.37201212  0.09987671  1
  Ni  Ni190  1  0.63308852  0.27664921  0.34209631  1
  Ni  Ni191  1  0.10223264  0.37686682  0.70057513  1
  Ni  Ni192  1  0.22574137  0.06752359  0.27877274  1
  Ni  Ni193  1  0.09621944  0.59283794  0.27223605  1
  Ni  Ni194  1  0.43198668  0.48549932  0.49704676  1
  Ni  Ni195  1  0.49495589  -0.02413913  0.42655259  1
  Ni  Ni196  1  0.37022609  0.91135359  0.85190648  1
  Ni  Ni197  1  0.08675213  -0.08102858  0.87718039  1
  Ni  Ni198  1  0.55335515  0.11179715  0.69042955  1
  Ni  Ni199  1  0.36282800  0.13468510  0.18324306  1
  Ni  Ni200  1  0.33136654  -0.12138028  0.40046994  1
  Ni  Ni201  1  0.35666208  0.49126199  0.83312832  1
  Ni  Ni202  1  0.85782581  0.41012633  0.83463115  1
  Ni  Ni203  1  -0.02585671  0.63889977  0.67795712  1
  Ni  Ni204  1  0.14769747  0.37123596  0.45709977  1
  Ni  Ni205  1  0.40462661  0.20272720  0.32302767  1
  Ni  Ni206  1  0.79110366  0.53283150  0.28863087  1
  Ni  Ni207  1  -0.07168729  0.02469915  0.39299640  1
  Ni  Ni208  1  0.91132279  0.79112749  0.66186478  1
  Ni  Ni209  1  0.01866127  0.44982169  0.55692011  1
  Ni  Ni210  1  0.86978887  0.39034196  0.57244858  1
  Ni  Ni211  1  0.57925291  0.34935144  0.88611694  1
  Ni  Ni212  1  0.06654787  -0.05371241  0.60800605  1
  Ni  Ni213  1  0.47095844  0.67652162  0.56792022  1
  Ni  Ni214  1  0.82309825  0.50616184  0.68558229  1
