# generated using pymatgen
data_Ti108Co54Ni53
_symmetry_space_group_name_H-M   'P 1'
_cell_length_a   14.61706022
_cell_length_b   14.63356799
_cell_length_c   14.64987154
_cell_angle_alpha   89.73051473
_cell_angle_beta   89.94024687
_cell_angle_gamma   89.64511905
_symmetry_Int_Tables_number   1
_chemical_formula_structural   Ti108Co54Ni53
_chemical_formula_sum   'Ti108 Co54 Ni53'
_cell_volume   3133.50739914
_cell_formula_units_Z   1
loop_
 _symmetry_equiv_pos_site_id
 _symmetry_equiv_pos_as_xyz
  1  'x, y, z'
loop_
 _atom_site_type_symbol
 _atom_site_label
 _atom_site_symmetry_multiplicity
 _atom_site_fract_x
 _atom_site_fract_y
 _atom_site_fract_z
 _atom_site_occupancy
  Ti  Ti0  1  0.01531104  0.09351284  0.20144953  1
  Ti  Ti1  1  0.16719783  0.05503645  0.60744814  1
  Ti  Ti2  1  0.12771268  0.07315064  0.94522317  1
  Ti  Ti3  1  0.06933046  0.36961824  0.32703398  1
  Ti  Ti4  1  0.16736566  0.35229667  0.56833361  1
  Ti  Ti5  1  0.15083373  0.37243607  0.91740561  1
  Ti  Ti6  1  0.06132472  0.83727310  0.21299878  1
  Ti  Ti7  1  0.13878688  0.71674417  0.62089118  1
  Ti  Ti8  1  0.08758112  0.79351190  0.89725381  1
  Ti  Ti9  1  0.38465923  0.01586969  0.21325249  1
  Ti  Ti10  1  0.44356064  0.10318527  0.68719757  1
  Ti  Ti11  1  0.40838120  0.04617040  0.97706821  1
  Ti  Ti12  1  0.37193043  0.48885726  0.24615323  1
  Ti  Ti13  1  0.37991204  0.37237385  0.55096873  1
  Ti  Ti14  1  0.43896793  0.35893723  0.87972033  1
  Ti  Ti15  1  0.36738483  0.70721003  0.23467627  1
  Ti  Ti16  1  0.37715752  0.69666668  0.63261549  1
  Ti  Ti17  1  0.41759465  0.71404787  0.90737718  1
  Ti  Ti18  1  0.69241557  0.10920213  0.27692489  1
  Ti  Ti19  1  0.86000290  0.07737271  0.60922252  1
  Ti  Ti20  1  0.78928684  0.09864350  0.84034042  1
  Ti  Ti21  1  0.74088919  0.49455818  0.26158713  1
  Ti  Ti22  1  0.71604004  0.40317692  0.55625157  1
  Ti  Ti23  1  0.75983569  0.35924991  0.95449398  1
  Ti  Ti24  1  0.80018454  0.80405140  0.21464893  1
  Ti  Ti25  1  0.67210942  0.81790497  0.63215133  1
  Ti  Ti26  1  0.73279464  0.75955599  0.84698069  1
  Ti  Ti27  1  0.05260974  0.29681434  0.14329669  1
  Ti  Ti28  1  0.10382103  0.20900882  0.44499118  1
  Ti  Ti29  1  0.13252931  0.20727920  0.82242109  1
  Ti  Ti30  1  0.05131393  0.63922899  0.12771015  1
  Ti  Ti31  1  0.10146756  0.64220999  0.32111192  1
  Ti  Ti32  1  0.06567313  0.62201695  0.78121375  1
  Ti  Ti33  1  0.12255519  0.97347130  0.09793106  1
  Ti  Ti34  1  0.08555807  0.84284708  0.39309945  1
  Ti  Ti35  1  0.08173714  0.87927561  0.71350877  1
  Ti  Ti36  1  0.31176667  0.31742899  0.07363628  1
  Ti  Ti37  1  0.46309723  0.23995642  0.40459325  1
  Ti  Ti38  1  0.32910580  0.28352838  0.73204401  1
  Ti  Ti39  1  0.47098963  0.61995191  0.09074225  1
  Ti  Ti40  1  0.42360557  0.59660239  0.40311194  1
  Ti  Ti41  1  0.39954746  0.50920933  0.69275534  1
  Ti  Ti42  1  0.40894837  0.84717513  0.07257435  1
  Ti  Ti43  1  0.43257957  0.93255003  0.42061022  1
  Ti  Ti44  1  0.40312105  0.89810896  0.72450813  1
  Ti  Ti45  1  0.73030137  0.34568773  0.15455171  1
  Ti  Ti46  1  0.70155304  0.20637885  0.45089418  1
  Ti  Ti47  1  0.71853262  0.20580753  0.66343417  1
  Ti  Ti48  1  0.72871289  0.52259314  0.04279884  1
  Ti  Ti49  1  0.76502061  0.61181209  0.40500602  1
  Ti  Ti50  1  0.75109288  0.55001879  0.85078589  1
  Ti  Ti51  1  0.75400553  0.87081652  0.02514444  1
  Ti  Ti52  1  0.77148986  0.95487128  0.46974367  1
  Ti  Ti53  1  0.76878880  0.92063769  0.74556585  1
  Ti  Ti54  1  0.20187957  0.15965528  0.11660695  1
  Ti  Ti55  1  0.20977528  0.06292862  0.39966972  1
  Ti  Ti56  1  0.29647853  0.07779881  0.78447634  1
  Ti  Ti57  1  0.17259332  0.42915323  0.11473773  1
  Ti  Ti58  1  0.25821714  0.44662640  0.40958877  1
  Ti  Ti59  1  0.22286531  0.49176543  0.79666971  1
  Ti  Ti60  1  0.25129788  0.74517843  0.01497091  1
  Ti  Ti61  1  0.33502398  0.76069878  0.42467520  1
  Ti  Ti62  1  0.26272307  0.78294670  0.77798498  1
  Ti  Ti63  1  0.56894591  0.09687371  0.09196153  1
  Ti  Ti64  1  0.55983364  0.07122291  0.39453875  1
  Ti  Ti65  1  0.61590791  0.07080223  0.75339256  1
  Ti  Ti66  1  0.51469753  0.39112469  0.06463707  1
  Ti  Ti67  1  0.54537453  0.41121472  0.28381476  1
  Ti  Ti68  1  0.57757165  0.48556424  0.77958802  1
  Ti  Ti69  1  0.67094716  0.67653977  0.14329738  1
  Ti  Ti70  1  0.54654173  0.77078949  0.48998464  1
  Ti  Ti71  1  0.55949422  0.81582406  0.81835605  1
  Ti  Ti72  1  0.86074900  0.06579738  0.05021489  1
  Ti  Ti73  1  0.87674551  0.12517785  0.40747416  1
  Ti  Ti74  1  1.00109180  0.10970627  0.73127065  1
  Ti  Ti75  1  0.89063298  0.46636649  0.12937336  1
  Ti  Ti76  1  0.83866081  0.34856943  0.38996629  1
  Ti  Ti77  1  0.88580734  0.41801152  0.78386638  1
  Ti  Ti78  1  0.94623071  0.79593396  0.07250182  1
  Ti  Ti79  1  0.93207215  0.72722989  0.46314983  1
  Ti  Ti80  1  0.92828266  0.77189202  0.78783690  1
  Ti  Ti81  1  0.30616220  0.19730403  0.27732728  1
  Ti  Ti82  1  0.30633260  0.18110594  0.55570595  1
  Ti  Ti83  1  0.29805336  0.21138236  0.92686052  1
  Ti  Ti84  1  0.24870276  0.58947644  0.15414395  1
  Ti  Ti85  1  0.26196716  0.58430363  0.53287386  1
  Ti  Ti86  1  0.16435898  0.55835870  0.97485027  1
  Ti  Ti87  1  0.25903302  0.87404186  0.18367372  1
  Ti  Ti88  1  0.22849783  0.87508222  0.53087518  1
  Ti  Ti89  1  0.24033711  0.92357319  0.92109505  1
  Ti  Ti90  1  0.58588237  0.24839196  0.20754030  1
  Ti  Ti91  1  0.53832423  0.25842293  0.58942801  1
  Ti  Ti92  1  0.60979658  0.24837403  0.87598100  1
  Ti  Ti93  1  0.56464410  0.60196441  0.28017444  1
  Ti  Ti94  1  0.60010516  0.60170785  0.60425832  1
  Ti  Ti95  1  0.58884354  0.61889914  0.92000873  1
  Ti  Ti96  1  0.59248191  0.87938850  0.29590332  1
  Ti  Ti97  1  0.53419586  0.95747839  0.59799079  1
  Ti  Ti98  1  0.56149082  0.91981930  0.98796120  1
  Ti  Ti99  1  0.87852660  0.24195859  0.11364575  1
  Ti  Ti100  1  0.98893728  0.26280722  0.59811931  1
  Ti  Ti101  1  0.92746501  0.23658985  0.89348998  1
  Ti  Ti102  1  0.89457940  0.62863443  0.25300032  1
  Ti  Ti103  1  0.81130578  0.60502996  0.60979690  1
  Ti  Ti104  1  0.90341020  0.60433474  0.93964442  1
  Ti  Ti105  1  0.91789859  0.93573909  0.31861609  1
  Ti  Ti106  1  0.88383730  0.85500364  0.60359414  1
  Ti  Ti107  1  0.87941583  0.92640047  0.90830039  1
  Co  Co108  1  0.51852142  0.75849786  0.17999269  1
  Co  Co109  1  0.65928620  0.47752165  0.40386651  1
  Co  Co110  1  0.66816418  0.72803361  0.31164301  1
  Co  Co111  1  0.55363193  0.43857330  0.58750136  1
  Co  Co112  1  0.00294158  0.11192107  0.52875769  1
  Co  Co113  1  0.91094137  0.35777291  0.24276032  1
  Co  Co114  1  0.88686018  0.44399276  -0.04550970  1
  Co  Co115  1  -0.03863317  0.07546023  0.89303064  1
  Co  Co116  1  0.13586118  0.24086558  -0.00317763  1
  Co  Co117  1  0.66134604  0.65195299  0.74493983  1
  Co  Co118  1  0.04314354  0.66398456  -0.03337776  1
  Co  Co119  1  0.80452035  0.23000437  0.27235554  1
  Co  Co120  1  0.24482424  0.62344481  0.70316512  1
  Co  Co121  1  0.73200204  0.16181718  0.12760960  1
  Co  Co122  1  0.17897340  0.34461028  0.74079204  1
  Co  Co123  1  0.70917108  0.03996363  -0.00187369  1
  Co  Co124  1  0.47418720  0.36929586  0.70727089  1
  Co  Co125  1  0.01522011  0.14514903  0.04614018  1
  Co  Co126  1  0.16914753  0.71072459  0.46182847  1
  Co  Co127  1  0.93483827  -0.04260321  0.47395167  1
  Co  Co128  1  0.44617498  0.56085487  0.54985938  1
  Co  Co129  1  0.52847853  0.22992513  0.74690536  1
  Co  Co130  1  0.88068527  0.22333071  0.71260660  1
  Co  Co131  1  -0.04724692  0.76447028  0.30263820  1
  Co  Co132  1  0.51533551  -0.05738216  0.14963331  1
  Co  Co133  1  0.49908968  0.74220693  0.34432094  1
  Co  Co134  1  0.13253855  0.18895961  0.28232569  1
  Co  Co135  1  0.41763696  0.86011662  0.26648366  1
  Co  Co136  1  0.72945038  0.68549005  -0.01175688  1
  Co  Co137  1  0.26776272  0.61474100  0.34711031  1
  Co  Co138  1  0.88855726  0.59897426  0.76047263  1
  Co  Co139  1  0.46798059  0.51286301  -0.04739256  1
  Co  Co140  1  0.87050447  0.76155910  -0.05751816  1
  Co  Co141  1  0.04652933  0.93795676  0.86781181  1
  Co  Co142  1  0.18240502  0.49627593  0.27506525  1
  Co  Co143  1  0.60218093  0.62761786  0.44067528  1
  Co  Co144  1  0.57442278  0.09605720  0.92494419  1
  Co  Co145  1  0.25031008  0.45975862  0.63699709  1
  Co  Co146  1  0.80086167  0.73670590  0.69212522  1
  Co  Co147  1  0.90055742  0.49070465  0.33185062  1
  Co  Co148  1  0.61243467  0.43818921  0.93455980  1
  Co  Co149  1  0.73453891  0.49525140  0.69822704  1
  Co  Co150  1  0.43176857  0.16123155  0.84962640  1
  Co  Co151  1  0.11288167  0.81628638  0.05364576  1
  Co  Co152  1  -0.00014280  0.33438229  -0.00831111  1
  Co  Co153  1  0.03951747  0.82636326  0.54810352  1
  Co  Co154  1  -0.00671102  -0.03676185  0.02112251  1
  Co  Co155  1  0.18568642  0.72936418  0.17098625  1
  Co  Co156  1  0.36691181  0.46960782  0.09031277  1
  Co  Co157  1  0.76995618  0.19610914  -0.03160615  1
  Co  Co158  1  0.30775995  0.43106180  -0.05561814  1
  Co  Co159  1  0.21510096  0.77503383  0.31791121  1
  Co  Co160  1  0.28039703  0.01466415  0.06807659  1
  Co  Co161  1  0.00528958  -0.01974651  0.61760092  1
  Ni  Ni162  1  -0.03422240  0.69809409  0.63913279  1
  Ni  Ni163  1  0.25987157  0.27523296  0.42836264  1
  Ni  Ni164  1  0.37277392  0.08707578  0.38808686  1
  Ni  Ni165  1  0.39915863  0.84772805  0.56269288  1
  Ni  Ni166  1  0.21980235  0.33440318  0.24996257  1
  Ni  Ni167  1  0.07674023  0.46644404  0.70626421  1
  Ni  Ni168  1  0.02584976  0.48206928  0.86900250  1
  Ni  Ni169  1  0.51714924  0.77656403  0.66367271  1
  Ni  Ni170  1  0.02813798  0.49323294  0.21915557  1
  Ni  Ni171  1  0.92443840  -0.03721198  0.75322733  1
  Ni  Ni172  1  0.61489479  0.10978868  0.55872592  1
  Ni  Ni173  1  0.33738644  0.00648086  0.57605321  1
  Ni  Ni174  1  0.85036478  0.07841689  0.22679440  1
  Ni  Ni175  1  0.82952917  0.25780556  0.54691557  1
  Ni  Ni176  1  0.59315149  0.33759364  0.45513757  1
  Ni  Ni177  1  0.36718138  0.56962037  0.83912503  1
  Ni  Ni178  1  0.32902408  0.59615006  -0.00507814  1
  Ni  Ni179  1  0.37846206  0.15695639  0.11637147  1
  Ni  Ni180  1  0.57590875  0.75568246  0.01462232  1
  Ni  Ni181  1  0.74327729  0.73733677  0.51396462  1
  Ni  Ni182  1  0.63179781  0.26452262  0.03969799  1
  Ni  Ni183  1  0.64730360  0.84890023  0.14113126  1
  Ni  Ni184  1  -0.10135536  0.93438862  0.15223904  1
  Ni  Ni185  1  0.42667932  0.30354849  0.19355301  1
  Ni  Ni186  1  0.02731857  0.48863510  0.04038064  1
  Ni  Ni187  1  0.24452146  0.92745319  0.69334963  1
  Ni  Ni188  1  0.60197398  0.50559601  0.14601162  1
  Ni  Ni189  1  0.20875595  0.03843590  0.23356155  1
  Ni  Ni190  1  0.68594018  0.32751694  0.32334776  1
  Ni  Ni191  1  0.49081904  -0.00751784  0.82647389  1
  Ni  Ni192  1  0.03334184  0.06844778  0.36599901  1
  Ni  Ni193  1  0.47672699  0.14206325  0.26056629  1
  Ni  Ni194  1  0.22502644  0.65828849  0.86634195  1
  Ni  Ni195  1  0.61558321  0.92705338  0.45964943  1
  Ni  Ni196  1  0.45741320  0.10881848  0.52205975  1
  Ni  Ni197  1  0.49689879  0.64800116  0.76827648  1
  Ni  Ni198  1  0.76786933  0.27255625  0.81357037  1
  Ni  Ni199  1  0.67012272  0.95264051  0.86901349  1
  Ni  Ni200  1  0.47154665  0.22597057  0.00102031  1
  Ni  Ni201  1  0.15922894  0.20769419  0.65526215  1
  Ni  Ni202  1  0.80627894  0.80514420  0.37953289  1
  Ni  Ni203  1  0.37103270  0.35186097  0.33606639  1
  Ni  Ni204  1  0.39724165  0.87702443  0.89587476  1
  Ni  Ni205  1  0.84318328  0.64982817  0.09851284  1
  Ni  Ni206  1  0.47150853  0.44215641  0.43218782  1
  Ni  Ni207  1  0.14371844  0.02822995  0.77953160  1
  Ni  Ni208  1  0.70739373  -0.00313317  0.61919527  1
  Ni  Ni209  1  0.01915376  0.31608506  0.75896171  1
  Ni  Ni210  1  0.75078907  -0.04195817  0.30659600  1
  Ni  Ni211  1  -0.02799812  0.22315929  0.31028577  1
  Ni  Ni212  1  0.64591367  0.34998046  0.70946850  1
  Ni  Ni213  1  0.09567275  -0.02402559  0.48462605  1
  Ni  Ni214  1  0.28206334  -0.07690210  0.34708275  1
