# generated using pymatgen
data_Ti108Co54Ni53
_symmetry_space_group_name_H-M   'P 1'
_cell_length_a   14.75328005
_cell_length_b   14.60323408
_cell_length_c   14.66254449
_cell_angle_alpha   90.08151884
_cell_angle_beta   89.98760610
_cell_angle_gamma   90.25475005
_symmetry_Int_Tables_number   1
_chemical_formula_structural   Ti108Co54Ni53
_chemical_formula_sum   'Ti108 Co54 Ni53'
_cell_volume   3158.94623382
_cell_formula_units_Z   1
loop_
 _symmetry_equiv_pos_site_id
 _symmetry_equiv_pos_as_xyz
  1  'x, y, z'
loop_
 _atom_site_type_symbol
 _atom_site_label
 _atom_site_symmetry_multiplicity
 _atom_site_fract_x
 _atom_site_fract_y
 _atom_site_fract_z
 _atom_site_occupancy
  Ti  Ti0  1  0.08911490  0.09346454  0.21234891  1
  Ti  Ti1  1  0.04849612  0.07171345  0.52880839  1
  Ti  Ti2  1  0.07779475  0.04310565  0.89185469  1
  Ti  Ti3  1  0.10874279  0.37166771  0.21489612  1
  Ti  Ti4  1  0.05893137  0.41281052  0.55014034  1
  Ti  Ti5  1  0.03494624  0.39009975  0.93205731  1
  Ti  Ti6  1  0.05938939  0.77279039  0.26853320  1
  Ti  Ti7  1  0.04085357  0.75149783  0.59112409  1
  Ti  Ti8  1  0.10920959  0.76086324  0.99197270  1
  Ti  Ti9  1  0.41997557  0.05047566  0.29969700  1
  Ti  Ti10  1  0.44082429  0.19008670  0.56431921  1
  Ti  Ti11  1  0.43133518  -0.03379012  0.87769420  1
  Ti  Ti12  1  0.38074661  0.49099215  0.27853026  1
  Ti  Ti13  1  0.42067484  0.38513915  0.44311639  1
  Ti  Ti14  1  0.44375909  0.43325671  0.91629266  1
  Ti  Ti15  1  0.40257081  0.71368967  0.26141820  1
  Ti  Ti16  1  0.46237012  0.79438204  0.57076347  1
  Ti  Ti17  1  0.40075240  0.78495512  0.84865414  1
  Ti  Ti18  1  0.76067402  0.01699953  0.24939497  1
  Ti  Ti19  1  0.75090031  0.02817721  0.58618687  1
  Ti  Ti20  1  0.74824221  0.08428177  0.83170658  1
  Ti  Ti21  1  0.75283606  0.36819314  0.28247534  1
  Ti  Ti22  1  0.75273311  0.42972054  0.50944040  1
  Ti  Ti23  1  0.83903508  0.32685275  0.89680222  1
  Ti  Ti24  1  0.76690694  0.82879580  0.23912812  1
  Ti  Ti25  1  0.76013900  0.66622430  0.62639892  1
  Ti  Ti26  1  0.73141311  0.68847939  0.85505393  1
  Ti  Ti27  1  0.16023251  0.26815435  0.05359358  1
  Ti  Ti28  1  0.13267610  0.22559286  0.37227809  1
  Ti  Ti29  1  0.12312785  0.17111624  0.74061547  1
  Ti  Ti30  1  0.01749502  0.51220743  0.08544863  1
  Ti  Ti31  1  0.13373309  0.49545347  0.40496722  1
  Ti  Ti32  1  0.07631775  0.64414066  0.75445822  1
  Ti  Ti33  1  0.04444858  0.94233410  0.07724408  1
  Ti  Ti34  1  0.13102088  0.92010920  0.39346973  1
  Ti  Ti35  1  0.01775882  0.89847991  0.73489445  1
  Ti  Ti36  1  0.36555695  0.21531758  0.03434689  1
  Ti  Ti37  1  0.31633691  0.21247582  0.40943891  1
  Ti  Ti38  1  0.42011815  0.28968145  0.77766741  1
  Ti  Ti39  1  0.37399141  0.64361809  0.02591463  1
  Ti  Ti40  1  0.39783147  0.62051703  0.44024296  1
  Ti  Ti41  1  0.35230434  0.57322841  0.76355786  1
  Ti  Ti42  1  0.42947206  0.94766178  0.09195408  1
  Ti  Ti43  1  0.43604113  0.88070084  0.39130063  1
  Ti  Ti44  1  0.46948137  1.05384786  0.70991373  1
  Ti  Ti45  1  0.77939395  0.27277027  0.07997114  1
  Ti  Ti46  1  0.82970167  0.24012849  0.52155580  1
  Ti  Ti47  1  0.81811175  0.32046417  0.70458104  1
  Ti  Ti48  1  0.74794803  0.66003596  0.12994510  1
  Ti  Ti49  1  0.72958549  0.65530747  0.34314428  1
  Ti  Ti50  1  0.73068912  0.45909149  0.81023390  1
  Ti  Ti51  1  0.72725366  0.81683369  0.01686605  1
  Ti  Ti52  1  0.73770406  0.82555835  0.46612920  1
  Ti  Ti53  1  0.73155443  0.89944284  0.81181042  1
  Ti  Ti54  1  0.22422813  0.04758153  0.09794524  1
  Ti  Ti55  1  0.22811197  0.07108708  0.49561914  1
  Ti  Ti56  1  0.28612273  0.08616937  0.80268012  1
  Ti  Ti57  1  0.20252783  0.49405811  0.04318672  1
  Ti  Ti58  1  0.24742122  0.36012130  0.51642779  1
  Ti  Ti59  1  0.28302182  0.40885019  0.71020929  1
  Ti  Ti60  1  0.21392423  0.72107948  0.15457539  1
  Ti  Ti61  1  0.18138010  0.70539589  0.45426629  1
  Ti  Ti62  1  0.27867918  0.75118914  0.72310890  1
  Ti  Ti63  1  0.66860241  0.09645001  0.07802138  1
  Ti  Ti64  1  0.55958678  0.06290786  0.48251174  1
  Ti  Ti65  1  0.57251414  0.10597190  0.86389275  1
  Ti  Ti66  1  0.62859400  0.50000818  0.08656602  1
  Ti  Ti67  1  0.56989820  0.42503926  0.54835927  1
  Ti  Ti68  1  0.51653480  0.47397562  0.73071653  1
  Ti  Ti69  1  0.54230566  0.72927715  0.10246297  1
  Ti  Ti70  1  0.56124597  0.72160043  0.41215975  1
  Ti  Ti71  1  0.60141792  0.76768273  0.73817451  1
  Ti  Ti72  1  0.87719239  0.07990074  0.09921564  1
  Ti  Ti73  1  0.86482837  0.06209610  0.42557086  1
  Ti  Ti74  1  0.92604398  0.14360831  0.79405740  1
  Ti  Ti75  1  0.82632517  0.46215497  0.08796271  1
  Ti  Ti76  1  0.91213006  0.37387173  0.40439033  1
  Ti  Ti77  1  0.96670574  0.46196337  0.74335721  1
  Ti  Ti78  1  0.92066796  0.79722856  0.03875441  1
  Ti  Ti79  1  0.89170716  0.73030321  0.37002732  1
  Ti  Ti80  1  0.88003201  0.77487554  0.73194366  1
  Ti  Ti81  1  0.26513502  0.20782496  0.21903161  1
  Ti  Ti82  1  0.27520223  0.21871144  0.64278634  1
  Ti  Ti83  1  0.26016752  0.27601306  0.87602860  1
  Ti  Ti84  1  0.09954529  0.58520339  0.24499552  1
  Ti  Ti85  1  0.23278695  0.56102505  0.58707518  1
  Ti  Ti86  1  0.22489866  0.63663925  0.89363570  1
  Ti  Ti87  1  0.29214774  0.92658355  0.23092700  1
  Ti  Ti88  1  0.29024618  0.90100493  0.56983028  1
  Ti  Ti89  1  0.24304717  0.91962175  0.92042796  1
  Ti  Ti90  1  0.63553186  0.16009545  0.32106294  1
  Ti  Ti91  1  0.65457596  0.22503659  0.60239103  1
  Ti  Ti92  1  0.64135946  0.25760346  0.94673528  1
  Ti  Ti93  1  0.57092133  0.58419624  0.27049906  1
  Ti  Ti94  1  0.54009560  0.61263681  0.59042602  1
  Ti  Ti95  1  0.51886069  0.64243795  0.87516252  1
  Ti  Ti96  1  0.59936850  0.92882716  0.30460934  1
  Ti  Ti97  1  0.60635263  0.92370351  0.63798533  1
  Ti  Ti98  1  0.59259277  0.94261304  0.97864009  1
  Ti  Ti99  1  0.91738400  0.14444602  0.26783739  1
  Ti  Ti100  1  0.98622194  0.24177917  0.62743856  1
  Ti  Ti101  1  0.95445177  0.20630372  0.98614937  1
  Ti  Ti102  1  0.89894635  0.58315428  0.23474361  1
  Ti  Ti103  1  0.91210361  0.56862039  0.50370458  1
  Ti  Ti104  1  0.93151407  0.66669902  0.88729982  1
  Ti  Ti105  1  0.94878149  0.93431782  0.26023878  1
  Ti  Ti106  1  0.91739647  0.91177700  0.55647852  1
  Ti  Ti107  1  0.89857952  0.98662735  0.92719949  1
  Co  Co108  1  0.69854302  0.23949426  0.79237453  1
  Co  Co109  1  0.18228085  0.02100294  0.65241019  1
  Co  Co110  1  0.79837618  0.15613295  0.68806139  1
  Co  Co111  1  0.90457762  0.09650470  0.59052753  1
  Co  Co112  1  0.09082172  -0.08200725  0.55273449  1
  Co  Co113  1  0.50334753  0.55323445  0.01103463  1
  Co  Co114  1  0.65220203  0.36526429  0.68334391  1
  Co  Co115  1  0.87138107  0.29185888  0.20660837  1
  Co  Co116  1  0.81545843  0.22802698  0.35549422  1
  Co  Co117  1  0.26077742  0.35076645  0.33955259  1
  Co  Co118  1  0.03941013  0.67780476  0.12326244  1
  Co  Co119  1  0.22045648  0.48180718  0.25785513  1
  Co  Co120  1  0.37796392  0.09484617  0.14860735  1
  Co  Co121  1  0.47407838  0.86788578  0.22683526  1
  Co  Co122  1  0.52462466  0.53146878  0.42124254  1
  Co  Co123  1  0.45024715  0.86898023  0.71177178  1
  Co  Co124  1  0.57545942  -0.06267632  0.80323753  1
  Co  Co125  1  0.75515185  -0.02275190  -0.00448283  1
  Co  Co126  1  0.06359712  0.60577396  -0.03604462  1
  Co  Co127  1  0.79960958  0.15503652  -0.03782195  1
  Co  Co128  1  0.04260225  0.05625853  0.36048416  1
  Co  Co129  1  -0.07459574  0.50414642  0.90322732  1
  Co  Co130  1  -0.03029253  0.19477022  0.44501214  1
  Co  Co131  1  0.70823582  0.14565582  0.46040455  1
  Co  Co132  1  0.14052871  0.32490695  0.65522850  1
  Co  Co133  1  0.85318721  -0.08061964  0.11835940  1
  Co  Co134  1  0.69752859  0.30633373  0.42749566  1
  Co  Co135  1  0.85076189  0.82565054  -0.11167263  1
  Co  Co136  1  -0.01879705  0.51183801  0.35926487  1
  Co  Co137  1  0.64185988  0.07843815  0.70229083  1
  Co  Co138  1  0.60763426  0.50876304  0.89600972  1
  Co  Co139  1  0.38730010  0.05549160  0.46238958  1
  Co  Co140  1  0.88244626  0.74853542  0.54366348  1
  Co  Co141  1  0.63171701  0.75378411  0.56591020  1
  Co  Co142  1  0.70460430  0.40430230  -0.02228329  1
  Co  Co143  1  0.85143269  0.90243670  0.38326998  1
  Co  Co144  1  0.75271497  0.17635637  0.20954048  1
  Co  Co145  1  0.59544552  0.79490120  0.90799660  1
  Co  Co146  1  0.29056765  -0.05920360  0.39889116  1
  Co  Co147  1  0.12701704  -0.07645617  0.22274078  1
  Co  Co148  1  0.82938992  0.58549913  0.77429815  1
  Co  Co149  1  0.81331539  0.51910241  0.37357646  1
  Co  Co150  1  0.36025193  0.79357491  0.13063520  1
  Co  Co151  1  0.06370664  0.10291790  0.04380275  1
  Co  Co152  1  0.97828880  0.29602523  0.79728822  1
  Co  Co153  1  0.62281896  0.60018350  0.74826328  1
  Co  Co154  1  -0.06587745  0.63409948  0.66460605  1
  Co  Co155  1  -0.05052971  0.42893489  0.22519737  1
  Co  Co156  1  0.02233011  0.05166988  0.69695052  1
  Co  Co157  1  0.31108319  0.93256315  0.74593911  1
  Co  Co158  1  0.33273140  0.06419640  0.62936513  1
  Co  Co159  1  0.15677931  -0.04418593  0.79211166  1
  Co  Co160  1  0.46198841  0.57949701  0.15971006  1
  Co  Co161  1  0.45478764  -0.03685758  0.56963707  1
  Ni  Ni162  1  0.85987010  -0.01779103  0.71279935  1
  Ni  Ni163  1  -0.04851828  0.35335218  0.07259336  1
  Ni  Ni164  1  -0.09652224  0.74955744  0.19388579  1
  Ni  Ni165  1  0.58131034  0.88931508  0.47428921  1
  Ni  Ni166  1  0.89651254  0.62341984  0.05053306  1
  Ni  Ni167  1  0.32858378  0.77265754  0.44869968  1
  Ni  Ni168  1  0.61263986  0.75688381  0.25265367  1
  Ni  Ni169  1  0.01634749  0.86651633  0.90296589  1
  Ni  Ni170  1  0.26196816  0.63215649  0.32060340  1
  Ni  Ni171  1  0.13483602  0.22118898  0.53531291  1
  Ni  Ni172  1  0.50266685  0.09941163  0.02148865  1
  Ni  Ni173  1  0.29705177  0.57908998  0.15856996  1
  Ni  Ni174  1  0.55458671  0.27452744  0.47640269  1
  Ni  Ni175  1  0.67561403  0.58888115  0.49010221  1
  Ni  Ni176  1  0.28285335  0.77280689  -0.01860508  1
  Ni  Ni177  1  0.77612621  0.55562148  -0.04819691  1
  Ni  Ni178  1  0.45666938  0.69070406  0.71605860  1
  Ni  Ni179  1  0.07209882  0.58812992  0.57333509  1
  Ni  Ni180  1  0.16475235  0.84501640  0.66930675  1
  Ni  Ni181  1  0.03512728  0.65372430  0.41170010  1
  Ni  Ni182  1  0.41883779  0.15848989  0.88036254  1
  Ni  Ni183  1  0.00985678  0.81823789  0.44055861  1
  Ni  Ni184  1  0.27665254  0.46435337  0.87362858  1
  Ni  Ni185  1  0.23147960  0.79574933  0.31261460  1
  Ni  Ni186  1  0.20758413  0.13136057  -0.04359043  1
  Ni  Ni187  1  0.39458361  0.50424477  0.58055418  1
  Ni  Ni188  1  0.21206939  0.87824951  0.08497039  1
  Ni  Ni189  1  0.13947366  0.35612650  0.80734292  1
  Ni  Ni190  1  0.72822236  0.52553223  0.22839360  1
  Ni  Ni191  1  0.47050024  0.18220709  0.38291749  1
  Ni  Ni192  1  0.27255116  0.36334430  0.15943319  1
  Ni  Ni193  1  0.63159144  0.89340743  0.14153459  1
  Ni  Ni194  1  0.70994677  0.51135916  0.64488958  1
  Ni  Ni195  1  0.76469737  0.84781659  0.63670073  1
  Ni  Ni196  1  0.41602024  0.34636253  0.61675618  1
  Ni  Ni197  1  0.14240047  0.78486309  0.82700283  1
  Ni  Ni198  1  0.11595943  0.51075782  -0.14573640  1
  Ni  Ni199  1  0.57526993  0.35104562  0.83037139  1
  Ni  Ni200  1  0.54795599  0.21393237  0.72693701  1
  Ni  Ni201  1  0.02067071  0.22856495  0.14861141  1
  Ni  Ni202  1  0.90050634  0.39893373  0.58229048  1
  Ni  Ni203  1  0.45235768  0.81435345  -0.00472848  1
  Ni  Ni204  1  0.13233396  0.48679522  0.69458513  1
  Ni  Ni205  1  0.70638084  -0.01039142  0.41505647  1
  Ni  Ni206  1  0.08911014  0.22123827  0.89856315  1
  Ni  Ni207  1  0.34961860  0.67317966  0.59226486  1
  Ni  Ni208  1  0.22335878  0.07496173  0.31850657  1
  Ni  Ni209  1  0.00028200  0.28377397  0.30590945  1
  Ni  Ni210  1  0.29188299  0.49888126  0.42698525  1
  Ni  Ni211  1  0.54715821  0.03846134  0.18082642  1
  Ni  Ni212  1  0.31176515  0.37277259  0.00400472  1
  Ni  Ni213  1  0.34442186  0.05314383  -0.01595250  1
  Ni  Ni214  1  0.64537864  0.65027964  -0.00379389  1
