# generated using pymatgen
data_Ti108Co54Ni53
_symmetry_space_group_name_H-M   'P 1'
_cell_length_a   14.64351192
_cell_length_b   14.62613252
_cell_length_c   14.55254144
_cell_angle_alpha   90.05564017
_cell_angle_beta   90.17319352
_cell_angle_gamma   90.23965199
_symmetry_Int_Tables_number   1
_chemical_formula_structural   Ti108Co54Ni53
_chemical_formula_sum   'Ti108 Co54 Ni53'
_cell_volume   3116.79042051
_cell_formula_units_Z   1
loop_
 _symmetry_equiv_pos_site_id
 _symmetry_equiv_pos_as_xyz
  1  'x, y, z'
loop_
 _atom_site_type_symbol
 _atom_site_label
 _atom_site_symmetry_multiplicity
 _atom_site_fract_x
 _atom_site_fract_y
 _atom_site_fract_z
 _atom_site_occupancy
  Ti  Ti0  1  0.14491248  0.05625759  0.24171498  1
  Ti  Ti1  1  0.01149944  0.08406776  0.55266476  1
  Ti  Ti2  1  0.08443230  0.07187528  0.88402046  1
  Ti  Ti3  1  0.06737786  0.49929574  0.22407912  1
  Ti  Ti4  1  0.03325510  0.39344182  0.57226143  1
  Ti  Ti5  1  0.05564897  0.45280190  0.94993359  1
  Ti  Ti6  1  0.10800962  0.83321432  0.21229067  1
  Ti  Ti7  1  0.16269111  0.72573881  0.60582932  1
  Ti  Ti8  1  0.11466585  0.86439871  0.90270006  1
  Ti  Ti9  1  0.48628973  0.07544703  0.28550878  1
  Ti  Ti10  1  0.43257129  0.03053360  0.57683140  1
  Ti  Ti11  1  0.45666393  0.02362596  0.95856668  1
  Ti  Ti12  1  0.37706462  0.38139844  0.27111097  1
  Ti  Ti13  1  0.33075208  0.45086910  0.62270534  1
  Ti  Ti14  1  0.40368302  0.47345116  0.81734972  1
  Ti  Ti15  1  0.46451251  0.77876394  0.27431750  1
  Ti  Ti16  1  0.34965542  0.71494766  0.61583339  1
  Ti  Ti17  1  0.41232698  0.74857618  0.94484167  1
  Ti  Ti18  1  0.75246703  0.00597745  0.25191252  1
  Ti  Ti19  1  0.67273063  0.09043832  0.59689339  1
  Ti  Ti20  1  0.82347262  0.06258103  0.86398929  1
  Ti  Ti21  1  0.73403393  0.44815237  0.17904057  1
  Ti  Ti22  1  0.66540662  0.38756393  0.64644806  1
  Ti  Ti23  1  0.74738851  0.48569045  0.97892232  1
  Ti  Ti24  1  0.77958668  0.78599798  0.24254054  1
  Ti  Ti25  1  0.82438710  0.72825829  0.61655671  1
  Ti  Ti26  1  0.76452360  0.77420959  0.92863942  1
  Ti  Ti27  1  0.11413218  0.27623267  0.08272182  1
  Ti  Ti28  1  0.10496321  0.24227342  0.49047913  1
  Ti  Ti29  1  0.10235099  0.22858377  0.73475886  1
  Ti  Ti30  1  0.06584232  0.61027923  0.06785074  1
  Ti  Ti31  1  0.03455483  0.56171238  0.43903909  1
  Ti  Ti32  1  0.07986080  0.55904022  0.74454835  1
  Ti  Ti33  1  0.08235103  0.97873780  0.06521527  1
  Ti  Ti34  1  0.09236694  0.87884507  0.40435116  1
  Ti  Ti35  1  0.06789631  0.86454832  0.69789885  1
  Ti  Ti36  1  0.39482689  0.33100150  0.08424859  1
  Ti  Ti37  1  0.43194649  0.25031892  0.38967776  1
  Ti  Ti38  1  0.41678623  0.29753754  0.74572415  1
  Ti  Ti39  1  0.38452784  0.57198573  -0.01080002  1
  Ti  Ti40  1  0.41773120  0.57445643  0.39357692  1
  Ti  Ti41  1  0.46771759  0.57470900  0.66690691  1
  Ti  Ti42  1  0.41707758  0.90719785  0.13180316  1
  Ti  Ti43  1  0.44164909  0.93531978  0.40259822  1
  Ti  Ti44  1  0.39007547  0.91511039  0.71351382  1
  Ti  Ti45  1  0.75616973  0.25290661  0.16469981  1
  Ti  Ti46  1  0.77223482  0.27020209  0.39038260  1
  Ti  Ti47  1  0.78686475  0.20925333  0.72730053  1
  Ti  Ti48  1  0.76854926  0.63911315  0.11531297  1
  Ti  Ti49  1  0.75245985  0.58318159  0.44079838  1
  Ti  Ti50  1  0.76805524  0.52331565  0.78458602  1
  Ti  Ti51  1  0.72377995  0.95874029  0.02998365  1
  Ti  Ti52  1  0.72985035  0.90897301  0.42905027  1
  Ti  Ti53  1  0.77679779  0.94579263  0.68596716  1
  Ti  Ti54  1  0.32849888  0.09682365  0.09400029  1
  Ti  Ti55  1  0.20463739  0.07056967  0.43887216  1
  Ti  Ti56  1  0.25275804  0.07155771  0.76648921  1
  Ti  Ti57  1  0.24948859  0.40427663  -0.00984616  1
  Ti  Ti58  1  0.17008630  0.39072327  0.36428963  1
  Ti  Ti59  1  0.22583065  0.40475668  0.78358024  1
  Ti  Ti60  1  0.27041547  0.67651627  0.08863127  1
  Ti  Ti61  1  0.32437135  0.73162186  0.42765970  1
  Ti  Ti62  1  0.28063266  0.77495628  0.78686238  1
  Ti  Ti63  1  0.61615976  0.13369878  0.08014303  1
  Ti  Ti64  1  0.54421167  0.12101955  0.46731428  1
  Ti  Ti65  1  0.51984021  0.10274230  0.74574385  1
  Ti  Ti66  1  0.60013250  0.34746325  0.04453222  1
  Ti  Ti67  1  0.56521874  0.37163199  0.47230724  1
  Ti  Ti68  1  0.61279950  0.37293732  0.82403485  1
  Ti  Ti69  1  0.57367804  0.70845696  0.05744688  1
  Ti  Ti70  1  0.56543713  0.77868285  0.46673371  1
  Ti  Ti71  1  0.56486858  0.79137077  0.82406395  1
  Ti  Ti72  1  0.87024338  0.08889507  0.11329008  1
  Ti  Ti73  1  0.87518805  0.08572124  0.41113350  1
  Ti  Ti74  1  0.93108217  0.05332100  0.70689853  1
  Ti  Ti75  1  0.93034924  0.35916186  0.10242288  1
  Ti  Ti76  1  0.96250130  0.37164236  0.38319229  1
  Ti  Ti77  1  0.96654665  0.37021502  0.78416447  1
  Ti  Ti78  1  1.00033659  0.77910974  0.03892053  1
  Ti  Ti79  1  0.93645402  0.74810611  0.38203173  1
  Ti  Ti80  1  0.96398134  0.76139616  0.83695020  1
  Ti  Ti81  1  0.23866630  0.23434564  0.22621343  1
  Ti  Ti82  1  0.30391557  0.21577829  0.57229751  1
  Ti  Ti83  1  0.22543808  0.20311158  0.93463244  1
  Ti  Ti84  1  0.26829246  0.53574367  0.25319895  1
  Ti  Ti85  1  0.21883485  0.55685768  0.51894013  1
  Ti  Ti86  1  0.20930619  0.56918389  0.89836391  1
  Ti  Ti87  1  0.27828130  0.91651865  0.30961402  1
  Ti  Ti88  1  0.26896125  0.88802544  0.51082887  1
  Ti  Ti89  1  0.28343480  0.88694654  0.99748808  1
  Ti  Ti90  1  0.55092490  0.27155847  0.22363720  1
  Ti  Ti91  1  0.51686114  0.23795307  0.60420936  1
  Ti  Ti92  1  0.51741827  0.21487401  0.90076159  1
  Ti  Ti93  1  0.48164879  0.57991517  0.19550923  1
  Ti  Ti94  1  0.64328166  0.66222483  0.63317124  1
  Ti  Ti95  1  0.56761669  0.53802421  0.91293654  1
  Ti  Ti96  1  0.59627053  0.92352335  0.17249823  1
  Ti  Ti97  1  0.58433574  0.91291176  0.65774214  1
  Ti  Ti98  1  0.67953547  0.93297049  0.85147503  1
  Ti  Ti99  1  0.98240232  0.19365374  0.26612846  1
  Ti  Ti100  1  0.84264895  0.34260408  0.57782609  1
  Ti  Ti101  1  0.85429030  0.24379329  0.92976467  1
  Ti  Ti102  1  0.89048895  0.56252507  0.28307972  1
  Ti  Ti103  1  0.91702153  0.53624922  0.65100997  1
  Ti  Ti104  1  0.88984510  0.61699151  0.95935863  1
  Ti  Ti105  1  0.96457511  0.99129254  0.24558690  1
  Ti  Ti106  1  0.92523309  0.90085815  0.53491289  1
  Ti  Ti107  1  0.91318693  0.93371919  0.98421014  1
  Co  Co108  1  0.21608763  0.36520630  0.52622006  1
  Co  Co109  1  0.49514562  0.47795992  0.05201726  1
  Co  Co110  1  0.72507020  0.41518958  0.47966629  1
  Co  Co111  1  0.39930356  0.33930635  0.53021364  1
  Co  Co112  1  0.13672802  0.70977837  0.44882579  1
  Co  Co113  1  0.24605221  0.03310756  -0.05447487  1
  Co  Co114  1  0.17325088  0.11524739  0.06933887  1
  Co  Co115  1  0.13147849  0.32397222  0.87646243  1
  Co  Co116  1  0.12521455  0.20137463  0.33767861  1
  Co  Co117  1  0.15472671  0.45330701  0.64625232  1
  Co  Co118  1  0.62885483  0.55181206  0.09245653  1
  Co  Co119  1  0.17549796  0.58094165  0.36244731  1
  Co  Co120  1  0.60666846  0.52034310  0.73049049  1
  Co  Co121  1  0.48589137  0.05868534  0.13203431  1
  Co  Co122  1  0.42524752  0.72701231  0.11886315  1
  Co  Co123  1  0.90624801  0.84166319  0.69988549  1
  Co  Co124  1  0.39784572  0.88975033  0.87761659  1
  Co  Co125  1  0.80614979  0.44300568  0.34283280  1
  Co  Co126  1  -0.04698513  0.10267980  -0.02995425  1
  Co  Co127  1  0.55540751  0.42821311  0.18883430  1
  Co  Co128  1  -0.06171441  0.53756353  0.82671932  1
  Co  Co129  1  0.84536969  0.77649433  0.06930391  1
  Co  Co130  1  0.23525061  -0.03908581  0.14282924  1
  Co  Co131  1  0.26302489  0.23810380  0.76782306  1
  Co  Co132  1  0.31178716  0.07164616  0.27734416  1
  Co  Co133  1  0.37794813  0.13833029  0.69393879  1
  Co  Co134  1  0.22941401  0.88484468  0.66588858  1
  Co  Co135  1  0.22656365  0.72242216  -0.06697730  1
  Co  Co136  1  0.68958122  0.81239509  0.09850407  1
  Co  Co137  1  0.19838001  0.52290604  0.08124230  1
  Co  Co138  1  -0.05904768  0.23785620  0.47587677  1
  Co  Co139  1  0.58056514  -0.05051119  0.49982518  1
  Co  Co140  1  0.04120139  0.66828041  0.30224772  1
  Co  Co141  1  0.72245406  0.79867402  0.74111613  1
  Co  Co142  1  0.83254101  0.16569367  0.57239061  1
  Co  Co143  1  0.15470556  0.65007854  0.19620073  1
  Co  Co144  1  0.22137904  0.38736294  0.17514923  1
  Co  Co145  1  0.60786083  0.23064340  0.38063757  1
  Co  Co146  1  0.67964300  0.06942847  0.75767419  1
  Co  Co147  1  0.62502259  0.23285184  0.73519863  1
  Co  Co148  1  0.82752278  0.15224421  0.27045920  1
  Co  Co149  1  0.67049250  0.65873127  0.79790869  1
  Co  Co150  1  0.27374389  0.02864656  0.59818828  1
  Co  Co151  1  0.02594163  0.12816217  0.11982071  1
  Co  Co152  1  0.10843420  -0.05716956  0.55209648  1
  Co  Co153  1  0.34454763  0.67482421  0.26499853  1
  Co  Co154  1  -0.01101924  0.95092075  0.82573004  1
  Co  Co155  1  0.50182410  0.40958291  0.65596534  1
  Co  Co156  1  0.46870599  0.19881132  0.04866778  1
  Co  Co157  1  0.15933946  0.80082498  0.06757061  1
  Co  Co158  1  0.82984507  -0.08295089  0.14547771  1
  Co  Co159  1  0.87675874  0.33294293  0.24950711  1
  Co  Co160  1  0.23142255  -0.07324883  0.82401896  1
  Co  Co161  1  0.37215518  0.14044208  0.87195964  1
  Ni  Ni162  1  -0.11562721  0.48444447  0.48663852  1
  Ni  Ni163  1  0.34863491  0.30324270  -0.10001861  1
  Ni  Ni164  1  0.05391328  0.63983934  -0.09417321  1
  Ni  Ni165  1  0.63392052  0.03500283  0.36502036  1
  Ni  Ni166  1  0.50219808  0.64447650  0.81345883  1
  Ni  Ni167  1  0.12908106  0.71614482  0.78175087  1
  Ni  Ni168  1  -0.00911041  0.69323530  0.67431784  1
  Ni  Ni169  1  0.87339481  0.89843847  0.34428796  1
  Ni  Ni170  1  0.40128278  0.20380755  0.20833738  1
  Ni  Ni171  1  0.75578839  0.52679143  0.60433692  1
  Ni  Ni172  1  0.10122787  0.02328909  0.71170059  1
  Ni  Ni173  1  0.04383479  0.05341363  0.38941349  1
  Ni  Ni174  1  0.50864064  0.75719129  0.66173594  1
  Ni  Ni175  1  0.01728047  0.77083282  0.53371466  1
  Ni  Ni176  1  0.68660244  0.23504358  0.90051097  1
  Ni  Ni177  1  0.06522161  0.33471931  0.23615812  1
  Ni  Ni178  1  0.78039454  0.35853497  0.82486484  1
  Ni  Ni179  1  0.65972561  0.14800720  0.25061379  1
  Ni  Ni180  1  0.83978794  0.67617979  0.77678355  1
  Ni  Ni181  1  0.29130685  0.81106558  0.18157891  1
  Ni  Ni182  1  0.66088308  0.37717860  0.31437564  1
  Ni  Ni183  1  0.83945518  -0.10837953  0.83847124  1
  Ni  Ni184  1  0.48105305  0.65373054  0.52279996  1
  Ni  Ni185  1  0.00764188  0.27565949  -0.04280150  1
  Ni  Ni186  1  0.55751837  0.87390206  -0.01684312  1
  Ni  Ni187  1  0.81133572  0.01189217  0.54157845  1
  Ni  Ni188  1  0.58969296  0.88412744  0.33224223  1
  Ni  Ni189  1  -0.05472836  0.82378606  0.20948363  1
  Ni  Ni190  1  0.52591097  -0.03781944  0.81968830  1
  Ni  Ni191  1  -0.09780293  0.52027555  0.09895320  1
  Ni  Ni192  1  0.93814162  0.66931241  0.16551698  1
  Ni  Ni193  1  0.48124005  0.37966643  0.92742350  1
  Ni  Ni194  1  0.16053212  0.13866667  0.61081301  1
  Ni  Ni195  1  0.24875059  0.59055742  0.70163867  1
  Ni  Ni196  1  0.60262148  0.53172071  0.52269211  1
  Ni  Ni197  1  0.75950909  0.12829124  0.00538098  1
  Ni  Ni198  1  0.69685436  0.82767893  0.56868521  1
  Ni  Ni199  1  0.76485843  0.33466001  0.02463368  1
  Ni  Ni200  1  0.35327347  0.48414016  0.12692339  1
  Ni  Ni201  1  0.68543564  0.24998938  0.54390512  1
  Ni  Ni202  1  0.36742951  0.09683882  0.43409607  1
  Ni  Ni203  1  0.89406347  0.41702039  -0.06163115  1
  Ni  Ni204  1  -0.04488771  0.18584377  0.81131300  1
  Ni  Ni205  1  0.50911581  0.44744538  0.34152144  1
  Ni  Ni206  1  0.20438084  0.75006631  0.31399830  1
  Ni  Ni207  1  0.90689842  0.63900233  0.50963888  1
  Ni  Ni208  1  -0.03925842  0.23991545  0.64786334  1
  Ni  Ni209  1  0.34710801  0.63106766  0.82730938  1
  Ni  Ni210  1  0.26911223  0.25283921  0.40336689  1
  Ni  Ni211  1  0.69040767  0.63610440  -0.04501478  1
  Ni  Ni212  1  0.32369852  0.43918391  0.42360200  1
  Ni  Ni213  1  0.62374461  0.07863578  -0.08481366  1
  Ni  Ni214  1  0.43642408  0.85286371  0.54886012  1
