# generated using pymatgen
data_Ti108Co54Ni53
_symmetry_space_group_name_H-M   'P 1'
_cell_length_a   14.59146496
_cell_length_b   14.65829980
_cell_length_c   14.65668782
_cell_angle_alpha   90.01879454
_cell_angle_beta   89.87390203
_cell_angle_gamma   90.02209814
_symmetry_Int_Tables_number   1
_chemical_formula_structural   Ti108Co54Ni53
_chemical_formula_sum   'Ti108 Co54 Ni53'
_cell_volume   3134.85333425
_cell_formula_units_Z   1
loop_
 _symmetry_equiv_pos_site_id
 _symmetry_equiv_pos_as_xyz
  1  'x, y, z'
loop_
 _atom_site_type_symbol
 _atom_site_label
 _atom_site_symmetry_multiplicity
 _atom_site_fract_x
 _atom_site_fract_y
 _atom_site_fract_z
 _atom_site_occupancy
  Ti  Ti0  1  0.06829917  0.08033607  0.25114339  1
  Ti  Ti1  1  0.01744195  0.12098988  0.61122907  1
  Ti  Ti2  1  0.07381453  0.06615205  0.81420478  1
  Ti  Ti3  1  0.08470078  0.44580580  0.20151977  1
  Ti  Ti4  1  0.07792205  0.40477141  0.51397837  1
  Ti  Ti5  1  0.04551303  0.42931796  0.93089591  1
  Ti  Ti6  1  0.12485671  0.62883994  0.26315143  1
  Ti  Ti7  1  0.11494002  0.77195720  0.51088497  1
  Ti  Ti8  1  0.11674116  0.79298414  0.86735153  1
  Ti  Ti9  1  0.49852083  0.04908461  0.27360031  1
  Ti  Ti10  1  0.42534214  0.04304142  0.59691658  1
  Ti  Ti11  1  0.38560938  0.05937837  0.91431310  1
  Ti  Ti12  1  0.48132319  0.36846475  0.25880266  1
  Ti  Ti13  1  0.36863078  0.42593363  0.57086846  1
  Ti  Ti14  1  0.38653309  0.36826079  0.90243198  1
  Ti  Ti15  1  0.40012123  0.78069860  0.22528404  1
  Ti  Ti16  1  0.46787313  0.75329926  0.54431767  1
  Ti  Ti17  1  0.39813924  0.72855967  0.92385110  1
  Ti  Ti18  1  0.82889976  0.09823925  0.27516291  1
  Ti  Ti19  1  0.65808969  0.08327487  0.63046651  1
  Ti  Ti20  1  0.71076441  0.13533574  0.96947806  1
  Ti  Ti21  1  0.74118999  0.40793873  0.24858350  1
  Ti  Ti22  1  0.69023277  0.41014277  0.60476346  1
  Ti  Ti23  1  0.73719602  0.46998762  0.91208191  1
  Ti  Ti24  1  0.73681712  0.70713405  0.24862124  1
  Ti  Ti25  1  0.66818712  0.69814096  0.57060587  1
  Ti  Ti26  1  0.82053597  0.77806627  0.91355612  1
  Ti  Ti27  1  0.07088188  0.20375720  0.10501206  1
  Ti  Ti28  1  0.10294927  0.24947959  0.39048778  1
  Ti  Ti29  1  0.15852332  0.32432336  0.77952022  1
  Ti  Ti30  1  0.06490847  0.64477185  0.03899441  1
  Ti  Ti31  1  0.01837059  0.53629855  0.39635885  1
  Ti  Ti32  1  0.06686900  0.66394935  0.72053239  1
  Ti  Ti33  1  0.05295903  0.85160042  0.06932262  1
  Ti  Ti34  1  0.05359253  0.87814403  0.30328348  1
  Ti  Ti35  1  0.03479767  0.88881398  0.68437578  1
  Ti  Ti36  1  0.41124862  0.20724782  0.16485491  1
  Ti  Ti37  1  0.44162864  0.26118840  0.46008983  1
  Ti  Ti38  1  0.40687833  0.28136952  0.69522996  1
  Ti  Ti39  1  0.40141026  0.63530416  0.09968939  1
  Ti  Ti40  1  0.36843831  0.59419643  0.48007807  1
  Ti  Ti41  1  0.46854756  0.60563079  0.78195810  1
  Ti  Ti42  1  0.38589255  0.95688871  0.11962607  1
  Ti  Ti43  1  0.42913991  0.91394329  0.44063861  1
  Ti  Ti44  1  0.47331818  0.91646579  0.81315731  1
  Ti  Ti45  1  0.78905312  0.23345689  0.12311636  1
  Ti  Ti46  1  0.81694859  0.27206820  0.38906001  1
  Ti  Ti47  1  0.78048830  0.27822589  0.81969909  1
  Ti  Ti48  1  0.70489899  0.63478499  0.06339557  1
  Ti  Ti49  1  0.80409128  0.53229826  0.38442262  1
  Ti  Ti50  1  0.75189605  0.55692489  0.72157092  1
  Ti  Ti51  1  0.73429643  0.85485295  0.08679154  1
  Ti  Ti52  1  0.81383562  0.91760548  0.37769850  1
  Ti  Ti53  1  0.79733744  0.93543675  0.77213659  1
  Ti  Ti54  1  0.24110348  0.12087766  0.12379206  1
  Ti  Ti55  1  0.33753676  0.09137526  0.40532596  1
  Ti  Ti56  1  0.28219240  0.13411202  0.73196906  1
  Ti  Ti57  1  0.31671158  0.42575934  0.11324356  1
  Ti  Ti58  1  0.29980850  0.38292843  0.38911043  1
  Ti  Ti59  1  0.19207904  0.50370828  0.81102368  1
  Ti  Ti60  1  0.22155102  0.73385840  0.12614676  1
  Ti  Ti61  1  0.30177409  0.74862545  0.39048102  1
  Ti  Ti62  1  0.26551376  0.67677958  0.79036721  1
  Ti  Ti63  1  0.52700141  0.08114721  0.06345176  1
  Ti  Ti64  1  0.67005978  0.10386968  0.38428596  1
  Ti  Ti65  1  0.50776106  0.11711483  0.76310811  1
  Ti  Ti66  1  0.60652690  0.41956104  0.07003175  1
  Ti  Ti67  1  0.55119371  0.42490550  0.45342494  1
  Ti  Ti68  1  0.59016579  0.32736466  0.77237096  1
  Ti  Ti69  1  0.53251933  0.78638468  0.05941984  1
  Ti  Ti70  1  0.57304601  0.77404278  0.36991128  1
  Ti  Ti71  1  0.57417580  0.81073272  0.69800587  1
  Ti  Ti72  1  0.96314862  0.04683969  0.01835709  1
  Ti  Ti73  1  0.89270726  0.09603193  0.47333061  1
  Ti  Ti74  1  0.85810908  0.10138347  0.84597483  1
  Ti  Ti75  1  0.92253693  0.48528799  0.06463183  1
  Ti  Ti76  1  0.88218741  0.41465289  0.51781217  1
  Ti  Ti77  1  0.95996983  0.36359959  0.76562304  1
  Ti  Ti78  1  0.88903883  0.72666976  0.11209558  1
  Ti  Ti79  1  0.87574973  0.73386611  0.46691268  1
  Ti  Ti80  1  0.82414179  0.73984800  0.68670979  1
  Ti  Ti81  1  0.21132772  0.29331058  0.23277962  1
  Ti  Ti82  1  0.21303736  0.29002557  0.59392814  1
  Ti  Ti83  1  0.23569756  0.20599462  0.91599009  1
  Ti  Ti84  1  0.29489653  0.55703710  0.30208413  1
  Ti  Ti85  1  0.22630575  0.63749404  0.59922566  1
  Ti  Ti86  1  0.28568816  0.56530779  0.96653353  1
  Ti  Ti87  1  0.21377563  0.93190225  0.18836583  1
  Ti  Ti88  1  0.29811225  0.85001461  0.68362467  1
  Ti  Ti89  1  0.28766556  0.88981754  0.88896179  1
  Ti  Ti90  1  0.60038317  0.25104932  0.15436090  1
  Ti  Ti91  1  0.63703625  0.25805819  0.49606893  1
  Ti  Ti92  1  0.54638705  0.24094146  0.94507066  1
  Ti  Ti93  1  0.59264893  0.56345703  0.32133449  1
  Ti  Ti94  1  0.53884363  0.54458160  0.61843396  1
  Ti  Ti95  1  0.56825089  0.59081370  0.93985284  1
  Ti  Ti96  1  0.68211758  0.95297424  0.23929176  1
  Ti  Ti97  1  0.58739542  0.92986377  0.54196339  1
  Ti  Ti98  1  0.64546405  0.91397380  0.91568943  1
  Ti  Ti99  1  0.93702613  0.31077346  0.22113844  1
  Ti  Ti100  1  0.85142356  0.25806939  0.62087645  1
  Ti  Ti101  1  1.02070501  0.23498624  0.90874376  1
  Ti  Ti102  1  0.91386706  0.65106267  0.29083363  1
  Ti  Ti103  1  0.93943149  0.55452485  0.63681545  1
  Ti  Ti104  1  0.91528351  0.61065240  0.84797053  1
  Ti  Ti105  1  0.91049003  0.93947304  0.18943793  1
  Ti  Ti106  1  0.87048723  0.92281965  0.58124225  1
  Ti  Ti107  1  0.96157636  0.91332609  0.87346000  1
  Co  Co108  1  0.46348466  0.33163517  0.06792320  1
  Co  Co109  1  0.61571147  -0.04750781  0.38844812  1
  Co  Co110  1  0.25839922  0.23654169  0.44408010  1
  Co  Co111  1  0.29577452  0.39899881  0.71591763  1
  Co  Co112  1  -0.03747565  0.25346214  0.49281532  1
  Co  Co113  1  0.20918627  0.87009573  0.02975907  1
  Co  Co114  1  0.74599812  -0.00321084  0.50916788  1
  Co  Co115  1  -0.06912030  0.14396122  0.15800897  1
  Co  Co116  1  0.39661046  0.21335024  0.84053635  1
  Co  Co117  1  0.11505202  -0.04793539  -0.07091353  1
  Co  Co118  1  0.10031276  0.00841752  0.10315284  1
  Co  Co119  1  -0.05813323  0.01703355  0.72112222  1
  Co  Co120  1  0.87557399  0.18430848  -0.00851093  1
  Co  Co121  1  0.79979000  -0.02438693  0.94103521  1
  Co  Co122  1  0.68381913  0.24385299  0.66643943  1
  Co  Co123  1  0.43625084  0.48995193  0.37387756  1
  Co  Co124  1  0.72778061  0.39989650  0.43536607  1
  Co  Co125  1  0.53123100  0.35261593  0.60143360  1
  Co  Co126  1  0.69738082  0.30769369  -0.02835986  1
  Co  Co127  1  0.35383393  0.50746658  0.82720106  1
  Co  Co128  1  -0.00854882  0.58143174  0.17163711  1
  Co  Co129  1  0.47108686  0.92024729  -0.02307012  1
  Co  Co130  1  0.72865037  0.62858721  0.87230095  1
  Co  Co131  1  0.34950777  -0.00513157  0.74797327  1
  Co  Co132  1  0.44497531  0.88984733  0.63138603  1
  Co  Co133  1  0.46331963  0.43640635  0.72868326  1
  Co  Co134  1  0.55806285  0.41344273  0.91504591  1
  Co  Co135  1  0.55114633  -0.06755121  0.13033044  1
  Co  Co136  1  0.95682620  0.18923820  0.33505093  1
  Co  Co137  1  0.89422264  0.80991738  0.28752026  1
  Co  Co138  1  -0.05153682  0.77413481  0.77841147  1
  Co  Co139  1  0.33722084  0.06726711  0.24150097  1
  Co  Co140  1  0.03631382  0.75095521  0.19731648  1
  Co  Co141  1  -0.03315793  0.75116322  0.60183470  1
  Co  Co142  1  0.91339540  0.46712766  0.26248277  1
  Co  Co143  1  0.03669051  0.72824071  0.37205740  1
  Co  Co144  1  0.18009984  0.63968563  0.41953486  1
  Co  Co145  1  -0.02669081  0.74389457  -0.05163389  1
  Co  Co146  1  0.75914895  0.16204087  0.52400346  1
  Co  Co147  1  0.14814475  0.43076197  0.34911961  1
  Co  Co148  1  0.10925234  0.61780323  0.88784378  1
  Co  Co149  1  0.25348739  0.02081208  0.00242704  1
  Co  Co150  1  0.12795141  0.18211989  0.72108972  1
  Co  Co151  1  0.85241349  0.61314119  -0.00433717  1
  Co  Co152  1  0.66842910  0.00126525  0.05223153  1
  Co  Co153  1  0.23366447  0.72137742  -0.04252637  1
  Co  Co154  1  0.30679550  0.79205398  0.53805158  1
  Co  Co155  1  0.35421017  0.80650435  0.05928002  1
  Co  Co156  1  0.56733937  0.05431405  0.90374437  1
  Co  Co157  1  0.49933249  0.89131026  0.28046151  1
  Co  Co158  1  0.43735100  0.65350012  0.32507314  1
  Co  Co159  1  0.61077543  0.49834918  0.78362116  1
  Co  Co160  1  0.15756429  0.78575149  0.68238965  1
  Co  Co161  1  0.20917856  0.14573378  0.30204520  1
  Ni  Ni162  1  0.18882178  0.78753746  0.28333700  1
  Ni  Ni163  1  0.52063196  0.18620083  0.59984650  1
  Ni  Ni164  1  0.14482470  0.46831201  0.65104129  1
  Ni  Ni165  1  0.07249780  0.59236052  0.54585472  1
  Ni  Ni166  1  0.14888836  0.50485383  0.03389529  1
  Ni  Ni167  1  0.54796561  0.75481499  0.85740164  1
  Ni  Ni168  1  0.45284868  0.49101884  0.02708687  1
  Ni  Ni169  1  0.70346883  0.79188353  0.79772589  1
  Ni  Ni170  1  0.17892442  -0.05505731  0.76808844  1
  Ni  Ni171  1  0.87435285  0.36711453  0.92742512  1
  Ni  Ni172  1  0.83193766  0.41802592  0.68886559  1
  Ni  Ni173  1  0.65033556  0.53199913  0.17619260  1
  Ni  Ni174  1  0.82021793  0.10330965  0.66800418  1
  Ni  Ni175  1  0.51087705  0.08641026  0.45054333  1
  Ni  Ni176  1  0.38661109  0.19558601  0.00344546  1
  Ni  Ni177  1  0.66916932  0.54041796  0.49655238  1
  Ni  Ni178  1  0.21822124  0.38080558  0.94000498  1
  Ni  Ni179  1  0.24302839  0.57029872  0.14846745  1
  Ni  Ni180  1  0.61549527  0.80273955  0.20406283  1
  Ni  Ni181  1  0.62476423  0.65626155  0.73800926  1
  Ni  Ni182  1  0.63085027  0.31758903  0.33184767  1
  Ni  Ni183  1  0.81337606  0.56154599  0.17503968  1
  Ni  Ni184  1  0.11697876  0.35130372  0.06859231  1
  Ni  Ni185  1  0.71388253  0.67502015  0.40904510  1
  Ni  Ni186  1  0.89259380  0.87951914  0.03118520  1
  Ni  Ni187  1  0.66326301  0.75178379  -0.03704340  1
  Ni  Ni188  1  0.78320580  0.39881970  0.08659369  1
  Ni  Ni189  1  0.02921625  0.50969788  0.77885327  1
  Ni  Ni190  1  0.71266920  0.83039751  0.47419346  1
  Ni  Ni191  1  0.38302109  0.65038549  0.64305513  1
  Ni  Ni192  1  0.41623036  0.76594389  0.75666136  1
  Ni  Ni193  1  0.54508569  0.66055420  0.18760840  1
  Ni  Ni194  1  0.35428647  0.23537071  0.31108461  1
  Ni  Ni195  1  -0.04667750  0.31487762  0.05476326  1
  Ni  Ni196  1  0.03955985  0.29309515  0.63529630  1
  Ni  Ni197  1  -0.04071970  0.00950723  0.35437139  1
  Ni  Ni198  1  -0.04322336  0.19365917  0.75004291  1
  Ni  Ni199  1  -0.02440019  0.86947105  0.46011465  1
  Ni  Ni200  1  0.11923732  0.10982131  -0.02568483  1
  Ni  Ni201  1  0.52152670  0.20274146  0.31977862  1
  Ni  Ni202  1  0.33606950  -0.08258932  0.30654575  1
  Ni  Ni203  1  0.26426536  0.27876905  0.06801695  1
  Ni  Ni204  1  0.67799188  0.13915389  0.80105273  1
  Ni  Ni205  1  0.71675555  0.88028864  0.63807875  1
  Ni  Ni206  1  0.62339216  -0.02630513  0.75281013  1
  Ni  Ni207  1  0.67162736  0.11150591  0.19319790  1
  Ni  Ni208  1  -0.02040473  0.36837521  0.37414128  1
  Ni  Ni209  1  0.34166877  0.18230255  0.57314381  1
  Ni  Ni210  1  0.80950189  0.60068460  0.54968507  1
  Ni  Ni211  1  0.80969546  0.04762032  0.10462239  1
  Ni  Ni212  1  0.21930385  0.49646104  0.49450570  1
  Ni  Ni213  1  0.45073211  0.52318545  0.21011116  1
  Ni  Ni214  1  0.53573659  0.62377014  0.46129553  1
