# generated using pymatgen
data_Ti108Co54Ni53
_symmetry_space_group_name_H-M   'P 1'
_cell_length_a   14.60478351
_cell_length_b   14.69412472
_cell_length_c   14.58219336
_cell_angle_alpha   89.77848103
_cell_angle_beta   89.97102491
_cell_angle_gamma   89.82289664
_symmetry_Int_Tables_number   1
_chemical_formula_structural   Ti108Co54Ni53
_chemical_formula_sum   'Ti108 Co54 Ni53'
_cell_volume   3129.36574565
_cell_formula_units_Z   1
loop_
 _symmetry_equiv_pos_site_id
 _symmetry_equiv_pos_as_xyz
  1  'x, y, z'
loop_
 _atom_site_type_symbol
 _atom_site_label
 _atom_site_symmetry_multiplicity
 _atom_site_fract_x
 _atom_site_fract_y
 _atom_site_fract_z
 _atom_site_occupancy
  Ti  Ti0  1  0.09452237  0.06346569  0.24168726  1
  Ti  Ti1  1  0.12390775  0.09955583  0.59380027  1
  Ti  Ti2  1  0.10364521  0.13135820  0.90474054  1
  Ti  Ti3  1  0.07257823  0.38663918  0.20464578  1
  Ti  Ti4  1  0.09121957  0.41687516  0.51626894  1
  Ti  Ti5  1  0.14334378  0.45258278  0.90319945  1
  Ti  Ti6  1  0.05687452  0.70100843  0.23778723  1
  Ti  Ti7  1  0.06279531  0.80844539  0.58396899  1
  Ti  Ti8  1  0.05689406  0.78312435  0.88511970  1
  Ti  Ti9  1  0.42100203  0.06347176  0.22686903  1
  Ti  Ti10  1  0.36707770  0.02319846  0.57090702  1
  Ti  Ti11  1  0.40690674  0.12823944  0.94454349  1
  Ti  Ti12  1  0.43767650  0.37021968  0.20654808  1
  Ti  Ti13  1  0.43706672  0.38416537  0.64841904  1
  Ti  Ti14  1  0.43025880  0.42069673  0.85248230  1
  Ti  Ti15  1  0.43092222  0.68494647  0.24020326  1
  Ti  Ti16  1  0.36670693  0.78376597  0.67060248  1
  Ti  Ti17  1  0.35601828  0.79343352  0.92540293  1
  Ti  Ti18  1  0.72941127  0.05499314  0.27244584  1
  Ti  Ti19  1  0.77645945  0.15247990  0.63192083  1
  Ti  Ti20  1  0.77590987  0.10023267  0.85092578  1
  Ti  Ti21  1  0.75116034  0.36659570  0.27567122  1
  Ti  Ti22  1  0.72004676  0.33118582  0.48312980  1
  Ti  Ti23  1  0.76255596  0.44465277  0.91881185  1
  Ti  Ti24  1  0.76770506  0.75058459  0.19673173  1
  Ti  Ti25  1  0.77690333  0.73058842  0.55289466  1
  Ti  Ti26  1  0.68725451  0.79130774  0.93732681  1
  Ti  Ti27  1  0.08302026  0.30791619  0.01852363  1
  Ti  Ti28  1  0.03938674  0.23706462  0.43038748  1
  Ti  Ti29  1  0.08573967  0.34466941  0.73239832  1
  Ti  Ti30  1  0.04922935  0.53943223  0.04677764  1
  Ti  Ti31  1  0.03494438  0.55707609  0.37827959  1
  Ti  Ti32  1  0.08875698  0.65053120  0.70213838  1
  Ti  Ti33  1  0.12868095  0.88942741  0.11689173  1
  Ti  Ti34  1  0.07094761  0.85573862  0.38902584  1
  Ti  Ti35  1  0.16535975  0.84300261  0.75428835  1
  Ti  Ti36  1  0.39773428  0.21575925  0.10720324  1
  Ti  Ti37  1  0.41143246  0.21859454  0.49552697  1
  Ti  Ti38  1  0.42302227  0.23001927  0.77453156  1
  Ti  Ti39  1  0.36874646  0.52911602  0.12961763  1
  Ti  Ti40  1  0.36758034  0.51022253  0.34546968  1
  Ti  Ti41  1  0.41387182  0.58839324  0.73209775  1
  Ti  Ti42  1  0.43617299  0.87170106  0.09973144  1
  Ti  Ti43  1  0.44973629  0.91895724  0.41689520  1
  Ti  Ti44  1  0.40209482  1.02775301  0.77554162  1
  Ti  Ti45  1  0.74480742  0.30885378  0.06189862  1
  Ti  Ti46  1  0.70972611  0.11950704  0.46024037  1
  Ti  Ti47  1  0.75087315  0.32686304  0.68948458  1
  Ti  Ti48  1  0.73164086  0.61972442  0.06163124  1
  Ti  Ti49  1  0.74559904  0.53278089  0.41494383  1
  Ti  Ti50  1  0.74026533  0.62033704  0.82017883  1
  Ti  Ti51  1  0.82396723  0.95753536  0.00499796  1
  Ti  Ti52  1  0.78418588  0.91821980  0.44166645  1
  Ti  Ti53  1  0.80940708  0.88275389  0.80768687  1
  Ti  Ti54  1  0.28639859  0.03546274  0.09582207  1
  Ti  Ti55  1  0.23183669  0.15442964  0.45640892  1
  Ti  Ti56  1  0.21113922  0.04227873  0.75373615  1
  Ti  Ti57  1  0.24195471  0.31667353  0.13433592  1
  Ti  Ti58  1  0.22898285  0.35111501  0.40034167  1
  Ti  Ti59  1  0.25577745  0.47788078  0.74729254  1
  Ti  Ti60  1  0.25753160  0.73541529  0.15154023  1
  Ti  Ti61  1  0.22763663  0.73572341  0.44133708  1
  Ti  Ti62  1  0.25095082  0.67310917  0.81043065  1
  Ti  Ti63  1  0.67580839  0.06505987  0.06352242  1
  Ti  Ti64  1  0.54990362  0.10255081  0.36019236  1
  Ti  Ti65  1  0.59608468  0.04008871  0.75558865  1
  Ti  Ti66  1  0.60108201  0.47201471  0.10598343  1
  Ti  Ti67  1  0.57123696  0.41372239  0.33886165  1
  Ti  Ti68  1  0.59260635  0.34209646  0.78483012  1
  Ti  Ti69  1  0.59628718  0.77877012  0.13246684  1
  Ti  Ti70  1  0.58547354  0.77990618  0.34226044  1
  Ti  Ti71  1  0.54997440  0.72719183  0.79952867  1
  Ti  Ti72  1  0.95189112  0.13800845  0.06754795  1
  Ti  Ti73  1  0.88992114  0.10372458  0.39695843  1
  Ti  Ti74  1  0.93849583  0.04009262  0.71539474  1
  Ti  Ti75  1  0.87984401  0.44966262  0.12356935  1
  Ti  Ti76  1  0.89974581  0.42407976  0.46348706  1
  Ti  Ti77  1  0.88981583  0.40767123  0.78509817  1
  Ti  Ti78  1  0.94652126  0.80115389  0.09438291  1
  Ti  Ti79  1  0.89241402  0.77343158  0.34525958  1
  Ti  Ti80  1  0.89848214  0.73052077  0.75285335  1
  Ti  Ti81  1  0.31707219  0.21706321  0.29641642  1
  Ti  Ti82  1  0.24810938  0.32069858  0.60004627  1
  Ti  Ti83  1  0.29229221  0.31749151  0.93566935  1
  Ti  Ti84  1  0.18613515  0.54977766  0.20278906  1
  Ti  Ti85  1  0.26483953  0.52993260  0.51970463  1
  Ti  Ti86  1  0.24629728  0.61860436  1.00001120  1
  Ti  Ti87  1  0.29791701  0.91361491  0.26191019  1
  Ti  Ti88  1  0.21043944  0.94420895  0.47855760  1
  Ti  Ti89  1  0.20161509  0.95240745  0.93114461  1
  Ti  Ti90  1  0.62431283  0.22092197  0.20894750  1
  Ti  Ti91  1  0.59108960  0.21820175  0.58735755  1
  Ti  Ti92  1  0.62435608  0.21009163  0.92661499  1
  Ti  Ti93  1  0.63807677  0.61128000  0.26131556  1
  Ti  Ti94  1  0.64980227  0.57757197  0.63276916  1
  Ti  Ti95  1  0.58224417  0.52987253  0.86988342  1
  Ti  Ti96  1  0.57935196  0.95260340  0.22625094  1
  Ti  Ti97  1  0.53968382  0.89978428  0.59310011  1
  Ti  Ti98  1  0.52276036  0.90896560  0.90346876  1
  Ti  Ti99  1  0.92544160  0.26604334  0.26404782  1
  Ti  Ti100  1  0.92942309  0.28483507  0.61510075  1
  Ti  Ti101  1  0.92637403  0.26027164  0.90668376  1
  Ti  Ti102  1  0.85983403  0.59747211  0.28253258  1
  Ti  Ti103  1  0.85557733  0.56527511  0.65067150  1
  Ti  Ti104  1  0.94252869  0.58007776  0.85276880  1
  Ti  Ti105  1  0.85824006  0.92306491  0.22659226  1
  Ti  Ti106  1  0.98531544  0.97089055  0.51848285  1
  Ti  Ti107  1  1.00812860  0.96505863  0.96396599  1
  Co  Co108  1  0.61007916  0.64571897  -0.03641348  1
  Co  Co109  1  0.24417005  0.05718224  0.30882478  1
  Co  Co110  1  0.93545261  0.09307508  0.88303231  1
  Co  Co111  1  0.47897742  0.22727537  0.28444710  1
  Co  Co112  1  0.55751936  0.06237828  0.92987677  1
  Co  Co113  1  0.87276503  0.63447571  0.45548239  1
  Co  Co114  1  0.46846305  0.53413863  -0.00066120  1
  Co  Co115  1  0.28061575  0.16169607  0.84191895  1
  Co  Co116  1  0.71288306  0.86640301  0.30091218  1
  Co  Co117  1  0.74621599  0.50630010  0.20341415  1
  Co  Co118  1  0.09149052  0.25606591  0.58580157  1
  Co  Co119  1  0.14079811  0.50289009  0.63698317  1
  Co  Co120  1  0.02572754  0.17462440  0.75145460  1
  Co  Co121  1  0.11209742  0.62747222  0.89194393  1
  Co  Co122  1  0.66139075  0.19189426  0.75412996  1
  Co  Co123  1  0.80366416  0.16387659  0.00035621  1
  Co  Co124  1  0.22445792  0.15727807  0.17456184  1
  Co  Co125  1  0.93140483  0.30040254  0.09615580  1
  Co  Co126  1  0.02399573  0.70767165  0.43709551  1
  Co  Co127  1  0.26447452  0.62645120  0.65195103  1
  Co  Co128  1  0.10629795  0.69242081  0.08312506  1
  Co  Co129  1  0.06749712  -0.00724569  0.81465454  1
  Co  Co130  1  0.75880223  0.28964847  0.86924290  1
  Co  Co131  1  -0.08470027  0.82296680  0.49273854  1
  Co  Co132  1  0.86911469  0.21962958  0.76019225  1
  Co  Co133  1  0.71377375  0.47336024  0.74719487  1
  Co  Co134  1  -0.05879078  0.70357379  0.59888484  1
  Co  Co135  1  0.82526623  0.05448408  0.13635602  1
  Co  Co136  1  0.86334358  0.25109282  0.46238345  1
  Co  Co137  1  0.47592164  0.27778474  0.93512474  1
  Co  Co138  1  0.34638716  0.85095485  0.51881539  1
  Co  Co139  1  0.11767865  0.06420243  0.06666278  1
  Co  Co140  1  0.79802193  0.20595411  0.16981800  1
  Co  Co141  1  0.21671555  0.76816024  0.60272291  1
  Co  Co142  1  0.47666119  0.88229485  0.74532337  1
  Co  Co143  1  0.14495729  0.23562252  0.30643448  1
  Co  Co144  1  0.76266057  0.45809754  0.57786787  1
  Co  Co145  1  0.08908142  -0.04470266  0.65042196  1
  Co  Co146  1  0.14872528  0.27786492  0.86564555  1
  Co  Co147  1  0.89869067  0.43874355  0.30090967  1
  Co  Co148  1  0.28193719  0.87464361  0.06770726  1
  Co  Co149  1  0.49800030  0.52770643  0.24407843  1
  Co  Co150  1  0.40289550  0.34458257  0.36745255  1
  Co  Co151  1  0.54194627  0.49537339  0.71745109  1
  Co  Co152  1  0.61321682  0.38963216  0.62131281  1
  Co  Co153  1  0.36309085  0.40306293  0.50699250  1
  Co  Co154  1  0.28769730  0.32209958  0.76216445  1
  Co  Co155  1  0.51551852  0.76542824  -0.02258209  1
  Co  Co156  1  0.02232818  0.86064379  0.23409509  1
  Co  Co157  1  0.31538683  0.51510429  0.90154124  1
  Co  Co158  1  0.18705207  0.50876930  0.36917492  1
  Co  Co159  1  0.46964971  0.02292607  0.07322364  1
  Co  Co160  1  0.05194967  0.38447846  0.35747437  1
  Co  Co161  1  0.26964087  0.40966271  0.25459205  1
  Ni  Ni162  1  0.64959335  0.81803881  0.48849525  1
  Ni  Ni163  1  0.06969034  0.21920252  0.16155219  1
  Ni  Ni164  1  0.31497181  0.16444848  0.64018664  1
  Ni  Ni165  1  0.39787408  0.68816649  0.06379508  1
  Ni  Ni166  1  -0.04160698  0.41964101  -0.04797147  1
  Ni  Ni167  1  0.60759905  0.38334355  -0.04540567  1
  Ni  Ni168  1  0.45164825  0.84626006  0.26284822  1
  Ni  Ni169  1  0.90794836  0.83120298  -0.07115061  1
  Ni  Ni170  1  0.00445928  0.53869869  0.20963307  1
  Ni  Ni171  1  0.72623217  0.74464874  0.71462145  1
  Ni  Ni172  1  0.27395957  0.65059652  0.30466595  1
  Ni  Ni173  1  0.23350647  0.17705109  0.00713465  1
  Ni  Ni174  1  0.47771262  0.12391266  0.65547370  1
  Ni  Ni175  1  0.76768951  0.21170355  0.33077523  1
  Ni  Ni176  1  0.66757719  0.00717104  0.57539893  1
  Ni  Ni177  1  -0.00878321  0.56220361  0.54232063  1
  Ni  Ni178  1  0.55530213  0.31594969  0.09118689  1
  Ni  Ni179  1  0.62332628  -0.03833676  0.41130300  1
  Ni  Ni180  1  0.19329181  0.77792289  -0.03303030  1
  Ni  Ni181  1  -0.04052211  0.13721833  0.55240695  1
  Ni  Ni182  1  0.89980341  0.64635562  0.12868200  1
  Ni  Ni183  1  0.31894590  0.88939654  0.79854642  1
  Ni  Ni184  1  0.52137698  0.34638419  0.49153865  1
  Ni  Ni185  1  0.61319576  0.25472456  0.38429231  1
  Ni  Ni186  1  0.42039414  0.64346115  0.89120927  1
  Ni  Ni187  1  0.52231076  0.05754990  0.51331928  1
  Ni  Ni188  1  0.54508375  0.15986376  0.06951775  1
  Ni  Ni189  1  -0.01892920  0.87182140  0.74916481  1
  Ni  Ni190  1  0.63864391  0.87249397  0.76633578  1
  Ni  Ni191  1  0.18579719  0.80112708  0.28746842  1
  Ni  Ni192  1  0.25734791  -0.07614838  0.64038856  1
  Ni  Ni193  1  -0.03800462  -0.03002096  0.34163268  1
  Ni  Ni194  1  0.21940821  0.45535371  0.05120760  1
  Ni  Ni195  1  0.40440582  0.38856311  0.03769922  1
  Ni  Ni196  1  0.54165785  0.62661582  0.11576920  1
  Ni  Ni197  1  0.68738598  -0.03691353  -0.09936673  1
  Ni  Ni198  1  0.38188693  0.07472844  0.40276203  1
  Ni  Ni199  1  0.75586892  -0.00120232  0.71047285  1
  Ni  Ni200  1  0.05802324  0.50430357  0.77565205  1
  Ni  Ni201  1  0.73758186  0.70568562  0.37546381  1
  Ni  Ni202  1  0.86665160  0.55231490  -0.00674874  1
  Ni  Ni203  1  0.18094179  0.20544572  0.71826834  1
  Ni  Ni204  1  0.61230592  0.48551390  0.49125079  1
  Ni  Ni205  1  0.84965011  0.86697128  0.63781459  1
  Ni  Ni206  1  -0.02242477  0.67861393  -0.01615548  1
  Ni  Ni207  1  -0.02992313  0.44166819  0.64292279  1
  Ni  Ni208  1  0.36890926  -0.03491009  -0.05111724  1
  Ni  Ni209  1  -0.01795157  -0.01678498  0.13093426  1
  Ni  Ni210  1  0.83527446  0.02097427  0.56023210  1
  Ni  Ni211  1  0.13212158  0.63682140  0.53761557  1
  Ni  Ni212  1  0.82474658  0.69868089  0.93100964  1
  Ni  Ni213  1  0.08892527  0.06485897  0.41429644  1
  Ni  Ni214  1  0.71525184  0.90600653  0.13227191  1
