# generated using pymatgen
data_Ti108Co54Ni53
_symmetry_space_group_name_H-M   'P 1'
_cell_length_a   14.62085637
_cell_length_b   14.65519397
_cell_length_c   14.59720695
_cell_angle_alpha   89.91633431
_cell_angle_beta   89.91500234
_cell_angle_gamma   89.91826659
_symmetry_Int_Tables_number   1
_chemical_formula_structural   Ti108Co54Ni53
_chemical_formula_sum   'Ti108 Co54 Ni53'
_cell_volume   3127.75527585
_cell_formula_units_Z   1
loop_
 _symmetry_equiv_pos_site_id
 _symmetry_equiv_pos_as_xyz
  1  'x, y, z'
loop_
 _atom_site_type_symbol
 _atom_site_label
 _atom_site_symmetry_multiplicity
 _atom_site_fract_x
 _atom_site_fract_y
 _atom_site_fract_z
 _atom_site_occupancy
  Ti  Ti0  1  0.14872706  0.15174921  0.18693041  1
  Ti  Ti1  1  0.11161738  0.08318351  0.53818935  1
  Ti  Ti2  1  0.13460650  0.02134888  0.90695728  1
  Ti  Ti3  1  0.10634525  0.38482525  0.21023786  1
  Ti  Ti4  1  0.09096802  0.36024769  0.57741614  1
  Ti  Ti5  1  0.03118142  0.41369691  0.85441277  1
  Ti  Ti6  1  -0.00240180  0.74073539  0.27412292  1
  Ti  Ti7  1  0.12417522  0.78385012  0.56497485  1
  Ti  Ti8  1  0.15762941  0.71339228  0.96312886  1
  Ti  Ti9  1  0.32611359  0.04829437  0.24944357  1
  Ti  Ti10  1  0.47746782  0.09622980  0.52270447  1
  Ti  Ti11  1  0.42697598  0.14662632  0.90988428  1
  Ti  Ti12  1  0.44712297  0.44304283  0.29300954  1
  Ti  Ti13  1  0.42668975  0.47264399  0.61969956  1
  Ti  Ti14  1  0.43762963  0.43385011  0.94535729  1
  Ti  Ti15  1  0.47854090  0.74373936  0.23798518  1
  Ti  Ti16  1  0.42828602  0.77915052  0.59336284  1
  Ti  Ti17  1  0.44884650  0.82311822  0.94041479  1
  Ti  Ti18  1  0.71384891  0.10809345  0.20867546  1
  Ti  Ti19  1  0.68021957  0.07055231  0.57255050  1
  Ti  Ti20  1  0.72908181  0.13079684  1.00706563  1
  Ti  Ti21  1  0.72029866  0.47224643  0.24616992  1
  Ti  Ti22  1  0.76923101  0.52155660  0.53446780  1
  Ti  Ti23  1  0.76435137  0.35957418  0.97847952  1
  Ti  Ti24  1  0.80096262  0.79524744  0.24029126  1
  Ti  Ti25  1  0.75760351  0.72248104  0.57978594  1
  Ti  Ti26  1  0.70979766  0.78476736  0.88281260  1
  Ti  Ti27  1  0.12466210  0.23582212  -0.00515774  1
  Ti  Ti28  1  -0.03798583  0.21171581  0.43206773  1
  Ti  Ti29  1  0.12917154  0.27594481  0.78820014  1
  Ti  Ti30  1  0.07168499  0.62770477  0.11177443  1
  Ti  Ti31  1  0.05272479  0.63746161  0.44176221  1
  Ti  Ti32  1  0.09557874  0.58858683  0.81819584  1
  Ti  Ti33  1  0.17525312  0.95724129  0.14015121  1
  Ti  Ti34  1  0.01348688  0.99592477  0.39698239  1
  Ti  Ti35  1  0.11696375  0.91475442  0.70609217  1
  Ti  Ti36  1  0.44772539  0.26931318  0.04824415  1
  Ti  Ti37  1  0.40321404  0.27133261  0.50607669  1
  Ti  Ti38  1  0.46342785  0.17391543  0.69565619  1
  Ti  Ti39  1  0.36360794  0.67312521  0.06727242  1
  Ti  Ti40  1  0.40212197  0.61369356  0.38047226  1
  Ti  Ti41  1  0.37056748  0.64482480  0.72009497  1
  Ti  Ti42  1  0.40414978  0.97155672  0.06353445  1
  Ti  Ti43  1  0.40951940  0.82547531  0.39784835  1
  Ti  Ti44  1  0.44411214  0.96637572  0.80625689  1
  Ti  Ti45  1  0.72590148  0.30283531  0.15362209  1
  Ti  Ti46  1  0.74345668  0.17391314  0.39545831  1
  Ti  Ti47  1  0.76318618  0.28773476  0.74846921  1
  Ti  Ti48  1  0.82397224  0.52579391  0.09576553  1
  Ti  Ti49  1  0.72483169  0.62672774  0.36473758  1
  Ti  Ti50  1  0.75093898  0.61953190  0.78211833  1
  Ti  Ti51  1  0.78143154  0.94372899  0.09274751  1
  Ti  Ti52  1  0.70465883  0.83389205  0.40426098  1
  Ti  Ti53  1  0.70553624  0.91172454  0.69692084  1
  Ti  Ti54  1  0.28374023  0.12254600  0.05103421  1
  Ti  Ti55  1  0.29269100  0.08360148  0.43241827  1
  Ti  Ti56  1  0.19277704  0.10196243  0.71310073  1
  Ti  Ti57  1  0.22945429  0.42984287  0.05931834  1
  Ti  Ti58  1  0.26135216  0.41072702  0.40010907  1
  Ti  Ti59  1  0.23294590  0.42652371  0.72167417  1
  Ti  Ti60  1  0.18357328  0.76192145  0.15660780  1
  Ti  Ti61  1  0.19137617  0.76167888  0.36631904  1
  Ti  Ti62  1  0.19631027  0.73917775  0.76654638  1
  Ti  Ti63  1  0.48908209  0.11715950  0.17738592  1
  Ti  Ti64  1  0.57691230  0.05496899  0.35198468  1
  Ti  Ti65  1  0.62743606  0.08522345  0.82149649  1
  Ti  Ti66  1  0.55965251  0.40949703  0.12896899  1
  Ti  Ti67  1  0.66352869  0.38499911  0.42815928  1
  Ti  Ti68  1  0.61747527  0.44921892  0.71134667  1
  Ti  Ti69  1  0.58533261  0.69842019  0.05155387  1
  Ti  Ti70  1  0.56839605  0.69087366  0.43559647  1
  Ti  Ti71  1  0.53112783  0.72452658  0.80989763  1
  Ti  Ti72  1  0.91261251  0.08041073  0.09796250  1
  Ti  Ti73  1  0.87178186  0.03938711  0.53174703  1
  Ti  Ti74  1  0.98284920  0.07627355  0.70778191  1
  Ti  Ti75  1  0.92223174  0.35490038  0.13755985  1
  Ti  Ti76  1  0.97567713  0.43037602  0.43836377  1
  Ti  Ti77  1  0.91356567  0.39038967  0.65343093  1
  Ti  Ti78  1  0.89031914  0.71260116  0.09710307  1
  Ti  Ti79  1  0.87440395  0.74647862  0.42769727  1
  Ti  Ti80  1  0.99363838  0.74955599  0.77787216  1
  Ti  Ti81  1  0.24252055  0.23364222  0.32033887  1
  Ti  Ti82  1  0.21605523  0.24298846  0.51557113  1
  Ti  Ti83  1  0.32805443  0.29587202  0.83326841  1
  Ti  Ti84  1  0.25799836  0.53028738  0.23312347  1
  Ti  Ti85  1  0.17824678  0.53763587  0.54741578  1
  Ti  Ti86  1  0.26875624  0.55160247  0.89133571  1
  Ti  Ti87  1  0.32516901  0.85907962  0.22325321  1
  Ti  Ti88  1  0.27989359  0.95375080  0.57218301  1
  Ti  Ti89  1  0.25486576  0.86956464  0.89932385  1
  Ti  Ti90  1  0.57759568  0.25706479  0.30560797  1
  Ti  Ti91  1  0.56962940  0.31425573  0.59539163  1
  Ti  Ti92  1  0.55434289  0.29412591  0.82819688  1
  Ti  Ti93  1  0.57484239  0.58760894  0.22576681  1
  Ti  Ti94  1  0.59492591  0.62682151  0.63717367  1
  Ti  Ti95  1  0.60825555  0.55117069  0.91302473  1
  Ti  Ti96  1  0.62595910  0.90303109  0.20151600  1
  Ti  Ti97  1  0.55909957  0.93041992  0.51999225  1
  Ti  Ti98  1  0.61175411  0.89473102  1.00731800  1
  Ti  Ti99  1  0.88370421  0.19844154  0.24718457  1
  Ti  Ti100  1  0.78020839  0.23124777  0.56719166  1
  Ti  Ti101  1  0.93330820  0.25610040  0.93276621  1
  Ti  Ti102  1  0.97043420  0.52202437  0.26510821  1
  Ti  Ti103  1  0.90760409  0.62440905  0.64463220  1
  Ti  Ti104  1  0.94927085  0.59018085  0.94620057  1
  Ti  Ti105  1  0.94705328  0.93454523  0.22770154  1
  Ti  Ti106  1  0.92466299  0.83200532  0.59480098  1
  Ti  Ti107  1  0.97666362  0.91313512  1.00120118  1
  Co  Co108  1  0.41362847  -0.00232712  0.64740057  1
  Co  Co109  1  0.08060676  0.85997219  0.85965564  1
  Co  Co110  1  0.43047709  -0.01127829  0.39890750  1
  Co  Co111  1  0.82062590  0.47392211  0.36437250  1
  Co  Co112  1  0.33620564  0.51175316  0.49001783  1
  Co  Co113  1  0.29936763  0.82606491  0.05096375  1
  Co  Co114  1  0.71555405  0.78565970  0.09549072  1
  Co  Co115  1  0.69817223  0.23852585  0.88449149  1
  Co  Co116  1  0.01189606  0.21586680  0.11161498  1
  Co  Co117  1  0.22484461  0.58318078  0.70347621  1
  Co  Co118  1  0.06147137  0.37168884  0.03008379  1
  Co  Co119  1  0.84408517  0.22288102  0.07229525  1
  Co  Co120  1  0.92554967  0.35600923  0.30452744  1
  Co  Co121  1  0.33386967  0.19979558  0.18529267  1
  Co  Co122  1  0.39072993  0.43539864  0.11438556  1
  Co  Co123  1  0.51995902  0.01314940  0.94457589  1
  Co  Co124  1  0.82583678  0.77514139  0.72363693  1
  Co  Co125  1  0.23498216  0.60399737  0.39913208  1
  Co  Co126  1  0.57319024  0.17078340  -0.02995145  1
  Co  Co127  1  0.27417716  -0.07678916  0.37262164  1
  Co  Co128  1  0.63354558  0.18781850  0.67797879  1
  Co  Co129  1  -0.00771430  0.50008694  0.10139628  1
  Co  Co130  1  0.59894253  0.22171603  0.12220545  1
  Co  Co131  1  0.66002979  0.76104627  0.72368491  1
  Co  Co132  1  0.86730908  0.07187809  0.35162951  1
  Co  Co133  1  0.58623560  0.52158052  0.37689006  1
  Co  Co134  1  0.72667484  0.38192647  0.59579515  1
  Co  Co135  1  0.86775719  0.38798109  0.82515897  1
  Co  Co136  1  0.59730039  0.90548328  0.83631563  1
  Co  Co137  1  0.87245905  0.90288750  0.39155869  1
  Co  Co138  1  0.42808900  0.15035176  0.34353773  1
  Co  Co139  1  0.00145373  0.75063835  -0.02859317  1
  Co  Co140  1  -0.06377609  0.18758162  0.59321437  1
  Co  Co141  1  -0.06888959  0.54634040  0.78296117  1
  Co  Co142  1  0.45861775  0.29743562  0.20672844  1
  Co  Co143  1  0.02775840  0.81547944  0.13174163  1
  Co  Co144  1  0.79100700  0.48394856  0.70699916  1
  Co  Co145  1  0.56669051  0.03121755  0.68154073  1
  Co  Co146  1  0.72689633  0.64223055  0.16965128  1
  Co  Co147  1  0.32015512  0.12893835  0.59321468  1
  Co  Co148  1  0.14944651  -0.07720016  0.47250511  1
  Co  Co149  1  0.29226023  0.65624174  0.56298735  1
  Co  Co150  1  0.46967113  0.82429077  0.10163380  1
  Co  Co151  1  0.11456164  0.15555816  0.39255018  1
  Co  Co152  1  0.41199979  0.58135543  0.19935453  1
  Co  Co153  1  0.59161548  0.48755618  0.54996800  1
  Co  Co154  1  0.13223208  0.86944256  0.01615880  1
  Co  Co155  1  0.01123186  0.08532426  0.24896008  1
  Co  Co156  1  -0.00016045  0.52456245  0.56019705  1
  Co  Co157  1  0.19582775  0.39660059  0.89869192  1
  Co  Co158  1  0.63808714  0.74439541  0.26787550  1
  Co  Co159  1  0.38810057  0.30328659  0.35190641  1
  Co  Co160  1  0.02115696  -0.04724929  0.57646632  1
  Co  Co161  1  0.27161674  0.80719497  0.65228755  1
  Ni  Ni162  1  0.60029556  0.20536076  0.47750411  1
  Ni  Ni163  1  0.02400354  0.82242051  0.42593378  1
  Ni  Ni164  1  0.29306210  0.28841804  -0.00618075  1
  Ni  Ni165  1  0.04418489  0.24907296  0.27548491  1
  Ni  Ni166  1  0.60917588  0.04334074  0.08773941  1
  Ni  Ni167  1  0.06842921  0.47837068  0.69614804  1
  Ni  Ni168  1  0.83288097  0.82189806  -0.01225956  1
  Ni  Ni169  1  0.43289046  0.33835047  0.70994594  1
  Ni  Ni170  1  0.45650122  0.61656247  0.54052111  1
  Ni  Ni171  1  0.27447139  -0.05031764  0.75242037  1
  Ni  Ni172  1  0.46920880  -0.05351586  0.23088960  1
  Ni  Ni173  1  0.27484791  0.26699188  0.67070547  1
  Ni  Ni174  1  0.11824003  0.48946752  0.36369938  1
  Ni  Ni175  1  0.07612553  0.06655186  0.05850745  1
  Ni  Ni176  1  0.28596543  0.36261726  0.21895451  1
  Ni  Ni177  1  0.86466629  0.70742239  0.87212144  1
  Ni  Ni178  1  0.89470439  0.58892972  0.44685294  1
  Ni  Ni179  1  0.76861145  -0.10170100  0.54346175  1
  Ni  Ni180  1  0.51305472  0.56070481  0.77025457  1
  Ni  Ni181  1  0.43948645  0.60636620  0.91037748  1
  Ni  Ni182  1  0.77691397  -0.03659519  0.26629434  1
  Ni  Ni183  1  0.23190173  0.16229160  -0.11509856  1
  Ni  Ni184  1  0.34166265  0.10422025  0.76853403  1
  Ni  Ni185  1  0.28131013  0.80502157  0.49321073  1
  Ni  Ni186  1  0.61139663  0.78844205  0.56568735  1
  Ni  Ni187  1  0.81202319  0.11828949  0.68917143  1
  Ni  Ni188  1  0.10935583  0.32636349  0.40438208  1
  Ni  Ni189  1  0.91352390  0.42914743  -0.02249160  1
  Ni  Ni190  1  0.47021004  0.41906037  0.45759172  1
  Ni  Ni191  1  0.31983427  0.71489650  -0.10223840  1
  Ni  Ni192  1  0.12506669  0.62769629  0.27504477  1
  Ni  Ni193  1  0.11300542  0.52603114  -0.02356814  1
  Ni  Ni194  1  0.31351690  0.01955690  -0.08536939  1
  Ni  Ni195  1  0.37684674  0.47711369  0.79257321  1
  Ni  Ni196  1  -0.05588947  0.24933558  0.75154170  1
  Ni  Ni197  1  0.30600715  0.69230153  0.26192324  1
  Ni  Ni198  1  0.59842736  0.34181378  -0.01793300  1
  Ni  Ni199  1  0.83524462  0.34230206  0.46248107  1
  Ni  Ni200  1  0.55705699  0.87509686  0.35360445  1
  Ni  Ni201  1  0.08472344  0.21268333  0.64529507  1
  Ni  Ni202  1  -0.14214337  0.63221472  0.26978638  1
  Ni  Ni203  1  0.07570431  0.64760949  0.64967125  1
  Ni  Ni204  1  0.11119560  0.87964898  0.28227142  1
  Ni  Ni205  1  0.66008973  0.52704173  0.06862064  1
  Ni  Ni206  1  0.38166207  0.81044880  0.77216096  1
  Ni  Ni207  1  0.72617402  0.00102494  0.42045756  1
  Ni  Ni208  1  0.52855083  0.87084273  0.68830825  1
  Ni  Ni209  1  0.04786149  0.15034959  0.85164876  1
  Ni  Ni210  1  0.75234974  0.65264801  -0.00926471  1
  Ni  Ni211  1  0.16638513  0.03052731  0.30859109  1
  Ni  Ni212  1  0.76730971  0.31631164  0.31145297  1
  Ni  Ni213  1  0.49262430  0.55387253  0.05633933  1
  Ni  Ni214  1  0.70160545  0.42908000  0.84698079  1
