# generated using pymatgen
data_Ti108Co54Ni53
_symmetry_space_group_name_H-M   'P 1'
_cell_length_a   14.64448890
_cell_length_b   14.58735766
_cell_length_c   14.60974199
_cell_angle_alpha   89.97193849
_cell_angle_beta   89.83506696
_cell_angle_gamma   90.18176876
_symmetry_Int_Tables_number   1
_chemical_formula_structural   Ti108Co54Ni53
_chemical_formula_sum   'Ti108 Co54 Ni53'
_cell_volume   3120.96830262
_cell_formula_units_Z   1
loop_
 _symmetry_equiv_pos_site_id
 _symmetry_equiv_pos_as_xyz
  1  'x, y, z'
loop_
 _atom_site_type_symbol
 _atom_site_label
 _atom_site_symmetry_multiplicity
 _atom_site_fract_x
 _atom_site_fract_y
 _atom_site_fract_z
 _atom_site_occupancy
  Ti  Ti0  1  0.14300593  0.07952453  0.24349436  1
  Ti  Ti1  1  0.02449204  0.03552498  0.53664818  1
  Ti  Ti2  1  -0.00935372  0.06995236  0.94570941  1
  Ti  Ti3  1  0.11561156  0.41574410  0.28914114  1
  Ti  Ti4  1  0.07125354  0.48300881  0.65576230  1
  Ti  Ti5  1  0.07430040  0.41373962  0.97579589  1
  Ti  Ti6  1  0.10525933  0.74373620  0.27469294  1
  Ti  Ti7  1  0.02785729  0.70558896  0.59448681  1
  Ti  Ti8  1  0.08021420  0.70641084  0.94766198  1
  Ti  Ti9  1  0.42742074  0.17656707  0.23658822  1
  Ti  Ti10  1  0.43618377  0.12610203  0.52575150  1
  Ti  Ti11  1  0.44661724  0.04415117  0.96698385  1
  Ti  Ti12  1  0.43260851  0.41447518  0.22139441  1
  Ti  Ti13  1  0.38257419  0.31629562  0.59047283  1
  Ti  Ti14  1  0.39158199  0.38902195  0.89264104  1
  Ti  Ti15  1  0.39854391  0.73028427  0.21944756  1
  Ti  Ti16  1  0.46461053  0.70201112  0.64938605  1
  Ti  Ti17  1  0.44669870  0.71472528  1.00170992  1
  Ti  Ti18  1  0.75491824  0.16559385  0.24325365  1
  Ti  Ti19  1  0.79286880  0.14418243  0.54228869  1
  Ti  Ti20  1  0.71131945  0.14808271  0.87932566  1
  Ti  Ti21  1  0.73492843  0.37717406  0.23248381  1
  Ti  Ti22  1  0.75723985  0.44514848  0.53362470  1
  Ti  Ti23  1  0.70812669  0.37716056  0.88440852  1
  Ti  Ti24  1  0.75263232  0.80121920  0.24225801  1
  Ti  Ti25  1  0.68735995  0.74510504  0.57345804  1
  Ti  Ti26  1  0.77232413  0.79394943  0.86246387  1
  Ti  Ti27  1  0.10320010  0.27700469  0.11040146  1
  Ti  Ti28  1  0.00319029  0.28925942  0.40311882  1
  Ti  Ti29  1  0.01332499  0.30060521  0.72746916  1
  Ti  Ti30  1  0.16194658  0.56830069  0.05696248  1
  Ti  Ti31  1  0.02663205  0.58123985  0.31939097  1
  Ti  Ti32  1  0.08239730  0.66192792  0.76478139  1
  Ti  Ti33  1  0.07772981  0.88606237  0.03263987  1
  Ti  Ti34  1  0.03133541  0.94237600  0.36130715  1
  Ti  Ti35  1  0.06895014  0.95217131  0.75842309  1
  Ti  Ti36  1  0.38331714  0.27211011  0.06725593  1
  Ti  Ti37  1  0.41599046  0.32691414  0.40220941  1
  Ti  Ti38  1  0.33865050  0.25881714  0.75950387  1
  Ti  Ti39  1  0.51092385  0.57999573  0.11506335  1
  Ti  Ti40  1  0.36347862  0.54764983  0.40303513  1
  Ti  Ti41  1  0.43139979  0.55679195  0.78639761  1
  Ti  Ti42  1  0.49559395  0.87614337  0.10603410  1
  Ti  Ti43  1  0.41685322  0.99893795  0.36100198  1
  Ti  Ti44  1  0.46307871  0.85941817  0.78654872  1
  Ti  Ti45  1  0.66845443  0.24086792  0.06812426  1
  Ti  Ti46  1  0.70800298  0.28423871  0.42405974  1
  Ti  Ti47  1  0.82668650  0.31235324  0.67106882  1
  Ti  Ti48  1  0.71287772  0.56702235  0.11722072  1
  Ti  Ti49  1  0.82612647  0.61427182  0.42583266  1
  Ti  Ti50  1  0.76535134  0.55420627  0.79305816  1
  Ti  Ti51  1  0.79275006  0.87227111  0.05334135  1
  Ti  Ti52  1  0.68971495  0.89097283  0.40004083  1
  Ti  Ti53  1  0.65624848  0.90631668  0.75462338  1
  Ti  Ti54  1  0.25756756  0.10241250  0.03885799  1
  Ti  Ti55  1  0.26287469  0.08723592  0.40401273  1
  Ti  Ti56  1  0.24686992  0.09682369  0.83163277  1
  Ti  Ti57  1  0.24410406  0.40277705  0.12733222  1
  Ti  Ti58  1  0.24281668  0.38056004  0.44992285  1
  Ti  Ti59  1  0.18164361  0.39982952  0.80034126  1
  Ti  Ti60  1  0.26697413  0.83514870  0.12814216  1
  Ti  Ti61  1  0.27495573  0.72058271  0.36775240  1
  Ti  Ti62  1  0.28481363  0.71193194  0.72891300  1
  Ti  Ti63  1  0.63359652  0.05493374  0.10631161  1
  Ti  Ti64  1  0.67276319  0.09595666  0.39655426  1
  Ti  Ti65  1  0.61971707  0.09528252  0.69653511  1
  Ti  Ti66  1  0.55939243  0.41335738  0.03891117  1
  Ti  Ti67  1  0.55818004  0.43335527  0.51254006  1
  Ti  Ti68  1  0.52003741  0.36110029  0.73238864  1
  Ti  Ti69  1  0.64653202  0.74594757  0.06395833  1
  Ti  Ti70  1  0.51675084  0.77186109  0.47180965  1
  Ti  Ti71  1  0.61800288  0.71799096  0.76200476  1
  Ti  Ti72  1  0.86572541  0.11332802  0.09009761  1
  Ti  Ti73  1  0.85704282  0.02291398  0.33204074  1
  Ti  Ti74  1  0.92354222  0.11428263  0.74108108  1
  Ti  Ti75  1  0.90195816  0.40612017  0.07168840  1
  Ti  Ti76  1  0.95127106  0.45463516  0.43942953  1
  Ti  Ti77  1  0.89413217  0.40976127  0.87587191  1
  Ti  Ti78  1  0.99057158  0.66545324  0.12133156  1
  Ti  Ti79  1  0.97602662  0.75174816  0.41889013  1
  Ti  Ti80  1  0.92061837  0.80035548  0.72326035  1
  Ti  Ti81  1  0.26717859  0.26038642  0.30024627  1
  Ti  Ti82  1  0.15199840  0.26206285  0.58243406  1
  Ti  Ti83  1  0.22417447  0.27999729  0.94149574  1
  Ti  Ti84  1  0.22123850  0.59304175  0.23069349  1
  Ti  Ti85  1  0.21380020  0.56509936  0.56028919  1
  Ti  Ti86  1  0.29766207  0.60122553  0.91880304  1
  Ti  Ti87  1  0.23835936  0.91362126  0.31099450  1
  Ti  Ti88  1  0.25548412  0.85118035  0.53210264  1
  Ti  Ti89  1  0.28093589  0.91776823  0.94357724  1
  Ti  Ti90  1  0.57430202  0.31221857  0.31127441  1
  Ti  Ti91  1  0.65444028  0.27601429  0.61199858  1
  Ti  Ti92  1  0.51194346  0.18301503  0.83638697  1
  Ti  Ti93  1  0.61475524  0.61226626  0.31066535  1
  Ti  Ti94  1  0.61371529  0.56346339  0.65959032  1
  Ti  Ti95  1  0.62389296  0.59639724  0.92867928  1
  Ti  Ti96  1  0.54011707  0.86007986  0.29452168  1
  Ti  Ti97  1  0.63645232  0.95655279  0.56495707  1
  Ti  Ti98  1  0.63420640  0.94121187  0.94971796  1
  Ti  Ti99  1  0.95029407  0.20120071  0.23684870  1
  Ti  Ti100  1  0.96487128  0.20531092  0.55845841  1
  Ti  Ti101  1  1.00069981  0.25139600  0.89873595  1
  Ti  Ti102  1  0.88355530  0.53170583  0.21213661  1
  Ti  Ti103  1  0.91402599  0.55169506  0.59143208  1
  Ti  Ti104  1  0.91090431  0.65039124  0.88900973  1
  Ti  Ti105  1  0.94132459  0.85307354  0.19750171  1
  Ti  Ti106  1  0.89364779  0.88102455  0.53604566  1
  Ti  Ti107  1  0.89352829  0.93490810  0.88189408  1
  Co  Co108  1  -0.02691170  0.36853054  0.58428405  1
  Co  Co109  1  -0.03647987  0.24634702  0.04825782  1
  Co  Co110  1  0.76321437  0.58997097  0.60662780  1
  Co  Co111  1  0.00187127  0.81602822  0.86034321  1
  Co  Co112  1  0.47507662  0.69405981  0.84181892  1
  Co  Co113  1  0.10283959  0.89082562  0.21140310  1
  Co  Co114  1  0.47750446  0.48843413  0.64387363  1
  Co  Co115  1  0.56421590  0.72655835  0.19528450  1
  Co  Co116  1  0.24970091  0.21532405  0.15280640  1
  Co  Co117  1  0.69858712  0.42858808  0.70028980  1
  Co  Co118  1  0.59696894  0.16090021  0.23368749  1
  Co  Co119  1  0.04379915  0.58706945  0.48428456  1
  Co  Co120  1  0.77270837  0.01673712  0.63917575  1
  Co  Co121  1  0.53446018  0.29307756  0.15258942  1
  Co  Co122  1  0.84613406  0.25362440  0.82035487  1
  Co  Co123  1  0.08288279  0.11729898  0.81818267  1
  Co  Co124  1  0.21853588  0.40577565  0.63508142  1
  Co  Co125  1  0.58523015  0.48592094  0.82075185  1
  Co  Co126  1  0.84824107  0.31235208  0.49326913  1
  Co  Co127  1  0.77436043  0.70779328  0.71902983  1
  Co  Co128  1  0.77895312  0.85840597  0.65835036  1
  Co  Co129  1  0.35200246  0.58455894  0.63751599  1
  Co  Co130  1  -0.07936944  0.70593966  0.27206395  1
  Co  Co131  1  0.59890642  0.46171503  0.21058187  1
  Co  Co132  1  0.38770032  0.83217720  0.39490048  1
  Co  Co133  1  0.30862457  0.06158951  0.22936709  1
  Co  Co134  1  0.12730250  0.16152002  -0.03252307  1
  Co  Co135  1  0.51175878  0.47923261  0.36575208  1
  Co  Co136  1  0.29544565  0.22492893  0.48023623  1
  Co  Co137  1  0.54960646  -0.00893765  0.43385495  1
  Co  Co138  1  -0.06921616  -0.03795844  0.06004843  1
  Co  Co139  1  -0.07890135  -0.03733335  0.68373787  1
  Co  Co140  1  0.85540678  0.18457189  0.38636183  1
  Co  Co141  1  0.07500551  0.12404056  0.66299845  1
  Co  Co142  1  0.38275842  0.89487086  0.23576035  1
  Co  Co143  1  0.60033066  0.13322003  0.53606843  1
  Co  Co144  1  0.87525645  0.45448648  0.71751678  1
  Co  Co145  1  0.80603702  -0.01406336  0.17621001  1
  Co  Co146  1  0.53013640  0.27446737  0.50699524  1
  Co  Co147  1  0.76697436  0.16203464  0.71172055  1
  Co  Co148  1  0.36287118  0.46438751  0.53657148  1
  Co  Co149  1  0.49609521  0.20679357  0.66140452  1
  Co  Co150  1  0.14267570  -0.00067393  0.91645303  1
  Co  Co151  1  -0.08356745  0.62742609  0.72638610  1
  Co  Co152  1  0.65813529  0.26673528  0.77561453  1
  Co  Co153  1  0.39060504  0.43572846  0.04867214  1
  Co  Co154  1  0.34876784  0.42403742  0.72576388  1
  Co  Co155  1  0.85866725  0.85904051  0.36162776  1
  Co  Co156  1  0.16255064  -0.01621608  0.46600009  1
  Co  Co157  1  0.85646800  0.72358974  0.56662445  1
  Co  Co158  1  0.34541265  0.53972528  0.15606173  1
  Co  Co159  1  0.23991914  0.44359419  -0.03690653  1
  Co  Co160  1  0.55100519  0.83807373  0.63857199  1
  Co  Co161  1  0.19419760  -0.02049734  0.11591416  1
  Ni  Ni162  1  0.51763417  0.16267577  0.38407562  1
  Ni  Ni163  1  0.06483643  0.87289203  0.56091652  1
  Ni  Ni164  1  0.82663680  0.27662728  0.13910807  1
  Ni  Ni165  1  0.34853076  0.70572190  0.52064286  1
  Ni  Ni166  1  0.13477720  0.83107087  0.41391644  1
  Ni  Ni167  1  0.36082766  -0.02397988  0.09302723  1
  Ni  Ni168  1  0.76698740  0.67521417  -0.02590762  1
  Ni  Ni169  1  0.14269258  0.72697317  0.11582507  1
  Ni  Ni170  1  0.81190500  0.26350576  -0.02441371  1
  Ni  Ni171  1  0.51894639  0.18604681  0.01947282  1
  Ni  Ni172  1  0.49250715  0.01991856  0.20482864  1
  Ni  Ni173  1  0.46988876  0.54173078  -0.04972359  1
  Ni  Ni174  1  0.77389816  0.01305084  0.80011519  1
  Ni  Ni175  1  -0.02023898  0.54597326  -0.00260368  1
  Ni  Ni176  1  0.22596324  0.76284824  -0.02308319  1
  Ni  Ni177  1  0.67023675  0.45478130  0.37959514  1
  Ni  Ni178  1  0.17404060  0.23531755  0.75142076  1
  Ni  Ni179  1  0.10538924  0.24725050  0.27544366  1
  Ni  Ni180  1  0.05207352  0.10847426  0.10141859  1
  Ni  Ni181  1  0.76951175  0.03825530  -0.01190724  1
  Ni  Ni182  1  0.45250087  0.59228444  0.27050518  1
  Ni  Ni183  1  0.13632420  0.55454085  0.88617029  1
  Ni  Ni184  1  0.79325213  -0.01266995  0.47986036  1
  Ni  Ni185  1  0.14135232  0.19253933  0.42946096  1
  Ni  Ni186  1  0.01227448  0.11300789  0.36906442  1
  Ni  Ni187  1  0.82928275  0.70821620  0.12393662  1
  Ni  Ni188  1  0.16664281  0.70349368  0.49631806  1
  Ni  Ni189  1  0.64690094  0.59219382  0.48227824  1
  Ni  Ni190  1  0.00809663  0.49981638  0.80752079  1
  Ni  Ni191  1  0.77096073  0.63717077  0.26524926  1
  Ni  Ni192  1  0.45073309  0.87730412  -0.05093755  1
  Ni  Ni193  1  0.79436177  0.51552720  -0.03447502  1
  Ni  Ni194  1  0.30425302  0.67224182  0.08477785  1
  Ni  Ni195  1  0.18278826  0.55121625  0.39012613  1
  Ni  Ni196  1  -0.04790314  0.37851633  0.25081393  1
  Ni  Ni197  1  0.59658322  0.78725624  0.91007823  1
  Ni  Ni198  1  0.66349961  0.00373953  0.26505793  1
  Ni  Ni199  1  0.70531947  0.72928511  0.39890005  1
  Ni  Ni200  1  0.55213471  0.32445274  0.90282689  1
  Ni  Ni201  1  0.82571775  0.44305520  0.35049108  1
  Ni  Ni202  1  0.92864050  0.78926045  0.01006695  1
  Ni  Ni203  1  0.04410079  0.48433996  0.15024216  1
  Ni  Ni204  1  0.22678644  0.55027659  0.74005979  1
  Ni  Ni205  1  -0.02067165  0.02138563  0.21505819  1
  Ni  Ni206  1  0.65084701  0.89243884  0.15182052  1
  Ni  Ni207  1  0.34194406  0.77277161  0.87259904  1
  Ni  Ni208  1  0.15469627  0.79119373  0.66796222  1
  Ni  Ni209  1  0.48316747  0.59797869  0.51480992  1
  Ni  Ni210  1  0.36925591  0.19254967  0.91911903  1
  Ni  Ni211  1  0.10214594  0.42844465  0.49645192  1
  Ni  Ni212  1  0.72880183  0.40243773  0.06571588  1
  Ni  Ni213  1  0.28440777  0.44051652  0.29600467  1
  Ni  Ni214  1  0.54756951  0.01772115  0.83320760  1
