# generated using pymatgen
data_Ti108Co54Ni53
_symmetry_space_group_name_H-M   'P 1'
_cell_length_a   14.63467151
_cell_length_b   14.64486656
_cell_length_c   14.63428166
_cell_angle_alpha   89.73738028
_cell_angle_beta   89.98587294
_cell_angle_gamma   90.07078283
_symmetry_Int_Tables_number   1
_chemical_formula_structural   Ti108Co54Ni53
_chemical_formula_sum   'Ti108 Co54 Ni53'
_cell_volume   3136.42494781
_cell_formula_units_Z   1
loop_
 _symmetry_equiv_pos_site_id
 _symmetry_equiv_pos_as_xyz
  1  'x, y, z'
loop_
 _atom_site_type_symbol
 _atom_site_label
 _atom_site_symmetry_multiplicity
 _atom_site_fract_x
 _atom_site_fract_y
 _atom_site_fract_z
 _atom_site_occupancy
  Ti  Ti0  1  0.04332630  0.07584373  0.24765468  1
  Ti  Ti1  1  0.10184787  0.08738864  0.54150705  1
  Ti  Ti2  1  0.12978129  0.05057879  0.87511840  1
  Ti  Ti3  1  0.10720229  0.40519614  0.28368148  1
  Ti  Ti4  1  0.08349877  0.49801791  0.58038958  1
  Ti  Ti5  1  0.18183908  0.35336550  0.90181117  1
  Ti  Ti6  1  0.05359164  0.79651999  0.30161256  1
  Ti  Ti7  1  0.04415527  0.77268788  0.58746663  1
  Ti  Ti8  1  0.09046790  0.79982324  0.90432126  1
  Ti  Ti9  1  0.38860706  0.04542694  0.23445270  1
  Ti  Ti10  1  0.40038935  0.11397621  0.57815923  1
  Ti  Ti11  1  0.43952523  0.09837021  0.79583445  1
  Ti  Ti12  1  0.38290341  0.50917046  0.25204731  1
  Ti  Ti13  1  0.41579423  0.45329130  0.61645285  1
  Ti  Ti14  1  0.41806946  0.44929751  0.90842325  1
  Ti  Ti15  1  0.42294191  0.70845205  0.22443849  1
  Ti  Ti16  1  0.37684404  0.78477043  0.53617824  1
  Ti  Ti17  1  0.42853893  0.77021347  0.88764728  1
  Ti  Ti18  1  0.71872112  0.05909463  0.30610716  1
  Ti  Ti19  1  0.70329624  0.06696656  0.62645405  1
  Ti  Ti20  1  0.73898983  0.10205927  0.96437455  1
  Ti  Ti21  1  0.70809063  0.41301439  0.18505294  1
  Ti  Ti22  1  0.69548421  0.37993253  0.58499018  1
  Ti  Ti23  1  0.72307742  0.32989385  0.95277917  1
  Ti  Ti24  1  0.76033712  0.71302504  0.34453004  1
  Ti  Ti25  1  0.76299071  0.69984211  0.55475864  1
  Ti  Ti26  1  0.76804359  0.74883788  1.00074728  1
  Ti  Ti27  1  0.10572553  0.33421134  0.08556262  1
  Ti  Ti28  1  0.10523749  0.22949738  0.38715662  1
  Ti  Ti29  1  0.05273559  0.23710579  0.80112116  1
  Ti  Ti30  1  0.16547976  0.51989474  0.11785897  1
  Ti  Ti31  1  0.13884577  0.56951894  0.39835589  1
  Ti  Ti32  1  0.12644274  0.51472643  0.80468158  1
  Ti  Ti33  1  0.06040281  0.85862060  0.08678560  1
  Ti  Ti34  1  0.11558255  0.91716992  0.45603871  1
  Ti  Ti35  1  0.04389171  0.94976280  0.66708066  1
  Ti  Ti36  1  0.41559726  0.19373076  0.11259385  1
  Ti  Ti37  1  0.41084503  0.23687464  0.43173540  1
  Ti  Ti38  1  0.42868560  0.31791803  0.77294572  1
  Ti  Ti39  1  0.40263491  0.53240974  0.07084606  1
  Ti  Ti40  1  0.42296182  0.56125919  0.42558213  1
  Ti  Ti41  1  0.44495245  0.58770039  0.76327942  1
  Ti  Ti42  1  0.46451581  0.97919107  0.07028005  1
  Ti  Ti43  1  0.36873682  0.88718559  0.32125205  1
  Ti  Ti44  1  0.44396298  0.90465515  0.74470978  1
  Ti  Ti45  1  0.71971413  0.20886879  0.13393933  1
  Ti  Ti46  1  0.75101247  0.33758575  0.39298917  1
  Ti  Ti47  1  0.81137945  0.31660898  0.74871392  1
  Ti  Ti48  1  0.69179473  0.56884725  0.07223622  1
  Ti  Ti49  1  0.74801914  0.51588880  0.35105989  1
  Ti  Ti50  1  0.70550032  0.56675240  0.69783026  1
  Ti  Ti51  1  0.70770158  0.95020225  0.08719428  1
  Ti  Ti52  1  0.77262458  0.89989328  0.51079201  1
  Ti  Ti53  1  0.81881126  0.91182493  0.72023369  1
  Ti  Ti54  1  0.12872885  0.06477505  0.06356945  1
  Ti  Ti55  1  0.22261912  0.04740624  0.36567751  1
  Ti  Ti56  1  0.27303948  0.05286918  0.72375223  1
  Ti  Ti57  1  0.31333398  0.35223586  0.05076081  1
  Ti  Ti58  1  0.27181661  0.40339730  0.41365507  1
  Ti  Ti59  1  0.23729693  0.36019203  0.71616636  1
  Ti  Ti60  1  0.24344560  0.76634620  0.04779296  1
  Ti  Ti61  1  0.19606053  0.74633415  0.45203982  1
  Ti  Ti62  1  0.29137944  0.74597728  0.72570934  1
  Ti  Ti63  1  0.58268118  0.06895967  0.18032993  1
  Ti  Ti64  1  0.57252877  0.10222367  0.45735482  1
  Ti  Ti65  1  0.62177024  0.01070295  0.79799983  1
  Ti  Ti66  1  0.54597663  0.35011544  0.04910378  1
  Ti  Ti67  1  0.58740994  0.47144479  0.47462342  1
  Ti  Ti68  1  0.61905564  0.32010597  0.74980251  1
  Ti  Ti69  1  0.60556688  0.77217042  0.14082978  1
  Ti  Ti70  1  0.53175749  0.81468332  0.36212917  1
  Ti  Ti71  1  0.59818252  0.73582099  0.78316594  1
  Ti  Ti72  1  0.91590027  0.03707962  0.07063597  1
  Ti  Ti73  1  0.86479107  0.16746190  0.37252961  1
  Ti  Ti74  1  0.95115942  0.05575638  0.79388434  1
  Ti  Ti75  1  0.87753932  0.38196221  0.07394075  1
  Ti  Ti76  1  0.95779159  0.48631404  0.39175731  1
  Ti  Ti77  1  0.98086260  0.39662159  0.70120703  1
  Ti  Ti78  1  0.92699391  0.73936852  0.15870407  1
  Ti  Ti79  1  0.91838876  0.76975052  0.44958549  1
  Ti  Ti80  1  0.94469464  0.74602352  0.77459072  1
  Ti  Ti81  1  0.29695377  0.22751918  0.27771976  1
  Ti  Ti82  1  0.20176046  0.22783524  0.59947755  1
  Ti  Ti83  1  0.29911801  0.18010745  0.92790003  1
  Ti  Ti84  1  0.22286034  0.71393909  0.24879701  1
  Ti  Ti85  1  0.25630359  0.56244820  0.66915426  1
  Ti  Ti86  1  0.29195775  0.62273970  0.91682260  1
  Ti  Ti87  1  0.22013561  0.92387614  0.17496107  1
  Ti  Ti88  1  0.22152102  0.88953183  0.61990909  1
  Ti  Ti89  1  0.32440462  0.95951165  0.91966224  1
  Ti  Ti90  1  0.55269691  0.29584857  0.24080023  1
  Ti  Ti91  1  0.52836390  0.27360363  0.58079121  1
  Ti  Ti92  1  0.57287689  0.19796409  0.89026243  1
  Ti  Ti93  1  0.57966767  0.59891137  0.28084841  1
  Ti  Ti94  1  0.56499978  0.64004453  0.59674505  1
  Ti  Ti95  1  0.63522825  0.56175836  0.87757333  1
  Ti  Ti96  1  0.68475784  0.88593611  0.28933652  1
  Ti  Ti97  1  0.55526224  0.84922855  0.58405797  1
  Ti  Ti98  1  0.62351847  0.86942738  0.93687293  1
  Ti  Ti99  1  0.96214232  0.28418614  0.23075059  1
  Ti  Ti100  1  0.85727256  0.26993639  0.56129143  1
  Ti  Ti101  1  0.86981161  0.20462356  0.88230222  1
  Ti  Ti102  1  0.87557623  0.56269090  0.20237222  1
  Ti  Ti103  1  0.91502622  0.59603142  0.60969457  1
  Ti  Ti104  1  0.88088971  0.53035925  0.81513956  1
  Ti  Ti105  1  0.89307847  0.97046792  0.36301468  1
  Ti  Ti106  1  0.89661428  1.05658892  0.56531027  1
  Ti  Ti107  1  0.85050060  0.91617654  0.91167776  1
  Co  Co108  1  0.75887818  0.05739824  0.46365076  1
  Co  Co109  1  0.20582322  0.86507870  0.32826943  1
  Co  Co110  1  0.85457375  0.60425107  0.44332394  1
  Co  Co111  1  0.52836198  0.62829030  0.11949045  1
  Co  Co112  1  0.34651333  0.20689310  0.70515658  1
  Co  Co113  1  0.48614735  -0.05071078  0.89587730  1
  Co  Co114  1  0.37810759  0.07144870  0.40116805  1
  Co  Co115  1  0.28303844  0.62472700  0.13180335  1
  Co  Co116  1  -0.00454406  0.12598607  0.94842139  1
  Co  Co117  1  0.85562829  0.42755830  0.50118036  1
  Co  Co118  1  0.49446777  0.69820478  0.46147603  1
  Co  Co119  1  0.24249521  0.48261904  -0.02263038  1
  Co  Co120  1  0.51348181  0.89115466  0.20149718  1
  Co  Co121  1  0.11479402  0.79494415  0.72688083  1
  Co  Co122  1  0.54585860  0.43853118  0.32389479  1
  Co  Co123  1  0.29341171  0.91310288  0.46403845  1
  Co  Co124  1  0.13574939  0.20787977  -0.03605836  1
  Co  Co125  1  0.22490601  0.53552108  0.26980116  1
  Co  Co126  1  0.87032501  0.37914015  0.89141493  1
  Co  Co127  1  0.43663134  0.27725237  -0.06273908  1
  Co  Co128  1  0.39382789  0.69790233  0.04310197  1
  Co  Co129  1  0.45693240  0.74781608  0.69958386  1
  Co  Co130  1  0.70351886  0.20947828  0.48630371  1
  Co  Co131  1  0.01906838  0.63991725  0.47935178  1
  Co  Co132  1  0.59954683  0.03595737  -0.02066560  1
  Co  Co133  1  0.42338608  0.36893242  0.16480292  1
  Co  Co134  1  -0.00195921  0.89669763  0.80872284  1
  Co  Co135  1  0.71076079  0.18509710  0.80799477  1
  Co  Co136  1  0.88541052  0.87408106  0.06243913  1
  Co  Co137  1  0.18237196  0.91978417  -0.01635901  1
  Co  Co138  1  0.53441656  -0.00771933  0.32285288  1
  Co  Co139  1  0.80175530  0.27310053  0.24718553  1
  Co  Co140  1  0.12088888  0.09052209  0.71231590  1
  Co  Co141  1  0.72879496  0.44545063  0.80864875  1
  Co  Co142  1  0.78339295  0.04196782  0.81314456  1
  Co  Co143  1  -0.00685629  0.29281420  -0.02721224  1
  Co  Co144  1  0.78188877  0.48972344  -0.03484126  1
  Co  Co145  1  0.25446135  0.04642914  0.54805379  1
  Co  Co146  1  -0.05869320  0.32017441  0.39487585  1
  Co  Co147  1  0.01338953  -0.04241269  -0.03977481  1
  Co  Co148  1  0.55498786  0.47470307  0.16776796  1
  Co  Co149  1  0.55848956  0.50604050  0.00844884  1
  Co  Co150  1  0.57611976  0.29867636  0.42351749  1
  Co  Co151  1  0.63127285  -0.04910240  0.44703164  1
  Co  Co152  1  0.35431924  0.30430455  0.57728317  1
  Co  Co153  1  0.02261175  0.05399234  0.40422486  1
  Co  Co154  1  0.86835994  0.41633221  0.26538689  1
  Co  Co155  1  0.47092506  0.61492424  0.92162742  1
  Co  Co156  1  0.21240761  0.20822712  0.79615216  1
  Co  Co157  1  0.40046981  0.35767001  0.31911983  1
  Co  Co158  1  0.70246749  0.22744304  0.64281246  1
  Co  Co159  1  0.25139258  0.19004746  0.44695177  1
  Co  Co160  1  0.22451967  0.41982287  0.56718146  1
  Co  Co161  1  0.44540880  0.39516984  0.46843318  1
  Ni  Ni162  1  0.88377452  0.80547024  0.61671137  1
  Ni  Ni163  1  0.53361556  0.01367001  0.62047865  1
  Ni  Ni164  1  0.36171555  0.84155938  0.14524878  1
  Ni  Ni165  1  0.30475362  0.05261816  0.06419500  1
  Ni  Ni166  1  0.48454864  0.82769798  0.03005181  1
  Ni  Ni167  1  0.87326332  0.82132470  0.29469610  1
  Ni  Ni168  1  0.39690063  0.62881207  0.59802664  1
  Ni  Ni169  1  0.83912796  0.15058714  0.70291136  1
  Ni  Ni170  1  -0.03487404  0.91867698  0.51492921  1
  Ni  Ni171  1  0.74890874  0.80053708  0.83489794  1
  Ni  Ni172  1  0.86428725  0.21099683  0.05404246  1
  Ni  Ni173  1  0.13112768  0.23017706  0.22117294  1
  Ni  Ni174  1  0.07307037  0.62527724  0.22361614  1
  Ni  Ni175  1  0.69456581  0.80617175  0.66353886  1
  Ni  Ni176  1  0.80165585  0.69476177  0.72379464  1
  Ni  Ni177  1  0.64046092  0.62980673  0.43680570  1
  Ni  Ni178  1  -0.01791147  0.92367560  0.21020043  1
  Ni  Ni179  1  0.57334652  0.39315838  0.88394342  1
  Ni  Ni180  1  0.73210477  0.65293773  0.20049090  1
  Ni  Ni181  1  0.66617786  0.20672922  0.31945203  1
  Ni  Ni182  1  0.04862703  0.31003843  0.57904283  1
  Ni  Ni183  1  0.29683918  0.48006055  0.80905435  1
  Ni  Ni184  1  0.15413517  0.65505979  0.58414817  1
  Ni  Ni185  1  0.73684756  0.53514982  0.53361985  1
  Ni  Ni186  1  0.26019281  0.80144643  0.87979823  1
  Ni  Ni187  1  0.57516187  0.18353581  0.05422339  1
  Ni  Ni188  1  0.46478250  -0.05595848  0.46718807  1
  Ni  Ni189  1  0.38015515  -0.04997032  0.60578852  1
  Ni  Ni190  1  0.10423380  0.38940569  0.45060457  1
  Ni  Ni191  1  0.00310158  0.45726185  0.16567803  1
  Ni  Ni192  1  -0.05146105  0.66222288  0.32067859  1
  Ni  Ni193  1  0.16744046  0.67239464  0.81442945  1
  Ni  Ni194  1  0.56537385  0.47644245  0.71326217  1
  Ni  Ni195  1  0.77068555  0.80769485  0.16296817  1
  Ni  Ni196  1  0.44467093  0.10534637  -0.03416190  1
  Ni  Ni197  1  0.82384289  -0.03936221  0.20473621  1
  Ni  Ni198  1  0.04624064  0.62696073  0.71145351  1
  Ni  Ni199  1  0.49839932  0.15466011  0.30952140  1
  Ni  Ni200  1  -0.00714039  0.17420021  0.65515991  1
  Ni  Ni201  1  0.59485803  0.70430702  -0.02118592  1
  Ni  Ni202  1  0.02226953  0.40601475  0.86261477  1
  Ni  Ni203  1  0.01858540  0.18477662  0.10337024  1
  Ni  Ni204  1  0.87035093  0.12328489  0.20762330  1
  Ni  Ni205  1  0.25609605  0.37720946  0.21455920  1
  Ni  Ni206  1  0.65478303  0.78724857  0.46774431  1
  Ni  Ni207  1  0.56267645  0.15386961  0.70300747  1
  Ni  Ni208  1  0.23888641  0.21174946  0.09551257  1
  Ni  Ni209  1  -0.02103682  0.18798696  0.48818291  1
  Ni  Ni210  1  0.27354387  0.57299731  0.49655716  1
  Ni  Ni211  1  0.22104115  0.09003619  0.20524002  1
  Ni  Ni212  1  0.19059833  -0.07850805  0.79321642  1
  Ni  Ni213  1  0.82792090  0.45964172  0.65998749  1
  Ni  Ni214  1  0.34575404  0.71789468  0.38040183  1
