# generated using pymatgen
data_Ti108Co54Ni53
_symmetry_space_group_name_H-M   'P 1'
_cell_length_a   14.61345318
_cell_length_b   14.63491722
_cell_length_c   14.59260282
_cell_angle_alpha   90.14322212
_cell_angle_beta   89.92639400
_cell_angle_gamma   90.36262483
_symmetry_Int_Tables_number   1
_chemical_formula_structural   Ti108Co54Ni53
_chemical_formula_sum   'Ti108 Co54 Ni53'
_cell_volume   3120.79671588
_cell_formula_units_Z   1
loop_
 _symmetry_equiv_pos_site_id
 _symmetry_equiv_pos_as_xyz
  1  'x, y, z'
loop_
 _atom_site_type_symbol
 _atom_site_label
 _atom_site_symmetry_multiplicity
 _atom_site_fract_x
 _atom_site_fract_y
 _atom_site_fract_z
 _atom_site_occupancy
  Ti  Ti0  1  0.07390934  0.04206458  0.20262428  1
  Ti  Ti1  1  0.10151410  0.11888228  0.48342434  1
  Ti  Ti2  1  0.04409118  0.16912262  0.93983818  1
  Ti  Ti3  1  0.06849605  0.41759696  0.31037420  1
  Ti  Ti4  1  0.06606093  0.34793769  0.49116843  1
  Ti  Ti5  1  0.06980250  0.46183666  0.91101152  1
  Ti  Ti6  1  0.11310795  0.72520123  0.17348633  1
  Ti  Ti7  1  -0.00748555  0.73526280  0.56803811  1
  Ti  Ti8  1  0.13960863  0.84165667  0.87885248  1
  Ti  Ti9  1  0.36627635  0.04273006  0.26670356  1
  Ti  Ti10  1  0.41913838  0.10032898  0.59638160  1
  Ti  Ti11  1  0.41862909  0.11365048  0.87558200  1
  Ti  Ti12  1  0.47872345  0.46700937  0.19374601  1
  Ti  Ti13  1  0.39616258  0.39934895  0.59394054  1
  Ti  Ti14  1  0.45272486  0.40753635  0.99782934  1
  Ti  Ti15  1  0.37091238  0.73107915  0.30951896  1
  Ti  Ti16  1  0.42168688  0.83366873  0.59349362  1
  Ti  Ti17  1  0.32966221  0.80238176  0.84861500  1
  Ti  Ti18  1  0.70869333  0.08830474  0.29625004  1
  Ti  Ti19  1  0.76889825  0.07295748  0.51103451  1
  Ti  Ti20  1  0.75618308  0.10588578  0.86159341  1
  Ti  Ti21  1  0.73367136  0.39377396  0.27632978  1
  Ti  Ti22  1  0.71480306  0.42582301  0.50582611  1
  Ti  Ti23  1  0.74888269  0.42775185  0.94088724  1
  Ti  Ti24  1  0.72718081  0.75429622  0.13381983  1
  Ti  Ti25  1  0.74606162  0.71986207  0.61927112  1
  Ti  Ti26  1  0.74649295  0.79906692  0.93241729  1
  Ti  Ti27  1  0.12800489  0.29249630  0.08453341  1
  Ti  Ti28  1  0.14492626  0.22732059  0.32788076  1
  Ti  Ti29  1  0.09497334  0.21436053  0.75139770  1
  Ti  Ti30  1  0.06920320  0.59106522  0.04080006  1
  Ti  Ti31  1  0.05138049  0.63231765  0.38995522  1
  Ti  Ti32  1  -0.01087393  0.58656401  0.78127611  1
  Ti  Ti33  1  0.09938746  0.89342607  0.06746967  1
  Ti  Ti34  1  0.08479772  0.94251694  0.39088671  1
  Ti  Ti35  1  0.03828167  0.98985487  0.77410824  1
  Ti  Ti36  1  0.44188237  0.18984993  0.03957603  1
  Ti  Ti37  1  0.43583107  0.21204261  0.37493024  1
  Ti  Ti38  1  0.44088356  0.22736724  0.72909066  1
  Ti  Ti39  1  0.38376375  0.59079080  0.01211793  1
  Ti  Ti40  1  0.40597933  0.53841941  0.35350849  1
  Ti  Ti41  1  0.44520651  0.55388087  0.70893264  1
  Ti  Ti42  1  0.40684054  0.81971953  0.13579579  1
  Ti  Ti43  1  0.45859323  0.91874727  0.40026904  1
  Ti  Ti44  1  0.42002486  0.94688432  0.75155804  1
  Ti  Ti45  1  0.80452237  0.30038645  0.09663394  1
  Ti  Ti46  1  0.76518595  0.24991890  0.40162577  1
  Ti  Ti47  1  0.65264394  0.24739697  0.75561222  1
  Ti  Ti48  1  0.71831912  0.58848958  0.05104869  1
  Ti  Ti49  1  0.73717520  0.57831900  0.37000699  1
  Ti  Ti50  1  0.78458120  0.58581610  0.79403560  1
  Ti  Ti51  1  0.67329498  0.94489690  0.06580746  1
  Ti  Ti52  1  0.77752166  0.90558471  0.40962274  1
  Ti  Ti53  1  0.71562420  0.91139337  0.74577407  1
  Ti  Ti54  1  0.38766435  0.00827392  0.06965210  1
  Ti  Ti55  1  0.29546176  0.10918206  0.45011285  1
  Ti  Ti56  1  0.28200647  0.07228189  0.75802414  1
  Ti  Ti57  1  0.28522398  0.44098124  0.12704591  1
  Ti  Ti58  1  0.27668870  0.39098239  0.40669986  1
  Ti  Ti59  1  0.26749522  0.40388273  0.88544283  1
  Ti  Ti60  1  0.22603721  0.71522327  0.00228786  1
  Ti  Ti61  1  0.18353273  0.77432813  0.37117389  1
  Ti  Ti62  1  0.17642810  0.71868342  0.71925407  1
  Ti  Ti63  1  0.57468024  0.08047858  0.14103587  1
  Ti  Ti64  1  0.58815641  0.13124077  0.46962209  1
  Ti  Ti65  1  0.58100284  0.05464271  0.78729187  1
  Ti  Ti66  1  0.62923529  0.38799926  0.08956574  1
  Ti  Ti67  1  0.54846606  0.51484292  0.47639180  1
  Ti  Ti68  1  0.52100063  0.39130416  0.76456773  1
  Ti  Ti69  1  0.56152485  0.71507952  0.01914217  1
  Ti  Ti70  1  0.61333571  0.71177656  0.43314919  1
  Ti  Ti71  1  0.55708999  0.75089380  0.75234380  1
  Ti  Ti72  1  0.92265734  0.04409682  0.05054060  1
  Ti  Ti73  1  0.93186496  0.18826017  0.51367264  1
  Ti  Ti74  1  0.86316385  0.02582909  0.67209739  1
  Ti  Ti75  1  0.97937347  0.42337521  0.12097961  1
  Ti  Ti76  1  0.88840222  0.40699705  0.41728339  1
  Ti  Ti77  1  0.96686620  0.33313169  0.80473406  1
  Ti  Ti78  1  0.91626059  0.74322142  0.09238883  1
  Ti  Ti79  1  0.87174446  0.75127333  0.32305586  1
  Ti  Ti80  1  0.89775530  0.84207851  0.72450599  1
  Ti  Ti81  1  0.28987620  0.21186172  0.17990052  1
  Ti  Ti82  1  0.26296355  0.22719206  0.63723066  1
  Ti  Ti83  1  0.25045715  0.17366013  0.97293156  1
  Ti  Ti84  1  0.21182343  0.56234270  0.28896423  1
  Ti  Ti85  1  0.31150788  0.66817333  0.57795718  1
  Ti  Ti86  1  0.29856765  0.60536210  0.82873994  1
  Ti  Ti87  1  0.23814197  0.89915962  0.21260410  1
  Ti  Ti88  1  0.19903134  0.83975311  0.56992734  1
  Ti  Ti89  1  0.21853170  0.99873648  0.95470158  1
  Ti  Ti90  1  0.56361100  0.28589853  0.25834082  1
  Ti  Ti91  1  0.55499518  0.30342684  0.57416352  1
  Ti  Ti92  1  0.56365058  0.26780391  0.91474133  1
  Ti  Ti93  1  0.57707644  0.63309604  0.25597614  1
  Ti  Ti94  1  0.52942314  0.66493283  0.58995052  1
  Ti  Ti95  1  0.57191402  0.53102827  0.89936143  1
  Ti  Ti96  1  0.63410344  0.91044581  0.26836926  1
  Ti  Ti97  1  0.63669750  0.85581568  0.54113528  1
  Ti  Ti98  1  0.53663752  0.86422783  0.89989713  1
  Ti  Ti99  1  0.87996576  0.16867623  0.21761446  1
  Ti  Ti100  1  0.84905346  0.22884351  0.69363641  1
  Ti  Ti101  1  0.86840782  0.22854982  0.93123732  1
  Ti  Ti102  1  0.90523831  0.52750417  0.27954366  1
  Ti  Ti103  1  0.87059077  0.54029775  0.59621139  1
  Ti  Ti104  1  0.89288568  0.58561528  0.96524394  1
  Ti  Ti105  1  0.91617680  0.97142172  0.29675864  1
  Ti  Ti106  1  1.02378330  0.95742217  0.57678100  1
  Ti  Ti107  1  0.94473980  0.86472485  0.93363166  1
  Co  Co108  1  -0.10881975  0.68354771  0.69881374  1
  Co  Co109  1  0.14702671  0.68626313  0.52630171  1
  Co  Co110  1  0.44760086  0.67888885  0.44565797  1
  Co  Co111  1  0.06839349  0.54707218  0.21010723  1
  Co  Co112  1  0.71312013  0.26420261  0.95630314  1
  Co  Co113  1  0.10743149  0.22966870  0.59341767  1
  Co  Co114  1  0.57671542  0.79110885  0.17012070  1
  Co  Co115  1  0.78161005  0.32401233  0.81552092  1
  Co  Co116  1  0.03888880  0.73787014  -0.02080284  1
  Co  Co117  1  -0.00237540  0.12006828  0.64774053  1
  Co  Co118  1  0.59927779  0.23302781  0.08712045  1
  Co  Co119  1  0.66774536  -0.00162905  0.60172943  1
  Co  Co120  1  0.74278716  0.75000156  0.77470461  1
  Co  Co121  1  0.40689871  0.76075073  -0.01867245  1
  Co  Co122  1  0.35079876  0.57305954  0.20319376  1
  Co  Co123  1  0.57719982  0.47717767  0.63135670  1
  Co  Co124  1  0.62280786  0.12132573  -0.03584475  1
  Co  Co125  1  0.91794640  0.57944518  0.12109463  1
  Co  Co126  1  0.21809948  0.25938184  0.47792521  1
  Co  Co127  1  -0.05827481  0.13343593  0.81025996  1
  Co  Co128  1  0.24212695  0.04788808  0.13237615  1
  Co  Co129  1  0.68805976  -0.03751261  -0.09457654  1
  Co  Co130  1  0.46596486  0.66175314  0.86261170  1
  Co  Co131  1  0.82249273  0.89548533  0.57644997  1
  Co  Co132  1  0.62905641  -0.01794935  0.42760742  1
  Co  Co133  1  0.51723115  0.01503727  0.95266246  1
  Co  Co134  1  0.52337216  0.90084012  0.06186891  1
  Co  Co135  1  0.04450960  -0.00195986  -0.05687031  1
  Co  Co136  1  0.85458702  0.41769909  0.69930052  1
  Co  Co137  1  0.45015701  0.17391642  0.20792048  1
  Co  Co138  1  0.70471594  0.22843124  0.56024330  1
  Co  Co139  1  0.21342110  0.58873771  0.11971901  1
  Co  Co140  1  0.69750689  0.58886607  0.53619214  1
  Co  Co141  1  0.55451953  0.54211857  0.06658314  1
  Co  Co142  1  0.47907564  -0.06582092  0.22309392  1
  Co  Co143  1  0.52228420  0.78871979  0.31776377  1
  Co  Co144  1  0.01878170  0.10351540  0.34297857  1
  Co  Co145  1  0.44585385  0.32057131  0.13400021  1
  Co  Co146  1  0.41090270  0.48520429  0.85441959  1
  Co  Co147  1  0.70703399  0.36228372  0.65536239  1
  Co  Co148  1  0.92170485  0.00762121  0.47213996  1
  Co  Co149  1  0.11023286  0.11626404  0.07173547  1
  Co  Co150  1  0.15603995  0.06167738  0.65255148  1
  Co  Co151  1  0.37403328  0.33345833  0.27608064  1
  Co  Co152  1  -0.01742425  0.31746071  0.63687621  1
  Co  Co153  1  0.27226436  0.86536037  0.03383871  1
  Co  Co154  1  0.34804357  0.36946282  0.74309749  1
  Co  Co155  1  0.27012311  0.63708529  0.42176720  1
  Co  Co156  1  0.70216420  0.75213931  0.30345102  1
  Co  Co157  1  0.14568778  0.08764149  0.83763307  1
  Co  Co158  1  0.66306164  0.51556424  0.19755093  1
  Co  Co159  1  0.78807328  0.62537954  0.21155515  1
  Co  Co160  1  0.70986260  0.22883566  0.21173505  1
  Co  Co161  1  0.36670552  -0.05022514  -0.09307716  1
  Ni  Ni162  1  0.53541079  0.07029112  0.31422971  1
  Ni  Ni163  1  0.31151541  -0.02768655  0.61752811  1
  Ni  Ni164  1  0.79969380  0.86885722  0.22577587  1
  Ni  Ni165  1  0.64394031  0.67475288  -0.11897825  1
  Ni  Ni166  1  0.19836044  0.06402876  0.31362668  1
  Ni  Ni167  1  0.45365789  0.37913226  0.41984347  1
  Ni  Ni168  1  0.72448374  0.11203488  0.69364363  1
  Ni  Ni169  1  0.84152849  0.32805609  0.55344674  1
  Ni  Ni170  1  0.27623117  0.72657231  0.17495621  1
  Ni  Ni171  1  0.38767898  0.71856755  0.71795690  1
  Ni  Ni172  1  0.57432571  0.14104148  0.63811702  1
  Ni  Ni173  1  0.75758802  0.13786099  0.06400758  1
  Ni  Ni174  1  0.80556658  0.46265081  0.12821836  1
  Ni  Ni175  1  0.39757514  0.29050948  0.88680444  1
  Ni  Ni176  1  0.13287801  0.30665693  0.90670842  1
  Ni  Ni177  1  0.07767548  0.84868575  0.68869548  1
  Ni  Ni178  1  0.38230559  0.25485493  0.52157601  1
  Ni  Ni179  1  0.86653276  -0.02164581  0.84529125  1
  Ni  Ni180  1  0.82591668  0.89135878  0.05323365  1
  Ni  Ni181  1  0.03181170  0.22737415  0.20374101  1
  Ni  Ni182  1  0.61324012  0.31497419  0.42112319  1
  Ni  Ni183  1  0.68023539  0.45474336  0.78125706  1
  Ni  Ni184  1  0.02114628  0.75274785  0.80285510  1
  Ni  Ni185  1  0.46137531  0.66412510  0.14637505  1
  Ni  Ni186  1  0.19687241  -0.01255495  0.50319756  1
  Ni  Ni187  1  0.87956580  0.71655290  0.86792817  1
  Ni  Ni188  1  -0.04719739  0.90279651  0.14799815  1
  Ni  Ni189  1  0.79899692  0.01656498  0.16739791  1
  Ni  Ni190  1  -0.00002850  0.50597235  0.48360127  1
  Ni  Ni191  1  0.58260570  0.45349643  0.32906350  1
  Ni  Ni192  1  0.21725942  0.53970643  -0.03384340  1
  Ni  Ni193  1  0.85996177  0.11695242  0.37176801  1
  Ni  Ni194  1  0.50774044  -0.02493931  0.55315709  1
  Ni  Ni195  1  0.78505127  0.74784141  0.46623882  1
  Ni  Ni196  1  0.33022310  0.79873766  0.45863887  1
  Ni  Ni197  1  -0.11279280  0.46017558  0.85802049  1
  Ni  Ni198  1  0.07001557  0.86388713  0.25008092  1
  Ni  Ni199  1  0.22504035  0.91162412  0.75204970  1
  Ni  Ni200  1  0.30616768  0.31169342  0.03090313  1
  Ni  Ni201  1  -0.02547152  0.26211833  0.36349694  1
  Ni  Ni202  1  0.28243294  -0.06940099  0.37385002  1
  Ni  Ni203  1  0.89656348  0.34892715  0.24731403  1
  Ni  Ni204  1  -0.01450333  0.33258671  -0.01454326  1
  Ni  Ni205  1  0.63522144  0.60781227  0.71735466  1
  Ni  Ni206  1  -0.02415354  0.67525064  0.23712975  1
  Ni  Ni207  1  -0.05783911  0.84585260  0.44941239  1
  Ni  Ni208  1  0.56124276  0.90251279  0.68943566  1
  Ni  Ni209  1  0.26082204  0.23371460  0.81283697  1
  Ni  Ni210  1  0.38160550  0.53865055  0.51688450  1
  Ni  Ni211  1  0.88292638  0.61147475  0.44336598  1
  Ni  Ni212  1  0.15843282  0.51013600  0.44761152  1
  Ni  Ni213  1  0.21132168  0.35951832  0.24753907  1
  Ni  Ni214  1  0.13265831  0.64640829  0.86879664  1
