# generated using pymatgen
data_Ti108Co54Ni53
_symmetry_space_group_name_H-M   'P 1'
_cell_length_a   14.57391717
_cell_length_b   14.53517936
_cell_length_c   14.66267179
_cell_angle_alpha   90.32836359
_cell_angle_beta   89.90945359
_cell_angle_gamma   90.12962303
_symmetry_Int_Tables_number   1
_chemical_formula_structural   Ti108Co54Ni53
_chemical_formula_sum   'Ti108 Co54 Ni53'
_cell_volume   3105.99697619
_cell_formula_units_Z   1
loop_
 _symmetry_equiv_pos_site_id
 _symmetry_equiv_pos_as_xyz
  1  'x, y, z'
loop_
 _atom_site_type_symbol
 _atom_site_label
 _atom_site_symmetry_multiplicity
 _atom_site_fract_x
 _atom_site_fract_y
 _atom_site_fract_z
 _atom_site_occupancy
  Ti  Ti0  1  0.10644943  0.09814018  0.30673350  1
  Ti  Ti1  1  0.10009477  0.14278855  0.59450039  1
  Ti  Ti2  1  0.00410662  0.12866990  0.94932516  1
  Ti  Ti3  1  0.04346278  0.45185229  0.26460278  1
  Ti  Ti4  1  0.09136994  0.36773997  0.57631634  1
  Ti  Ti5  1  -0.00951553  0.36824309  0.88953115  1
  Ti  Ti6  1  0.09780874  0.77894580  0.19622754  1
  Ti  Ti7  1  0.05807438  0.72734557  0.66828098  1
  Ti  Ti8  1  0.13640377  0.73351344  0.86843049  1
  Ti  Ti9  1  0.48198870  0.07832760  0.17898535  1
  Ti  Ti10  1  0.46456173  0.07546954  0.51677854  1
  Ti  Ti11  1  0.34694074  0.06926176  0.92398792  1
  Ti  Ti12  1  0.41810351  0.35005255  0.23940294  1
  Ti  Ti13  1  0.48756662  0.33535955  0.62888479  1
  Ti  Ti14  1  0.38616312  0.43167553  0.77808553  1
  Ti  Ti15  1  0.37953823  0.79643296  0.30967917  1
  Ti  Ti16  1  0.42577376  0.77811609  0.50095096  1
  Ti  Ti17  1  0.38436213  0.78442464  0.95598536  1
  Ti  Ti18  1  0.74619835  0.10920107  0.25824120  1
  Ti  Ti19  1  0.82329113  0.03140228  0.56684992  1
  Ti  Ti20  1  0.79517347  0.07795740  0.93402334  1
  Ti  Ti21  1  0.80250704  0.43314781  0.30938933  1
  Ti  Ti22  1  0.70700157  0.40279163  0.61181984  1
  Ti  Ti23  1  0.80982459  0.43979676  0.89878212  1
  Ti  Ti24  1  0.79686511  0.72817516  0.21150648  1
  Ti  Ti25  1  0.74050051  0.72779608  0.57524775  1
  Ti  Ti26  1  0.71324344  0.74329859  0.90101958  1
  Ti  Ti27  1  0.02362418  0.22261462  0.15492192  1
  Ti  Ti28  1  0.04602200  0.24916568  0.41727018  1
  Ti  Ti29  1  -0.00189009  0.27266394  0.72639122  1
  Ti  Ti30  1  0.09196698  0.58325693  0.08491174  1
  Ti  Ti31  1  0.11458003  0.56141263  0.40845268  1
  Ti  Ti32  1  0.16079830  0.58025989  0.73651486  1
  Ti  Ti33  1  0.09278024  0.96324696  0.05802490  1
  Ti  Ti34  1  0.05925005  0.89851595  0.40082108  1
  Ti  Ti35  1  0.06966655  0.95125862  0.73826095  1
  Ti  Ti36  1  0.35099851  0.22199198  0.08867766  1
  Ti  Ti37  1  0.41302553  0.27158240  0.45982529  1
  Ti  Ti38  1  0.46278599  0.22771474  0.79492915  1
  Ti  Ti39  1  0.39388932  0.60340517  0.05056882  1
  Ti  Ti40  1  0.44297992  0.52762316  0.50850229  1
  Ti  Ti41  1  0.47512904  0.61861038  0.72734816  1
  Ti  Ti42  1  0.39823613  0.90422604  0.13622271  1
  Ti  Ti43  1  0.34516699  0.93699753  0.46395698  1
  Ti  Ti44  1  0.40794560  0.91830914  0.78879957  1
  Ti  Ti45  1  0.72290683  0.24201247  0.05548975  1
  Ti  Ti46  1  0.72439502  0.14639607  0.44609254  1
  Ti  Ti47  1  0.72721302  0.17793914  0.74369199  1
  Ti  Ti48  1  0.82456027  0.58054983  0.07304979  1
  Ti  Ti49  1  0.74841053  0.61069912  0.41163721  1
  Ti  Ti50  1  0.78252933  0.61992720  0.75746881  1
  Ti  Ti51  1  0.76425225  0.89762451  0.05673037  1
  Ti  Ti52  1  0.77187544  0.96390945  0.38437242  1
  Ti  Ti53  1  0.75201890  0.97484678  0.75772128  1
  Ti  Ti54  1  0.17725285  0.14250036  0.02558281  1
  Ti  Ti55  1  0.30625211  0.10811340  0.38918430  1
  Ti  Ti56  1  0.22872375  0.08053407  0.73154824  1
  Ti  Ti57  1  0.26432002  0.44053151  0.09711661  1
  Ti  Ti58  1  0.29176070  0.41855181  0.41904508  1
  Ti  Ti59  1  0.18028140  0.38809994  0.82564772  1
  Ti  Ti60  1  0.27076509  0.73042424  0.13556543  1
  Ti  Ti61  1  0.23437417  0.75449231  0.46340266  1
  Ti  Ti62  1  0.30101345  0.73475949  0.74511608  1
  Ti  Ti63  1  0.55081365  0.10669237  0.01298871  1
  Ti  Ti64  1  0.56690893  0.06464308  0.35109560  1
  Ti  Ti65  1  0.53213504  0.06722685  0.70275679  1
  Ti  Ti66  1  0.48756195  0.39128338  0.03919833  1
  Ti  Ti67  1  0.57124355  0.40674943  0.43319040  1
  Ti  Ti68  1  0.61315462  0.46359145  0.80032936  1
  Ti  Ti69  1  0.56002526  0.78879043  0.04310429  1
  Ti  Ti70  1  0.67741732  0.80276452  0.40548109  1
  Ti  Ti71  1  0.62142206  0.76224955  0.72175144  1
  Ti  Ti72  1  0.85987521  0.09086451  0.11627184  1
  Ti  Ti73  1  0.95958698  0.07690910  0.44911809  1
  Ti  Ti74  1  0.91237590  0.09797971  0.71862224  1
  Ti  Ti75  1  0.92429054  0.38342835  0.10189625  1
  Ti  Ti76  1  0.96988710  0.42800507  0.44889089  1
  Ti  Ti77  1  0.88947289  0.45671612  0.69769401  1
  Ti  Ti78  1  0.97182614  0.82059961  0.00810445  1
  Ti  Ti79  1  0.91642007  0.75718835  0.47002319  1
  Ti  Ti80  1  0.93575537  0.73761888  0.82241482  1
  Ti  Ti81  1  0.19374773  0.26011742  0.21206063  1
  Ti  Ti82  1  0.25887831  0.25465168  0.57259169  1
  Ti  Ti83  1  0.28061653  0.23153233  0.87178414  1
  Ti  Ti84  1  0.28939263  0.57913801  0.28434734  1
  Ti  Ti85  1  0.24743594  0.57128214  0.55443909  1
  Ti  Ti86  1  0.25693804  0.53711711  0.90921979  1
  Ti  Ti87  1  0.23861477  0.93211608  0.29953437  1
  Ti  Ti88  1  0.18909691  0.94078465  0.57569485  1
  Ti  Ti89  1  0.25048501  0.90711363  0.98300673  1
  Ti  Ti90  1  0.60650771  0.27587876  0.27992861  1
  Ti  Ti91  1  0.60702580  0.20882736  0.57991069  1
  Ti  Ti92  1  0.62717660  0.24873861  0.89814918  1
  Ti  Ti93  1  0.48677668  0.63039071  0.25729864  1
  Ti  Ti94  1  0.56611195  0.66829295  0.54400287  1
  Ti  Ti95  1  0.54515993  0.63226955  0.92030489  1
  Ti  Ti96  1  0.54591847  0.85653258  0.26059532  1
  Ti  Ti97  1  0.54708339  0.90253418  0.59036073  1
  Ti  Ti98  1  0.61528234  0.92958819  0.92404577  1
  Ti  Ti99  1  0.91595216  0.16138168  0.29434744  1
  Ti  Ti100  1  0.85895181  0.27461712  0.45090027  1
  Ti  Ti101  1  0.85354741  0.24348506  0.87099656  1
  Ti  Ti102  1  0.96074205  0.67485901  0.29704178  1
  Ti  Ti103  1  0.93646482  0.58575385  0.53491250  1
  Ti  Ti104  1  1.02396537  0.55213769  0.86325874  1
  Ti  Ti105  1  0.93621980  0.87599686  0.18375646  1
  Ti  Ti106  1  0.90260386  0.88003422  0.65700055  1
  Ti  Ti107  1  0.84396153  0.88379009  0.88321440  1
  Co  Co108  1  0.10767231  0.38747372  0.13339279  1
  Co  Co109  1  0.94611489  0.70211793  0.13392237  1
  Co  Co110  1  0.21952814  0.89135763  0.14563283  1
  Co  Co111  1  0.37909525  -0.03104064  0.63077096  1
  Co  Co112  1  0.06539774  0.12299201  0.78039435  1
  Co  Co113  1  -0.05588400  0.17834406  0.57437977  1
  Co  Co114  1  0.21028977  0.30204976  0.02155434  1
  Co  Co115  1  0.41587421  0.18580191  0.62180627  1
  Co  Co116  1  0.05176623  0.28844139  0.01293412  1
  Co  Co117  1  0.50698517  0.36483983  0.87695154  1
  Co  Co118  1  0.37634619  0.65996155  0.59639396  1
  Co  Co119  1  0.55903111  0.21959976  0.42680111  1
  Co  Co120  1  0.08413601  0.94258625  0.23857494  1
  Co  Co121  1  0.95274779  0.50247497  0.00202172  1
  Co  Co122  1  0.80713264  0.45405277  0.48390156  1
  Co  Co123  1  0.13158750  0.78613553  0.03372314  1
  Co  Co124  1  0.19778273  0.22298220  0.43328719  1
  Co  Co125  1  0.57227820  -0.05658571  0.08693251  1
  Co  Co126  1  0.90031273  0.55057848  0.36743753  1
  Co  Co127  1  -0.06816997  0.54663300  0.19324941  1
  Co  Co128  1  0.62781505  0.15583353  0.16816774  1
  Co  Co129  1  0.82614440  0.74557471  0.02472638  1
  Co  Co130  1  0.31684751  0.55807524  0.71478649  1
  Co  Co131  1  0.69807411  0.31550602  0.46486392  1
  Co  Co132  1  0.79026837  0.57091478  0.59835057  1
  Co  Co133  1  0.65136393  0.53002035  0.52366076  1
  Co  Co134  1  0.45069448  0.22972036  -0.03995566  1
  Co  Co135  1  0.28642160  0.09141722  0.55225094  1
  Co  Co136  1  0.52824439  0.73558512  0.38302981  1
  Co  Co137  1  0.08522520  0.53531152  0.59043829  1
  Co  Co138  1  0.16204811  0.25070016  0.71632981  1
  Co  Co139  1  0.37649270  0.09303857  0.75793000  1
  Co  Co140  1  0.90800033  -0.08331228  0.47279744  1
  Co  Co141  1  0.13471771  0.38490387  0.40688209  1
  Co  Co142  1  0.37035291  0.64572353  0.86420311  1
  Co  Co143  1  0.57559867  0.57935792  0.39079441  1
  Co  Co144  1  0.23466928  0.73644506  0.29516532  1
  Co  Co145  1  0.59472977  0.92200512  0.76318889  1
  Co  Co146  1  0.37500853  0.63873374  0.41203274  1
  Co  Co147  1  0.89426070  0.23322248  0.02318445  1
  Co  Co148  1  0.01192837  0.06043501  0.15867120  1
  Co  Co149  1  0.70335420  0.05093666  0.06887954  1
  Co  Co150  1  0.44264451  0.94110347  -0.01755296  1
  Co  Co151  1  0.29927326  0.81934322  0.60157695  1
  Co  Co152  1  0.11947163  0.23633710  0.87739100  1
  Co  Co153  1  0.05628322  0.44177549  0.72848047  1
  Co  Co154  1  0.04662732  0.85407863  0.56725245  1
  Co  Co155  1  0.85542438  0.82764413  0.33377494  1
  Co  Co156  1  0.77689246  0.80271534  0.74849146  1
  Co  Co157  1  0.50896705  0.25146781  0.12406660  1
  Co  Co158  1  0.00157385  0.00905865  0.58846066  1
  Co  Co159  1  0.13079467  0.61134430  0.24184685  1
  Co  Co160  1  0.16964102  0.82752829  0.69867187  1
  Co  Co161  1  0.64495167  0.59858650  0.67931326  1
  Ni  Ni162  1  0.76606926  0.26563477  0.31833132  1
  Ni  Ni163  1  0.63986664  -0.01132940  0.22056908  1
  Ni  Ni164  1  0.30605830  0.26954680  0.32514782  1
  Ni  Ni165  1  0.78447173  0.34166424  0.75651837  1
  Ni  Ni166  1  0.40418903  0.49934148  0.17567996  1
  Ni  Ni167  1  0.67748025  0.66842705  0.04729215  1
  Ni  Ni168  1  0.34155232  0.37190175  -0.05224032  1
  Ni  Ni169  1  0.67853875  0.06069792  0.62811228  1
  Ni  Ni170  1  0.65763955  0.39842706  -0.03454809  1
  Ni  Ni171  1  0.32185029  0.11761882  0.22760857  1
  Ni  Ni172  1  0.40995857  -0.02041053  0.30608235  1
  Ni  Ni173  1  0.83510307  0.25833651  0.17471430  1
  Ni  Ni174  1  0.43952326  0.74130645  0.14231178  1
  Ni  Ni175  1  -0.02561734  0.59316732  0.71371289  1
  Ni  Ni176  1  0.69814020  0.56486410  0.90834623  1
  Ni  Ni177  1  0.64756364  0.68834529  0.28141732  1
  Ni  Ni178  1  0.67364291  0.82279926  0.16861754  1
  Ni  Ni179  1  0.08891957  0.68947428  0.51724554  1
  Ni  Ni180  1  0.21857544  0.42325878  0.26388075  1
  Ni  Ni181  1  0.88549248  0.71313175  0.64943976  1
  Ni  Ni182  1  0.32017191  0.03860550  0.08438102  1
  Ni  Ni183  1  0.24738444  0.68270197  -0.01995071  1
  Ni  Ni184  1  0.71481564  0.89219791  0.60995766  1
  Ni  Ni185  1  0.43594334  0.50643550  -0.08157577  1
  Ni  Ni186  1  0.50162816  0.77362218  0.83575228  1
  Ni  Ni187  1  0.49757261  0.04802062  0.86392793  1
  Ni  Ni188  1  -0.07358342  -0.01815047  0.01290840  1
  Ni  Ni189  1  0.85600771  0.61348671  0.90971898  1
  Ni  Ni190  1  0.09355966  0.73500310  0.36524202  1
  Ni  Ni191  1  0.24345644  0.89197292  0.82287321  1
  Ni  Ni192  1  0.18100888  0.06452257  0.16915377  1
  Ni  Ni193  1  0.14848531  0.05237968  0.45744271  1
  Ni  Ni194  1  0.79135144  -0.06155213  0.22026019  1
  Ni  Ni195  1  0.61495343  0.30622181  0.73816822  1
  Ni  Ni196  1  0.65256753  0.08002649  0.85554399  1
  Ni  Ni197  1  0.78394943  0.21591350  0.59613728  1
  Ni  Ni198  1  0.64001491  -0.00494690  0.48745274  1
  Ni  Ni199  1  0.45152932  0.19207795  0.30329099  1
  Ni  Ni200  1  0.51323951  -0.09186342  0.42025465  1
  Ni  Ni201  1  0.16424880  0.03422236  0.88732000  1
  Ni  Ni202  1  -0.06796397  0.32900472  0.29012396  1
  Ni  Ni203  1  -0.09089052  0.33958729  0.59057040  1
  Ni  Ni204  1  -0.00797492  0.66594348  -0.01839688  1
  Ni  Ni205  1  0.53910225  0.48560142  0.63898216  1
  Ni  Ni206  1  0.11909608  0.44779114  -0.01919897  1
  Ni  Ni207  1  0.21595078  0.42648585  0.66702048  1
  Ni  Ni208  1  0.44248071  0.48525164  0.34093480  1
  Ni  Ni209  1  -0.06984484  -0.01075420  0.30532985  1
  Ni  Ni210  1  0.32236097  0.29307921  0.71786324  1
  Ni  Ni211  1  0.95006444  0.00273556  0.84694372  1
  Ni  Ni212  1  0.07568741  0.88621016  0.89129023  1
  Ni  Ni213  1  0.45107006  0.79326086  0.67499541  1
  Ni  Ni214  1  0.34949256  0.40981785  0.58209411  1
