# generated using pymatgen
data_Ti108Co54Ni53
_symmetry_space_group_name_H-M   'P 1'
_cell_length_a   14.61510998
_cell_length_b   14.66177228
_cell_length_c   14.60962963
_cell_angle_alpha   89.99637288
_cell_angle_beta   90.12406273
_cell_angle_gamma   89.77658005
_symmetry_Int_Tables_number   1
_chemical_formula_structural   Ti108Co54Ni53
_chemical_formula_sum   'Ti108 Co54 Ni53'
_cell_volume   3130.57017072
_cell_formula_units_Z   1
loop_
 _symmetry_equiv_pos_site_id
 _symmetry_equiv_pos_as_xyz
  1  'x, y, z'
loop_
 _atom_site_type_symbol
 _atom_site_label
 _atom_site_symmetry_multiplicity
 _atom_site_fract_x
 _atom_site_fract_y
 _atom_site_fract_z
 _atom_site_occupancy
  Ti  Ti0  1  0.07401397  0.11612044  0.18984280  1
  Ti  Ti1  1  0.04966066  0.01367760  0.54768635  1
  Ti  Ti2  1  0.11319351  0.09254410  0.92052319  1
  Ti  Ti3  1  0.11471617  0.40519547  0.28521484  1
  Ti  Ti4  1  0.10557705  0.44410862  0.49096421  1
  Ti  Ti5  1  0.06176614  0.44058902  0.92401196  1
  Ti  Ti6  1  -0.01198722  0.72919300  0.25085707  1
  Ti  Ti7  1  0.10909324  0.72365077  0.58227646  1
  Ti  Ti8  1  0.13561166  0.79335526  0.94238849  1
  Ti  Ti9  1  0.41188813  0.10827666  0.30729316  1
  Ti  Ti10  1  0.38644780  0.00941828  0.56400334  1
  Ti  Ti11  1  0.44131246  0.04744051  0.93418754  1
  Ti  Ti12  1  0.34318400  0.39354098  0.25215143  1
  Ti  Ti13  1  0.39935956  0.43538571  0.56732274  1
  Ti  Ti14  1  0.40855121  0.35855511  0.89584240  1
  Ti  Ti15  1  0.41141469  0.73437395  0.19390229  1
  Ti  Ti16  1  0.43276211  0.75454171  0.70759718  1
  Ti  Ti17  1  0.41810459  0.67900352  0.87944923  1
  Ti  Ti18  1  0.70815725  0.04850027  0.26527422  1
  Ti  Ti19  1  0.72830153  0.08096149  0.54291406  1
  Ti  Ti20  1  0.76750382  0.06182320  0.88037804  1
  Ti  Ti21  1  0.78285356  0.41225238  0.28192133  1
  Ti  Ti22  1  0.71677209  0.34592992  0.59994475  1
  Ti  Ti23  1  0.72981210  0.39811270  0.98918909  1
  Ti  Ti24  1  0.79616350  0.75088764  0.18796559  1
  Ti  Ti25  1  0.80082629  0.77531330  0.59104034  1
  Ti  Ti26  1  0.75973615  0.73138082  0.99013592  1
  Ti  Ti27  1  0.06138313  0.29827330  0.08089065  1
  Ti  Ti28  1  0.11805240  0.25394086  0.54302565  1
  Ti  Ti29  1  0.05989060  0.24850236  0.74434434  1
  Ti  Ti30  1  0.06498610  0.60480033  0.04898068  1
  Ti  Ti31  1  0.00922804  0.59998577  0.42599942  1
  Ti  Ti32  1  0.16306137  0.59462888  0.75337591  1
  Ti  Ti33  1  0.06782514  0.93792241  0.04957653  1
  Ti  Ti34  1  0.14179824  0.87440387  0.44537740  1
  Ti  Ti35  1  0.03119613  0.91965681  0.76048556  1
  Ti  Ti36  1  0.36623838  0.25760526  0.05879412  1
  Ti  Ti37  1  0.35675664  0.28562407  0.39741023  1
  Ti  Ti38  1  0.41909751  0.30367912  0.71730659  1
  Ti  Ti39  1  0.45702080  0.59358476  0.03978095  1
  Ti  Ti40  1  0.40766450  0.58591960  0.32060253  1
  Ti  Ti41  1  0.49307288  0.57416119  0.65418602  1
  Ti  Ti42  1  0.43349873  0.90556515  0.06757690  1
  Ti  Ti43  1  0.32987567  0.96167356  0.39383211  1
  Ti  Ti44  1  0.43666790  0.95983894  0.75933342  1
  Ti  Ti45  1  0.76159234  0.22560691  0.08798107  1
  Ti  Ti46  1  0.82009308  0.26857021  0.44812855  1
  Ti  Ti47  1  0.75418702  0.19339455  0.75088834  1
  Ti  Ti48  1  0.69975306  0.56560814  0.10964107  1
  Ti  Ti49  1  0.79396223  0.58863376  0.49790801  1
  Ti  Ti50  1  0.76984531  0.64181093  0.71066365  1
  Ti  Ti51  1  0.73060566  1.02275575  0.06638908  1
  Ti  Ti52  1  0.81392879  0.92658230  0.43658563  1
  Ti  Ti53  1  0.73780540  0.88748791  0.78011211  1
  Ti  Ti54  1  0.24640828  0.02579483  0.11065402  1
  Ti  Ti55  1  0.21806142  0.13035533  0.42925829  1
  Ti  Ti56  1  0.26432167  0.07920767  0.77205338  1
  Ti  Ti57  1  0.34749658  0.44550165  0.05267361  1
  Ti  Ti58  1  0.27227276  0.47582196  0.41504008  1
  Ti  Ti59  1  0.21971027  0.42410421  0.66489271  1
  Ti  Ti60  1  0.26368041  0.66628853  0.06144741  1
  Ti  Ti61  1  0.28782159  0.70293924  0.40973275  1
  Ti  Ti62  1  0.27060304  0.80041699  0.78401063  1
  Ti  Ti63  1  0.54585471  0.10728581  0.10306464  1
  Ti  Ti64  1  0.54942092  0.09013802  0.44807407  1
  Ti  Ti65  1  0.56445387  0.13769141  0.78975391  1
  Ti  Ti66  1  0.57540289  0.29912722  0.05283975  1
  Ti  Ti67  1  0.59328033  0.38369747  0.44901581  1
  Ti  Ti68  1  0.66072588  0.48248639  0.73235717  1
  Ti  Ti69  1  0.58898733  0.75961643  0.09442628  1
  Ti  Ti70  1  0.58523671  0.80603194  0.48917618  1
  Ti  Ti71  1  0.60672518  0.79945739  0.68904692  1
  Ti  Ti72  1  0.90907619  0.03529748  0.12307441  1
  Ti  Ti73  1  0.97797646  0.14777050  0.39736341  1
  Ti  Ti74  1  0.93647126  0.12313616  0.68156593  1
  Ti  Ti75  1  0.91441449  0.45476969  0.03660023  1
  Ti  Ti76  1  0.97268283  0.34946916  0.39463174  1
  Ti  Ti77  1  0.84859529  0.47530943  0.81740185  1
  Ti  Ti78  1  0.96867615  0.76249080  0.05378483  1
  Ti  Ti79  1  0.96966379  0.80117462  0.43857128  1
  Ti  Ti80  1  0.97514000  0.69801235  0.72643964  1
  Ti  Ti81  1  0.24142885  0.22526018  0.23344101  1
  Ti  Ti82  1  0.31804689  0.18507677  0.59866511  1
  Ti  Ti83  1  0.23855717  0.25283146  0.86615278  1
  Ti  Ti84  1  0.23531635  0.53004679  0.19046418  1
  Ti  Ti85  1  0.29061987  0.61286337  0.59787891  1
  Ti  Ti86  1  0.26541685  0.49320742  0.88234780  1
  Ti  Ti87  1  0.23258224  0.84706520  0.26993504  1
  Ti  Ti88  1  0.29546712  0.81645236  0.56216024  1
  Ti  Ti89  1  0.26524060  0.95125151  0.94178288  1
  Ti  Ti90  1  0.50978320  0.26618865  0.24600515  1
  Ti  Ti91  1  0.57533576  0.21018643  0.59518255  1
  Ti  Ti92  1  0.59276072  0.31740603  0.86851154  1
  Ti  Ti93  1  0.57147697  0.46710349  0.25794733  1
  Ti  Ti94  1  0.55478667  0.58484474  0.46072525  1
  Ti  Ti95  1  0.57812522  0.50964925  0.91019241  1
  Ti  Ti96  1  0.56073726  0.91668187  0.28759999  1
  Ti  Ti97  1  0.57499080  0.99168044  0.62985838  1
  Ti  Ti98  1  0.55565871  0.83042681  0.89485652  1
  Ti  Ti99  1  0.83255676  0.21066351  0.26612564  1
  Ti  Ti100  1  0.89982942  0.34232318  0.66826956  1
  Ti  Ti101  1  0.88624374  0.28745264  0.91042797  1
  Ti  Ti102  1  0.94033161  0.54120366  0.21900205  1
  Ti  Ti103  1  0.95216844  0.54622433  0.62862744  1
  Ti  Ti104  1  0.91768073  0.62060229  0.90955106  1
  Ti  Ti105  1  0.95187331  0.97976128  0.32206547  1
  Ti  Ti106  1  0.86100887  0.96115440  0.62736525  1
  Ti  Ti107  1  0.87475189  0.89018361  0.92217984  1
  Co  Co108  1  0.71854944  0.03782447  0.71081968  1
  Co  Co109  1  0.40273751  0.86844431  0.88269791  1
  Co  Co110  1  0.14777144  0.87184121  0.63790552  1
  Co  Co111  1  0.88395596  0.63031913  0.09369269  1
  Co  Co112  1  0.89786244  0.07862324  0.51604118  1
  Co  Co113  1  0.67041550  0.30815697  0.32421717  1
  Co  Co114  1  0.23833927  0.66418624  0.89156910  1
  Co  Co115  1  0.11775924  0.76645128  0.77047186  1
  Co  Co116  1  0.11088864  0.55466170  0.61103941  1
  Co  Co117  1  0.29232461  0.11521362  -0.04668310  1
  Co  Co118  1  -0.07580181  0.43765360  0.51828672  1
  Co  Co119  1  -0.03252606  0.23515092  0.55075958  1
  Co  Co120  1  0.45396464  0.70667827  0.54713619  1
  Co  Co121  1  0.67939641  0.74854940  0.84383996  1
  Co  Co122  1  0.52133991  0.24269896  0.40093087  1
  Co  Co123  1  0.39430246  0.57262280  0.48324055  1
  Co  Co124  1  0.40263408  0.87889534  0.25879969  1
  Co  Co125  1  0.71790468  0.59237518  0.85652419  1
  Co  Co126  1  0.17506395  0.61283995  0.48068246  1
  Co  Co127  1  0.93061377  0.69125663  0.55313167  1
  Co  Co128  1  0.67109509  0.36844955  0.16520415  1
  Co  Co129  1  0.04986241  0.39486587  0.64171071  1
  Co  Co130  1  -0.05341726  0.15461500  0.84469462  1
  Co  Co131  1  0.59324073  0.66471890  -0.04100284  1
  Co  Co132  1  0.49767200  -0.05912555  0.44730246  1
  Co  Co133  1  0.79249112  0.54599827  -0.01933262  1
  Co  Co134  1  0.39457802  0.13829041  0.46356637  1
  Co  Co135  1  0.86491631  0.82419630  0.31713986  1
  Co  Co136  1  0.88328882  0.00715722  0.78866850  1
  Co  Co137  1  0.57263876  0.48010240  0.06932082  1
  Co  Co138  1  0.28712091  0.85313049  0.11875757  1
  Co  Co139  1  0.76890486  0.42528997  0.45905919  1
  Co  Co140  1  0.14020689  0.38374780  0.79826450  1
  Co  Co141  1  0.80087930  0.09264564  0.38660587  1
  Co  Co142  1  0.29631578  0.79450888  -0.03008625  1
  Co  Co143  1  0.80354890  0.48052621  0.63638715  1
  Co  Co144  1  0.13263793  0.79468877  0.12054540  1
  Co  Co145  1  0.26343161  0.68679796  0.24449588  1
  Co  Co146  1  0.38488723  0.18071801  0.81735035  1
  Co  Co147  1  0.83269458  0.73069400  0.83806126  1
  Co  Co148  1  0.67383168  0.21475047  0.46130326  1
  Co  Co149  1  0.21049685  0.36163308  0.15076092  1
  Co  Co150  1  0.45012518  0.43453701  0.38782251  1
  Co  Co151  1  0.19252008  0.31843009  0.39611595  1
  Co  Co152  1  0.08155135  0.07681826  0.76349579  1
  Co  Co153  1  0.34933683  0.46789897  0.74159808  1
  Co  Co154  1  0.44633060  0.28398865  0.53886557  1
  Co  Co155  1  0.18015124  -0.06097558  0.80981426  1
  Co  Co156  1  0.60946952  0.30472432  0.71939446  1
  Co  Co157  1  0.55064163  0.40560400  0.61235739  1
  Co  Co158  1  0.43925746  0.75317865  0.02086489  1
  Co  Co159  1  0.41292819  0.53680663  0.17852946  1
  Co  Co160  1  0.81178094  -0.05939665  0.22693890  1
  Co  Co161  1  0.65940476  0.51067005  0.56055879  1
  Ni  Ni162  1  0.22182601  -0.01082138  0.53462251  1
  Ni  Ni163  1  -0.13621786  0.66816657  0.35519567  1
  Ni  Ni164  1  0.81270440  0.20499895  0.60097299  1
  Ni  Ni165  1  0.85229990  0.35493198  0.14398535  1
  Ni  Ni166  1  0.45681177  0.00718024  0.19054749  1
  Ni  Ni167  1  0.65209210  0.19588584  0.20158952  1
  Ni  Ni168  1  0.22455773  0.34261169  -0.00966234  1
  Ni  Ni169  1  0.65798454  -0.03194058  0.42430512  1
  Ni  Ni170  1  0.47038987  0.38448821  0.14278603  1
  Ni  Ni171  1  0.32965587  0.62429353  0.75557645  1
  Ni  Ni172  1  -0.01927446  0.30444143  0.23708760  1
  Ni  Ni173  1  0.36425168  0.13197574  0.14971387  1
  Ni  Ni174  1  0.06417546  0.26927807  -0.08913800  1
  Ni  Ni175  1  0.48702060  0.20569473  -0.05579166  1
  Ni  Ni176  1  -0.02745021  0.88004318  0.18587538  1
  Ni  Ni177  1  0.15118400  0.56668982  0.33120612  1
  Ni  Ni178  1  0.88412187  0.50622585  0.37373063  1
  Ni  Ni179  1  -0.03759543  0.02397860  -0.05682511  1
  Ni  Ni180  1  0.85931574  0.13845097  -0.01073702  1
  Ni  Ni181  1  0.22230172  0.26043885  0.70268231  1
  Ni  Ni182  1  0.11466868  0.64866356  0.19441815  1
  Ni  Ni183  1  0.09988504  0.21543240  0.32200015  1
  Ni  Ni184  1  0.55414557  0.62201253  0.19118352  1
  Ni  Ni185  1  0.70555463  0.90790271  0.57915220  1
  Ni  Ni186  1  0.18264435  0.49066343  0.03430683  1
  Ni  Ni187  1  0.46161885  0.86516186  0.59334095  1
  Ni  Ni188  1  0.59916174  -0.02185488  0.82097673  1
  Ni  Ni189  1  0.27107515  0.33202185  0.53713088  1
  Ni  Ni190  1  -0.01274467  0.84910345  0.59963689  1
  Ni  Ni191  1  0.11000397  0.02333892  0.36532121  1
  Ni  Ni192  1  0.29268004  -0.06636419  0.68173647  1
  Ni  Ni193  1  0.05887331  0.45581714  0.13580036  1
  Ni  Ni194  1  -0.06956599  0.20281688  0.12312699  1
  Ni  Ni195  1  0.07597304  0.63731767  -0.11674861  1
  Ni  Ni196  1  0.84403946  0.87636837  0.08033798  1
  Ni  Ni197  1  -0.01357839  0.78215256  0.87462539  1
  Ni  Ni198  1  0.88925356  0.83941945  0.73882396  1
  Ni  Ni199  1  0.58926012  -0.05471982  0.01047589  1
  Ni  Ni200  1  0.71845306  0.22441616  -0.07325170  1
  Ni  Ni201  1  0.24472180  0.05447972  0.27280604  1
  Ni  Ni202  1  0.50319621  0.43919960  0.77243236  1
  Ni  Ni203  1  0.40980225  0.81270675  0.41735329  1
  Ni  Ni204  1  0.68602254  0.88159993  0.13991692  1
  Ni  Ni205  1  0.45425641  0.11974355  0.66848250  1
  Ni  Ni206  1  0.11771213  -0.04996298  0.21257061  1
  Ni  Ni207  1  0.01593483  0.50969307  0.77847277  1
  Ni  Ni208  1  0.16257771  0.11642744  0.62759983  1
  Ni  Ni209  1  0.11849180  0.72704090  0.36276124  1
  Ni  Ni210  1  0.61432534  0.09544565  0.94925026  1
  Ni  Ni211  1  0.75329775  0.34606041  0.80867922  1
  Ni  Ni212  1  0.63545315  0.66862389  0.59253356  1
  Ni  Ni213  1  0.19070104  0.19030806  0.06422872  1
  Ni  Ni214  1  0.57314778  0.64462427  0.78149887  1
