# generated using pymatgen
data_Ti108Co54Ni53
_symmetry_space_group_name_H-M   'P 1'
_cell_length_a   14.71177226
_cell_length_b   14.61381531
_cell_length_c   14.63723948
_cell_angle_alpha   90.35868126
_cell_angle_beta   90.12185221
_cell_angle_gamma   90.10569109
_symmetry_Int_Tables_number   1
_chemical_formula_structural   Ti108Co54Ni53
_chemical_formula_sum   'Ti108 Co54 Ni53'
_cell_volume   3146.86088695
_cell_formula_units_Z   1
loop_
 _symmetry_equiv_pos_site_id
 _symmetry_equiv_pos_as_xyz
  1  'x, y, z'
loop_
 _atom_site_type_symbol
 _atom_site_label
 _atom_site_symmetry_multiplicity
 _atom_site_fract_x
 _atom_site_fract_y
 _atom_site_fract_z
 _atom_site_occupancy
  Ti  Ti0  1  0.05399875  0.07493517  0.34396775  1
  Ti  Ti1  1  -0.00045234  0.04412183  0.60026065  1
  Ti  Ti2  1  0.12666447  0.06104883  0.88784520  1
  Ti  Ti3  1  0.02380443  0.36856719  0.28497695  1
  Ti  Ti4  1  0.09981362  0.38742876  0.61749063  1
  Ti  Ti5  1  0.11847739  0.35888030  0.92069377  1
  Ti  Ti6  1  0.10284956  0.71183727  0.29685818  1
  Ti  Ti7  1  0.11561461  0.73142619  0.60188964  1
  Ti  Ti8  1  0.07784623  0.69498259  0.88611289  1
  Ti  Ti9  1  0.33423991  0.11608178  0.19161339  1
  Ti  Ti10  1  0.49674361  0.07998007  0.60112821  1
  Ti  Ti11  1  0.45081261  0.15586989  0.89139658  1
  Ti  Ti12  1  0.39615704  0.50288924  0.19803247  1
  Ti  Ti13  1  0.41520849  0.38737379  0.57753344  1
  Ti  Ti14  1  0.40473784  0.39882195  0.96836109  1
  Ti  Ti15  1  0.35361208  0.72292500  0.22509274  1
  Ti  Ti16  1  0.34907755  0.83197168  0.59026527  1
  Ti  Ti17  1  0.40207742  0.75678321  0.91236749  1
  Ti  Ti18  1  0.67151512  0.09698024  0.20194972  1
  Ti  Ti19  1  0.72201217  0.10335333  0.52357903  1
  Ti  Ti20  1  0.79699836  0.03101744  0.92393884  1
  Ti  Ti21  1  0.83949095  0.42536700  0.22247463  1
  Ti  Ti22  1  0.79521179  0.30760094  0.60944657  1
  Ti  Ti23  1  0.79830645  0.41040623  0.91081411  1
  Ti  Ti24  1  0.73807626  0.91426571  0.23548221  1
  Ti  Ti25  1  0.73266334  0.73964254  0.61819566  1
  Ti  Ti26  1  0.74376398  0.74588372  0.84905422  1
  Ti  Ti27  1  0.04917420  0.24386963  0.07548570  1
  Ti  Ti28  1  0.14200352  0.30054068  0.43512512  1
  Ti  Ti29  1  0.04068590  0.26658507  0.76756641  1
  Ti  Ti30  1  0.08512926  0.64313314  0.07281739  1
  Ti  Ti31  1  0.03929125  0.54977330  0.35444743  1
  Ti  Ti32  1  0.11340454  0.50458535  0.77844707  1
  Ti  Ti33  1  0.08701142  0.90285385  0.09535892  1
  Ti  Ti34  1  0.11858932  0.88502426  0.39711445  1
  Ti  Ti35  1  0.07090025  0.84195449  0.76744066  1
  Ti  Ti36  1  0.40309378  0.27791037  0.12787955  1
  Ti  Ti37  1  0.35321358  0.23974405  0.45482852  1
  Ti  Ti38  1  0.41291717  0.23056855  0.69314666  1
  Ti  Ti39  1  0.51318443  0.60208975  0.06521488  1
  Ti  Ti40  1  0.41620064  0.63090678  0.39017236  1
  Ti  Ti41  1  0.41105149  0.51533194  0.82101052  1
  Ti  Ti42  1  0.42301178  0.91693526  0.14688869  1
  Ti  Ti43  1  0.43638347  0.95033763  0.46552585  1
  Ti  Ti44  1  0.35382807  0.90403073  0.76073747  1
  Ti  Ti45  1  0.70696075  0.31558097  0.06097328  1
  Ti  Ti46  1  0.72162929  0.20330683  0.34763280  1
  Ti  Ti47  1  0.74905998  0.17391440  0.76501355  1
  Ti  Ti48  1  0.71917916  0.62529661  0.09028679  1
  Ti  Ti49  1  0.79559841  0.65711459  0.40797133  1
  Ti  Ti50  1  0.82247693  0.59935796  0.76884498  1
  Ti  Ti51  1  0.72403101  0.86412704  0.03210654  1
  Ti  Ti52  1  0.70636588  0.85596206  0.42942992  1
  Ti  Ti53  1  0.65280387  0.90687095  0.70446841  1
  Ti  Ti54  1  0.22821749  0.05032688  0.05476779  1
  Ti  Ti55  1  0.23742447  0.10995378  0.37589556  1
  Ti  Ti56  1  0.25515245  0.09730137  0.72705552  1
  Ti  Ti57  1  0.25003700  0.34882038  0.05310621  1
  Ti  Ti58  1  0.35006381  0.44174340  0.38612611  1
  Ti  Ti59  1  0.26807198  0.49640856  0.68068515  1
  Ti  Ti60  1  0.28936264  0.69317987  0.05761648  1
  Ti  Ti61  1  0.26791958  0.76207616  0.44313616  1
  Ti  Ti62  1  0.34449726  0.68762614  0.73161223  1
  Ti  Ti63  1  0.53562225  0.09799001  0.05749825  1
  Ti  Ti64  1  0.54717777  0.12912528  0.40048782  1
  Ti  Ti65  1  0.62898159  0.05785740  0.84005666  1
  Ti  Ti66  1  0.54937178  0.41883431  0.10577693  1
  Ti  Ti67  1  0.54121292  0.34280435  0.40413096  1
  Ti  Ti68  1  0.55518914  0.43333242  0.73631374  1
  Ti  Ti69  1  0.58688650  0.77704291  0.15619087  1
  Ti  Ti70  1  0.54449587  0.77184940  0.33870355  1
  Ti  Ti71  1  0.56811381  0.79597201  0.83882184  1
  Ti  Ti72  1  0.91192733  0.07764226  0.08289192  1
  Ti  Ti73  1  0.89391927  0.10654271  0.42618198  1
  Ti  Ti74  1  0.93417805  0.09441557  0.78441074  1
  Ti  Ti75  1  0.98684949  0.43157180  0.05947766  1
  Ti  Ti76  1  0.94033364  0.39638333  0.46493242  1
  Ti  Ti77  1  0.94778245  0.45526013  0.81223022  1
  Ti  Ti78  1  0.83398856  0.75942043  0.17508482  1
  Ti  Ti79  1  0.96957598  0.77543652  0.45659507  1
  Ti  Ti80  1  0.92237995  0.76246650  0.68245094  1
  Ti  Ti81  1  0.26651474  0.30727745  0.27087259  1
  Ti  Ti82  1  0.24892809  0.27448075  0.62374919  1
  Ti  Ti83  1  0.28771713  0.25406251  0.86045236  1
  Ti  Ti84  1  0.21778136  0.54572195  0.20353282  1
  Ti  Ti85  1  0.26594414  0.57016928  0.50803125  1
  Ti  Ti86  1  0.24123332  0.59500438  0.90543919  1
  Ti  Ti87  1  0.25311037  0.94904751  0.25616696  1
  Ti  Ti88  1  0.18439743  0.93964718  0.61663303  1
  Ti  Ti89  1  0.27027392  0.90044291  0.95018502  1
  Ti  Ti90  1  0.56419174  0.24733256  0.21522810  1
  Ti  Ti91  1  0.60651267  0.25754434  0.64913711  1
  Ti  Ti92  1  0.62495877  0.29036013  0.87618064  1
  Ti  Ti93  1  0.63681002  0.58425078  0.29073973  1
  Ti  Ti94  1  0.54410193  0.64228329  0.58816725  1
  Ti  Ti95  1  0.59565766  0.60399205  0.88831710  1
  Ti  Ti96  1  0.55727321  0.95524768  0.30927937  1
  Ti  Ti97  1  0.56662185  0.83780063  0.55118029  1
  Ti  Ti98  1  0.46893040  0.95917053  0.88820867  1
  Ti  Ti99  1  0.88671131  0.22827743  0.23964228  1
  Ti  Ti100  1  0.97323540  0.23467263  0.57459521  1
  Ti  Ti101  1  0.84639198  0.21456173  0.94654490  1
  Ti  Ti102  1  0.93219648  0.59984912  0.16538310  1
  Ti  Ti103  1  0.95975716  0.54665072  0.61071548  1
  Ti  Ti104  1  0.90696028  0.58986943  0.96821087  1
  Ti  Ti105  1  0.94753701  0.92792194  0.27359595  1
  Ti  Ti106  1  0.84391247  0.92257318  0.58091291  1
  Ti  Ti107  1  0.90519667  0.86922387  0.90109690  1
  Co  Co108  1  0.69506624  0.48012934  0.16257456  1
  Co  Co109  1  0.78472822  0.17656591  0.11610108  1
  Co  Co110  1  0.09023627  0.47153018  0.48465738  1
  Co  Co111  1  0.05758850  0.52837890  0.93033779  1
  Co  Co112  1  0.71340491  0.90902590  0.86060197  1
  Co  Co113  1  0.44673283  0.77117389  0.46779200  1
  Co  Co114  1  0.42782975  0.53058959  0.65676010  1
  Co  Co115  1  0.60238633  -0.01011201  0.49266218  1
  Co  Co116  1  0.39677186  0.01919725  0.02217617  1
  Co  Co117  1  0.74221963  0.02312694  0.07938027  1
  Co  Co118  1  0.80635502  0.85391621  0.74110778  1
  Co  Co119  1  0.21347028  0.21215092  0.13793425  1
  Co  Co120  1  0.46445476  0.51628527  0.49774359  1
  Co  Co121  1  0.41501235  0.06427724  0.75193346  1
  Co  Co122  1  0.68525971  0.15956187  0.97048101  1
  Co  Co123  1  0.66650130  0.64230428  0.73394973  1
  Co  Co124  1  0.12620808  0.22244917  0.28542695  1
  Co  Co125  1  0.08153683  0.16485494  0.48079136  1
  Co  Co126  1  0.59527754  0.94487005  0.14346603  1
  Co  Co127  1  0.30397544  0.05739689  0.88228972  1
  Co  Co128  1  0.32465064  0.51951111  0.05807806  1
  Co  Co129  1  0.23622443  0.77077960  0.85840622  1
  Co  Co130  1  0.72723738  0.30066665  0.21826584  1
  Co  Co131  1  0.15693806  0.78249926  0.00205415  1
  Co  Co132  1  0.22692490  0.80651681  0.70181892  1
  Co  Co133  1  0.82417377  0.48255777  0.06768205  1
  Co  Co134  1  0.69819205  0.03669348  0.35932554  1
  Co  Co135  1  0.27357262  0.93954915  0.44598255  1
  Co  Co136  1  0.27057889  0.86551554  0.11089131  1
  Co  Co137  1  -0.05513419  -0.05730761  0.72657062  1
  Co  Co138  1  0.60580225  0.40028175  0.26008813  1
  Co  Co139  1  0.40976783  0.60135258  -0.05076552  1
  Co  Co140  1  0.35826431  0.37977796  0.74365046  1
  Co  Co141  1  0.17827011  0.19800882  -0.02889562  1
  Co  Co142  1  0.78876031  0.01542002  0.73573683  1
  Co  Co143  1  0.23856956  0.80149151  0.29407394  1
  Co  Co144  1  -0.01887540  -0.04371472  0.45333902  1
  Co  Co145  1  0.12337102  0.56656447  0.61305639  1
  Co  Co146  1  0.01259392  0.64026111  0.73467963  1
  Co  Co147  1  0.70230389  0.74188067  0.28519434  1
  Co  Co148  1  -0.01749201  0.24732478  0.38556433  1
  Co  Co149  1  0.47165138  0.31496850  0.83440099  1
  Co  Co150  1  -0.04342710  0.33660309  -0.07282141  1
  Co  Co151  1  0.25224244  0.61643819  0.34500950  1
  Co  Co152  1  0.16965631  0.75337830  0.15919888  1
  Co  Co153  1  0.79162682  0.59768584  0.24151548  1
  Co  Co154  1  -0.02018775  0.75958549  0.02161031  1
  Co  Co155  1  0.07654977  0.89207621  0.92306616  1
  Co  Co156  1  0.38390199  0.66396918  0.57133612  1
  Co  Co157  1  0.87376228  0.31334692  0.08037851  1
  Co  Co158  1  0.54320161  0.44971452  -0.08574801  1
  Co  Co159  1  0.68709756  0.48894094  0.82294119  1
  Co  Co160  1  0.54973781  0.16823861  0.75937481  1
  Co  Co161  1  0.26277725  0.43754821  0.88540601  1
  Ni  Ni162  1  0.16297001  0.48899180  0.04395028  1
  Ni  Ni163  1  0.38880357  0.03561633  0.33346119  1
  Ni  Ni164  1  0.87291358  0.28720515  0.77795716  1
  Ni  Ni165  1  0.01181607  0.13715741  0.19872904  1
  Ni  Ni166  1  0.50961327  0.84657342  0.01530267  1
  Ni  Ni167  1  0.44197485  0.35943046  0.26767369  1
  Ni  Ni168  1  0.81235524  0.45447541  0.70620036  1
  Ni  Ni169  1  0.67304415  0.48822283  -0.00175369  1
  Ni  Ni170  1  0.15523825  0.06742459  0.20624926  1
  Ni  Ni171  1  -0.00086397  0.78583353  0.18272978  1
  Ni  Ni172  1  0.13883021  0.36141439  0.16991369  1
  Ni  Ni173  1  0.48755036  0.80126651  0.69373084  1
  Ni  Ni174  1  0.18590702  0.44880058  0.34839745  1
  Ni  Ni175  1  0.71238830  0.34265428  0.75238297  1
  Ni  Ni176  1  0.33650709  0.17801526  0.01448909  1
  Ni  Ni177  1  0.85012676  0.13443719  0.62473114  1
  Ni  Ni178  1  0.63774414  0.69761655  0.45623635  1
  Ni  Ni179  1  0.63046167  0.73034592  -0.00456067  1
  Ni  Ni180  1  0.87556073  0.67764394  0.55239241  1
  Ni  Ni181  1  0.13286019  0.01905248  0.48854901  1
  Ni  Ni182  1  -0.05583964  0.37979937  0.65653818  1
  Ni  Ni183  1  0.34362663  0.00464557  0.60359679  1
  Ni  Ni184  1  0.19630566  -0.05581402  0.79688776  1
  Ni  Ni185  1  0.11548163  0.16621350  0.64659615  1
  Ni  Ni186  1  0.24919832  0.40207657  0.51382008  1
  Ni  Ni187  1  0.61527894  -0.02810083  -0.02106199  1
  Ni  Ni188  1  0.84471830  0.81009676  0.34174783  1
  Ni  Ni189  1  0.82977014  -0.04122134  0.40278929  1
  Ni  Ni190  1  -0.06730930  0.67916809  0.30972525  1
  Ni  Ni191  1  0.49905935  0.08183877  0.21779140  1
  Ni  Ni192  1  0.12318310  0.65116837  0.45901075  1
  Ni  Ni193  1  0.50397344  0.49816194  0.33882247  1
  Ni  Ni194  1  0.87814166  -0.08256756  0.11489527  1
  Ni  Ni195  1  0.41922957  0.20279828  0.30804464  1
  Ni  Ni196  1  0.50469720  0.64709175  0.75682194  1
  Ni  Ni197  1  0.49953968  0.23691530  0.52839259  1
  Ni  Ni198  1  0.82188766  0.73111366  -0.00090977  1
  Ni  Ni199  1  0.17968713  0.65601304  0.74551759  1
  Ni  Ni200  1  0.53330631  0.26683016  0.01576325  1
  Ni  Ni201  1  0.39374722  0.86385267  0.32605817  1
  Ni  Ni202  1  0.01655389  0.18327717  0.91644896  1
  Ni  Ni203  1  0.49636002  0.63911556  0.22693238  1
  Ni  Ni204  1  0.19008682  0.34923409  0.76238411  1
  Ni  Ni205  1  0.88095039  0.51587738  0.35472177  1
  Ni  Ni206  1  0.83975628  0.06253325  0.25301020  1
  Ni  Ni207  1  0.02181753  0.87466748  0.58942510  1
  Ni  Ni208  1  0.83377687  0.25599243  0.45922622  1
  Ni  Ni209  1  0.24682912  0.12539595  0.54390564  1
  Ni  Ni210  1  0.66679618  0.26519899  0.49202797  1
  Ni  Ni211  1  0.91759502  0.71191774  0.85466383  1
  Ni  Ni212  1  -0.02795319  0.02066834  -0.06136955  1
  Ni  Ni213  1  0.06330541  0.50367575  0.18975144  1
  Ni  Ni214  1  0.64758240  0.06742227  0.66143677  1
