# generated using pymatgen
data_Ti108Co54Ni53
_symmetry_space_group_name_H-M   'P 1'
_cell_length_a   14.62169357
_cell_length_b   14.67397646
_cell_length_c   14.68370973
_cell_angle_alpha   90.27047954
_cell_angle_beta   89.28077797
_cell_angle_gamma   90.17796982
_symmetry_Int_Tables_number   1
_chemical_formula_structural   Ti108Co54Ni53
_chemical_formula_sum   'Ti108 Co54 Ni53'
_cell_volume   3150.21513669
_cell_formula_units_Z   1
loop_
 _symmetry_equiv_pos_site_id
 _symmetry_equiv_pos_as_xyz
  1  'x, y, z'
loop_
 _atom_site_type_symbol
 _atom_site_label
 _atom_site_symmetry_multiplicity
 _atom_site_fract_x
 _atom_site_fract_y
 _atom_site_fract_z
 _atom_site_occupancy
  Ti  Ti0  1  0.05699148  -0.03587872  0.23700321  1
  Ti  Ti1  1  0.11837760  0.06532266  0.55587453  1
  Ti  Ti2  1  0.08582574  0.01714036  0.89557345  1
  Ti  Ti3  1  0.10755830  0.45285358  0.24971372  1
  Ti  Ti4  1  0.11868786  0.45876016  0.62576480  1
  Ti  Ti5  1  0.13614715  0.46211185  0.84919104  1
  Ti  Ti6  1  0.02654401  0.76438602  0.20474515  1
  Ti  Ti7  1  0.04308773  0.76956487  0.51204040  1
  Ti  Ti8  1  0.02983877  0.72098025  0.86238781  1
  Ti  Ti9  1  0.37186208  -0.03311545  0.20625393  1
  Ti  Ti10  1  0.46674444  0.10832024  0.68640812  1
  Ti  Ti11  1  0.39035878  0.04574086  0.85866542  1
  Ti  Ti12  1  0.55487320  0.42493080  0.21578258  1
  Ti  Ti13  1  0.39406468  0.45217538  0.66060203  1
  Ti  Ti14  1  0.42921586  0.51213750  0.92182286  1
  Ti  Ti15  1  0.42311277  0.76150478  0.29545616  1
  Ti  Ti16  1  0.41491438  0.76687338  0.50059677  1
  Ti  Ti17  1  0.40994691  0.71121764  0.98176676  1
  Ti  Ti18  1  0.74798028  0.11411019  0.28140810  1
  Ti  Ti19  1  0.68491038  0.09754838  0.59613147  1
  Ti  Ti20  1  0.77861393  0.04440918  0.93311424  1
  Ti  Ti21  1  0.72330411  0.40111536  0.31990588  1
  Ti  Ti22  1  0.67177899  0.44349033  0.65752403  1
  Ti  Ti23  1  0.75116389  0.45264407  0.87784411  1
  Ti  Ti24  1  0.73726849  0.77954783  0.14625618  1
  Ti  Ti25  1  0.74151868  0.78333384  0.57430345  1
  Ti  Ti26  1  0.73298915  0.76640376  0.92874807  1
  Ti  Ti27  1  0.05311789  0.33060662  0.09339133  1
  Ti  Ti28  1  -0.04128065  0.31236795  0.44069468  1
  Ti  Ti29  1  0.03634802  0.30137466  0.77915429  1
  Ti  Ti30  1  0.05819248  0.59920931  0.12510977  1
  Ti  Ti31  1  0.04619798  0.57499610  0.42089770  1
  Ti  Ti32  1  0.06928316  0.60106917  0.73763807  1
  Ti  Ti33  1  0.10430641  0.89491908  0.05339107  1
  Ti  Ti34  1  -0.00073034  0.95152335  0.43878256  1
  Ti  Ti35  1  0.15034391  0.85552981  0.78694181  1
  Ti  Ti36  1  0.42266745  0.19041794  0.01722309  1
  Ti  Ti37  1  0.39982394  0.25064131  0.38973341  1
  Ti  Ti38  1  0.34828468  0.25784956  0.84293531  1
  Ti  Ti39  1  0.37853614  0.45365183  0.14114578  1
  Ti  Ti40  1  0.44750823  0.55445837  0.35124978  1
  Ti  Ti41  1  0.37848773  0.63214419  0.74114006  1
  Ti  Ti42  1  0.48038274  0.88724464  0.07231529  1
  Ti  Ti43  1  0.48775151  0.92127343  0.39019882  1
  Ti  Ti44  1  0.35977745  0.93545340  0.66768830  1
  Ti  Ti45  1  0.80692373  0.16830142  0.09585853  1
  Ti  Ti46  1  0.72863948  0.29405597  0.48525545  1
  Ti  Ti47  1  0.77680815  0.19912625  0.78760685  1
  Ti  Ti48  1  0.78763538  0.56568947  0.07773459  1
  Ti  Ti49  1  0.75046311  0.61773387  0.45322813  1
  Ti  Ti50  1  0.71249141  0.61834868  0.74352891  1
  Ti  Ti51  1  0.79633913  0.96752857  0.15363150  1
  Ti  Ti52  1  0.78135297  0.96142585  0.45609805  1
  Ti  Ti53  1  0.81210565  0.90779345  0.78837773  1
  Ti  Ti54  1  0.23833581  0.04938812  0.00736815  1
  Ti  Ti55  1  0.32719833  0.05175497  0.41396299  1
  Ti  Ti56  1  0.24612247  0.11817902  0.71523994  1
  Ti  Ti57  1  0.19765352  0.47604027  0.03092041  1
  Ti  Ti58  1  0.27210185  0.40705942  0.45747241  1
  Ti  Ti59  1  0.23209536  0.33414645  0.70956746  1
  Ti  Ti60  1  0.21099132  0.69779698  0.07020446  1
  Ti  Ti61  1  0.22378289  0.79805613  0.41845591  1
  Ti  Ti62  1  0.34073770  0.81274050  0.80834204  1
  Ti  Ti63  1  0.61676750  0.18697526  0.05857780  1
  Ti  Ti64  1  0.53978841  0.11180419  0.41500021  1
  Ti  Ti65  1  0.63973684  0.01620385  0.76693416  1
  Ti  Ti66  1  0.61245302  0.46582636  0.02596078  1
  Ti  Ti67  1  0.54667814  0.39000054  0.42994539  1
  Ti  Ti68  1  0.51785166  0.32642713  0.74611767  1
  Ti  Ti69  1  0.54147456  0.73528094  0.14117126  1
  Ti  Ti70  1  0.59133210  0.71258622  0.42296817  1
  Ti  Ti71  1  0.58866406  0.81152025  0.78934175  1
  Ti  Ti72  1  0.94701178  0.02598441  0.02394230  1
  Ti  Ti73  1  0.88739263  0.13312295  0.44064124  1
  Ti  Ti74  1  0.97102090  0.12088851  0.69654546  1
  Ti  Ti75  1  0.86353460  0.36244349  0.02871058  1
  Ti  Ti76  1  0.87497140  0.47903331  0.39530760  1
  Ti  Ti77  1  0.84537006  0.38311818  0.71919739  1
  Ti  Ti78  1  0.89165595  0.71404061  0.02830953  1
  Ti  Ti79  1  0.90527178  0.70614446  0.36262594  1
  Ti  Ti80  1  0.91079125  0.72968371  0.68487990  1
  Ti  Ti81  1  0.34546919  0.27271266  0.19850224  1
  Ti  Ti82  1  0.25910571  0.22143650  0.54163582  1
  Ti  Ti83  1  0.22566575  0.23376672  1.04635601  1
  Ti  Ti84  1  0.25725824  0.58623895  0.22473059  1
  Ti  Ti85  1  0.27661680  0.59569372  0.57221397  1
  Ti  Ti86  1  0.25543621  0.60972203  0.88964467  1
  Ti  Ti87  1  0.21841459  0.81508049  0.22825176  1
  Ti  Ti88  1  0.18214728  0.89018561  0.59499397  1
  Ti  Ti89  1  0.29467102  0.86915041  1.00935501  1
  Ti  Ti90  1  0.52563487  0.23402418  0.22431772  1
  Ti  Ti91  1  0.55127355  0.24518486  0.56480982  1
  Ti  Ti92  1  0.62960179  0.30212007  0.90319671  1
  Ti  Ti93  1  0.63065531  0.59892050  0.22281661  1
  Ti  Ti94  1  0.57103443  0.55362148  0.53971869  1
  Ti  Ti95  1  0.59699088  0.61610875  0.90100291  1
  Ti  Ti96  1  0.59108829  0.95812353  0.21420562  1
  Ti  Ti97  1  0.56181979  0.90586327  0.61055537  1
  Ti  Ti98  1  0.55671318  1.01756155  0.95786455  1
  Ti  Ti99  1  0.94825077  0.18993678  0.25793685  1
  Ti  Ti100  1  0.85136573  0.22139477  0.60463295  1
  Ti  Ti101  1  0.94327343  0.18769554  0.91408830  1
  Ti  Ti102  1  0.90580624  0.46975058  0.19264652  1
  Ti  Ti103  1  0.89710709  0.53579385  0.61612851  1
  Ti  Ti104  1  0.94009033  0.53488154  0.90942154  1
  Ti  Ti105  1  0.88090583  0.86556540  0.28533655  1
  Ti  Ti106  1  0.95197510  0.92799240  0.63104390  1
  Ti  Ti107  1  0.94045360  0.86895325  0.92937460  1
  Co  Co108  1  0.80140988  0.89484176  0.00734626  1
  Co  Co109  1  0.27428854  0.41476971  0.28598708  1
  Co  Co110  1  0.45838593  0.78926925  0.67988732  1
  Co  Co111  1  0.41259999  0.16258070  0.53544635  1
  Co  Co112  1  0.04464407  0.61787508  0.58207331  1
  Co  Co113  1  0.09303832  0.06842529  0.08371560  1
  Co  Co114  1  0.86594184  0.71753242  0.84084447  1
  Co  Co115  1  0.86023383  0.04811265  0.57181659  1
  Co  Co116  1  -0.00987898  0.88238556  0.77795754  1
  Co  Co117  1  -0.01569220  0.33019701  0.62904445  1
  Co  Co118  1  0.49009995  -0.05822193  0.76713298  1
  Co  Co119  1  0.81473211  0.05903811  0.72346930  1
  Co  Co120  1  0.93447896  0.05087520  0.17677288  1
  Co  Co121  1  0.56725918  0.78086611  -0.03748225  1
  Co  Co122  1  0.62564575  0.53812608  0.36876798  1
  Co  Co123  1  0.77777104  0.23446854  -0.05047476  1
  Co  Co124  1  0.43067429  0.61889719  0.20474105  1
  Co  Co125  1  0.64608357  0.88168851  0.06581304  1
  Co  Co126  1  0.39500939  0.01268303  0.01965395  1
  Co  Co127  1  0.06713572  0.83369735  0.34686669  1
  Co  Co128  1  0.40486244  0.49534293  0.49896944  1
  Co  Co129  1  0.66779280  0.04207995  0.09471953  1
  Co  Co130  1  0.42749710  0.38713414  0.31119548  1
  Co  Co131  1  0.44423453  0.87822612  0.91166631  1
  Co  Co132  1  0.30608735  0.77081687  0.62632225  1
  Co  Co133  1  0.66588594  0.91434795  0.90242577  1
  Co  Co134  1  -0.06346273  0.86716193  0.11068057  1
  Co  Co135  1  0.00000557  0.47915983  0.04892238  1
  Co  Co136  1  0.33183123  -0.10629417  0.34528974  1
  Co  Co137  1  0.13775634  0.67392476  0.30145615  1
  Co  Co138  1  0.33427475  0.58760103  0.05866026  1
  Co  Co139  1  0.85878357  0.56194062  0.77096043  1
  Co  Co140  1  0.23885201  0.14617593  0.88269125  1
  Co  Co141  1  0.09445760  0.18210475  -0.03402411  1
  Co  Co142  1  0.73565254  -0.06148945  0.63531214  1
  Co  Co143  1  0.49594491  0.18888721  -0.13367177  1
  Co  Co144  1  0.77275740  0.60542631  -0.07881829  1
  Co  Co145  1  0.28439136  0.04552314  0.57020332  1
  Co  Co146  1  0.18141245  -0.04414104  0.43741393  1
  Co  Co147  1  0.32913278  0.90210355  0.50669694  1
  Co  Co148  1  0.47719968  0.70444502  0.83605316  1
  Co  Co149  1  0.71679925  0.13514695  0.44474436  1
  Co  Co150  1  0.80741385  0.25806964  0.34301212  1
  Co  Co151  1  0.21748379  0.37001455  0.14501310  1
  Co  Co152  1  0.32917453  0.11528167  0.13860239  1
  Co  Co153  1  0.93102079  0.03677389  0.83755470  1
  Co  Co154  1  0.09977207  0.60107264  -0.04639365  1
  Co  Co155  1  0.79329308  0.55745218  0.28061409  1
  Co  Co156  1  -0.10726148  0.83573045  0.50882328  1
  Co  Co157  1  0.73655154  0.77685189  0.73424806  1
  Co  Co158  1  0.03052220  0.36806920  -0.06464437  1
  Co  Co159  1  0.06758208  0.76599530  0.67786195  1
  Co  Co160  1  -0.01132821  0.45470515  0.76205678  1
  Co  Co161  1  0.65841876  0.65712276  0.04809059  1
  Ni  Ni162  1  -0.10179561  0.02325788  0.32342109  1
  Ni  Ni163  1  -0.02638217  0.35398162  0.28277926  1
  Ni  Ni164  1  0.64918311  0.13796302  0.89260487  1
  Ni  Ni165  1  0.33481434  0.35763112  0.00847784  1
  Ni  Ni166  1  0.47053543  0.35274700  0.91268993  1
  Ni  Ni167  1  0.76529587  0.80352107  0.40848850  1
  Ni  Ni168  1  0.10071627  0.15179129  0.80139610  1
  Ni  Ni169  1  0.37672527  0.25414029  0.67404102  1
  Ni  Ni170  1  0.49951691  0.07790277  0.13077942  1
  Ni  Ni171  1  0.60354765  0.80770965  0.28973079  1
  Ni  Ni172  1  0.50080529  0.33602579  0.07573752  1
  Ni  Ni173  1  0.84352613  0.39107296  0.55113372  1
  Ni  Ni174  1  0.88558356  0.33792073  0.86626680  1
  Ni  Ni175  1  0.62780186  0.87112543  0.46715822  1
  Ni  Ni176  1  0.05053632  0.74622294  0.02833656  1
  Ni  Ni177  1  -0.01802382  0.59046690  0.27276246  1
  Ni  Ni178  1  0.70006570  0.32913361  0.06152868  1
  Ni  Ni179  1  0.12596586  0.32712606  0.52686079  1
  Ni  Ni180  1  0.24332017  -0.01366658  0.82034372  1
  Ni  Ni181  1  0.69125640  0.25937587  0.21177208  1
  Ni  Ni182  1  0.11877872  0.21913770  0.65055792  1
  Ni  Ni183  1  0.58770894  0.45610213  0.83930726  1
  Ni  Ni184  1  0.01620703  0.19037376  0.53037890  1
  Ni  Ni185  1  0.19229896  0.76304759  -0.08109138  1
  Ni  Ni186  1  0.70094441  0.28476972  0.65650200  1
  Ni  Ni187  1  0.09968360  0.00413295  0.71530132  1
  Ni  Ni188  1  0.84578566  0.30928847  0.18766124  1
  Ni  Ni189  1  0.21161654  -0.02399678  0.15946151  1
  Ni  Ni190  1  0.17150368  0.65829705  0.47566970  1
  Ni  Ni191  1  0.70860963  0.46248335  0.49046300  1
  Ni  Ni192  1  0.00247295  0.44955454  0.51411120  1
  Ni  Ni193  1  0.21337612  0.69482122  0.74695767  1
  Ni  Ni194  1  0.53625761  0.54114522  0.71076331  1
  Ni  Ni195  1  0.30903771  0.65869936  0.37126356  1
  Ni  Ni196  1  0.35868339  0.76514739  0.13978620  1
  Ni  Ni197  1  0.24368734  0.52128392  0.72554173  1
  Ni  Ni198  1  0.50595251  0.57938694  0.06778687  1
  Ni  Ni199  1  0.62183124  0.24854105  0.36357255  1
  Ni  Ni200  1  0.64730737  -0.00301044  0.36401401  1
  Ni  Ni201  1  0.59800447  0.70653772  0.62198651  1
  Ni  Ni202  1  0.40581594  0.33327724  0.53853944  1
  Ni  Ni203  1  -0.02551015  0.18867906  0.08715043  1
  Ni  Ni204  1  0.18417717  0.30612032  0.89559632  1
  Ni  Ni205  1  0.45629228  0.01033613  0.53368378  1
  Ni  Ni206  1  0.87158861  0.67633336  0.18951807  1
  Ni  Ni207  1  0.42749046  0.10962818  0.28052291  1
  Ni  Ni208  1  0.60847994  0.18630319  0.73965469  1
  Ni  Ni209  1  0.44255568  0.63577850  0.59262297  1
  Ni  Ni210  1  0.89716901  0.66992971  0.52227500  1
  Ni  Ni211  1  0.20294219  0.53086667  0.37604072  1
  Ni  Ni212  1  0.30868417  0.42669470  0.84655666  1
  Ni  Ni213  1  0.73868519  0.70635784  0.29202153  1
  Ni  Ni214  1  0.72451911  0.44487589  0.16576383  1
