# generated using pymatgen
data_Ti108Co54Ni53
_symmetry_space_group_name_H-M   'P 1'
_cell_length_a   14.66753681
_cell_length_b   14.76058503
_cell_length_c   14.68157803
_cell_angle_alpha   89.74969350
_cell_angle_beta   90.05352686
_cell_angle_gamma   90.16353632
_symmetry_Int_Tables_number   1
_chemical_formula_structural   Ti108Co54Ni53
_chemical_formula_sum   'Ti108 Co54 Ni53'
_cell_volume   3178.53792492
_cell_formula_units_Z   1
loop_
 _symmetry_equiv_pos_site_id
 _symmetry_equiv_pos_as_xyz
  1  'x, y, z'
loop_
 _atom_site_type_symbol
 _atom_site_label
 _atom_site_symmetry_multiplicity
 _atom_site_fract_x
 _atom_site_fract_y
 _atom_site_fract_z
 _atom_site_occupancy
  Ti  Ti0  1  0.09204972  0.14462309  0.25368135  1
  Ti  Ti1  1  0.08554137  0.05210361  0.59542295  1
  Ti  Ti2  1  0.03667940  0.08267044  0.82907909  1
  Ti  Ti3  1  0.12767777  0.44497253  0.21123441  1
  Ti  Ti4  1  0.10131363  0.39434951  0.53530355  1
  Ti  Ti5  1  0.07297277  0.34168411  0.82267707  1
  Ti  Ti6  1  0.09602951  0.76142705  0.28236660  1
  Ti  Ti7  1  0.14328343  0.73743804  0.61801549  1
  Ti  Ti8  1  0.12876944  0.76536064  0.96150344  1
  Ti  Ti9  1  0.39587768  0.15062718  0.27118368  1
  Ti  Ti10  1  0.37423819  0.03420819  0.55261430  1
  Ti  Ti11  1  0.37997188  0.15186628  0.86575949  1
  Ti  Ti12  1  0.40091374  0.36281002  0.26641191  1
  Ti  Ti13  1  0.46171330  0.37764458  0.61583484  1
  Ti  Ti14  1  0.24621452  0.39437380  0.88574334  1
  Ti  Ti15  1  0.47546964  0.79767837  0.29240108  1
  Ti  Ti16  1  0.40736901  0.69335373  0.51395973  1
  Ti  Ti17  1  0.37309310  0.80753258  0.93715514  1
  Ti  Ti18  1  0.77712264  0.09396757  0.22198794  1
  Ti  Ti19  1  0.82780288  0.05899584  0.55699822  1
  Ti  Ti20  1  0.75906408  0.05082176  0.97365219  1
  Ti  Ti21  1  0.76869738  0.43604725  0.32172766  1
  Ti  Ti22  1  0.73503047  0.35146263  0.53112723  1
  Ti  Ti23  1  0.77840503  0.41445702  1.00844859  1
  Ti  Ti24  1  0.78158824  0.74976345  0.20940634  1
  Ti  Ti25  1  0.79336054  0.72745340  0.58974398  1
  Ti  Ti26  1  0.77532765  0.78468422  0.89950943  1
  Ti  Ti27  1  0.11792103  0.30186132  0.02949121  1
  Ti  Ti28  1  0.07883753  0.29350864  0.36260916  1
  Ti  Ti29  1  0.10021346  0.22825385  0.67241123  1
  Ti  Ti30  1  0.12887332  0.62934854  0.11364553  1
  Ti  Ti31  1  0.06664095  0.62700080  0.45483765  1
  Ti  Ti32  1  0.09925551  0.56455482  0.76133603  1
  Ti  Ti33  1  0.11590059  0.95723552  0.19939702  1
  Ti  Ti34  1  0.04955662  0.93952078  0.40139285  1
  Ti  Ti35  1  0.05113337  0.87372841  0.73494038  1
  Ti  Ti36  1  0.45315122  0.27864907  0.05845863  1
  Ti  Ti37  1  0.37343634  0.24591977  0.44597744  1
  Ti  Ti38  1  0.53992145  0.19784265  0.71999763  1
  Ti  Ti39  1  0.40590114  0.58483253  0.13785929  1
  Ti  Ti40  1  0.37373689  0.52474359  0.43133369  1
  Ti  Ti41  1  0.35116364  0.67381083  0.77796315  1
  Ti  Ti42  1  0.40404428  0.96151572  0.07586391  1
  Ti  Ti43  1  0.30371527  0.84840946  0.47309842  1
  Ti  Ti44  1  0.43893958  0.87836752  0.74898962  1
  Ti  Ti45  1  0.80358490  0.22111276  0.07039537  1
  Ti  Ti46  1  0.74618986  0.26098504  0.36222524  1
  Ti  Ti47  1  0.77227962  0.24546744  0.80622058  1
  Ti  Ti48  1  0.84091391  0.60597534  0.08970425  1
  Ti  Ti49  1  0.74354708  0.64768613  0.40483746  1
  Ti  Ti50  1  0.75232287  0.52503334  0.73577317  1
  Ti  Ti51  1  0.69973311  0.88475521  0.05802592  1
  Ti  Ti52  1  0.74616753  0.84868825  0.45170595  1
  Ti  Ti53  1  0.65343280  0.79884487  0.74950504  1
  Ti  Ti54  1  0.31998812  0.12792115  0.06163007  1
  Ti  Ti55  1  0.24802813  0.08464241  0.38342841  1
  Ti  Ti56  1  0.27286540  0.11327182  0.71165778  1
  Ti  Ti57  1  0.28298961  0.44048209  0.07918093  1
  Ti  Ti58  1  0.24540675  0.39186818  0.39666226  1
  Ti  Ti59  1  0.19729267  0.41807920  0.69616415  1
  Ti  Ti60  1  0.24054472  0.81732666  0.11665186  1
  Ti  Ti61  1  0.28624001  0.76651617  0.31101084  1
  Ti  Ti62  1  0.23674185  0.82621521  0.80214661  1
  Ti  Ti63  1  0.62344890  0.14758876  0.09041421  1
  Ti  Ti64  1  0.65500049  0.01484849  0.46810221  1
  Ti  Ti65  1  0.67626157  0.07811393  0.66632907  1
  Ti  Ti66  1  0.61305842  0.39803348  0.18671052  1
  Ti  Ti67  1  0.61269522  0.46331874  0.42987377  1
  Ti  Ti68  1  0.65286061  0.35478747  0.70540456  1
  Ti  Ti69  1  0.59128114  0.74364958  0.12520839  1
  Ti  Ti70  1  0.53995263  0.63109671  0.39121033  1
  Ti  Ti71  1  0.50863411  0.69661542  0.66868374  1
  Ti  Ti72  1  0.95600125  0.06534385  0.11694226  1
  Ti  Ti73  1  0.94983336  0.13768196  0.41589504  1
  Ti  Ti74  1  0.84277510  0.07469490  0.77445001  1
  Ti  Ti75  1  0.94321200  0.39279864  0.11470649  1
  Ti  Ti76  1  0.91227644  0.36291522  0.44086066  1
  Ti  Ti77  1  0.90429077  0.44213361  0.82214359  1
  Ti  Ti78  1  0.89905727  0.79069086  0.04475342  1
  Ti  Ti79  1  0.92195904  0.76640606  0.37790349  1
  Ti  Ti80  1  0.83903100  0.86379533  0.73150699  1
  Ti  Ti81  1  0.24277925  0.27898864  0.16825412  1
  Ti  Ti82  1  0.28033158  0.28035649  0.61120863  1
  Ti  Ti83  1  0.18289356  0.17124797  0.90669287  1
  Ti  Ti84  1  0.21068430  0.58047052  0.33435085  1
  Ti  Ti85  1  0.25072771  0.57552049  0.58963119  1
  Ti  Ti86  1  0.21478709  0.58748564  0.93071543  1
  Ti  Ti87  1  0.32006342  0.95133809  0.23191848  1
  Ti  Ti88  1  0.24737344  0.91709435  0.64431373  1
  Ti  Ti89  1  0.23900067  0.97852630  0.93076948  1
  Ti  Ti90  1  0.59591516  0.15125682  0.32924867  1
  Ti  Ti91  1  0.56108504  0.25287381  0.50978271  1
  Ti  Ti92  1  0.59327051  0.23930233  0.90339563  1
  Ti  Ti93  1  0.66887217  0.58466480  0.23667944  1
  Ti  Ti94  1  0.53473453  0.50990337  0.72884037  1
  Ti  Ti95  1  0.63811767  0.63884655  0.84497373  1
  Ti  Ti96  1  0.52548653  0.98280254  0.28507068  1
  Ti  Ti97  1  0.59160624  0.86215239  0.58078380  1
  Ti  Ti98  1  0.58279351  0.91209221  0.89398409  1
  Ti  Ti99  1  0.91339520  0.23133961  0.24923524  1
  Ti  Ti100  1  0.90247242  0.30551274  0.64724398  1
  Ti  Ti101  1  0.91792716  0.25810727  0.93226564  1
  Ti  Ti102  1  0.89204704  0.57498771  0.29067150  1
  Ti  Ti103  1  0.93442309  0.59559428  0.63902045  1
  Ti  Ti104  1  0.92815306  0.63925590  0.86000654  1
  Ti  Ti105  1  0.93600964  0.88141265  0.21453472  1
  Ti  Ti106  1  0.91347900  0.88826010  0.55370956  1
  Ti  Ti107  1  0.92357557  0.94022929  0.89147707  1
  Co  Co108  1  -0.03262316  0.49046283  0.51323368  1
  Co  Co109  1  0.10304132  0.11445058  0.44447066  1
  Co  Co110  1  0.09257464  0.55244853  0.59817750  1
  Co  Co111  1  0.20058778  0.90345744  0.33302095  1
  Co  Co112  1  0.64648329  0.73548722  0.31376248  1
  Co  Co113  1  0.95112266  0.70424138  0.19670624  1
  Co  Co114  1  0.36409925  0.41632026  0.73737773  1
  Co  Co115  1  0.78958986  -0.05481621  0.17224641  1
  Co  Co116  1  0.30143094  0.48503932  0.23942746  1
  Co  Co117  1  0.22504554  -0.01100507  0.08817791  1
  Co  Co118  1  0.32873619  0.98430110  0.79416598  1
  Co  Co119  1  0.44298363  0.06076404  0.70589685  1
  Co  Co120  1  0.25118389  0.68262278  0.46378063  1
  Co  Co121  1  0.87532066  0.95016656  0.04256287  1
  Co  Co122  1  0.77230141  0.48614740  0.16473859  1
  Co  Co123  1  0.18669916  0.25016187  0.47569299  1
  Co  Co124  1  0.67756750  0.24238617  0.21147315  1
  Co  Co125  1  0.74072176  -0.05766950  0.83991203  1
  Co  Co126  1  0.91415767  0.10106299  -0.04192814  1
  Co  Co127  1  0.30545499  0.75290729  0.64248333  1
  Co  Co128  1  0.06461838  0.29482523  0.19500279  1
  Co  Co129  1  0.69321456  -0.01112973  0.31517568  1
  Co  Co130  1  0.23102916  0.26868168  0.78302534  1
  Co  Co131  1  0.31565123  0.42649611  0.55255303  1
  Co  Co132  1  0.68803041  0.16807870  0.50293657  1
  Co  Co133  1  0.74024333  0.22553634  0.64477799  1
  Co  Co134  1  0.73809638  0.92456636  0.61920018  1
  Co  Co135  1  0.09414288  0.90525521  -0.11083059  1
  Co  Co136  1  0.79986846  0.86875705  0.31074269  1
  Co  Co137  1  0.07611341  0.88602361  0.57076268  1
  Co  Co138  1  0.52067209  0.64721791  0.22574647  1
  Co  Co139  1  0.41759219  0.18944946  0.59450900  1
  Co  Co140  1  0.52783334  0.07232606  0.83890779  1
  Co  Co141  1  0.73220637  0.71172496  0.03982495  1
  Co  Co142  1  0.84740116  0.22249783  0.51168817  1
  Co  Co143  1  0.38770498  0.25729191  0.74096570  1
  Co  Co144  1  0.50015863  0.74650654  0.83043077  1
  Co  Co145  1  0.23456968  0.12100118  0.55465806  1
  Co  Co146  1  0.12540823  0.79018610  0.44027236  1
  Co  Co147  1  0.00132810  0.66902849  0.01924755  1
  Co  Co148  1  0.06010108  0.02076983  -0.00666832  1
  Co  Co149  1  0.91745110  0.52412385  -0.01622005  1
  Co  Co150  1  0.02110244  0.24541285  0.52383473  1
  Co  Co151  1  0.64437982  0.86845470  0.22764991  1
  Co  Co152  1  0.46409714  0.11042124  0.41922314  1
  Co  Co153  1  0.51204613  0.35176098  0.79088604  1
  Co  Co154  1  0.39397700  0.55968290  0.65615283  1
  Co  Co155  1  -0.02980614  0.78929668  0.88211444  1
  Co  Co156  1  0.61201059  0.75836020  0.94596703  1
  Co  Co157  1  0.05751866  0.54579562  0.91129333  1
  Co  Co158  1  -0.02175038  0.21670322  0.08278792  1
  Co  Co159  1  0.26692484  0.53782618  0.78098074  1
  Co  Co160  1  0.42697903  -0.02208091  -0.07970095  1
  Co  Co161  1  -0.00875638  0.54441406  0.13705863  1
  Ni  Ni162  1  0.07702257  0.46547884  0.37870166  1
  Ni  Ni163  1  0.80050641  0.33561342  0.19196660  1
  Ni  Ni164  1  -0.03793367  0.03733341  0.28001264  1
  Ni  Ni165  1  0.59706845  -0.04365787  0.73162354  1
  Ni  Ni166  1  0.66248393  0.64468899  0.65799711  1
  Ni  Ni167  1  0.89334912  0.63317009  0.47216204  1
  Ni  Ni168  1  -0.04413160  0.73991273  0.71233475  1
  Ni  Ni169  1  -0.04723704  0.39978174  0.28204514  1
  Ni  Ni170  1  0.40003721  0.76589154  0.14521923  1
  Ni  Ni171  1  0.51566452  0.24958812  0.20401848  1
  Ni  Ni172  1  0.50399539  0.84428115  0.03082081  1
  Ni  Ni173  1  0.57116765  -0.00432637  0.03902199  1
  Ni  Ni174  1  0.59155917  0.85849651  0.39836115  1
  Ni  Ni175  1  0.78446691  0.10406001  0.38931302  1
  Ni  Ni176  1  0.16558135  -0.00205770  0.76987821  1
  Ni  Ni177  1  0.49535368  -0.04386962  0.47579528  1
  Ni  Ni178  1  0.94744218  0.14383676  0.63417549  1
  Ni  Ni179  1  0.88263198  -0.03010463  0.41050991  1
  Ni  Ni180  1  0.45897197  0.38984601  0.43933119  1
  Ni  Ni181  1  0.29510822  0.28220555  0.00078511  1
  Ni  Ni182  1  0.68091012  0.10240480  0.83592923  1
  Ni  Ni183  1  0.13450728  0.13685977  0.08241655  1
  Ni  Ni184  1  0.10158271  0.71982956  0.80420764  1
  Ni  Ni185  1  0.57668644  0.32592672  0.33809247  1
  Ni  Ni186  1  0.24212130  0.10308045  0.20867770  1
  Ni  Ni187  1  0.62579653  0.71820167  0.50767843  1
  Ni  Ni188  1  0.26974599  0.65688973  0.18877535  1
  Ni  Ni189  1  0.48447948  0.12544121  -0.00922444  1
  Ni  Ni190  1  0.79516395  0.50116158  0.47158478  1
  Ni  Ni191  1  0.19340115  -0.03121186  0.48842298  1
  Ni  Ni192  1  0.73534788  0.40154518  0.85079510  1
  Ni  Ni193  1  0.38416343  0.62923159  0.30744508  1
  Ni  Ni194  1  0.51342223  0.54810602  0.54469082  1
  Ni  Ni195  1  0.42530022  0.84928996  0.58807907  1
  Ni  Ni196  1  0.05384250  0.59830440  0.27841047  1
  Ni  Ni197  1  0.84377443  0.45350467  0.62117823  1
  Ni  Ni198  1  0.00902134  0.43546027  0.68150094  1
  Ni  Ni199  1  -0.04662793  0.22126125  0.77994049  1
  Ni  Ni200  1  0.65660600  0.48747618  0.59713911  1
  Ni  Ni201  1  0.37152670  -0.02767188  0.37867659  1
  Ni  Ni202  1  0.29973297  0.68734870  0.02821683  1
  Ni  Ni203  1  0.25595112  0.23937015  0.32133349  1
  Ni  Ni204  1  0.06613059  0.79974994  0.11911682  1
  Ni  Ni205  1  0.77814245  0.56444194  0.90592790  1
  Ni  Ni206  1  0.79447038  0.68619297  0.75668110  1
  Ni  Ni207  1  0.48237172  0.08954828  0.15247612  1
  Ni  Ni208  1  -0.01324027  0.74590657  0.54422518  1
  Ni  Ni209  1  0.64336372  0.30948704  0.05155409  1
  Ni  Ni210  1  -0.04859140  -0.01061085  0.68569968  1
  Ni  Ni211  1  -0.00102040  0.39571302  -0.04214653  1
  Ni  Ni212  1  0.12257750  0.47068685  0.03825746  1
  Ni  Ni213  1  0.54250069  0.09077596  0.56841793  1
  Ni  Ni214  1  0.50527183  0.49144221  0.29205889  1
