# generated using pymatgen
data_Ti108Co54Ni53
_symmetry_space_group_name_H-M   'P 1'
_cell_length_a   14.50588347
_cell_length_b   14.62205936
_cell_length_c   14.56786420
_cell_angle_alpha   90.28572637
_cell_angle_beta   89.76588349
_cell_angle_gamma   89.82041833
_symmetry_Int_Tables_number   1
_chemical_formula_structural   Ti108Co54Ni53
_chemical_formula_sum   'Ti108 Co54 Ni53'
_cell_volume   3089.85019763
_cell_formula_units_Z   1
loop_
 _symmetry_equiv_pos_site_id
 _symmetry_equiv_pos_as_xyz
  1  'x, y, z'
loop_
 _atom_site_type_symbol
 _atom_site_label
 _atom_site_symmetry_multiplicity
 _atom_site_fract_x
 _atom_site_fract_y
 _atom_site_fract_z
 _atom_site_occupancy
  Ti  Ti0  1  0.02132261  0.07578915  0.25015706  1
  Ti  Ti1  1  0.05496976  0.13529062  0.59713972  1
  Ti  Ti2  1  0.06903744  0.01270322  0.88600180  1
  Ti  Ti3  1  -0.03859703  0.45916958  0.21808793  1
  Ti  Ti4  1  0.11516062  0.46247163  0.53825727  1
  Ti  Ti5  1  0.03598463  0.47419203  0.90537808  1
  Ti  Ti6  1  0.07204160  0.74852853  0.28844794  1
  Ti  Ti7  1  0.03029520  0.74409591  0.59758602  1
  Ti  Ti8  1  0.13646634  0.81087107  0.88900982  1
  Ti  Ti9  1  0.46247862  0.04374023  0.23707103  1
  Ti  Ti10  1  0.48444045  0.05130055  0.61580253  1
  Ti  Ti11  1  0.41162641  0.07295441  0.93025314  1
  Ti  Ti12  1  0.38039399  0.47613725  0.31464080  1
  Ti  Ti13  1  0.42607539  0.35482466  0.62277984  1
  Ti  Ti14  1  0.41520556  0.41084196  0.81887722  1
  Ti  Ti15  1  0.35957492  0.74284152  0.21206774  1
  Ti  Ti16  1  0.43994225  0.82927507  0.52008331  1
  Ti  Ti17  1  0.40057406  0.66976046  0.90488539  1
  Ti  Ti18  1  0.74144423  0.14618202  0.27942629  1
  Ti  Ti19  1  0.71739149  0.14454458  0.56360591  1
  Ti  Ti20  1  0.75902548  0.08433649  0.94308383  1
  Ti  Ti21  1  0.73183089  0.47427334  0.29888666  1
  Ti  Ti22  1  0.78968890  0.55569171  0.58993973  1
  Ti  Ti23  1  0.72103902  0.43380466  0.98014390  1
  Ti  Ti24  1  0.70234848  0.67384253  0.23185975  1
  Ti  Ti25  1  0.73371032  0.72993489  0.62311664  1
  Ti  Ti26  1  0.75625921  0.70267736  0.96945245  1
  Ti  Ti27  1  0.05790255  0.19436224  -0.05114083  1
  Ti  Ti28  1  0.02089996  0.24099008  0.41877310  1
  Ti  Ti29  1  0.07364458  0.23385248  0.76961410  1
  Ti  Ti30  1  0.11906511  0.63588893  0.05947801  1
  Ti  Ti31  1  0.13890726  0.63685338  0.42700577  1
  Ti  Ti32  1  0.08709873  0.56951522  0.70690591  1
  Ti  Ti33  1  0.01607287  0.95971936  0.07974252  1
  Ti  Ti34  1  0.14032667  0.94681115  0.33318658  1
  Ti  Ti35  1  0.03718448  0.88123007  0.73447845  1
  Ti  Ti36  1  0.45001935  0.28122436  0.10854089  1
  Ti  Ti37  1  0.47513558  0.22188949  0.49708434  1
  Ti  Ti38  1  0.41265026  0.19677105  0.74614336  1
  Ti  Ti39  1  0.45384386  0.62551986  0.08532249  1
  Ti  Ti40  1  0.45310571  0.65373248  0.40118036  1
  Ti  Ti41  1  0.47378267  0.64235152  0.73648081  1
  Ti  Ti42  1  0.41852520  0.92860823  0.08324923  1
  Ti  Ti43  1  0.40144922  1.01024251  0.44667692  1
  Ti  Ti44  1  0.39357371  0.94162424  0.77875928  1
  Ti  Ti45  1  0.76840383  0.25566458  0.08319574  1
  Ti  Ti46  1  0.82948287  0.24388029  0.43799048  1
  Ti  Ti47  1  0.71069604  0.26269710  0.72542552  1
  Ti  Ti48  1  0.80675013  0.53991418  0.11756463  1
  Ti  Ti49  1  0.77936940  0.65453060  0.43111383  1
  Ti  Ti50  1  0.76236260  0.56332030  0.78871772  1
  Ti  Ti51  1  0.74065151  0.91311002  0.04341131  1
  Ti  Ti52  1  0.74211547  0.94328236  0.36334144  1
  Ti  Ti53  1  0.73706669  0.90248112  0.69272187  1
  Ti  Ti54  1  0.30822843  0.08531788  0.10185341  1
  Ti  Ti55  1  0.21020723  0.06893584  0.49320630  1
  Ti  Ti56  1  0.16935782  0.02873288  0.71262238  1
  Ti  Ti57  1  0.31204501  0.40492354  0.00098914  1
  Ti  Ti58  1  0.32017709  0.37137359  0.47019569  1
  Ti  Ti59  1  0.19253871  0.41513162  0.80815715  1
  Ti  Ti60  1  0.28119145  0.75550885  0.02493383  1
  Ti  Ti61  1  0.26785670  0.75700522  0.48200807  1
  Ti  Ti62  1  0.29839940  0.74202604  0.68820347  1
  Ti  Ti63  1  0.62632558  0.11746965  0.12373311  1
  Ti  Ti64  1  0.59706993  0.07058654  0.43864966  1
  Ti  Ti65  1  0.56374775  0.09710102  0.81377437  1
  Ti  Ti66  1  0.52632201  0.45320761  0.05921301  1
  Ti  Ti67  1  0.56163246  0.35366225  0.38625731  1
  Ti  Ti68  1  0.58184548  0.45071139  0.72090428  1
  Ti  Ti69  1  0.60641481  0.76862732  0.09179789  1
  Ti  Ti70  1  0.61977530  0.77998081  0.40435468  1
  Ti  Ti71  1  0.61311894  0.76953891  0.77289347  1
  Ti  Ti72  1  0.86047344  0.07048244  0.12560409  1
  Ti  Ti73  1  0.97933539  0.03241587  0.44016899  1
  Ti  Ti74  1  0.84747232  0.07410015  0.68670143  1
  Ti  Ti75  1  0.97777636  0.32052782  0.06436977  1
  Ti  Ti76  1  0.87043592  0.41509287  0.49629500  1
  Ti  Ti77  1  0.86700950  0.39559173  0.74398816  1
  Ti  Ti78  1  0.93643059  0.66934219  0.11044140  1
  Ti  Ti79  1  0.93642454  0.81296033  0.41401537  1
  Ti  Ti80  1  0.97064714  0.70924379  0.81460798  1
  Ti  Ti81  1  0.26326442  0.22371822  0.37541365  1
  Ti  Ti82  1  0.19165013  0.28646210  0.58924983  1
  Ti  Ti83  1  0.26626082  0.22608229  0.89391108  1
  Ti  Ti84  1  0.21944099  0.56519999  0.22004496  1
  Ti  Ti85  1  0.29822019  0.55954923  0.52838972  1
  Ti  Ti86  1  0.17816022  0.62803041  0.87753575  1
  Ti  Ti87  1  0.31536678  0.94727659  0.27566178  1
  Ti  Ti88  1  0.30323443  0.92952975  0.60171256  1
  Ti  Ti89  1  0.24940787  0.95233065  0.95991000  1
  Ti  Ti90  1  0.54204960  0.20302686  0.28557247  1
  Ti  Ti91  1  0.66892583  0.32404831  0.54250772  1
  Ti  Ti92  1  0.63893512  0.24840625  0.91093778  1
  Ti  Ti93  1  0.55327051  0.55501971  0.22362124  1
  Ti  Ti94  1  0.58774871  0.58461089  0.53142204  1
  Ti  Ti95  1  0.58946472  0.55738117  0.89318567  1
  Ti  Ti96  1  0.52084107  0.86721292  0.24727077  1
  Ti  Ti97  1  0.60922856  0.90600966  0.55609416  1
  Ti  Ti98  1  0.55867377  0.89341257  0.92138714  1
  Ti  Ti99  1  0.90892766  0.22920222  0.22293203  1
  Ti  Ti100  1  0.99013847  0.31279033  0.59437449  1
  Ti  Ti101  1  0.83711020  0.26880036  0.89059515  1
  Ti  Ti102  1  0.89301522  0.65751078  0.28220021  1
  Ti  Ti103  1  0.96440451  0.59823817  0.48703829  1
  Ti  Ti104  1  0.89033404  0.57975366  0.94228443  1
  Ti  Ti105  1  0.86252907  0.86548594  0.19915041  1
  Ti  Ti106  1  0.91245190  0.91619569  0.57863240  1
  Ti  Ti107  1  0.85678432  0.91864043  0.83481000  1
  Co  Co108  1  0.54863382  0.50107386  0.37740024  1
  Co  Co109  1  -0.09907121  0.00115865  -0.02910144  1
  Co  Co110  1  0.61233216  0.02430197  0.28137905  1
  Co  Co111  1  -0.01609000  0.32698034  -0.12846872  1
  Co  Co112  1  0.87699287  0.73106982  0.54576761  1
  Co  Co113  1  0.58776539  -0.04906899  0.11857936  1
  Co  Co114  1  0.91210078  0.22236762  0.72903913  1
  Co  Co115  1  0.75290463  0.31663216  0.31505272  1
  Co  Co116  1  0.64987683  0.28296162  0.20578672  1
  Co  Co117  1  0.68356814  -0.02065237  0.82866085  1
  Co  Co118  1  0.22970023  -0.09934479  0.77000877  1
  Co  Co119  1  0.57137559  0.73841504  0.58639784  1
  Co  Co120  1  0.03034831  0.13486617  0.10210516  1
  Co  Co121  1  0.70139458  0.39947739  0.82294833  1
  Co  Co122  1  0.70765472  0.47273256  0.45710650  1
  Co  Co123  1  0.27081813  0.91271464  0.44001636  1
  Co  Co124  1  0.88773996  0.81166900  0.69869716  1
  Co  Co125  1  0.82415050  0.28493630  0.60735400  1
  Co  Co126  1  0.18190981  0.49416017  -0.02054520  1
  Co  Co127  1  0.37893336  0.18306161  0.20859846  1
  Co  Co128  1  0.03219035  0.44320660  0.40209340  1
  Co  Co129  1  0.63525582  0.62279334  0.36672747  1
  Co  Co130  1  0.55313766  0.39414318  0.91273695  1
  Co  Co131  1  0.42615958  0.51278275  -0.05064963  1
  Co  Co132  1  0.14082101  0.85838709  0.04292807  1
  Co  Co133  1  0.60930571  0.30686256  0.05627769  1
  Co  Co134  1  0.82915578  0.37883115  0.16489700  1
  Co  Co135  1  0.43094991  0.48912884  0.47714985  1
  Co  Co136  1  0.29160360  0.59246351  0.04632633  1
  Co  Co137  1  0.25444148  0.09389367  0.27048816  1
  Co  Co138  1  0.52622549  0.71088435  0.25527294  1
  Co  Co139  1  -0.00820201  0.87431121  0.91626176  1
  Co  Co140  1  0.71309462  0.83643525  0.89310729  1
  Co  Co141  1  0.78774650  0.78314335  0.32883515  1
  Co  Co142  1  0.74649380  0.13074612  0.79489781  1
  Co  Co143  1  0.41455651  0.67532517  0.57733886  1
  Co  Co144  1  -0.10652555  0.64614031  0.67966171  1
  Co  Co145  1  0.20967146  0.48915539  0.38163671  1
  Co  Co146  1  0.89941861  0.17359201  0.01217062  1
  Co  Co147  1  0.68131814  0.84552625  0.21998835  1
  Co  Co148  1  0.01162288  0.71884097  -0.02757934  1
  Co  Co149  1  0.78646521  0.73989499  0.12366356  1
  Co  Co150  1  0.53558065  -0.07406173  0.39824106  1
  Co  Co151  1  0.87997376  0.42065087  -0.00811068  1
  Co  Co152  1  -0.06175267  0.53711708  0.78583925  1
  Co  Co153  1  0.55514704  0.42521553  0.54764829  1
  Co  Co154  1  0.72806535  0.43032407  0.65047981  1
  Co  Co155  1  0.14008383  0.33821392  0.94334197  1
  Co  Co156  1  0.65906463  0.21735122  0.41385597  1
  Co  Co157  1  0.14756442  0.33533632  0.43401023  1
  Co  Co158  1  -0.09510874  0.14520394  0.54725772  1
  Co  Co159  1  0.22787654  0.79529830  0.32478692  1
  Co  Co160  1  0.25772609  0.07205853  0.84916789  1
  Co  Co161  1  0.26824594  0.88290908  0.14104918  1
  Ni  Ni162  1  0.19460028  0.73208294  0.17355978  1
  Ni  Ni163  1  0.37100660  0.47985823  0.14544677  1
  Ni  Ni164  1  0.57455180  0.71631658  0.93154195  1
  Ni  Ni165  1  0.43521525  0.25849781  -0.09301015  1
  Ni  Ni166  1  0.66993979  0.43966996  0.14580031  1
  Ni  Ni167  1  0.40246388  0.14350831  0.36402801  1
  Ni  Ni168  1  0.60388664  0.03464708  -0.02385446  1
  Ni  Ni169  1  0.25721300  0.44521727  0.64140489  1
  Ni  Ni170  1  0.40079832  0.30921837  0.31365660  1
  Ni  Ni171  1  0.55577285  -0.07078642  0.72792199  1
  Ni  Ni172  1  0.78903199  0.72535724  0.79591963  1
  Ni  Ni173  1  0.30667445  0.53458602  0.84853835  1
  Ni  Ni174  1  0.00478909  0.51167841  0.06939165  1
  Ni  Ni175  1  0.17013015  0.83786473  0.61899329  1
  Ni  Ni176  1  0.87990765  0.51568448  0.36585889  1
  Ni  Ni177  1  -0.01807860  -0.08176119  0.29223312  1
  Ni  Ni178  1  0.13657795  0.73116891  0.74066555  1
  Ni  Ni179  1  0.07817834  -0.03490521  0.57303675  1
  Ni  Ni180  1  0.95663596  0.49690250  0.62106624  1
  Ni  Ni181  1  0.02848895  0.79931166  0.13749051  1
  Ni  Ni182  1  0.04381857  0.57658101  0.30620128  1
  Ni  Ni183  1  0.45538743  0.80633034  0.68545081  1
  Ni  Ni184  1  -0.07582803  0.11829243  0.85390031  1
  Ni  Ni185  1  0.88807624  0.83206518  0.02966101  1
  Ni  Ni186  1  0.56193051  0.20578788  0.64486137  1
  Ni  Ni187  1  0.63321779  0.61014147  0.69795524  1
  Ni  Ni188  1  0.32630751  0.18679098  0.56584296  1
  Ni  Ni189  1  0.10824348  0.83428582  0.46006943  1
  Ni  Ni190  1  0.64383980  0.59503407  0.06116938  1
  Ni  Ni191  1  0.52569168  0.16998131  0.00421467  1
  Ni  Ni192  1  0.64983057  0.05145490  0.67405980  1
  Ni  Ni193  1  0.52045386  0.39193297  0.22481357  1
  Ni  Ni194  1  0.44249822  0.52070874  0.63690764  1
  Ni  Ni195  1  0.29998782  0.31759999  0.73200081  1
  Ni  Ni196  1  0.45642258  0.77824717  0.03352462  1
  Ni  Ni197  1  0.17422132  0.09254999  0.00257954  1
  Ni  Ni198  1  0.54543748  0.29724880  0.78043684  1
  Ni  Ni199  1  0.75776392  0.83100640  0.49172550  1
  Ni  Ni200  1  0.81901298  0.08352847  0.41629497  1
  Ni  Ni201  1  0.76388518  -0.01119160  0.53920974  1
  Ni  Ni202  1  0.29325873  0.77691423  0.84635799  1
  Ni  Ni203  1  0.16148319  0.01137519  0.15262022  1
  Ni  Ni204  1  0.39909979  0.81734649  0.36040785  1
  Ni  Ni205  1  0.17621670  0.65576169  0.59594166  1
  Ni  Ni206  1  0.22210432  0.18280135  0.71807191  1
  Ni  Ni207  1  0.73924865  -0.00603561  0.19425300  1
  Ni  Ni208  1  0.00245325  0.04579266  0.72955726  1
  Ni  Ni209  1  0.04473958  0.40444709  0.72782576  1
  Ni  Ni210  1  -0.08522380  0.35042498  0.33346520  1
  Ni  Ni211  1  0.29463898  0.63923473  0.35015993  1
  Ni  Ni212  1  0.12223671  0.12727614  0.36680467  1
  Ni  Ni213  1  0.39255602  -0.12433296  -0.07578263  1
  Ni  Ni214  1  0.33021031  0.06788274  0.68770943  1
