# generated using pymatgen
data_Ti108Co54Ni53
_symmetry_space_group_name_H-M   'P 1'
_cell_length_a   14.67062178
_cell_length_b   14.58444910
_cell_length_c   14.69846973
_cell_angle_alpha   89.98415237
_cell_angle_beta   90.07252926
_cell_angle_gamma   89.74865970
_symmetry_Int_Tables_number   1
_chemical_formula_structural   Ti108Co54Ni53
_chemical_formula_sum   'Ti108 Co54 Ni53'
_cell_volume   3144.89484218
_cell_formula_units_Z   1
loop_
 _symmetry_equiv_pos_site_id
 _symmetry_equiv_pos_as_xyz
  1  'x, y, z'
loop_
 _atom_site_type_symbol
 _atom_site_label
 _atom_site_symmetry_multiplicity
 _atom_site_fract_x
 _atom_site_fract_y
 _atom_site_fract_z
 _atom_site_occupancy
  Ti  Ti0  1  0.09005984  0.03349493  0.25008911  1
  Ti  Ti1  1  0.00488944  0.06347219  0.56884962  1
  Ti  Ti2  1  0.05430551  0.12788218  0.93497789  1
  Ti  Ti3  1  0.02195069  0.41674981  0.24590303  1
  Ti  Ti4  1  0.08221978  0.41537504  0.55610041  1
  Ti  Ti5  1  0.12543648  0.44476099  0.98561861  1
  Ti  Ti6  1  0.17032317  0.68587637  0.25000876  1
  Ti  Ti7  1  0.05880166  0.75379646  0.58084015  1
  Ti  Ti8  1  0.02935106  0.77560050  0.96140318  1
  Ti  Ti9  1  0.37038700  0.11016772  0.23546468  1
  Ti  Ti10  1  0.35751959  0.02949140  0.53921283  1
  Ti  Ti11  1  0.53051408  0.15208473  0.96762544  1
  Ti  Ti12  1  0.37546211  0.39411458  0.25849202  1
  Ti  Ti13  1  0.43886274  0.43461685  0.59283542  1
  Ti  Ti14  1  0.38084381  0.37550260  0.92448432  1
  Ti  Ti15  1  0.40611291  0.80042234  0.20943154  1
  Ti  Ti16  1  0.42486900  0.78760806  0.63886005  1
  Ti  Ti17  1  0.42293583  0.78725164  0.98882168  1
  Ti  Ti18  1  0.68205707  0.08052603  0.30016920  1
  Ti  Ti19  1  0.79673574  0.09183179  0.53378619  1
  Ti  Ti20  1  0.82241668  0.09353276  0.87838017  1
  Ti  Ti21  1  0.76021670  0.40379906  0.28292091  1
  Ti  Ti22  1  0.79257794  0.44712151  0.61420660  1
  Ti  Ti23  1  0.84777927  0.40770116  0.82301143  1
  Ti  Ti24  1  0.70219391  0.70165128  0.23253488  1
  Ti  Ti25  1  0.71358182  0.75522812  0.60682633  1
  Ti  Ti26  1  0.73730686  0.75145808  0.92356105  1
  Ti  Ti27  1  0.03600389  0.28536497  0.08262651  1
  Ti  Ti28  1  0.03845009  0.30770975  0.41298126  1
  Ti  Ti29  1  0.03553643  0.31200739  0.74197437  1
  Ti  Ti30  1  0.02011069  0.59790675  0.12621857  1
  Ti  Ti31  1  0.10362605  0.66012476  0.41916908  1
  Ti  Ti32  1  0.10647137  0.51114977  0.70143162  1
  Ti  Ti33  1  0.18052071  1.01781869  0.06540154  1
  Ti  Ti34  1  0.14756921  0.86526364  0.39754217  1
  Ti  Ti35  1  0.10045815  0.86581243  0.79756578  1
  Ti  Ti36  1  0.44750113  0.28365184  0.10025773  1
  Ti  Ti37  1  0.46275327  0.25322733  0.33446441  1
  Ti  Ti38  1  0.47065579  0.23733918  0.78890267  1
  Ti  Ti39  1  0.43225956  0.57336567  0.00291269  1
  Ti  Ti40  1  0.38941373  0.50749669  0.41200551  1
  Ti  Ti41  1  0.41618047  0.61037539  0.72123528  1
  Ti  Ti42  1  0.36614172  0.98321805  -0.04560217  1
  Ti  Ti43  1  0.41728648  0.90502743  0.38451924  1
  Ti  Ti44  1  0.45358940  0.88139710  0.81206481  1
  Ti  Ti45  1  0.75598476  0.32324622  0.10369962  1
  Ti  Ti46  1  0.78218137  0.26505069  0.43040926  1
  Ti  Ti47  1  0.72038574  0.16407941  0.70872184  1
  Ti  Ti48  1  0.75205703  0.55509906  0.09433404  1
  Ti  Ti49  1  0.76765415  0.60305671  0.47443737  1
  Ti  Ti50  1  0.71885384  0.57779655  0.78378056  1
  Ti  Ti51  1  0.78277641  0.91323686  0.15821709  1
  Ti  Ti52  1  0.75400403  0.89129213  0.35629287  1
  Ti  Ti53  1  0.74009273  0.96658473  0.71126241  1
  Ti  Ti54  1  0.32305697  0.14899079  0.04290519  1
  Ti  Ti55  1  0.23618573  0.04059766  0.37991325  1
  Ti  Ti56  1  0.31916144  0.07175151  0.76507698  1
  Ti  Ti57  1  0.20224552  0.40115847  0.16053937  1
  Ti  Ti58  1  0.21409268  0.43345722  0.39280046  1
  Ti  Ti59  1  0.29622031  0.38104966  0.74186564  1
  Ti  Ti60  1  0.27229716  0.70307786  0.08461124  1
  Ti  Ti61  1  0.38899069  0.71276579  0.44466241  1
  Ti  Ti62  1  0.29759439  0.77077373  0.79535810  1
  Ti  Ti63  1  0.63044767  0.04212005  0.10849730  1
  Ti  Ti64  1  0.52877168  0.08163355  0.42998312  1
  Ti  Ti65  1  0.54608619  0.04731057  0.70451769  1
  Ti  Ti66  1  0.59165918  0.44917147  0.03287662  1
  Ti  Ti67  1  0.57730804  0.34644976  0.45404522  1
  Ti  Ti68  1  0.65048665  0.37548697  0.73757047  1
  Ti  Ti69  1  0.60223708  0.76980412  0.08870786  1
  Ti  Ti70  1  0.57677597  0.78577964  0.45930215  1
  Ti  Ti71  1  0.58399515  0.70414425  0.76821476  1
  Ti  Ti72  1  0.84088467  0.13838996  0.11463563  1
  Ti  Ti73  1  0.86288593  0.07520096  0.32210748  1
  Ti  Ti74  1  0.93756393  -0.02495638  0.79116942  1
  Ti  Ti75  1  0.92854377  0.44546462  0.03021361  1
  Ti  Ti76  1  0.89122780  0.44170160  0.44327751  1
  Ti  Ti77  1  0.93193411  0.55116991  0.73434473  1
  Ti  Ti78  1  0.94163918  0.79018856  0.14399195  1
  Ti  Ti79  1  0.94308149  0.78595452  0.42526602  1
  Ti  Ti80  1  0.91266416  0.77355272  0.70272119  1
  Ti  Ti81  1  0.25433380  0.24496741  0.33903349  1
  Ti  Ti82  1  0.28940166  0.19838326  0.55015806  1
  Ti  Ti83  1  0.21077050  0.23650760  0.88041603  1
  Ti  Ti84  1  0.32821602  0.56492981  0.20583668  1
  Ti  Ti85  1  0.22462772  0.56850001  0.53671036  1
  Ti  Ti86  1  0.19165234  0.56837023  0.84924056  1
  Ti  Ti87  1  0.18508273  0.86976689  0.19528844  1
  Ti  Ti88  1  0.20899393  0.89662378  0.62399989  1
  Ti  Ti89  1  0.21514338  0.85007332  0.97132823  1
  Ti  Ti90  1  0.58608982  0.34552805  0.21041522  1
  Ti  Ti91  1  0.56810604  0.24113441  0.62339712  1
  Ti  Ti92  1  0.70114624  0.26964433  0.88498519  1
  Ti  Ti93  1  0.51539753  0.61455467  0.27646589  1
  Ti  Ti94  1  0.56717162  0.55982595  0.48869767  1
  Ti  Ti95  1  0.52671230  0.50614769  0.84361582  1
  Ti  Ti96  1  0.50310750  0.97477121  0.24000021  1
  Ti  Ti97  1  0.58310264  0.87675072  0.64261764  1
  Ti  Ti98  1  0.59938302  0.93868209  0.93625116  1
  Ti  Ti99  1  0.98412894  0.19341450  0.25710055  1
  Ti  Ti100  1  0.90621676  0.25279089  0.59635463  1
  Ti  Ti101  1  0.88632534  0.25828444  0.95308802  1
  Ti  Ti102  1  0.94153257  0.60186281  0.32006411  1
  Ti  Ti103  1  0.96426167  0.58259746  0.54632393  1
  Ti  Ti104  1  0.99253812  0.59203468  0.91593238  1
  Ti  Ti105  1  0.96740718  0.90860914  0.29883423  1
  Ti  Ti106  1  0.87295065  0.91096590  0.59227546  1
  Ti  Ti107  1  0.87896063  0.89609279  0.99439785  1
  Co  Co108  1  0.64368991  0.65436203  0.37398377  1
  Co  Co109  1  0.16695601  0.02093969  0.52217989  1
  Co  Co110  1  0.02812458  0.75320220  0.28012830  1
  Co  Co111  1  0.29773130  0.67502232  -0.06835253  1
  Co  Co112  1  0.36491093  0.42526621  0.09035111  1
  Co  Co113  1  0.59139675  0.60895325  0.10814973  1
  Co  Co114  1  0.04052867  0.11940926  0.11740360  1
  Co  Co115  1  0.62594470  0.86007817  0.79995930  1
  Co  Co116  1  0.17678617  0.56019875  0.12812766  1
  Co  Co117  1  0.77031401  -0.08180341  0.85938629  1
  Co  Co118  1  0.15390717  0.72522358  0.86813484  1
  Co  Co119  1  0.11500531  0.16657080  0.37635436  1
  Co  Co120  1  0.54773886  0.69145160  0.59926624  1
  Co  Co121  1  0.36487522  0.18045051  0.89415678  1
  Co  Co122  1  0.64683117  0.51356405  0.22292680  1
  Co  Co123  1  0.75832618  0.77853151  0.76118464  1
  Co  Co124  1  0.59517842  -0.06348440  0.38202508  1
  Co  Co125  1  -0.08531509  0.82626444  0.85533348  1
  Co  Co126  1  0.32745798  0.90043255  0.09143348  1
  Co  Co127  1  -0.05352138  0.41249502  0.64706089  1
  Co  Co128  1  0.86570214  0.08586373  0.69077528  1
  Co  Co129  1  0.73485506  0.29030803  0.59225910  1
  Co  Co130  1  0.54280773  0.78624401  0.30096907  1
  Co  Co131  1  0.83412775  0.27271352  0.74135042  1
  Co  Co132  1  0.67669033  0.19170206  0.16241328  1
  Co  Co133  1  0.16696797  0.19224224  0.05103605  1
  Co  Co134  1  0.54948827  0.52382704  0.68575500  1
  Co  Co135  1  0.44847198  0.68763846  0.86097363  1
  Co  Co136  1  0.00855137  0.45015471  0.84429688  1
  Co  Co137  1  0.42248472  0.13168805  0.65103652  1
  Co  Co138  1  0.78365342  0.40302643  -0.02203534  1
  Co  Co139  1  0.36900158  0.13168925  0.40395783  1
  Co  Co140  1  0.04122415  0.02979838  0.40332623  1
  Co  Co141  1  0.13667216  0.63304223  -0.00416144  1
  Co  Co142  1  0.49044490  0.48490996  0.16535792  1
  Co  Co143  1  0.21608014  0.11134236  0.19777224  1
  Co  Co144  1  -0.11496631  0.48201720  0.19410684  1
  Co  Co145  1  0.03772456  0.90633098  0.50315657  1
  Co  Co146  1  0.50015806  -0.05588195  0.52689953  1
  Co  Co147  1  0.67618987  0.45423918  0.88202734  1
  Co  Co148  1  0.67108840  0.58720118  0.61630795  1
  Co  Co149  1  0.62697044  0.42327639  0.58531051  1
  Co  Co150  1  0.89903189  0.31656549  0.16052850  1
  Co  Co151  1  0.21900705  0.06788830  -0.08591830  1
  Co  Co152  1  0.79690647  0.21531816  0.26127411  1
  Co  Co153  1  0.78155652  0.76137475  0.08397400  1
  Co  Co154  1  0.78107546  0.56433437  0.31024615  1
  Co  Co155  1  0.44256928  0.66715095  0.13108593  1
  Co  Co156  1  0.27037559  0.52119037  0.00356549  1
  Co  Co157  1  0.03115810  -0.08556356  0.66017582  1
  Co  Co158  1  0.40054733  -0.05204348  0.67342012  1
  Co  Co159  1  0.26098542  0.93003986  0.81634269  1
  Co  Co160  1  0.26436829  0.40411993  0.57922702  1
  Co  Co161  1  0.22065083  0.75579621  0.49277261  1
  Ni  Ni162  1  0.50330043  0.90642314  0.07954658  1
  Ni  Ni163  1  0.54664689  0.33964520  0.89508238  1
  Ni  Ni164  1  0.02795438  0.68410990  0.77790529  1
  Ni  Ni165  1  0.15951347  0.39194493  0.82887690  1
  Ni  Ni166  1  0.35244625  0.52948766  0.85269292  1
  Ni  Ni167  1  0.04874332  0.49741378  0.41146499  1
  Ni  Ni168  1  0.52645333  0.44732463  0.33035574  1
  Ni  Ni169  1  0.63233156  0.61080725  -0.05695356  1
  Ni  Ni170  1  0.71714598  0.15982639  0.00371882  1
  Ni  Ni171  1  0.47559745  0.05583983  0.84790001  1
  Ni  Ni172  1  0.45885500  0.22226842  0.50473877  1
  Ni  Ni173  1  0.41331196  0.59828318  0.55725845  1
  Ni  Ni174  1  0.39309116  0.29009282  0.64335330  1
  Ni  Ni175  1  0.34020136  0.86345931  0.52454765  1
  Ni  Ni176  1  0.53459735  0.15021261  0.22241236  1
  Ni  Ni177  1  0.63867893  0.88941859  0.22130699  1
  Ni  Ni178  1  -0.05469902  0.16683102  0.44207365  1
  Ni  Ni179  1  0.65444563  0.08042037  0.85829063  1
  Ni  Ni180  1  0.04356927  0.92227978  0.09407586  1
  Ni  Ni181  1  0.15978225  0.73486366  0.70252713  1
  Ni  Ni182  1  0.10319657  0.75667009  0.10905534  1
  Ni  Ni183  1  0.92827587  0.00824093  0.17302755  1
  Ni  Ni184  1  0.35952491  0.34330377  0.45001100  1
  Ni  Ni185  1  0.85127411  0.77022884  0.28366779  1
  Ni  Ni186  1  0.64821103  0.18635578  0.48558179  1
  Ni  Ni187  1  0.26195705  0.32167345  0.01929529  1
  Ni  Ni188  1  0.70904912  0.90738333  0.51676507  1
  Ni  Ni189  1  0.06494474  -0.04454503  0.93514615  1
  Ni  Ni190  1  0.71903112  0.44138646  0.44364373  1
  Ni  Ni191  1  0.86305922  0.67263883  0.83330245  1
  Ni  Ni192  1  0.29614175  0.26087831  0.17341368  1
  Ni  Ni193  1  0.28217795  0.78760454  0.33256060  1
  Ni  Ni194  1  0.29142650  0.69584913  0.62592757  1
  Ni  Ni195  1  0.74886306  -0.00165717  0.00125792  1
  Ni  Ni196  1  0.18190505  0.29489762  0.48726888  1
  Ni  Ni197  1  0.88861984  -0.02912227  0.44444291  1
  Ni  Ni198  1  0.86543788  0.72731667  0.54293850  1
  Ni  Ni199  1  0.63956868  0.04714916  0.56960516  1
  Ni  Ni200  1  0.27523102  0.53394243  0.68890076  1
  Ni  Ni201  1  0.14361789  0.52707634  0.27941941  1
  Ni  Ni202  1  0.26598005  0.61880501  0.37308291  1
  Ni  Ni203  1  0.81629200  0.63167680  0.66061392  1
  Ni  Ni204  1  -0.04360857  0.17934844  0.80661932  1
  Ni  Ni205  1  0.63954339  0.23229113  0.32399371  1
  Ni  Ni206  1  0.04235950  0.30417827  -0.08547108  1
  Ni  Ni207  1  0.60435382  0.27979503  0.04184163  1
  Ni  Ni208  1  0.86113281  0.64465562  0.17682944  1
  Ni  Ni209  1  -0.06597980  0.04881215  0.00913369  1
  Ni  Ni210  1  0.31418470  -0.05079664  0.25482389  1
  Ni  Ni211  1  0.46113211  0.06333406  0.09441995  1
  Ni  Ni212  1  0.80309965  0.56119923  -0.06599317  1
  Ni  Ni213  1  -0.09929728  0.32186385  0.32460676  1
  Ni  Ni214  1  0.13214580  0.25045286  0.22040084  1
