# generated using pymatgen
data_Ti108Co54Ni53
_symmetry_space_group_name_H-M   'P 1'
_cell_length_a   14.55425122
_cell_length_b   14.47868915
_cell_length_c   14.58780421
_cell_angle_alpha   89.57469524
_cell_angle_beta   89.76507230
_cell_angle_gamma   90.02777644
_symmetry_Int_Tables_number   1
_chemical_formula_structural   Ti108Co54Ni53
_chemical_formula_sum   'Ti108 Co54 Ni53'
_cell_volume   3073.92568428
_cell_formula_units_Z   1
loop_
 _symmetry_equiv_pos_site_id
 _symmetry_equiv_pos_as_xyz
  1  'x, y, z'
loop_
 _atom_site_type_symbol
 _atom_site_label
 _atom_site_symmetry_multiplicity
 _atom_site_fract_x
 _atom_site_fract_y
 _atom_site_fract_z
 _atom_site_occupancy
  Ti  Ti0  1  0.02104250  0.02137462  0.25338868  1
  Ti  Ti1  1  -0.01480462  0.08116917  0.61644402  1
  Ti  Ti2  1  0.07135385  0.14120088  0.98004098  1
  Ti  Ti3  1  0.05768642  0.43056537  0.22827709  1
  Ti  Ti4  1  0.04461348  0.43182498  0.64794599  1
  Ti  Ti5  1  0.10971444  0.43174285  0.84416887  1
  Ti  Ti6  1  0.10520063  0.82948286  0.21673599  1
  Ti  Ti7  1  0.15712817  0.73213235  0.53304239  1
  Ti  Ti8  1  0.15077967  0.69075729  0.93820568  1
  Ti  Ti9  1  0.40385357  0.03499374  0.26627300  1
  Ti  Ti10  1  0.39446693  0.03871473  0.62224219  1
  Ti  Ti11  1  0.36780914  0.13465114  0.95511175  1
  Ti  Ti12  1  0.46415843  0.38823326  0.14044776  1
  Ti  Ti13  1  0.42383442  0.37042989  0.60241819  1
  Ti  Ti14  1  0.43795743  0.45720344  0.94764311  1
  Ti  Ti15  1  0.41709346  0.69859142  0.23312631  1
  Ti  Ti16  1  0.52085386  0.75934612  0.55116221  1
  Ti  Ti17  1  0.46380554  0.79017112  0.92157292  1
  Ti  Ti18  1  0.81851358  0.06147777  0.26789534  1
  Ti  Ti19  1  0.79079479  0.02381048  0.65441433  1
  Ti  Ti20  1  0.70281661  0.12681935  0.98941031  1
  Ti  Ti21  1  0.72200453  0.43732916  0.24751563  1
  Ti  Ti22  1  0.75789712  0.32116094  0.63260950  1
  Ti  Ti23  1  0.79505675  0.42549349  0.91741666  1
  Ti  Ti24  1  0.74001591  0.78158752  0.12596229  1
  Ti  Ti25  1  0.68694344  0.82996591  0.58129540  1
  Ti  Ti26  1  0.75398479  0.75435703  0.91250139  1
  Ti  Ti27  1  0.08381492  0.33356336  0.02841000  1
  Ti  Ti28  1  0.12239305  0.26683641  0.36125066  1
  Ti  Ti29  1  0.03191987  0.23925105  0.80241258  1
  Ti  Ti30  1  0.08868919  0.53793177  0.06070791  1
  Ti  Ti31  1  0.05730575  0.66944091  0.39163778  1
  Ti  Ti32  1  0.05438493  0.62809373  0.70855244  1
  Ti  Ti33  1  0.10378131  0.86407307  0.02226799  1
  Ti  Ti34  1  0.03447802  0.86201144  0.41146161  1
  Ti  Ti35  1  0.09534820  0.96048303  0.72884029  1
  Ti  Ti36  1  0.39367387  0.21488367  0.14504240  1
  Ti  Ti37  1  0.52774890  0.23858319  0.45735749  1
  Ti  Ti38  1  0.43714618  0.20934094  0.77935549  1
  Ti  Ti39  1  0.40354492  0.62313113  0.02521827  1
  Ti  Ti40  1  0.39616748  0.59508592  0.44029390  1
  Ti  Ti41  1  0.42389783  0.51727881  0.73186750  1
  Ti  Ti42  1  0.40070898  0.93763451  0.08535440  1
  Ti  Ti43  1  0.46170523  0.95410415  0.44610038  1
  Ti  Ti44  1  0.45329071  0.88783723  0.74847348  1
  Ti  Ti45  1  0.75599756  0.26634829  0.15028026  1
  Ti  Ti46  1  0.73602703  0.26580608  0.44532000  1
  Ti  Ti47  1  0.73891082  0.26818339  0.81686471  1
  Ti  Ti48  1  0.73351521  0.60106623  0.01962130  1
  Ti  Ti49  1  0.76749117  0.57911311  0.46552349  1
  Ti  Ti50  1  0.72743570  0.57119394  0.80840563  1
  Ti  Ti51  1  0.67050409  0.93230114  0.03165793  1
  Ti  Ti52  1  0.77317674  0.91102453  0.40820368  1
  Ti  Ti53  1  0.78072907  0.93520196  0.84189278  1
  Ti  Ti54  1  0.22685737  0.02960421  -0.01118883  1
  Ti  Ti55  1  0.26198490  0.07081066  0.41098159  1
  Ti  Ti56  1  0.27488829  0.02598671  0.77457311  1
  Ti  Ti57  1  0.25783402  0.38951423  0.08207684  1
  Ti  Ti58  1  0.19553389  0.45050187  0.49505831  1
  Ti  Ti59  1  0.24391497  0.44762761  0.69368005  1
  Ti  Ti60  1  0.25356689  0.70883778  0.12939480  1
  Ti  Ti61  1  0.24811337  0.75123682  0.34230607  1
  Ti  Ti62  1  0.18409481  0.75489731  0.72669160  1
  Ti  Ti63  1  0.52690912  0.07275744  0.10445754  1
  Ti  Ti64  1  0.67533401  0.10001727  0.38811637  1
  Ti  Ti65  1  0.57359228  0.06287596  0.71385204  1
  Ti  Ti66  1  0.63790290  0.40637810  0.05723338  1
  Ti  Ti67  1  0.59173546  0.45721596  0.41809686  1
  Ti  Ti68  1  0.59266931  0.43762723  0.71265521  1
  Ti  Ti69  1  0.57578861  0.67337003  0.13779138  1
  Ti  Ti70  1  0.51437106  0.74120316  0.37701203  1
  Ti  Ti71  1  0.61105612  0.75189262  0.76494250  1
  Ti  Ti72  1  0.95763081  0.00734335  0.08075846  1
  Ti  Ti73  1  0.93804576  0.16038840  0.38771688  1
  Ti  Ti74  1  0.84808297  0.11788166  0.79993173  1
  Ti  Ti75  1  0.91174658  0.36031958  0.06807428  1
  Ti  Ti76  1  0.95993122  0.48022973  0.47056526  1
  Ti  Ti77  1  0.91983193  0.48869146  0.78565590  1
  Ti  Ti78  1  0.90944485  0.68103861  0.11937646  1
  Ti  Ti79  1  0.86981265  0.74335285  0.42188130  1
  Ti  Ti80  1  0.92297055  0.77402935  0.79207217  1
  Ti  Ti81  1  0.20074606  0.14855217  0.22093154  1
  Ti  Ti82  1  0.27112396  0.21720895  0.60630913  1
  Ti  Ti83  1  0.22266847  0.27399963  0.89746725  1
  Ti  Ti84  1  0.11519760  0.61706650  0.22766244  1
  Ti  Ti85  1  0.33178810  0.67803784  0.61380064  1
  Ti  Ti86  1  0.31573209  0.61061366  0.84991582  1
  Ti  Ti87  1  0.23445387  0.96224429  0.22217523  1
  Ti  Ti88  1  0.26811669  0.90661775  0.51913280  1
  Ti  Ti89  1  0.24856065  0.85782592  0.86313812  1
  Ti  Ti90  1  0.57237215  0.19785474  0.24533163  1
  Ti  Ti91  1  0.59047268  0.24243474  0.66108206  1
  Ti  Ti92  1  0.52178316  0.28654530  0.94934880  1
  Ti  Ti93  1  0.66559780  0.62407493  0.30674466  1
  Ti  Ti94  1  0.64967425  0.62636351  0.63372205  1
  Ti  Ti95  1  0.58153187  0.59159055  0.90836308  1
  Ti  Ti96  1  0.59816714  0.97843319  0.25810573  1
  Ti  Ti97  1  0.65474550  0.99705836  0.53544247  1
  Ti  Ti98  1  0.51959422  0.97275445  0.93098640  1
  Ti  Ti99  1  0.94838438  0.25212273  0.22723204  1
  Ti  Ti100  1  0.92065272  0.28968129  0.51573392  1
  Ti  Ti101  1  0.89358246  0.21235222  0.96196308  1
  Ti  Ti102  1  0.89792893  0.58442627  0.29304690  1
  Ti  Ti103  1  0.90703806  0.61834160  0.61704380  1
  Ti  Ti104  1  0.92348799  0.53566486  0.98281340  1
  Ti  Ti105  1  0.89412334  0.87678518  0.25571261  1
  Ti  Ti106  1  0.91723292  0.89388009  0.56597835  1
  Ti  Ti107  1  0.96233491  0.91807676  0.90494595  1
  Co  Co108  1  0.07418403  0.71310469  0.09684436  1
  Co  Co109  1  0.47730984  0.87166588  0.28166786  1
  Co  Co110  1  -0.05787362  0.52251528  0.14721650  1
  Co  Co111  1  0.60637391  0.88795250  0.41136929  1
  Co  Co112  1  0.22151866  0.20784230  0.05778546  1
  Co  Co113  1  -0.01466309  0.35812614  0.36146185  1
  Co  Co114  1  0.30645655  0.74055439  -0.03982906  1
  Co  Co115  1  0.76347260  0.60242994  0.17674609  1
  Co  Co116  1  0.86207381  0.14460607  0.12110020  1
  Co  Co117  1  0.42192624  0.77510429  0.08336548  1
  Co  Co118  1  0.78581504  0.45759887  0.09149737  1
  Co  Co119  1  0.11696975  -0.02617769  -0.11095436  1
  Co  Co120  1  0.46956886  0.65363857  0.83543006  1
  Co  Co121  1  0.02355029  0.79553659  0.68074902  1
  Co  Co122  1  0.58921868  0.61121668  0.46694895  1
  Co  Co123  1  0.22675835  0.61052622  0.44510834  1
  Co  Co124  1  0.14528048  0.12172999  0.83576184  1
  Co  Co125  1  0.33408408  -0.09781507  0.36009084  1
  Co  Co126  1  0.07860665  0.33989896  0.50146891  1
  Co  Co127  1  0.43991033  0.20302559  0.61556027  1
  Co  Co128  1  0.66015273  0.03917459  -0.14531006  1
  Co  Co129  1  0.18161179  0.57043172  0.78701188  1
  Co  Co130  1  0.35965949  -0.04898915  -0.08152134  1
  Co  Co131  1  0.53374282  0.12508862  -0.05490896  1
  Co  Co132  1  -0.06919734  -0.04263931  0.73344028  1
  Co  Co133  1  0.77687674  0.21889492  0.29460672  1
  Co  Co134  1  -0.01104632  0.74134878  0.53626406  1
  Co  Co135  1  0.75524511  0.43139826  0.75077334  1
  Co  Co136  1  0.33244134  0.83973290  0.21151795  1
  Co  Co137  1  0.33180983  0.32705193  0.73750146  1
  Co  Co138  1  -0.01292002  0.07491699  0.85168931  1
  Co  Co139  1  0.68948350  0.10451287  0.16256770  1
  Co  Co140  1  0.54265390  0.09875199  0.54310226  1
  Co  Co141  1  0.31912494  0.07911185  0.12345482  1
  Co  Co142  1  0.73434177  -0.09684149  0.24460672  1
  Co  Co143  1  -0.02256751  0.74068076  0.26548009  1
  Co  Co144  1  0.79480404  0.73652128  0.27969081  1
  Co  Co145  1  0.41208372  0.54067748  0.16461194  1
  Co  Co146  1  0.47250032  0.37192968  0.80223001  1
  Co  Co147  1  0.43581970  0.05041842  0.81017705  1
  Co  Co148  1  0.68304447  0.48904930  0.57921144  1
  Co  Co149  1  0.49537060  0.57551974  0.31586025  1
  Co  Co150  1  0.16298567  0.29874958  0.71845209  1
  Co  Co151  1  0.60296829  0.19556286  0.82397899  1
  Co  Co152  1  0.33959585  0.51376885  0.56621392  1
  Co  Co153  1  0.27488864  0.18256206  0.77284168  1
  Co  Co154  1  0.60421632  0.76134135  0.00202405  1
  Co  Co155  1  0.06446867  0.58005760  0.53069547  1
  Co  Co156  1  -0.03199044  0.36545870  -0.09515529  1
  Co  Co157  1  0.87951028  0.39761607  0.22339486  1
  Co  Co158  1  0.51237323  0.09853839  0.37035343  1
  Co  Co159  1  0.50733411  0.52757792  0.57846227  1
  Co  Co160  1  0.14057336  0.13104073  0.66884159  1
  Co  Co161  1  0.07960170  0.81059016  0.84607592  1
  Ni  Ni162  1  0.12393559  0.02209357  0.11455879  1
  Ni  Ni163  1  0.11168705  0.88201694  0.58338284  1
  Ni  Ni164  1  0.10481813  0.09071016  0.36389447  1
  Ni  Ni165  1  0.35497869  0.75620719  0.77047702  1
  Ni  Ni166  1  0.19526635  0.58364308  0.61771818  1
  Ni  Ni167  1  0.25226559  0.54756299  0.11895833  1
  Ni  Ni168  1  0.79837968  -0.01607581  0.11874687  1
  Ni  Ni169  1  0.36486136  0.76953659  0.46613698  1
  Ni  Ni170  1  0.02254694  0.25560198  0.63897888  1
  Ni  Ni171  1  0.80645722  0.85651965  0.69381881  1
  Ni  Ni172  1  0.73073413  0.28990098  -0.01486967  1
  Ni  Ni173  1  -0.06830342  -0.01090476  0.40376922  1
  Ni  Ni174  1  0.78161552  0.70203585  0.73349322  1
  Ni  Ni175  1  0.26059760  0.85945680  0.05935590  1
  Ni  Ni176  1  0.83480057  0.45078030  0.36142820  1
  Ni  Ni177  1  0.10653765  0.50775645  0.37089076  1
  Ni  Ni178  1  0.07132420  0.17705224  0.50103447  1
  Ni  Ni179  1  0.58796382  0.36542355  0.55160991  1
  Ni  Ni180  1  0.79191781  0.71680474  0.56916638  1
  Ni  Ni181  1  0.11185749  0.01851578  0.50885102  1
  Ni  Ni182  1  0.63548744  0.31830987  0.32520876  1
  Ni  Ni183  1  0.03932060  0.15925570  0.14070811  1
  Ni  Ni184  1  0.57385602  0.49289926  0.21278313  1
  Ni  Ni185  1  0.65275607  -0.08061742  0.71969726  1
  Ni  Ni186  1  0.39273679  0.13032860  0.48051345  1
  Ni  Ni187  1  0.69154699  0.74179124  0.43196457  1
  Ni  Ni188  1  0.14470322  0.29663292  0.18111500  1
  Ni  Ni189  1  0.29047342  0.58991464  0.28006051  1
  Ni  Ni190  1  0.83504395  0.86853140  0.00397264  1
  Ni  Ni191  1  0.62828728  0.78725797  0.26691688  1
  Ni  Ni192  1  0.59476267  0.23104098  0.08373186  1
  Ni  Ni193  1  0.04060423  0.59016859  0.87796879  1
  Ni  Ni194  1  0.87224590  0.63491286  0.86397853  1
  Ni  Ni195  1  0.82562159  0.07849822  0.48927654  1
  Ni  Ni196  1  0.85924356  0.18849788  0.64895886  1
  Ni  Ni197  1  -0.04024312  0.83819374  0.10937513  1
  Ni  Ni198  1  0.87094337  0.45316768  0.62685333  1
  Ni  Ni199  1  0.54472587  0.53526653  0.05784661  1
  Ni  Ni200  1  0.28685199  -0.12018363  0.68024395  1
  Ni  Ni201  1  0.36305307  0.30118666  -0.00265356  1
  Ni  Ni202  1  0.62827961  0.40382016  0.87691380  1
  Ni  Ni203  1  0.20608689  0.51821263  -0.04742953  1
  Ni  Ni204  1  0.62700869  0.86895820  0.87332017  1
  Ni  Ni205  1  0.84521769  0.04404440  0.96473228  1
  Ni  Ni206  1  0.78819029  0.40979789  0.49877135  1
  Ni  Ni207  1  0.89259802  0.32300253  0.75112947  1
  Ni  Ni208  1  0.70624165  0.15668683  0.57579126  1
  Ni  Ni209  1  0.30351238  0.42555787  0.86384089  1
  Ni  Ni210  1  0.55209366  -0.13577685  0.13210225  1
  Ni  Ni211  1  -0.03558830  0.73845195  -0.03576081  1
  Ni  Ni212  1  0.52368457  0.91712284  0.60487168  1
  Ni  Ni213  1  0.17134362  0.92647476  0.37153809  1
  Ni  Ni214  1  0.48053398  0.67730756  0.68176332  1
