# generated using pymatgen
data_Ti108Co54Ni53
_symmetry_space_group_name_H-M   'P 1'
_cell_length_a   14.66855914
_cell_length_b   14.64276928
_cell_length_c   14.59730404
_cell_angle_alpha   89.74071533
_cell_angle_beta   90.06145038
_cell_angle_gamma   90.02899885
_symmetry_Int_Tables_number   1
_chemical_formula_structural   Ti108Co54Ni53
_chemical_formula_sum   'Ti108 Co54 Ni53'
_cell_volume   3135.29621385
_cell_formula_units_Z   1
loop_
 _symmetry_equiv_pos_site_id
 _symmetry_equiv_pos_as_xyz
  1  'x, y, z'
loop_
 _atom_site_type_symbol
 _atom_site_label
 _atom_site_symmetry_multiplicity
 _atom_site_fract_x
 _atom_site_fract_y
 _atom_site_fract_z
 _atom_site_occupancy
  Ti  Ti0  1  0.07632380  0.01972465  0.24915081  1
  Ti  Ti1  1  0.02539021  0.06231677  0.56990630  1
  Ti  Ti2  1  0.05772488  0.11755428  0.92938302  1
  Ti  Ti3  1  0.12366434  0.41211810  0.32072049  1
  Ti  Ti4  1  0.08367717  0.37784807  0.58702421  1
  Ti  Ti5  1  0.03928410  0.40535764  0.92180467  1
  Ti  Ti6  1  0.05893093  0.69681753  0.25626158  1
  Ti  Ti7  1  0.09427235  0.71727440  0.58255445  1
  Ti  Ti8  1  0.05383232  0.75249489  0.92859450  1
  Ti  Ti9  1  0.39794886  0.10399246  0.17753432  1
  Ti  Ti10  1  0.35627805  0.13696009  0.60944932  1
  Ti  Ti11  1  0.44864973  0.12830100  0.89677563  1
  Ti  Ti12  1  0.53948741  0.45156787  0.19278907  1
  Ti  Ti13  1  0.45740635  0.46862414  0.62803907  1
  Ti  Ti14  1  0.43836525  0.45524923  0.98689132  1
  Ti  Ti15  1  0.32538224  0.74456540  0.20875207  1
  Ti  Ti16  1  0.36877267  0.77792474  0.61007163  1
  Ti  Ti17  1  0.37322369  0.72592376  0.83591974  1
  Ti  Ti18  1  0.77030807  0.04951430  0.22299042  1
  Ti  Ti19  1  0.71542137  0.05968705  0.56666540  1
  Ti  Ti20  1  0.64282170  0.12595404  0.94413796  1
  Ti  Ti21  1  0.82377476  0.38022548  0.28602514  1
  Ti  Ti22  1  0.81885970  0.40295256  0.59199872  1
  Ti  Ti23  1  0.71600354  0.33076160  0.85324953  1
  Ti  Ti24  1  0.74900451  0.66924067  0.31682702  1
  Ti  Ti25  1  0.76009327  0.72505170  0.51610968  1
  Ti  Ti26  1  0.76160670  0.73794039  0.97435828  1
  Ti  Ti27  1  0.11085062  0.26520978  0.04826697  1
  Ti  Ti28  1  0.11426245  0.16002233  0.39414487  1
  Ti  Ti29  1  0.06586402  0.19604075  0.72218504  1
  Ti  Ti30  1  0.04521704  0.60994412  0.06134695  1
  Ti  Ti31  1  0.03457060  0.57815765  0.40783484  1
  Ti  Ti32  1  0.04672034  0.66529177  0.75805670  1
  Ti  Ti33  1  0.03783751  0.92518525  0.06207305  1
  Ti  Ti34  1  0.11344301  0.87262876  0.41311250  1
  Ti  Ti35  1  0.08044555  0.97470879  0.72616940  1
  Ti  Ti36  1  0.41792958  0.30142911  0.16015701  1
  Ti  Ti37  1  0.41678250  0.25660708  0.46348535  1
  Ti  Ti38  1  0.40274479  0.26885321  0.77741205  1
  Ti  Ti39  1  0.36493406  0.54966378  0.14168266  1
  Ti  Ti40  1  0.44252416  0.59681146  0.46701821  1
  Ti  Ti41  1  0.36995255  0.54062345  0.81223664  1
  Ti  Ti42  1  0.35593886  0.88297326  -0.06562260  1
  Ti  Ti43  1  0.38990488  0.91271399  0.45877106  1
  Ti  Ti44  1  0.46464320  0.89764952  0.77138001  1
  Ti  Ti45  1  0.81013153  0.24164622  0.13476418  1
  Ti  Ti46  1  0.69638011  0.28876193  0.44099921  1
  Ti  Ti47  1  0.85534600  0.24142356  0.72937836  1
  Ti  Ti48  1  0.75252922  0.57395906  0.13625767  1
  Ti  Ti49  1  0.74481910  0.50753643  0.44300222  1
  Ti  Ti50  1  0.75181692  0.63328114  0.80632271  1
  Ti  Ti51  1  0.80317087  0.92074298  0.04285638  1
  Ti  Ti52  1  0.74737973  0.93046033  0.41346402  1
  Ti  Ti53  1  0.76949768  0.97150116  0.74840519  1
  Ti  Ti54  1  0.27542904  0.00571433  0.07582208  1
  Ti  Ti55  1  0.32508402  0.09062767  0.37180342  1
  Ti  Ti56  1  0.33070793  0.04097130  0.76385209  1
  Ti  Ti57  1  0.26202950  0.39039621  0.05844630  1
  Ti  Ti58  1  0.29184379  0.44200566  0.40761662  1
  Ti  Ti59  1  0.17665427  0.40633559  0.75662566  1
  Ti  Ti60  1  0.24611690  0.69953952  0.01094883  1
  Ti  Ti61  1  0.32087548  0.75234436  0.39869863  1
  Ti  Ti62  1  0.23809867  0.67297618  0.70665834  1
  Ti  Ti63  1  0.48662674  -0.00851236  0.03134664  1
  Ti  Ti64  1  0.58063399  0.14599598  0.45330683  1
  Ti  Ti65  1  0.69189357  0.14460397  0.74321317  1
  Ti  Ti66  1  0.64743375  0.44456630  0.03273416  1
  Ti  Ti67  1  0.57086825  0.42673287  0.39232170  1
  Ti  Ti68  1  0.58456842  0.38922516  0.72685703  1
  Ti  Ti69  1  0.45189173  0.73243329  0.04458864  1
  Ti  Ti70  1  0.54897804  0.77459886  0.45563234  1
  Ti  Ti71  1  0.56676442  0.73057769  0.75716533  1
  Ti  Ti72  1  0.96559334  0.12188980  0.11476300  1
  Ti  Ti73  1  0.91638855  0.13960447  0.34191079  1
  Ti  Ti74  1  0.92249250  0.07640967  0.79723903  1
  Ti  Ti75  1  0.88654729  0.44604301  0.06336870  1
  Ti  Ti76  1  0.94706949  0.42476884  0.43850257  1
  Ti  Ti77  1  0.87360405  0.43804273  0.78456215  1
  Ti  Ti78  1  0.87931813  0.77858812  0.18016998  1
  Ti  Ti79  1  0.96974451  0.74947717  0.44075899  1
  Ti  Ti80  1  0.83532853  0.78601343  0.70016523  1
  Ti  Ti81  1  0.27187464  0.26217110  0.29582318  1
  Ti  Ti82  1  0.27062943  0.31221893  0.58729556  1
  Ti  Ti83  1  0.25937926  0.20254510  0.93433068  1
  Ti  Ti84  1  0.18710781  0.55912003  0.19220321  1
  Ti  Ti85  1  0.24805743  0.61491016  0.51245955  1
  Ti  Ti86  1  0.17701734  0.56913856  0.86731990  1
  Ti  Ti87  1  0.30511969  0.92832803  0.27093892  1
  Ti  Ti88  1  0.22556071  0.96223897  0.57274675  1
  Ti  Ti89  1  0.18630245  0.93592913  0.86320941  1
  Ti  Ti90  1  0.60657165  0.16380524  0.26122872  1
  Ti  Ti91  1  0.57717933  0.24352143  0.60731050  1
  Ti  Ti92  1  0.54355204  0.30135693  0.95525046  1
  Ti  Ti93  1  0.56951491  0.61044678  0.31119751  1
  Ti  Ti94  1  0.65045791  0.57068856  0.61572344  1
  Ti  Ti95  1  0.60480057  0.51421787  0.87057543  1
  Ti  Ti96  1  0.56664087  0.97252142  0.39347893  1
  Ti  Ti97  1  0.53273750  1.01513079  0.61600214  1
  Ti  Ti98  1  0.63258803  0.92681181  0.89279165  1
  Ti  Ti99  1  0.99125053  0.30793778  0.19869908  1
  Ti  Ti100  1  0.94429909  0.23309881  0.55376551  1
  Ti  Ti101  1  0.83970914  0.18533840  0.93676962  1
  Ti  Ti102  1  0.98923805  0.49851807  0.22949772  1
  Ti  Ti103  1  0.97645671  0.54068628  0.60518791  1
  Ti  Ti104  1  0.94091849  0.57429586  0.89342363  1
  Ti  Ti105  1  0.92135211  0.92227022  0.32192335  1
  Ti  Ti106  1  0.91306678  0.89499200  0.52818720  1
  Ti  Ti107  1  0.91369947  0.89041180  0.86449388  1
  Co  Co108  1  0.52655032  0.57248299  0.74148086  1
  Co  Co109  1  0.62630405  0.62585011  0.45952341  1
  Co  Co110  1  0.48693779  0.14885136  0.70366213  1
  Co  Co111  1  0.44026546  0.49796960  0.31820154  1
  Co  Co112  1  0.63296789  0.89422313  0.53009862  1
  Co  Co113  1  0.29261579  0.39129511  0.88657332  1
  Co  Co114  1  0.63059690  -0.08583224  0.70607784  1
  Co  Co115  1  0.17585695  -0.08413812  0.16457444  1
  Co  Co116  1  0.71937410  0.31558197  0.68164677  1
  Co  Co117  1  0.11539961  0.21558402  0.56188615  1
  Co  Co118  1  0.36094236  0.59834817  -0.03052471  1
  Co  Co119  1  -0.08920762  0.67484606  0.31439371  1
  Co  Co120  1  0.52879643  0.67171621  0.59103559  1
  Co  Co121  1  0.31062759  0.84099130  0.08522333  1
  Co  Co122  1  0.85122339  0.53355939  0.31538902  1
  Co  Co123  1  0.02037040  0.01233920  0.41842876  1
  Co  Co124  1  0.30201256  0.43285444  0.24409330  1
  Co  Co125  1  0.25602121  0.17878368  0.48283269  1
  Co  Co126  1  0.73768852  0.39107696  0.14693923  1
  Co  Co127  1  0.46558403  0.41165117  0.82781880  1
  Co  Co128  1  -0.04644100  0.27512342  0.03094941  1
  Co  Co129  1  0.22452991  0.80224023  0.53611438  1
  Co  Co130  1  -0.12022016  0.63859086  0.01726187  1
  Co  Co131  1  0.90833293  -0.02480235  0.16000432  1
  Co  Co132  1  0.14026470  0.55437104  0.65340137  1
  Co  Co133  1  -0.07820830  -0.05189338  0.68447584  1
  Co  Co134  1  0.17485115  0.34525423  0.18531696  1
  Co  Co135  1  0.44704288  0.83787163  0.31835871  1
  Co  Co136  1  0.13669867  0.48591734  0.49032979  1
  Co  Co137  1  0.82796794  0.79714631  0.37752331  1
  Co  Co138  1  0.38245667  -0.04668891  0.62186327  1
  Co  Co139  1  0.67220235  0.76871423  0.64345142  1
  Co  Co140  1  0.51366298  0.83589912  0.61545364  1
  Co  Co141  1  0.86738927  0.09861344  0.64224757  1
  Co  Co142  1  0.42819887  -0.09017586  0.16053876  1
  Co  Co143  1  0.30150896  0.86596938  0.75733606  1
  Co  Co144  1  0.65732026  0.61870021  -0.01286448  1
  Co  Co145  1  0.31069879  0.04764339  -0.07455313  1
  Co  Co146  1  0.76816687  0.21236518  0.56582538  1
  Co  Co147  1  0.03267937  0.85786324  0.21896729  1
  Co  Co148  1  0.19355337  0.56828109  0.35015684  1
  Co  Co149  1  0.87428692  0.59964775  0.47170620  1
  Co  Co150  1  0.69110300  0.49760121  0.27220110  1
  Co  Co151  1  0.42376904  0.34207206  0.31890663  1
  Co  Co152  1  0.90722514  0.61473882  0.16800169  1
  Co  Co153  1  0.16180146  0.82642977  0.69938969  1
  Co  Co154  1  0.45733333  0.00805138  0.29498488  1
  Co  Co155  1  0.06752105  0.88676393  0.57800629  1
  Co  Co156  1  0.52078519  0.57254753  0.06131370  1
  Co  Co157  1  0.85539352  0.35973291  0.93087083  1
  Co  Co158  1  0.77269911  0.90499502  0.59694523  1
  Co  Co159  1  0.89336241  0.72807343  0.85491867  1
  Co  Co160  1  0.79946067  0.08480313  0.06285518  1
  Co  Co161  1  0.34201147  0.61367955  0.31787636  1
  Ni  Ni162  1  0.13262891  0.09320523  0.08282275  1
  Ni  Ni163  1  0.18836787  0.01123926  0.39405209  1
  Ni  Ni164  1  0.46865934  0.65906131  0.19966384  1
  Ni  Ni165  1  0.33445097  0.40227433  0.72337776  1
  Ni  Ni166  1  -0.07181527  0.70193020  0.60016658  1
  Ni  Ni167  1  0.77908601  0.51550002  -0.06226105  1
  Ni  Ni168  1  0.00226207  0.81612194  0.73282223  1
  Ni  Ni169  1  0.43405770  0.41824551  0.47978257  1
  Ni  Ni170  1  0.22972675  0.08308310  0.22989890  1
  Ni  Ni171  1  0.24432445  0.23889581  0.74262884  1
  Ni  Ni172  1  0.92147275  0.79794207  0.01350766  1
  Ni  Ni173  1  0.72484029  0.47948770  0.74228400  1
  Ni  Ni174  1  0.45603014  0.18048143  0.32117980  1
  Ni  Ni175  1  0.38520835  0.61493836  0.64839095  1
  Ni  Ni176  1  0.77410203  0.02789688  0.90511556  1
  Ni  Ni177  1  0.65004375  0.33005725  0.27543255  1
  Ni  Ni178  1  0.10719514  0.19287371  0.21826956  1
  Ni  Ni179  1  0.77618668  0.21611049  0.29294881  1
  Ni  Ni180  1  0.57348080  0.23794939  0.80538964  1
  Ni  Ni181  1  0.18751063  0.80185237  0.28420205  1
  Ni  Ni182  1  0.20330301  0.75873412  0.85244247  1
  Ni  Ni183  1  0.26285663  0.20875401  0.11715898  1
  Ni  Ni184  1  0.70909829  0.27942328  0.01089226  1
  Ni  Ni185  1  0.50695546  0.64289639  0.90512210  1
  Ni  Ni186  1  0.27936136  0.47927497  0.59129556  1
  Ni  Ni187  1  0.14768136  0.75449361  0.12890141  1
  Ni  Ni188  1  0.16932562  0.31789622  0.44567790  1
  Ni  Ni189  1  0.65644799  -0.00646735  0.05533426  1
  Ni  Ni190  1  0.14305226  0.70888436  0.41570076  1
  Ni  Ni191  1  0.49757260  0.16850614  0.05941672  1
  Ni  Ni192  1  0.86574114  0.04985390  0.47781332  1
  Ni  Ni193  1  -0.02962146  0.25719454  0.85938773  1
  Ni  Ni194  1  0.72310593  0.80430178  0.81987075  1
  Ni  Ni195  1  0.72754543  0.09742405  0.38944602  1
  Ni  Ni196  1  0.38287197  0.28354103  -0.00703023  1
  Ni  Ni197  1  0.81658880  0.58358462  0.64319508  1
  Ni  Ni198  1  0.17892873  0.10425929  0.81901071  1
  Ni  Ni199  1  0.55438706  0.04084660  0.79853755  1
  Ni  Ni200  1  -0.01273672  0.34637381  0.71267655  1
  Ni  Ni201  1  0.00805199  0.28522457  0.36820356  1
  Ni  Ni202  1  -0.07545879  0.02496502  -0.02756784  1
  Ni  Ni203  1  0.85510004  0.28732612  0.43213659  1
  Ni  Ni204  1  0.65809124  0.14667977  0.10893455  1
  Ni  Ni205  1  0.20616033  0.53546619  0.02219358  1
  Ni  Ni206  1  0.07429678  0.43950847  0.08868181  1
  Ni  Ni207  1  0.03676873  0.49686216  0.76991922  1
  Ni  Ni208  1  0.17458844  0.85511839  0.00021644  1
  Ni  Ni209  1  0.51517057  0.81303498  -0.08701529  1
  Ni  Ni210  1  0.58736762  0.29764863  0.12413086  1
  Ni  Ni211  1  0.13307092  0.27891046  0.86207179  1
  Ni  Ni212  1  0.43971731  0.06990602  0.48086161  1
  Ni  Ni213  1  0.62866634  0.40472144  0.55367008  1
  Ni  Ni214  1  0.19130886  0.10380847  0.65282438  1
