# generated using pymatgen
data_Ti108Co54Ni53
_symmetry_space_group_name_H-M   'P 1'
_cell_length_a   14.68659410
_cell_length_b   14.69820931
_cell_length_c   14.64112975
_cell_angle_alpha   90.31122784
_cell_angle_beta   89.99305154
_cell_angle_gamma   90.46217804
_symmetry_Int_Tables_number   1
_chemical_formula_structural   Ti108Co54Ni53
_chemical_formula_sum   'Ti108 Co54 Ni53'
_cell_volume   3160.38193859
_cell_formula_units_Z   1
loop_
 _symmetry_equiv_pos_site_id
 _symmetry_equiv_pos_as_xyz
  1  'x, y, z'
loop_
 _atom_site_type_symbol
 _atom_site_label
 _atom_site_symmetry_multiplicity
 _atom_site_fract_x
 _atom_site_fract_y
 _atom_site_fract_z
 _atom_site_occupancy
  Ti  Ti0  1  -0.05001042  0.09039552  0.21810152  1
  Ti  Ti1  1  0.12673939  0.17458647  0.61520550  1
  Ti  Ti2  1  0.10947154  0.10900432  0.89785691  1
  Ti  Ti3  1  0.05217472  0.44146592  0.19260321  1
  Ti  Ti4  1  0.01912412  0.48564771  0.55328955  1
  Ti  Ti5  1  0.15602399  0.44123913  0.85733346  1
  Ti  Ti6  1  -0.04467695  0.73361580  0.21253096  1
  Ti  Ti7  1  0.12589715  0.68894185  0.63167071  1
  Ti  Ti8  1  0.01897878  0.80186331  0.91109682  1
  Ti  Ti9  1  0.43802631  0.09003563  0.25809701  1
  Ti  Ti10  1  0.48353891  0.07010466  0.58785460  1
  Ti  Ti11  1  0.43753334  0.12238285  0.94133453  1
  Ti  Ti12  1  0.45767421  0.36498554  0.27281798  1
  Ti  Ti13  1  0.48019054  0.43449700  0.54852838  1
  Ti  Ti14  1  0.39544429  0.43421023  0.87381362  1
  Ti  Ti15  1  0.47414846  0.75943578  0.28708435  1
  Ti  Ti16  1  0.42010694  0.74047699  0.65016502  1
  Ti  Ti17  1  0.39885535  0.74510530  0.95797779  1
  Ti  Ti18  1  0.72707974  0.09281547  0.24085808  1
  Ti  Ti19  1  0.77940081  0.07305965  0.57328373  1
  Ti  Ti20  1  0.74504801  0.01704051  0.95997113  1
  Ti  Ti21  1  0.73042012  0.35590506  0.22810431  1
  Ti  Ti22  1  0.74174446  0.46293587  0.53876173  1
  Ti  Ti23  1  0.68607330  0.36144040  0.90445077  1
  Ti  Ti24  1  0.77241969  0.66997791  0.22481215  1
  Ti  Ti25  1  0.77578652  0.87653328  0.57991137  1
  Ti  Ti26  1  0.72197160  0.70198821  0.88815164  1
  Ti  Ti27  1  0.06172070  0.17526420  0.08164510  1
  Ti  Ti28  1  0.01605222  0.26870417  0.47177127  1
  Ti  Ti29  1  0.04932035  0.28239072  0.78172158  1
  Ti  Ti30  1  0.10075633  0.55831697  0.03568500  1
  Ti  Ti31  1  0.06990077  0.55770917  0.37240726  1
  Ti  Ti32  1  0.06519297  0.61564796  0.83423888  1
  Ti  Ti33  1  0.05701344  0.97333496  0.02782485  1
  Ti  Ti34  1  0.07826794  1.06326199  0.46047595  1
  Ti  Ti35  1  0.10466321  0.87694418  0.71163169  1
  Ti  Ti36  1  0.38901267  0.24817009  0.13313795  1
  Ti  Ti37  1  0.32408926  0.21157828  0.35040904  1
  Ti  Ti38  1  0.42908535  0.21400353  0.75921570  1
  Ti  Ti39  1  0.42887353  0.51874810  0.16197926  1
  Ti  Ti40  1  0.47375583  0.56201201  0.36306149  1
  Ti  Ti41  1  0.44771924  0.55322557  0.69691721  1
  Ti  Ti42  1  0.42323325  0.93920009  0.05301297  1
  Ti  Ti43  1  0.45568758  0.90681025  0.43129849  1
  Ti  Ti44  1  0.31157626  0.87649952  0.79132178  1
  Ti  Ti45  1  0.83896577  0.22380287  0.12054660  1
  Ti  Ti46  1  0.76659020  0.25861333  0.52775725  1
  Ti  Ti47  1  0.71809643  0.25114284  0.72071800  1
  Ti  Ti48  1  0.71714738  0.54413099  0.01747739  1
  Ti  Ti49  1  0.77448593  0.63707878  0.43592738  1
  Ti  Ti50  1  0.76674844  0.62921195  0.70448400  1
  Ti  Ti51  1  0.76158382  0.85955379  0.11751348  1
  Ti  Ti52  1  0.76249849  0.96097403  0.39877880  1
  Ti  Ti53  1  0.71943024  0.97558822  0.73786289  1
  Ti  Ti54  1  0.23972176  0.20406322  0.02803436  1
  Ti  Ti55  1  0.28883455  0.10151145  0.53561196  1
  Ti  Ti56  1  0.20556522  0.04084345  0.73098211  1
  Ti  Ti57  1  0.25718588  0.43567259  0.11877457  1
  Ti  Ti58  1  0.30765301  0.41660896  0.40314405  1
  Ti  Ti59  1  0.34732383  0.38283103  0.69757074  1
  Ti  Ti60  1  0.27364328  0.69798988  0.09521072  1
  Ti  Ti61  1  0.30317646  0.62471147  0.42682859  1
  Ti  Ti62  1  0.23696292  0.70681736  0.79065242  1
  Ti  Ti63  1  0.53550824  0.09059486  0.09733520  1
  Ti  Ti64  1  0.57882464  0.05184178  0.38616389  1
  Ti  Ti65  1  0.54025405  0.04222331  0.76989876  1
  Ti  Ti66  1  0.57951007  0.41820352  0.08776959  1
  Ti  Ti67  1  0.61320372  0.37639729  0.40799409  1
  Ti  Ti68  1  0.54779652  0.37989821  0.74858896  1
  Ti  Ti69  1  0.56074647  0.79746495  0.07029021  1
  Ti  Ti70  1  0.54208276  0.74086161  0.47380180  1
  Ti  Ti71  1  0.58343641  0.69605130  0.75628340  1
  Ti  Ti72  1  0.91391405  0.09868140  -0.01177614  1
  Ti  Ti73  1  0.89067779  0.12360280  0.41267958  1
  Ti  Ti74  1  1.00577024  0.08550273  0.74294575  1
  Ti  Ti75  1  0.86108505  0.43046813  0.08060056  1
  Ti  Ti76  1  0.84845663  0.35403652  0.39941802  1
  Ti  Ti77  1  0.88504248  0.48155851  0.76768422  1
  Ti  Ti78  1  0.86391144  0.74934862  0.02264657  1
  Ti  Ti79  1  0.90260980  0.83059489  0.42549548  1
  Ti  Ti80  1  0.94769797  0.75076911  0.70599497  1
  Ti  Ti81  1  0.17017382  0.15773287  0.25426215  1
  Ti  Ti82  1  0.27144175  0.30171002  0.54684944  1
  Ti  Ti83  1  0.24041674  0.26110055  0.82742044  1
  Ti  Ti84  1  0.19424517  0.59225315  0.23336512  1
  Ti  Ti85  1  0.18851173  0.50363173  0.66437686  1
  Ti  Ti86  1  0.27025125  0.57292071  0.93866583  1
  Ti  Ti87  1  0.25088074  0.91083872  0.14760831  1
  Ti  Ti88  1  0.36024320  0.92367041  0.60616459  1
  Ti  Ti89  1  0.25746030  1.00728120  0.96538751  1
  Ti  Ti90  1  0.60003473  0.23442341  0.18674760  1
  Ti  Ti91  1  0.58776435  0.21060160  0.51830375  1
  Ti  Ti92  1  0.62112299  0.17648624  0.94810515  1
  Ti  Ti93  1  0.59377744  0.61838154  0.19273319  1
  Ti  Ti94  1  0.59942199  0.60048785  0.57230560  1
  Ti  Ti95  1  0.54968758  0.62040210  0.96033836  1
  Ti  Ti96  1  0.53551780  0.92928157  0.22397536  1
  Ti  Ti97  1  0.56263482  0.88756324  0.62946078  1
  Ti  Ti98  1  0.57357009  0.94339855  0.91971758  1
  Ti  Ti99  1  1.01599129  0.25898481  0.28243901  1
  Ti  Ti100  1  0.90767520  0.26851256  0.66317722  1
  Ti  Ti101  1  0.94577435  0.31556289  0.95022764  1
  Ti  Ti102  1  0.89433881  0.52488277  0.27177873  1
  Ti  Ti103  1  0.97345436  0.67116761  0.51706930  1
  Ti  Ti104  1  0.90765354  0.58629906  0.94973530  1
  Ti  Ti105  1  0.89004267  0.91763667  0.23038108  1
  Ti  Ti106  1  0.90807140  0.94195233  0.69107227  1
  Ti  Ti107  1  0.83566598  0.86156647  0.85860375  1
  Co  Co108  1  0.63937413  0.11482128  0.65599847  1
  Co  Co109  1  -0.01550921  0.84545768  0.10056933  1
  Co  Co110  1  0.64561305  0.84852702  0.79377834  1
  Co  Co111  1  0.71182434  0.13285170  0.07757223  1
  Co  Co112  1  0.47796149  0.86463049  0.76430900  1
  Co  Co113  1  0.88071259  0.68796444  0.83389271  1
  Co  Co114  1  0.11186096  0.27104238  -0.06615739  1
  Co  Co115  1  0.90925328  -0.02277398  0.51576172  1
  Co  Co116  1  0.28295398  0.04812073  0.24789505  1
  Co  Co117  1  0.29812500  0.11727346  0.85387348  1
  Co  Co118  1  0.10420943  0.39410466  0.03285304  1
  Co  Co119  1  0.63100779  -0.00070411  0.53166273  1
  Co  Co120  1  0.82674234  0.72551307  0.57075728  1
  Co  Co121  1  0.83586402  0.12055453  0.71062080  1
  Co  Co122  1  0.54514417  0.77861572  -0.10315448  1
  Co  Co123  1  0.01850992  0.69506891  0.04423596  1
  Co  Co124  1  0.17891711  0.06280161  0.11046214  1
  Co  Co125  1  0.38085424  -0.08106859  0.26853482  1
  Co  Co126  1  0.03523690  0.60067740  0.19018901  1
  Co  Co127  1  0.82446180  0.44668268  -0.07877942  1
  Co  Co128  1  0.40798631  0.55434596  0.00372761  1
  Co  Co129  1  0.29347504  0.33182518  0.24471708  1
  Co  Co130  1  0.18719343  0.33909729  0.69841967  1
  Co  Co131  1  -0.02411778  0.83681235  0.57431368  1
  Co  Co132  1  0.00637291  0.95781870  0.85299210  1
  Co  Co133  1  0.77908238  0.79025420  0.72446991  1
  Co  Co134  1  0.04775744  -0.00144530  0.61041835  1
  Co  Co135  1  0.29086008  0.20030849  0.67576261  1
  Co  Co136  1  0.01041314  0.40630088  0.36929728  1
  Co  Co137  1  0.60461227  0.86918999  0.36782369  1
  Co  Co138  1  0.00119408  0.46171966  0.91246722  1
  Co  Co139  1  0.13675791  0.83671019  0.04036690  1
  Co  Co140  1  0.70236184  0.30496189  0.05914033  1
  Co  Co141  1  0.55150538  0.46433540  -0.06610048  1
  Co  Co142  1  0.72322193  0.11929403  0.42769855  1
  Co  Co143  1  0.58434774  0.20657586  0.79238731  1
  Co  Co144  1  0.82329083  0.02670384  0.12118364  1
  Co  Co145  1  -0.10146863  0.51526138  0.43580140  1
  Co  Co146  1  0.62836155  0.68912677  0.34623138  1
  Co  Co147  1  0.19779259  -0.02549753  0.57975522  1
  Co  Co148  1  0.69794900  0.84385637  -0.03357612  1
  Co  Co149  1  0.39091186  0.81456489  0.14432222  1
  Co  Co150  1  0.29127521  0.64287494  0.61507470  1
  Co  Co151  1  0.43967181  0.26764661  0.60319328  1
  Co  Co152  1  0.16961544  0.42881836  0.29899526  1
  Co  Co153  1  0.32101684  0.50346682  0.27904923  1
  Co  Co154  1  0.52212782  0.27105662  0.04730891  1
  Co  Co155  1  0.88850445  0.38948274  0.56014006  1
  Co  Co156  1  -0.11485656  -0.07680166  0.00069889  1
  Co  Co157  1  0.70809152  0.11002390  0.82042479  1
  Co  Co158  1  0.43579479  0.60905113  0.52821951  1
  Co  Co159  1  0.41288105  0.39596110  0.03549359  1
  Co  Co160  1  0.70067300  -0.06014277  0.24863544  1
  Co  Co161  1  0.86175975  0.02621658  0.84136502  1
  Ni  Ni162  1  0.74728752  0.48193912  0.34647890  1
  Ni  Ni163  1  0.41028722  -0.02858060  0.87899272  1
  Ni  Ni164  1  0.45345143  0.67278681  0.10787864  1
  Ni  Ni165  1  -0.01384137  0.31027199  0.11413202  1
  Ni  Ni166  1  0.04258334  0.44529367  0.73530677  1
  Ni  Ni167  1  0.30181472  0.55487810  0.77402089  1
  Ni  Ni168  1  0.89756751  0.36410762  0.23813857  1
  Ni  Ni169  1  0.31703778  0.49075956  0.55622306  1
  Ni  Ni170  1  -0.04681585  0.13227651  0.57324299  1
  Ni  Ni171  1  0.44292625  0.32061802  0.43935803  1
  Ni  Ni172  1  0.71472840  0.78958231  0.45730311  1
  Ni  Ni173  1  0.35932068  0.03155967  0.39835116  1
  Ni  Ni174  1  0.17294143  0.20560282  0.43523507  1
  Ni  Ni175  1  -0.03746042  -0.01624374  0.36040959  1
  Ni  Ni176  1  0.37223238  0.76678927  0.49475176  1
  Ni  Ni177  1  0.41899320  0.68270107  0.80981568  1
  Ni  Ni178  1  0.24961582  0.80508888  0.64186979  1
  Ni  Ni179  1  0.73535194  0.51234257  0.17680056  1
  Ni  Ni180  1  -0.00744523  0.59516448  0.68552388  1
  Ni  Ni181  1  0.34683010  0.08404314  0.09993174  1
  Ni  Ni182  1  0.51383560  0.30811834  0.89413757  1
  Ni  Ni183  1  0.16590856  0.70570680  0.94928373  1
  Ni  Ni184  1  0.78902741  0.21075473  -0.05766669  1
  Ni  Ni185  1  0.86402699  0.55967425  0.59163757  1
  Ni  Ni186  1  0.12669176  0.73796109  0.16315554  1
  Ni  Ni187  1  0.51933603  0.22198502  0.33460995  1
  Ni  Ni188  1  0.36729897  0.26573751  -0.06659190  1
  Ni  Ni189  1  0.62230906  0.54458608  0.42260200  1
  Ni  Ni190  1  0.15790594  -0.09438254  0.87437755  1
  Ni  Ni191  1  0.05716478  0.33664947  0.61101000  1
  Ni  Ni192  1  0.83627304  0.21677631  0.29080275  1
  Ni  Ni193  1  0.64041255  -0.03085528  0.08816694  1
  Ni  Ni194  1  0.35429182  0.65750634  0.24645072  1
  Ni  Ni195  1  0.63665305  0.50272272  0.69071392  1
  Ni  Ni196  1  0.84012363  0.32440564  0.81463129  1
  Ni  Ni197  1  0.37455628  0.04550997  0.72425249  1
  Ni  Ni198  1  0.25798118  0.37885844  -0.03237354  1
  Ni  Ni199  1  0.88334173  0.59812853  0.11474881  1
  Ni  Ni200  1  0.62850305  0.35438210  0.59817943  1
  Ni  Ni201  1  0.16735252  0.57716754  0.50943130  1
  Ni  Ni202  1  0.43627854  0.15971833  0.46143332  1
  Ni  Ni203  1  0.59443555  0.46497575  0.26089860  1
  Ni  Ni204  1  0.68384937  0.53538998  0.84866675  1
  Ni  Ni205  1  0.15160500  0.30368615  0.16835958  1
  Ni  Ni206  1  0.69721472  0.70202686  0.07060997  1
  Ni  Ni207  1  0.78085159  0.80657816  0.30743578  1
  Ni  Ni208  1  0.68262239  0.24429101  0.34864609  1
  Ni  Ni209  1  0.27885504  0.84311559  0.96995665  1
  Ni  Ni210  1  0.63948472  0.78458481  0.21775871  1
  Ni  Ni211  1  0.14869954  0.40608575  0.47347470  1
  Ni  Ni212  1  -0.08033035  0.18489390  0.84144879  1
  Ni  Ni213  1  0.65812480  0.75251517  0.61351617  1
  Ni  Ni214  1  -0.07536398  0.66700642  0.35865971  1
