# generated using pymatgen
data_Ti108Co54Ni53
_symmetry_space_group_name_H-M   'P 1'
_cell_length_a   14.59630962
_cell_length_b   14.60594757
_cell_length_c   14.57013670
_cell_angle_alpha   89.89789727
_cell_angle_beta   89.90680878
_cell_angle_gamma   89.90674074
_symmetry_Int_Tables_number   1
_chemical_formula_structural   Ti108Co54Ni53
_chemical_formula_sum   'Ti108 Co54 Ni53'
_cell_volume   3106.23703656
_cell_formula_units_Z   1
loop_
 _symmetry_equiv_pos_site_id
 _symmetry_equiv_pos_as_xyz
  1  'x, y, z'
loop_
 _atom_site_type_symbol
 _atom_site_label
 _atom_site_symmetry_multiplicity
 _atom_site_fract_x
 _atom_site_fract_y
 _atom_site_fract_z
 _atom_site_occupancy
  Ti  Ti0  1  0.05130590  0.11057168  0.27729377  1
  Ti  Ti1  1  0.05969513  0.09739582  0.57555351  1
  Ti  Ti2  1  0.06971520  0.03520085  0.92218824  1
  Ti  Ti3  1  -0.00540575  0.48375227  0.28889649  1
  Ti  Ti4  1  0.14494719  0.44255601  0.53922206  1
  Ti  Ti5  1  0.15505533  0.39625253  0.96621212  1
  Ti  Ti6  1  0.19569574  0.74872788  0.25015650  1
  Ti  Ti7  1  0.07511979  0.79476425  0.63668573  1
  Ti  Ti8  1  0.12760178  0.73123759  0.89542036  1
  Ti  Ti9  1  0.36076381  0.09055311  0.33744218  1
  Ti  Ti10  1  0.38362656  0.12330553  0.57067109  1
  Ti  Ti11  1  0.42939205  0.12281900  0.90753133  1
  Ti  Ti12  1  0.40475786  0.40072346  0.26002394  1
  Ti  Ti13  1  0.47627270  0.46596715  0.54892050  1
  Ti  Ti14  1  0.39163693  0.31977035  0.88714242  1
  Ti  Ti15  1  0.37575999  0.77911410  0.30476125  1
  Ti  Ti16  1  0.38456938  0.76475509  0.62850874  1
  Ti  Ti17  1  0.42625853  0.74289795  0.91752072  1
  Ti  Ti18  1  0.75192273  0.00354845  0.24784822  1
  Ti  Ti19  1  0.72154233  0.12029869  0.52478725  1
  Ti  Ti20  1  0.79272066  0.12492294  0.92780241  1
  Ti  Ti21  1  0.79884867  0.42634108  0.17446354  1
  Ti  Ti22  1  0.69379394  0.48264858  0.50333358  1
  Ti  Ti23  1  0.76678629  0.40366976  0.88119052  1
  Ti  Ti24  1  0.75728912  0.79934949  0.27313750  1
  Ti  Ti25  1  0.75969998  0.66547359  0.61642535  1
  Ti  Ti26  1  0.76665198  0.64729582  0.85624868  1
  Ti  Ti27  1  0.10008638  0.21851045  0.02165814  1
  Ti  Ti28  1  0.14705203  0.26082097  0.38333297  1
  Ti  Ti29  1  0.09783405  0.21462872  0.72236273  1
  Ti  Ti30  1  0.06515384  0.59607179  0.03509372  1
  Ti  Ti31  1  0.13657564  0.59154328  0.36389310  1
  Ti  Ti32  1  0.02713598  0.54891818  0.67352501  1
  Ti  Ti33  1  0.07983446  0.98445887  0.11428879  1
  Ti  Ti34  1  0.02841683  0.92458266  0.48791374  1
  Ti  Ti35  1  0.12566365  0.89882440  0.80193086  1
  Ti  Ti36  1  0.44171693  0.32365345  0.07084381  1
  Ti  Ti37  1  0.44087603  0.26836636  0.41949571  1
  Ti  Ti38  1  0.34060805  0.21610924  0.73176256  1
  Ti  Ti39  1  0.40697018  0.56603306  0.02755341  1
  Ti  Ti40  1  0.46245696  0.59016896  0.30980547  1
  Ti  Ti41  1  0.40307928  0.51375297  0.80960573  1
  Ti  Ti42  1  0.46077919  0.88879312  0.12379720  1
  Ti  Ti43  1  0.36486612  0.95114461  0.46160109  1
  Ti  Ti44  1  0.36644008  0.90587946  0.79587315  1
  Ti  Ti45  1  0.74369698  0.25381883  0.21691526  1
  Ti  Ti46  1  0.79435639  0.28376961  0.43675872  1
  Ti  Ti47  1  0.70401230  0.28417859  0.71131832  1
  Ti  Ti48  1  0.84885799  0.64728909  0.05874125  1
  Ti  Ti49  1  0.74586766  0.63917054  0.41774060  1
  Ti  Ti50  1  0.71138965  0.50435739  0.71797499  1
  Ti  Ti51  1  0.79267478  0.97057374  0.06859294  1
  Ti  Ti52  1  0.71187817  0.91548586  0.44133264  1
  Ti  Ti53  1  0.81217230  0.93097923  0.77527091  1
  Ti  Ti54  1  0.32248861  0.07229624  0.13350649  1
  Ti  Ti55  1  0.16246539  0.05262418  0.41760827  1
  Ti  Ti56  1  0.22461589  0.03675834  0.71144254  1
  Ti  Ti57  1  0.14948548  0.44812103  0.15769811  1
  Ti  Ti58  1  0.31570145  0.47162832  0.41218456  1
  Ti  Ti59  1  0.20620790  0.39194254  0.75540868  1
  Ti  Ti60  1  0.24052896  0.72124554  0.05790330  1
  Ti  Ti61  1  0.15690546  0.76192483  0.43876443  1
  Ti  Ti62  1  0.28905371  0.67356686  0.76598357  1
  Ti  Ti63  1  0.60936643  0.02473357  0.08158139  1
  Ti  Ti64  1  0.52748303  0.06470178  0.45765444  1
  Ti  Ti65  1  0.67443755  0.07004678  0.72182823  1
  Ti  Ti66  1  0.63854121  0.45354276  0.03580751  1
  Ti  Ti67  1  0.60809254  0.31284120  0.49787479  1
  Ti  Ti68  1  0.51784700  0.35307756  0.74924331  1
  Ti  Ti69  1  0.62773502  0.82960080  0.00907704  1
  Ti  Ti70  1  0.58910361  0.74643553  0.38108792  1
  Ti  Ti71  1  0.64926152  0.85324026  0.69562479  1
  Ti  Ti72  1  0.93214455  0.10970716  0.05209764  1
  Ti  Ti73  1  0.90551493  0.06089614  0.40388591  1
  Ti  Ti74  1  0.89883320  0.09556154  0.72733152  1
  Ti  Ti75  1  0.97391729  0.36632643  0.11961241  1
  Ti  Ti76  1  0.88202565  0.44487078  0.45399365  1
  Ti  Ti77  1  0.89821760  0.38767852  0.73286660  1
  Ti  Ti78  1  1.01832520  0.79006761  0.06687611  1
  Ti  Ti79  1  0.95658084  0.77501542  0.34493798  1
  Ti  Ti80  1  0.96006151  0.74318832  0.78609398  1
  Ti  Ti81  1  0.23434166  0.27294709  0.17553887  1
  Ti  Ti82  1  0.28883179  0.31014043  0.54970012  1
  Ti  Ti83  1  0.22946712  0.20101375  0.88586561  1
  Ti  Ti84  1  0.29320451  0.56786547  0.22227072  1
  Ti  Ti85  1  0.26709031  0.63340995  0.54104786  1
  Ti  Ti86  1  0.15141952  0.55012655  0.85464551  1
  Ti  Ti87  1  0.20741615  0.96219858  0.24235495  1
  Ti  Ti88  1  0.22334130  0.88151589  0.57235485  1
  Ti  Ti89  1  0.31293851  0.92893001  0.98871258  1
  Ti  Ti90  1  0.55635574  0.29127288  0.23447023  1
  Ti  Ti91  1  0.55082881  0.18404175  0.62850786  1
  Ti  Ti92  1  0.59309840  0.28042387  0.94113116  1
  Ti  Ti93  1  0.61922520  0.49235045  0.25201992  1
  Ti  Ti94  1  0.56040848  0.65430506  0.59654682  1
  Ti  Ti95  1  0.57984668  0.60185285  0.89257955  1
  Ti  Ti96  1  0.55528792  0.96756003  0.27801003  1
  Ti  Ti97  1  0.52446687  0.85611264  0.54614468  1
  Ti  Ti98  1  0.59503276  1.01113654  0.88855752  1
  Ti  Ti99  1  0.92370751  0.27127139  0.29368489  1
  Ti  Ti100  1  0.95320105  0.30151297  0.56570345  1
  Ti  Ti101  1  0.92016609  0.30784703  0.94288550  1
  Ti  Ti102  1  0.83922216  0.61180805  0.24873335  1
  Ti  Ti103  1  0.92264995  0.61868241  0.50345350  1
  Ti  Ti104  1  0.92987391  0.53867968  0.87888130  1
  Ti  Ti105  1  0.91678994  0.93303268  0.21425146  1
  Ti  Ti106  1  0.86391642  0.86490759  0.58956107  1
  Ti  Ti107  1  0.83202992  0.81702073  0.94052019  1
  Co  Co108  1  0.03709720  0.43304058  0.82304189  1
  Co  Co109  1  0.17178077  0.43338953  0.34185322  1
  Co  Co110  1  0.24688708  0.03694329  0.54860063  1
  Co  Co111  1  0.14417322  0.61165841  0.17660999  1
  Co  Co112  1  0.48775797  0.44157064  -0.04688965  1
  Co  Co113  1  0.64793039  0.87880681  0.17211121  1
  Co  Co114  1  0.05677562  0.06067091  0.76301596  1
  Co  Co115  1  0.22638840  0.14781149  0.28445388  1
  Co  Co116  1  0.78010544  0.80958296  0.09895398  1
  Co  Co117  1  -0.05037351  -0.06191473  0.03113259  1
  Co  Co118  1  0.47388967  0.07317316  0.18638124  1
  Co  Co119  1  0.86423330  0.90761556  0.38152817  1
  Co  Co120  1  0.03403555  0.51215362  0.46158013  1
  Co  Co121  1  0.51010918  0.42913043  0.38716418  1
  Co  Co122  1  0.68315568  0.80990262  0.85525518  1
  Co  Co123  1  0.12425655  0.68042888  0.73477267  1
  Co  Co124  1  0.06102283  0.37419403  0.67303950  1
  Co  Co125  1  0.11361335  0.27029029  0.54666183  1
  Co  Co126  1  0.77196055  0.35354197  0.58225003  1
  Co  Co127  1  0.54952569  0.53399540  0.71331489  1
  Co  Co128  1  0.22052812  0.17665011  0.61935680  1
  Co  Co129  1  0.30177015  0.64654556  0.37476456  1
  Co  Co130  1  0.15891680  0.12007134  0.14221674  1
  Co  Co131  1  0.29551047  0.63304544  -0.07704455  1
  Co  Co132  1  0.22623046  0.55544195  0.04478039  1
  Co  Co133  1  0.69812574  0.68439833  -0.00418232  1
  Co  Co134  1  0.00991732  0.44998603  -0.01281194  1
  Co  Co135  1  0.46924763  0.66029030  0.77961791  1
  Co  Co136  1  0.49919650  0.80174503  0.73396649  1
  Co  Co137  1  0.33588690  0.78686395  0.46942004  1
  Co  Co138  1  0.89997942  0.00397927  0.89048120  1
  Co  Co139  1  0.10378955  0.63616456  0.55611498  1
  Co  Co140  1  0.61180956  0.40247626  0.63200946  1
  Co  Co141  1  0.83530175  0.76630970  0.46321265  1
  Co  Co142  1  -0.00073324  0.85807865  0.90162833  1
  Co  Co143  1  0.90118558  0.76281601  0.18510698  1
  Co  Co144  1  0.24021560  0.82249943  0.72162091  1
  Co  Co145  1  0.45562665  0.03271162  0.02987995  1
  Co  Co146  1  0.50909134  0.15123153  0.32165145  1
  Co  Co147  1  0.88373341  0.03407021  0.56152086  1
  Co  Co148  1  0.00173433  0.76028402  0.49810462  1
  Co  Co149  1  0.27289756  0.17224894  0.45327174  1
  Co  Co150  1  0.66173244  0.64285362  0.27774746  1
  Co  Co151  1  0.86411328  0.24941163  0.10803655  1
  Co  Co152  1  -0.04293689  0.52912698  0.13569144  1
  Co  Co153  1  0.37634755  -0.05934204  0.26756048  1
  Co  Co154  1  -0.07567513  0.71360762  0.63277323  1
  Co  Co155  1  0.73632070  -0.04391551  -0.08034091  1
  Co  Co156  1  0.87929119  0.10908339  0.20743646  1
  Co  Co157  1  0.20249720  0.54776858  0.68376794  1
  Co  Co158  1  0.29242849  0.05189685  0.85443690  1
  Co  Co159  1  0.26943573  0.80167790  0.89343008  1
  Co  Co160  1  0.07668679  0.33027579  0.24871236  1
  Co  Co161  1  0.44913192  0.30317788  0.58999338  1
  Ni  Ni162  1  0.71314918  0.57491701  0.12218561  1
  Ni  Ni163  1  0.82867227  0.20043340  0.62074920  1
  Ni  Ni164  1  0.78991736  0.14937703  0.33949446  1
  Ni  Ni165  1  0.73827504  0.14222088  0.08961825  1
  Ni  Ni166  1  0.48295611  0.89744332  -0.05581309  1
  Ni  Ni167  1  0.14603728  0.88409789  -0.01271893  1
  Ni  Ni168  1  0.67416355  0.18098640  0.84232398  1
  Ni  Ni169  1  0.01522805  0.20624518  0.15899028  1
  Ni  Ni170  1  0.55815867  0.01206216  0.60669312  1
  Ni  Ni171  1  0.61363104  0.44272873  0.84909457  1
  Ni  Ni172  1  0.63041866  0.12908918  0.21599788  1
  Ni  Ni173  1  0.29933315  0.30032167  0.34374831  1
  Ni  Ni174  1  0.57911195  0.58037892  0.42935522  1
  Ni  Ni175  1  0.78612948  0.47799674  0.33129704  1
  Ni  Ni176  1  0.49271006  0.47402324  0.13667298  1
  Ni  Ni177  1  0.29627413  0.85545787  0.14662316  1
  Ni  Ni178  1  0.06232061  0.83138641  0.21849396  1
  Ni  Ni179  1  0.66997288  0.36848421  0.34524820  1
  Ni  Ni180  1  0.73330317  -0.02831663  0.60211314  1
  Ni  Ni181  1  0.32054835  0.43629082  0.11047136  1
  Ni  Ni182  1  0.30533243  0.45952889  0.93356385  1
  Ni  Ni183  1  0.28015316  0.30135009  0.01615856  1
  Ni  Ni184  1  0.04260350  -0.05095496  0.32613177  1
  Ni  Ni185  1  0.52575498  -0.04616291  0.75253316  1
  Ni  Ni186  1  -0.03133880  0.16195207  0.87352810  1
  Ni  Ni187  1  0.00519891  -0.04790637  0.65752292  1
  Ni  Ni188  1  0.64426737  0.21405287  0.37338520  1
  Ni  Ni189  1  0.48757085  0.87432531  0.38886438  1
  Ni  Ni190  1  0.83406654  0.47378245  0.01947592  1
  Ni  Ni191  1  0.02027734  0.35884588  0.41027424  1
  Ni  Ni192  1  -0.04056932  0.69367363  -0.05969188  1
  Ni  Ni193  1  0.30741455  0.47246932  0.58540484  1
  Ni  Ni194  1  0.21383291  0.06634436  -0.00086769  1
  Ni  Ni195  1  0.66280299  0.05751232  0.37243805  1
  Ni  Ni196  1  0.41803215  0.07176025  0.73386305  1
  Ni  Ni197  1  0.63681619  0.68486965  0.74860984  1
  Ni  Ni198  1  0.79899253  0.76625401  0.74083789  1
  Ni  Ni199  1  0.67847459  0.77818260  0.52750569  1
  Ni  Ni200  1  0.39258361  -0.05419627  0.63125002  1
  Ni  Ni201  1  0.83360588  0.24128771  0.80396519  1
  Ni  Ni202  1  0.40232348  0.59240095  0.64434364  1
  Ni  Ni203  1  0.53265479  0.18085878  0.06982916  1
  Ni  Ni204  1  0.01044866  0.65615578  0.23918324  1
  Ni  Ni205  1  0.07777861  0.28682611  0.86434728  1
  Ni  Ni206  1  0.52531298  0.19121615  0.79078514  1
  Ni  Ni207  1  0.36105503  0.38339219  0.70697122  1
  Ni  Ni208  1  0.23268996  0.89235103  0.38338609  1
  Ni  Ni209  1  0.74544226  0.31437792  0.02407712  1
  Ni  Ni210  1  0.39292493  0.22185608  0.21842350  1
  Ni  Ni211  1  0.44872006  0.67242509  0.46473231  1
  Ni  Ni212  1  0.84443471  0.49722403  0.60658539  1
  Ni  Ni213  1  0.87087201  0.59009536  0.73220030  1
  Ni  Ni214  1  -0.00007656  0.19263895  0.43983360  1
