# generated using pymatgen
data_Ti108Co54Ni53
_symmetry_space_group_name_H-M   'P 1'
_cell_length_a   14.66973662
_cell_length_b   14.61845274
_cell_length_c   14.63929402
_cell_angle_alpha   90.38521098
_cell_angle_beta   90.21841165
_cell_angle_gamma   89.66094202
_symmetry_Int_Tables_number   1
_chemical_formula_structural   Ti108Co54Ni53
_chemical_formula_sum   'Ti108 Co54 Ni53'
_cell_volume   3139.23153350
_cell_formula_units_Z   1
loop_
 _symmetry_equiv_pos_site_id
 _symmetry_equiv_pos_as_xyz
  1  'x, y, z'
loop_
 _atom_site_type_symbol
 _atom_site_label
 _atom_site_symmetry_multiplicity
 _atom_site_fract_x
 _atom_site_fract_y
 _atom_site_fract_z
 _atom_site_occupancy
  Ti  Ti0  1  0.06389107  0.13496224  0.30624030  1
  Ti  Ti1  1  0.06510770  0.12487129  0.51269683  1
  Ti  Ti2  1  0.08439991  0.04598929  0.85686533  1
  Ti  Ti3  1  0.04472459  0.49050518  0.31557181  1
  Ti  Ti4  1  0.07223427  0.47630519  0.62923976  1
  Ti  Ti5  1  0.08839108  0.44330453  0.93336338  1
  Ti  Ti6  1  0.15906368  0.80689780  0.24397141  1
  Ti  Ti7  1  0.10250383  0.79428933  0.57191833  1
  Ti  Ti8  1  0.12277320  0.80041901  0.87201725  1
  Ti  Ti9  1  0.38126395  0.11452486  0.27208489  1
  Ti  Ti10  1  0.50506716  0.08408067  0.59318750  1
  Ti  Ti11  1  0.38908742  0.08914276  0.91900590  1
  Ti  Ti12  1  0.44372553  0.41969506  0.28172321  1
  Ti  Ti13  1  0.37474098  0.38042890  0.51646271  1
  Ti  Ti14  1  0.40745002  0.38432131  0.97155045  1
  Ti  Ti15  1  0.48278338  0.72874245  0.27405482  1
  Ti  Ti16  1  0.41074145  0.73333312  0.49393437  1
  Ti  Ti17  1  0.38454468  0.70069046  0.98330295  1
  Ti  Ti18  1  0.78095046  0.06120005  0.22845095  1
  Ti  Ti19  1  0.73585507  0.05016803  0.60455076  1
  Ti  Ti20  1  0.75909684  0.02969475  0.88523218  1
  Ti  Ti21  1  0.65993777  0.37169137  0.23699891  1
  Ti  Ti22  1  0.73715747  0.36202786  0.59497950  1
  Ti  Ti23  1  0.78807501  0.35394893  0.95408814  1
  Ti  Ti24  1  0.75655182  0.69275471  0.18121877  1
  Ti  Ti25  1  0.77933539  0.80797079  0.51263524  1
  Ti  Ti26  1  0.81934366  0.71083350  0.91556997  1
  Ti  Ti27  1  0.12717756  0.18732731  0.10104739  1
  Ti  Ti28  1  0.09723751  0.31816294  0.39403855  1
  Ti  Ti29  1  0.12147603  0.20080634  0.69923281  1
  Ti  Ti30  1  0.06800271  0.52556803  0.12136451  1
  Ti  Ti31  1  0.01267588  0.61922426  0.48095359  1
  Ti  Ti32  1  0.08397600  0.60142956  0.80635351  1
  Ti  Ti33  1  0.01619069  0.93119960  0.11563552  1
  Ti  Ti34  1  0.04656857  0.94010193  0.40087072  1
  Ti  Ti35  1  0.15076472  0.93434016  0.70030577  1
  Ti  Ti36  1  0.38886662  0.29057572  0.14900441  1
  Ti  Ti37  1  0.38528703  0.19680842  0.46989082  1
  Ti  Ti38  1  0.41462997  0.27767320  0.68619056  1
  Ti  Ti39  1  0.46467956  0.57943504  0.11308438  1
  Ti  Ti40  1  0.36390182  0.61052989  0.35063492  1
  Ti  Ti41  1  0.37254721  0.60256614  0.72985262  1
  Ti  Ti42  1  0.43618214  0.98940273  0.09437641  1
  Ti  Ti43  1  0.40580318  1.00678007  0.42558186  1
  Ti  Ti44  1  0.38263979  0.94260168  0.75323560  1
  Ti  Ti45  1  0.71435238  0.20384126  0.08835474  1
  Ti  Ti46  1  0.73494311  0.28747973  0.39437778  1
  Ti  Ti47  1  0.83852739  0.25490173  0.79796685  1
  Ti  Ti48  1  0.73662859  0.56521395  0.02341844  1
  Ti  Ti49  1  0.71910371  0.61051149  0.44836244  1
  Ti  Ti50  1  0.79201985  0.45719275  0.76898360  1
  Ti  Ti51  1  0.68164652  0.90921110  0.12506402  1
  Ti  Ti52  1  0.70361165  0.92964984  0.35916698  1
  Ti  Ti53  1  0.78520312  0.86175102  0.79422649  1
  Ti  Ti54  1  0.22241441  -0.00441837  0.11390262  1
  Ti  Ti55  1  0.23490128  0.05909041  0.46370054  1
  Ti  Ti56  1  0.26261821  0.09825400  0.77466944  1
  Ti  Ti57  1  0.24773740  0.43930876  0.09511096  1
  Ti  Ti58  1  0.26329161  0.42606527  0.35292311  1
  Ti  Ti59  1  0.26404581  0.44142346  0.66946151  1
  Ti  Ti60  1  0.21381805  0.77668724  0.04490989  1
  Ti  Ti61  1  0.17996142  0.72135090  0.42292087  1
  Ti  Ti62  1  0.26207539  0.77573024  0.73678089  1
  Ti  Ti63  1  0.57760068  0.08630899  -0.00391541  1
  Ti  Ti64  1  0.68520235  0.10707454  0.41360840  1
  Ti  Ti65  1  0.56260854  0.04443003  0.79882595  1
  Ti  Ti66  1  0.64250743  0.39154927  0.04680689  1
  Ti  Ti67  1  0.54821732  0.33858108  0.43248488  1
  Ti  Ti68  1  0.53472382  0.41285513  0.79926533  1
  Ti  Ti69  1  0.51682410  0.80976442  0.08863118  1
  Ti  Ti70  1  0.59769359  0.78862940  0.42572642  1
  Ti  Ti71  1  0.54505627  0.82743964  0.77264765  1
  Ti  Ti72  1  0.88359333  0.09033555  0.06318909  1
  Ti  Ti73  1  0.88584631  0.07201945  0.40826763  1
  Ti  Ti74  1  0.87648073  0.04855355  0.74543625  1
  Ti  Ti75  1  0.92440439  0.43822708  0.04579842  1
  Ti  Ti76  1  0.88699368  0.37757564  0.36132746  1
  Ti  Ti77  1  1.03290349  0.34828378  0.76529893  1
  Ti  Ti78  1  0.96718918  0.71972891  0.17125719  1
  Ti  Ti79  1  0.94554948  0.75731781  0.37340400  1
  Ti  Ti80  1  0.92007546  0.76772735  0.68602291  1
  Ti  Ti81  1  0.22997279  0.24976045  0.23457070  1
  Ti  Ti82  1  0.21080979  0.26761223  0.54760082  1
  Ti  Ti83  1  0.27642320  0.27173026  0.87770949  1
  Ti  Ti84  1  0.19916503  0.59688880  0.24855237  1
  Ti  Ti85  1  0.28424348  0.56062466  0.52772519  1
  Ti  Ti86  1  0.27229986  0.52484400  0.89374671  1
  Ti  Ti87  1  0.32557137  0.91588549  0.26603584  1
  Ti  Ti88  1  0.28882809  0.87472482  0.53692287  1
  Ti  Ti89  1  0.32287699  0.90327099  0.95920667  1
  Ti  Ti90  1  0.54362457  0.23107873  0.26471427  1
  Ti  Ti91  1  0.62591246  0.21839156  0.56430664  1
  Ti  Ti92  1  0.61660922  0.25317907  0.89729066  1
  Ti  Ti93  1  0.58177327  0.52574612  0.32696625  1
  Ti  Ti94  1  0.57312806  0.49646094  0.54547504  1
  Ti  Ti95  1  0.58370365  0.62489942  0.92606866  1
  Ti  Ti96  1  0.52299913  0.92349355  0.25962143  1
  Ti  Ti97  1  0.49340041  0.89365102  0.58616420  1
  Ti  Ti98  1  0.65048406  0.89197039  0.93549514  1
  Ti  Ti99  1  0.85315421  0.29633468  0.17195854  1
  Ti  Ti100  1  0.93011284  0.20380048  0.62489856  1
  Ti  Ti101  1  0.96759112  0.24638955  0.97206334  1
  Ti  Ti102  1  0.87095259  0.59595402  0.32176324  1
  Ti  Ti103  1  0.86252297  0.49997580  0.53457064  1
  Ti  Ti104  1  0.97421643  0.62310714  0.97451949  1
  Ti  Ti105  1  0.84227801  0.86785903  0.23506047  1
  Ti  Ti106  1  0.94742598  0.97040015  0.58046814  1
  Ti  Ti107  1  0.93367312  0.90312548  0.93074170  1
  Co  Co108  1  0.84721331  -0.06079180  0.08874301  1
  Co  Co109  1  0.52758152  0.78215140  -0.06616851  1
  Co  Co110  1  0.70520861  0.43973663  0.44826042  1
  Co  Co111  1  0.04801449  0.30931998  0.57146249  1
  Co  Co112  1  -0.04110091  0.50636995  0.77227159  1
  Co  Co113  1  0.70404522  0.14537424  0.79275481  1
  Co  Co114  1  0.38374467  0.80906694  0.84549617  1
  Co  Co115  1  0.27828503  0.71016215  0.59114186  1
  Co  Co116  1  0.03519926  0.05515557  0.68611178  1
  Co  Co117  1  0.26210078  0.68798821  0.87714151  1
  Co  Co118  1  0.86856143  0.19536183  0.29846975  1
  Co  Co119  1  0.81033152  0.90700859  0.64300449  1
  Co  Co120  1  0.76638869  0.20079319  0.66265156  1
  Co  Co121  1  0.32079205  0.16866246  0.61502621  1
  Co  Co122  1  0.19006975  0.07617375  0.62191224  1
  Co  Co123  1  0.84430963  0.53455588  -0.09119573  1
  Co  Co124  1  0.17817361  0.41806457  0.80091691  1
  Co  Co125  1  0.66931456  0.44837039  0.88604966  1
  Co  Co126  1  0.18223269  0.42170670  0.50855695  1
  Co  Co127  1  0.88429761  0.33723848  0.51976505  1
  Co  Co128  1  0.41685012  0.76933315  0.67172411  1
  Co  Co129  1  0.70388749  0.20123090  0.25614035  1
  Co  Co130  1  0.76283260  0.48305335  0.30707105  1
  Co  Co131  1  0.25186975  0.28767413  0.72112976  1
  Co  Co132  1  0.20952420  0.90776798  0.39109360  1
  Co  Co133  1  0.56778599  0.25738416  0.09091372  1
  Co  Co134  1  0.52881299  0.16207482  0.42807212  1
  Co  Co135  1  0.90695846  0.39097266  0.66819947  1
  Co  Co136  1  0.13862133  0.62819269  0.58485817  1
  Co  Co137  1  0.68091996  0.32041048  0.75769638  1
  Co  Co138  1  0.36161722  0.40144233  0.80716694  1
  Co  Co139  1  0.53851305  0.63844142  0.43982290  1
  Co  Co140  1  0.96249334  0.75852051  0.84908126  1
  Co  Co141  1  0.78764855  0.18241105  -0.05785969  1
  Co  Co142  1  0.00923720  0.30221384  0.25874668  1
  Co  Co143  1  0.42197452  0.11669426  0.74672163  1
  Co  Co144  1  0.45305492  0.26091418  0.84616369  1
  Co  Co145  1  0.72861558  0.03948235  0.04237281  1
  Co  Co146  1  0.12583671  -0.04374832  0.53886116  1
  Co  Co147  1  0.46411522  0.67523268  0.82805612  1
  Co  Co148  1  0.66542551  -0.04767637  0.72471007  1
  Co  Co149  1  0.00352835  0.86271707  0.26683864  1
  Co  Co150  1  0.61903250  0.07101486  0.15445422  1
  Co  Co151  1  0.00692255  0.44362423  0.47373183  1
  Co  Co152  1  0.44802268  0.85887876  0.40136499  1
  Co  Co153  1  0.21232451  0.59648926  0.72026214  1
  Co  Co154  1  0.24043938  0.06138266  0.29933939  1
  Co  Co155  1  0.65592946  0.66160398  0.30788812  1
  Co  Co156  1  0.77500975  0.76444451  0.35117669  1
  Co  Co157  1  0.23021309  -0.05487097  0.84291549  1
  Co  Co158  1  0.05793129  0.65906430  0.30112665  1
  Co  Co159  1  0.64631183  0.81369570  0.24897536  1
  Co  Co160  1  -0.05706375  0.02280262  0.25022639  1
  Co  Co161  1  0.08322317  0.74537372  0.72288804  1
  Ni  Ni162  1  0.14088521  0.61731008  -0.02888318  1
  Ni  Ni163  1  -0.02514179  0.16876050  0.16809704  1
  Ni  Ni164  1  0.62714715  0.52393513  0.15877625  1
  Ni  Ni165  1  0.88332138  0.58756242  0.12191074  1
  Ni  Ni166  1  0.65803628  0.91148237  0.56026379  1
  Ni  Ni167  1  0.36880575  0.28428494  0.33264196  1
  Ni  Ni168  1  0.67980198  0.74393985  0.02001925  1
  Ni  Ni169  1  0.12127210  0.21744703  -0.07621475  1
  Ni  Ni170  1  0.31225514  0.77535342  0.34958477  1
  Ni  Ni171  1  0.30995989  0.13681497  0.09983165  1
  Ni  Ni172  1  0.43602066  0.45738350  0.66021593  1
  Ni  Ni173  1  0.92365682  0.08273605  0.90529185  1
  Ni  Ni174  1  0.32323758  0.70141076  0.19515810  1
  Ni  Ni175  1  -0.00612795  0.90167241  0.76514491  1
  Ni  Ni176  1  0.15797772  0.55631350  0.41754596  1
  Ni  Ni177  1  0.44221569  0.49763044  0.43294311  1
  Ni  Ni178  1  0.35328445  0.01301485  0.60746560  1
  Ni  Ni179  1  0.05072442  0.06958047  0.01785882  1
  Ni  Ni180  1  0.09359195  0.35068807  0.07016407  1
  Ni  Ni181  1  -0.07841089  0.45293996  0.21620254  1
  Ni  Ni182  1  0.49992205  0.41280040  0.12744324  1
  Ni  Ni183  1  0.22257969  0.07944366  -0.03637699  1
  Ni  Ni184  1  0.11786955  0.68182637  0.12793495  1
  Ni  Ni185  1  0.34275074  0.52736033  0.20395536  1
  Ni  Ni186  1  0.86371652  0.66893957  0.53533640  1
  Ni  Ni187  1  -0.00599994  0.18301511  0.80111101  1
  Ni  Ni188  1  0.92841769  0.39364715  0.88113041  1
  Ni  Ni189  1  0.11613146  -0.02164376  0.24817744  1
  Ni  Ni190  1  0.44264999  0.59900452  0.57525319  1
  Ni  Ni191  1  -0.05006472  0.81606931  0.52364567  1
  Ni  Ni192  1  0.66916253  0.74023550  0.84688405  1
  Ni  Ni193  1  0.80815673  0.18746120  0.50546537  1
  Ni  Ni194  1  0.56047227  0.35366242  0.63113444  1
  Ni  Ni195  1  0.56582138  -0.01809588  0.44711447  1
  Ni  Ni196  1  0.27013506  0.60490751  0.07009384  1
  Ni  Ni197  1  0.02686768  0.78420314  0.01354167  1
  Ni  Ni198  1  0.14652930  0.39775342  0.22332314  1
  Ni  Ni199  1  0.84993378  0.77928737  0.06203556  1
  Ni  Ni200  1  0.56437758  0.20188861  0.72430125  1
  Ni  Ni201  1  0.13170355  0.92649011  -0.01595147  1
  Ni  Ni202  1  -0.01749263  0.62040531  0.65079477  1
  Ni  Ni203  1  0.25312033  0.28306345  0.03982476  1
  Ni  Ni204  1  0.86893037  -0.09261394  0.40470805  1
  Ni  Ni205  1  0.53074525  0.48543149  -0.02220898  1
  Ni  Ni206  1  0.35200951  0.84365862  0.11890493  1
  Ni  Ni207  1  -0.04072816  0.22531691  0.43160412  1
  Ni  Ni208  1  0.22522479  0.20560306  0.38862752  1
  Ni  Ni209  1  0.48641690  -0.05567228  0.92170197  1
  Ni  Ni210  1  0.56899508  0.06825702  0.30215791  1
  Ni  Ni211  1  0.43229452  0.21980373  0.00002962  1
  Ni  Ni212  1  0.47300464  0.13803011  0.13713906  1
  Ni  Ni213  1  0.59477797  0.68050223  0.14972869  1
  Ni  Ni214  1  0.77767825  0.45418717  0.14127619  1
