# generated using pymatgen
data_Ti108Co54Ni53
_symmetry_space_group_name_H-M   'P 1'
_cell_length_a   14.71157614
_cell_length_b   14.69816653
_cell_length_c   14.71333517
_cell_angle_alpha   89.81808854
_cell_angle_beta   90.03484541
_cell_angle_gamma   89.99838794
_symmetry_Int_Tables_number   1
_chemical_formula_structural   Ti108Co54Ni53
_chemical_formula_sum   'Ti108 Co54 Ni53'
_cell_volume   3181.49486289
_cell_formula_units_Z   1
loop_
 _symmetry_equiv_pos_site_id
 _symmetry_equiv_pos_as_xyz
  1  'x, y, z'
loop_
 _atom_site_type_symbol
 _atom_site_label
 _atom_site_symmetry_multiplicity
 _atom_site_fract_x
 _atom_site_fract_y
 _atom_site_fract_z
 _atom_site_occupancy
  Ti  Ti0  1  0.04131033  0.12019664  0.25969780  1
  Ti  Ti1  1  0.03339710  0.14124170  0.55707073  1
  Ti  Ti2  1  -0.06178802  0.12611539  0.95119338  1
  Ti  Ti3  1  0.03130452  0.46388971  0.30237368  1
  Ti  Ti4  1  0.07288734  0.43029049  0.59871136  1
  Ti  Ti5  1  0.07883273  0.41985990  0.95853385  1
  Ti  Ti6  1  0.14398795  0.75425386  0.28961935  1
  Ti  Ti7  1  0.10978412  0.63675357  0.56005385  1
  Ti  Ti8  1  0.05975622  0.75100507  0.91220943  1
  Ti  Ti9  1  0.36560171  0.09293258  0.24878951  1
  Ti  Ti10  1  0.52781031  0.07239256  0.55842734  1
  Ti  Ti11  1  0.38570826  0.07691098  0.91393258  1
  Ti  Ti12  1  0.33412837  0.38691095  0.22062552  1
  Ti  Ti13  1  0.48787412  0.39187784  0.58807089  1
  Ti  Ti14  1  0.38028490  0.39262501  0.90224901  1
  Ti  Ti15  1  0.48357823  0.75382812  0.23719406  1
  Ti  Ti16  1  0.42426940  0.70440316  0.55539161  1
  Ti  Ti17  1  0.49375495  0.72759976  0.91826032  1
  Ti  Ti18  1  0.71250689  0.10903659  0.18932283  1
  Ti  Ti19  1  0.74188126  0.02584033  0.60237570  1
  Ti  Ti20  1  0.73452299  0.06157983  0.98512920  1
  Ti  Ti21  1  0.75286953  0.42984159  0.27560509  1
  Ti  Ti22  1  0.80074600  0.37784906  0.62244149  1
  Ti  Ti23  1  0.72039785  0.38979112  0.96665216  1
  Ti  Ti24  1  0.78510207  0.76465983  0.23075462  1
  Ti  Ti25  1  0.73675155  0.70900821  0.56049627  1
  Ti  Ti26  1  0.76662261  0.79376687  0.85353372  1
  Ti  Ti27  1  0.07190471  0.31673447  0.15117475  1
  Ti  Ti28  1  0.12572787  0.28908493  0.44594840  1
  Ti  Ti29  1  0.13006968  0.26625714  0.68504914  1
  Ti  Ti30  1  -0.01739345  0.58985362  0.04511315  1
  Ti  Ti31  1  0.03293185  0.62440215  0.39472304  1
  Ti  Ti32  1  0.08565185  0.57443905  0.73515176  1
  Ti  Ti33  1  0.15002981  0.89372872  0.02787529  1
  Ti  Ti34  1  0.02873449  0.81074561  0.42342114  1
  Ti  Ti35  1  0.00856974  0.89631558  0.66969503  1
  Ti  Ti36  1  0.42982466  0.24061240  0.00271830  1
  Ti  Ti37  1  0.45413631  0.23683058  0.45104984  1
  Ti  Ti38  1  0.46328269  0.27981707  0.76979412  1
  Ti  Ti39  1  0.37050566  0.69642307  0.06871501  1
  Ti  Ti40  1  0.47164676  0.59550507  0.38219743  1
  Ti  Ti41  1  0.45928020  0.57460644  0.82539854  1
  Ti  Ti42  1  0.40364580  0.92464372  0.15802566  1
  Ti  Ti43  1  0.41049518  1.00925478  0.42407085  1
  Ti  Ti44  1  0.43679967  0.91741467  0.73406316  1
  Ti  Ti45  1  0.71692125  0.31533230  0.14260091  1
  Ti  Ti46  1  0.77784774  0.21469702  0.36423727  1
  Ti  Ti47  1  0.73780005  0.26737161  0.78411069  1
  Ti  Ti48  1  0.77768935  0.61936639  0.05674411  1
  Ti  Ti49  1  0.70569655  0.57790526  0.40658055  1
  Ti  Ti50  1  0.75361384  0.56727445  0.70216883  1
  Ti  Ti51  1  0.78583441  0.91699360  0.10509276  1
  Ti  Ti52  1  0.73951015  0.91943414  0.41998358  1
  Ti  Ti53  1  0.82722871  0.94650411  0.74475294  1
  Ti  Ti54  1  0.26941453  0.07222078  0.07684329  1
  Ti  Ti55  1  0.27471490  0.15591190  0.41217518  1
  Ti  Ti56  1  0.39405525  0.10434984  0.71732153  1
  Ti  Ti57  1  0.17177488  0.48321534  0.13861749  1
  Ti  Ti58  1  0.28345559  0.47035047  0.41509728  1
  Ti  Ti59  1  0.29491582  0.37142017  0.73540745  1
  Ti  Ti60  1  0.16589101  0.67775200  0.10765102  1
  Ti  Ti61  1  0.22828008  0.73481071  0.46336648  1
  Ti  Ti62  1  0.29762689  0.72047236  0.73558010  1
  Ti  Ti63  1  0.58644987  -0.00323165  0.09730011  1
  Ti  Ti64  1  0.56493579  0.12535438  0.35505500  1
  Ti  Ti65  1  0.60303242  0.13604971  0.71204480  1
  Ti  Ti66  1  0.50358886  0.43273631  0.08654464  1
  Ti  Ti67  1  0.58224196  0.42220364  0.40115611  1
  Ti  Ti68  1  0.61031758  0.42621319  0.75577327  1
  Ti  Ti69  1  0.59144228  0.66841151  0.10623188  1
  Ti  Ti70  1  0.58683142  0.77136647  0.42594609  1
  Ti  Ti71  1  0.60010117  0.82667715  0.77371524  1
  Ti  Ti72  1  0.89913184  0.05400497  0.13003702  1
  Ti  Ti73  1  0.99597680  -0.00583719  0.43224423  1
  Ti  Ti74  1  0.90440617  0.15745639  0.71875050  1
  Ti  Ti75  1  0.90386815  0.33958764  0.05545746  1
  Ti  Ti76  1  0.93164151  0.35992008  0.43449956  1
  Ti  Ti77  1  0.99922322  0.39271168  0.77826651  1
  Ti  Ti78  1  0.94941967  0.77149012  0.09973381  1
  Ti  Ti79  1  0.86297398  0.68444417  0.41476073  1
  Ti  Ti80  1  0.90659795  0.65662153  0.78910880  1
  Ti  Ti81  1  0.21713217  0.23777938  0.23806000  1
  Ti  Ti82  1  0.30295823  0.31546387  0.55110735  1
  Ti  Ti83  1  0.22889505  0.27398322  1.00879941  1
  Ti  Ti84  1  0.31425732  0.64345366  0.26190660  1
  Ti  Ti85  1  0.25882480  0.52453763  0.60591621  1
  Ti  Ti86  1  0.26490323  0.53598759  0.95431387  1
  Ti  Ti87  1  0.30167943  0.85767815  0.30995161  1
  Ti  Ti88  1  0.20763372  0.99848301  0.53622428  1
  Ti  Ti89  1  0.33803716  0.87202843  0.98168504  1
  Ti  Ti90  1  0.52640510  0.22121700  0.18184991  1
  Ti  Ti91  1  0.64234380  0.27059930  0.50550702  1
  Ti  Ti92  1  0.58717873  0.26735048  0.90995833  1
  Ti  Ti93  1  0.59578347  0.55149971  0.24723230  1
  Ti  Ti94  1  0.55986777  0.58003858  0.65517759  1
  Ti  Ti95  1  0.60996987  0.56405493  0.95777129  1
  Ti  Ti96  1  0.62259205  0.90229346  0.26626258  1
  Ti  Ti97  1  0.50252228  0.88285928  0.55861967  1
  Ti  Ti98  1  0.53161863  0.92145100  0.93344778  1
  Ti  Ti99  1  0.89002073  0.23608413  0.22735573  1
  Ti  Ti100  1  0.85565775  0.20601183  0.53281174  1
  Ti  Ti101  1  0.89794384  0.29202521  0.88158194  1
  Ti  Ti102  1  0.89715427  0.58847676  0.22781389  1
  Ti  Ti103  1  0.91795534  0.62694453  0.60025280  1
  Ti  Ti104  1  0.86962057  0.49893329  0.91459552  1
  Ti  Ti105  1  0.95850150  0.91359852  0.24415303  1
  Ti  Ti106  1  0.86186304  0.87142152  0.54359344  1
  Ti  Ti107  1  0.88074496  0.92249224  0.93665708  1
  Co  Co108  1  0.47062143  0.89660241  0.33056351  1
  Co  Co109  1  0.38902548  0.82188823  0.84077214  1
  Co  Co110  1  0.31877468  0.61874023  0.44032801  1
  Co  Co111  1  0.65790850  0.13162001  0.86204379  1
  Co  Co112  1  0.29591531  0.21973536  0.68249249  1
  Co  Co113  1  0.51855373  0.03341044  0.23894886  1
  Co  Co114  1  0.60322095  -0.03355318  0.68359812  1
  Co  Co115  1  0.58926830  0.38478824  0.21763946  1
  Co  Co116  1  0.33056356  0.22988697  0.85591721  1
  Co  Co117  1  0.35454578  0.13579039  0.55027019  1
  Co  Co118  1  0.69164381  0.97203708  0.82965503  1
  Co  Co119  1  0.19322983  0.17230941  0.55727740  1
  Co  Co120  1  0.58365643  0.61101552  0.50018383  1
  Co  Co121  1  0.91962880  0.48664425  0.67213598  1
  Co  Co122  1  0.83071455  0.47194593  0.10458759  1
  Co  Co123  1  0.62148750  0.65558928  0.80327837  1
  Co  Co124  1  -0.06212587  0.82831052  0.81552730  1
  Co  Co125  1  0.42638841  0.39418205  0.42255386  1
  Co  Co126  1  0.00144484  0.46458217  0.13046086  1
  Co  Co127  1  0.63866351  0.71559460  0.28508724  1
  Co  Co128  1  0.74197604  0.60360996  0.21827313  1
  Co  Co129  1  0.12051340  0.10217686  0.40685596  1
  Co  Co130  1  0.33718831  0.67058935  -0.10551676  1
  Co  Co131  1  0.05430007  0.25959632  -0.02537658  1
  Co  Co132  1  0.47136977  0.22485276  0.61621059  1
  Co  Co133  1  -0.02874794  0.51365098  0.49805778  1
  Co  Co134  1  0.45417034  0.59482629  0.17983983  1
  Co  Co135  1  0.03584438  0.29284215  0.31004851  1
  Co  Co136  1  0.34930879  0.23387385  0.13982247  1
  Co  Co137  1  -0.03457234  0.74263851  0.26915614  1
  Co  Co138  1  0.47211693  0.72652667  0.73337317  1
  Co  Co139  1  0.53751852  0.42285332  0.90237158  1
  Co  Co140  1  0.10448396  -0.05202719  0.30507539  1
  Co  Co141  1  0.69055937  -0.10351302  -0.03356749  1
  Co  Co142  1  0.64295734  0.74213284  -0.03677378  1
  Co  Co143  1  0.13786884  0.16522346  0.10944132  1
  Co  Co144  1  0.16749806  0.88361807  0.43377247  1
  Co  Co145  1  0.22259623  0.75071061  -0.02564558  1
  Co  Co146  1  0.78722645  0.77763238  0.02987610  1
  Co  Co147  1  0.58549251  -0.03166880  0.43582676  1
  Co  Co148  1  -0.01725858  0.18653099  0.09661264  1
  Co  Co149  1  0.81891850  0.41005673  0.78245581  1
  Co  Co150  1  0.76160145  0.64168044  0.89474915  1
  Co  Co151  1  0.76394572  0.22927873  -0.05729629  1
  Co  Co152  1  0.90254620  0.39175112  0.23973804  1
  Co  Co153  1  0.66961992  0.48876976  0.10838919  1
  Co  Co154  1  0.01240203  0.56281649  0.87722506  1
  Co  Co155  1  0.78980253  -0.05728675  0.25563796  1
  Co  Co156  1  0.31785436  0.54337211  0.12082706  1
  Co  Co157  1  0.40977517  0.23950774  0.29605914  1
  Co  Co158  1  0.32626726  0.39444190  0.05718999  1
  Co  Co159  1  0.43683240  0.44786719  0.73286779  1
  Co  Co160  1  0.81628696  0.18817362  0.08115243  1
  Co  Co161  1  0.12769039  0.59781474  -0.02226104  1
  Ni  Ni162  1  0.15633123  0.43705209  0.77681426  1
  Ni  Ni163  1  -0.03208460  0.29445781  0.62792677  1
  Ni  Ni164  1  0.68520015  0.11692144  0.48430689  1
  Ni  Ni165  1  -0.01373790  0.76405936  0.56906865  1
  Ni  Ni166  1  -0.08338316  0.02467581  0.60297817  1
  Ni  Ni167  1  0.22498735  -0.05874999  0.17343057  1
  Ni  Ni168  1  0.54063581  0.09979787  -0.03165423  1
  Ni  Ni169  1  0.70822780  0.50486734  0.84717061  1
  Ni  Ni170  1  0.87796283  0.07479317  0.29917409  1
  Ni  Ni171  1  0.32985735  0.86946834  0.48660277  1
  Ni  Ni172  1  0.19348084  0.07809576  0.23958635  1
  Ni  Ni173  1  0.45776118  0.46332208  0.27797806  1
  Ni  Ni174  1  0.08898665  0.84298494  0.16947986  1
  Ni  Ni175  1  0.49164599  0.82076865  0.06574111  1
  Ni  Ni176  1  0.84176996  0.05782492  0.45760266  1
  Ni  Ni177  1  0.64210406  0.19508884  0.05437765  1
  Ni  Ni178  1  0.03003003  0.21291437  0.81443784  1
  Ni  Ni179  1  0.61642731  0.29966617  0.66076695  1
  Ni  Ni180  1  0.43617673  0.55634356  -0.00426813  1
  Ni  Ni181  1  0.40866657  0.75490167  0.39313912  1
  Ni  Ni182  1  0.58328658  0.74186652  0.61148180  1
  Ni  Ni183  1  0.05455349  0.73806261  0.72059004  1
  Ni  Ni184  1  0.67441614  0.87159414  0.56717645  1
  Ni  Ni185  1  0.16507165  0.29532924  0.85469215  1
  Ni  Ni186  1  0.71361973  0.05751111  0.33953894  1
  Ni  Ni187  1  0.17652786  0.66599139  0.83650551  1
  Ni  Ni188  1  0.14163532  0.81328878  0.58561360  1
  Ni  Ni189  1  0.29198609  0.31197297  0.37774030  1
  Ni  Ni190  1  0.87133067  0.84338504  0.36649497  1
  Ni  Ni191  1  0.65443855  0.45377711  0.56508141  1
  Ni  Ni192  1  0.85372688  0.77880192  0.68265227  1
  Ni  Ni193  1  0.06034159  0.61500270  0.21640817  1
  Ni  Ni194  1  -0.01302802  -0.07131173  0.06236667  1
  Ni  Ni195  1  -0.03720950  0.17908677  0.40331824  1
  Ni  Ni196  1  0.52476565  0.03711912  0.81635545  1
  Ni  Ni197  1  0.81604500  0.09289055  0.83979318  1
  Ni  Ni198  1  0.18045580  0.57739114  0.32896741  1
  Ni  Ni199  1  -0.09566135  0.70793522  -0.05410742  1
  Ni  Ni200  1  0.39071296  0.59375113  0.67213783  1
  Ni  Ni201  1  0.26863030  0.79359172  0.15112819  1
  Ni  Ni202  1  0.86770273  0.50902432  0.37303423  1
  Ni  Ni203  1  0.17657951  0.39635287  0.29508668  1
  Ni  Ni204  1  0.42283161  0.52703670  0.52755945  1
  Ni  Ni205  1  0.36727677  -0.01678828  0.59627905  1
  Ni  Ni206  1  0.63603427  0.27825150  0.32288711  1
  Ni  Ni207  1  0.73843957  0.19546015  0.63431468  1
  Ni  Ni208  1  0.80583678  0.52494721  0.53125949  1
  Ni  Ni209  1  0.64485753  0.82479230  0.11720566  1
  Ni  Ni210  1  0.43729692  0.08868422  0.09378212  1
  Ni  Ni211  1  0.28409735  0.54520118  0.78346212  1
  Ni  Ni212  1  0.75681822  0.38272394  0.44109535  1
  Ni  Ni213  1  0.12168849  0.47216227  0.44980478  1
  Ni  Ni214  1  0.25185604  0.00038071  0.36404841  1
