# generated using pymatgen
data_Ti108Co54Ni53
_symmetry_space_group_name_H-M   'P 1'
_cell_length_a   14.62739054
_cell_length_b   14.60652951
_cell_length_c   14.64497179
_cell_angle_alpha   90.04972462
_cell_angle_beta   89.66094014
_cell_angle_gamma   89.82834654
_symmetry_Int_Tables_number   1
_chemical_formula_structural   Ti108Co54Ni53
_chemical_formula_sum   'Ti108 Co54 Ni53'
_cell_volume   3128.90741805
_cell_formula_units_Z   1
loop_
 _symmetry_equiv_pos_site_id
 _symmetry_equiv_pos_as_xyz
  1  'x, y, z'
loop_
 _atom_site_type_symbol
 _atom_site_label
 _atom_site_symmetry_multiplicity
 _atom_site_fract_x
 _atom_site_fract_y
 _atom_site_fract_z
 _atom_site_occupancy
  Ti  Ti0  1  0.14735229  0.11046790  0.22343488  1
  Ti  Ti1  1  0.13587778  0.05986740  0.55686539  1
  Ti  Ti2  1  0.11593112  0.12511728  0.83347627  1
  Ti  Ti3  1  0.10931514  0.42056094  0.31559342  1
  Ti  Ti4  1  0.13403422  0.38883258  0.58368478  1
  Ti  Ti5  1  0.07069700  0.40505257  0.94968288  1
  Ti  Ti6  1  0.04054640  0.70731984  0.26922579  1
  Ti  Ti7  1  0.15191120  0.81267729  0.56239730  1
  Ti  Ti8  1  0.01763695  0.74540184  0.89084536  1
  Ti  Ti9  1  0.42504517  0.12214025  0.28454434  1
  Ti  Ti10  1  0.45255414  0.08636154  0.62235874  1
  Ti  Ti11  1  0.40137030  0.03615225  0.93442295  1
  Ti  Ti12  1  0.47680947  0.42821921  0.28469761  1
  Ti  Ti13  1  0.37362973  0.49612143  0.59536583  1
  Ti  Ti14  1  0.37375868  0.41829425  0.98285275  1
  Ti  Ti15  1  0.45635231  0.77694560  0.21241321  1
  Ti  Ti16  1  0.36164197  0.78702603  0.57574391  1
  Ti  Ti17  1  0.41477291  0.72048993  0.82609447  1
  Ti  Ti18  1  0.74038363  0.04563981  0.17162369  1
  Ti  Ti19  1  0.76393877  0.03158192  0.55863159  1
  Ti  Ti20  1  0.71243661  0.05529302  0.91988416  1
  Ti  Ti21  1  0.71686261  0.46161658  0.30506131  1
  Ti  Ti22  1  0.71221688  0.36376801  0.59562505  1
  Ti  Ti23  1  0.71377534  0.48990575  0.94053142  1
  Ti  Ti24  1  0.71096379  0.80477786  0.22784547  1
  Ti  Ti25  1  0.74806345  0.80370312  0.58305789  1
  Ti  Ti26  1  0.67884632  0.69382455  0.91381350  1
  Ti  Ti27  1  0.12629688  0.26219660  0.11290388  1
  Ti  Ti28  1  0.03091280  0.29175780  0.45002784  1
  Ti  Ti29  1  0.13058189  0.32978309  0.77703422  1
  Ti  Ti30  1  0.10804718  0.63503877  0.07351721  1
  Ti  Ti31  1  0.14774953  0.59070794  0.40782376  1
  Ti  Ti32  1  0.11685766  0.54055114  0.80210662  1
  Ti  Ti33  1  0.06089720  0.98464126  0.09196047  1
  Ti  Ti34  1  0.01518305  1.00597388  0.29574983  1
  Ti  Ti35  1  0.11254380  0.93234709  0.78425505  1
  Ti  Ti36  1  0.41482882  0.19804490  0.07168031  1
  Ti  Ti37  1  0.41766091  0.23760447  0.43376724  1
  Ti  Ti38  1  0.44997057  0.23796052  0.89551210  1
  Ti  Ti39  1  0.48729600  0.50526037  0.11061713  1
  Ti  Ti40  1  0.37853861  0.56908610  0.40798380  1
  Ti  Ti41  1  0.40613919  0.51865602  0.79210732  1
  Ti  Ti42  1  0.44914240  0.89815534  0.05922502  1
  Ti  Ti43  1  0.37349573  0.91010323  0.34758584  1
  Ti  Ti44  1  0.38566749  0.91075032  0.73828252  1
  Ti  Ti45  1  0.79722075  0.30069204  0.02790715  1
  Ti  Ti46  1  0.75042326  0.16718566  0.36782021  1
  Ti  Ti47  1  0.82441277  0.27074395  0.73731735  1
  Ti  Ti48  1  0.77953428  0.67379575  0.07727736  1
  Ti  Ti49  1  0.73151231  0.64000285  0.34546770  1
  Ti  Ti50  1  0.69587196  0.55785943  0.65129145  1
  Ti  Ti51  1  0.77592154  0.89313145  0.04578055  1
  Ti  Ti52  1  0.73728512  0.98028481  0.35639802  1
  Ti  Ti53  1  0.70539609  0.96831864  0.74619774  1
  Ti  Ti54  1  0.22079882  0.10954384  0.01926008  1
  Ti  Ti55  1  0.22711754  0.03878899  0.39378412  1
  Ti  Ti56  1  0.25273071  0.07220734  0.69214772  1
  Ti  Ti57  1  0.18744043  0.45542385  0.12305418  1
  Ti  Ti58  1  0.28772936  0.38229637  0.43665309  1
  Ti  Ti59  1  0.34549322  0.34879854  0.76276420  1
  Ti  Ti60  1  0.21287944  0.77118643  0.13781563  1
  Ti  Ti61  1  0.28134380  0.72289447  0.31587555  1
  Ti  Ti62  1  0.23039508  0.77009167  0.78252007  1
  Ti  Ti63  1  0.55940538  0.08114522  0.11390103  1
  Ti  Ti64  1  0.57015878  0.05800116  0.45974749  1
  Ti  Ti65  1  0.57710596  0.13067884  0.79330370  1
  Ti  Ti66  1  0.65371748  0.39318477  0.12200252  1
  Ti  Ti67  1  0.61508649  0.34907077  0.42006450  1
  Ti  Ti68  1  0.54332483  0.39030151  0.68896519  1
  Ti  Ti69  1  0.60358795  0.78668140  0.06726530  1
  Ti  Ti70  1  0.57889862  0.75152676  0.48195724  1
  Ti  Ti71  1  0.62930395  0.78846867  0.75153240  1
  Ti  Ti72  1  0.86911004  0.10359493  0.02917703  1
  Ti  Ti73  1  0.92741132  0.04883585  0.45400637  1
  Ti  Ti74  1  0.90422406  0.06915100  0.80367259  1
  Ti  Ti75  1  0.97497416  0.40419231  0.12633313  1
  Ti  Ti76  1  0.90948537  0.39227696  0.33368733  1
  Ti  Ti77  1  0.94894240  0.42324982  0.77243755  1
  Ti  Ti78  1  0.94459299  0.78665695  0.08326670  1
  Ti  Ti79  1  0.89202011  0.71559979  0.41404940  1
  Ti  Ti80  1  0.82040573  0.77227267  0.78574605  1
  Ti  Ti81  1  0.23414027  0.21936152  0.35166981  1
  Ti  Ti82  1  0.29779993  0.24796580  0.61750133  1
  Ti  Ti83  1  0.25043114  0.28887775  0.93550722  1
  Ti  Ti84  1  0.32841345  0.59435630  0.16717205  1
  Ti  Ti85  1  0.21790186  0.63276256  0.63227024  1
  Ti  Ti86  1  0.32950334  0.61096902  0.97269893  1
  Ti  Ti87  1  0.17225900  0.88421033  0.29515811  1
  Ti  Ti88  1  0.32761491  0.96380773  0.54063591  1
  Ti  Ti89  1  0.23609031  0.91018163  0.99195972  1
  Ti  Ti90  1  0.57015313  0.24564796  0.21989988  1
  Ti  Ti91  1  0.54707616  0.23807741  0.56354110  1
  Ti  Ti92  1  0.65825436  0.30052672  0.87094685  1
  Ti  Ti93  1  0.60484329  0.62116359  0.19920499  1
  Ti  Ti94  1  0.55801373  0.52313708  0.51511158  1
  Ti  Ti95  1  0.51943066  0.55427505  0.92955337  1
  Ti  Ti96  1  0.56970973  0.89868112  0.33319106  1
  Ti  Ti97  1  0.55846649  0.90435414  0.61573504  1
  Ti  Ti98  1  0.53485652  0.88924074  0.88180024  1
  Ti  Ti99  1  0.86637481  0.23079571  0.20559930  1
  Ti  Ti100  1  0.86113491  0.22715666  0.55025353  1
  Ti  Ti101  1  0.94942049  0.25133187  0.88725596  1
  Ti  Ti102  1  0.87683575  0.56097312  0.22863781  1
  Ti  Ti103  1  0.87968803  0.43850603  0.55335806  1
  Ti  Ti104  1  0.87534288  0.60316519  0.91048548  1
  Ti  Ti105  1  0.87769240  0.87755691  0.28904713  1
  Ti  Ti106  1  0.98075310  0.93257166  0.59527175  1
  Ti  Ti107  1  0.97389177  0.93301057  0.94176555  1
  Co  Co108  1  0.82637812  0.37520944  0.88507233  1
  Co  Co109  1  0.26792651  0.48117722  0.30603520  1
  Co  Co110  1  0.56644206  0.39943169  -0.01572974  1
  Co  Co111  1  0.85247813  0.78208034  -0.05374271  1
  Co  Co112  1  -0.13607387  0.06395309  0.27661689  1
  Co  Co113  1  0.45057972  0.65239000  0.54608948  1
  Co  Co114  1  0.54379259  0.10298943  -0.04882102  1
  Co  Co115  1  0.36435258  0.65037465  0.68703358  1
  Co  Co116  1  0.24649833  0.43905169  0.85840745  1
  Co  Co117  1  0.22734170  0.51190375  0.51855648  1
  Co  Co118  1  0.53562373  -0.01753855  0.75089397  1
  Co  Co119  1  0.34535484  0.42786694  0.17176649  1
  Co  Co120  1  0.12771524  0.75546357  0.40754914  1
  Co  Co121  1  0.02807983  0.45779799  0.47312093  1
  Co  Co122  1  0.19401262  0.52435704  -0.02370603  1
  Co  Co123  1  0.58543016  0.24108303  0.03295133  1
  Co  Co124  1  0.82328245  0.39749899  0.18069208  1
  Co  Co125  1  0.46081631  0.40968105  0.44519735  1
  Co  Co126  1  0.72972023  0.79628055  0.39224849  1
  Co  Co127  1  0.61759724  0.92458119  0.17235713  1
  Co  Co128  1  0.85249246  0.53080880  0.40871982  1
  Co  Co129  1  0.01211026  0.16614073  0.56114953  1
  Co  Co130  1  -0.00824284  0.84636501  0.39456441  1
  Co  Co131  1  0.66457596  0.91328071  0.48776791  1
  Co  Co132  1  0.47612611  0.33919819  0.12296970  1
  Co  Co133  1  0.71067538  0.20198287  0.13251446  1
  Co  Co134  1  0.46411405  0.23857182  0.72108150  1
  Co  Co135  1  0.42039131  0.34193773  0.58417017  1
  Co  Co136  1  0.50783719  0.72159109  -0.04774384  1
  Co  Co137  1  0.60173040  0.06221480  0.28048906  1
  Co  Co138  1  0.79077696  0.19655733  -0.10754607  1
  Co  Co139  1  -0.01655664  0.33831096  0.63305020  1
  Co  Co140  1  -0.01937496  0.21182386  0.73100668  1
  Co  Co141  1  0.89152232  0.08379675  0.64292551  1
  Co  Co142  1  0.46779676  0.66603294  0.09451998  1
  Co  Co143  1  0.27251489  0.68416376  0.48194216  1
  Co  Co144  1  0.73233305  0.53329118  0.14727469  1
  Co  Co145  1  0.56797172  0.64790073  0.79740306  1
  Co  Co146  1  0.48302318  0.76033068  0.68152534  1
  Co  Co147  1  0.38217347  0.29015400  0.26737612  1
  Co  Co148  1  0.04938204  0.05891549  0.69604399  1
  Co  Co149  1  0.25715154  0.84920703  0.43994011  1
  Co  Co150  1  0.29899386  0.02410737  0.25526842  1
  Co  Co151  1  0.10294467  0.24332983  -0.05304255  1
  Co  Co152  1  0.74874105  0.12378070  0.74708099  1
  Co  Co153  1  0.44839441  0.62194234  0.26990116  1
  Co  Co154  1  0.29297837  0.30483299  0.08930329  1
  Co  Co155  1  0.49559703  0.38321820  0.84407793  1
  Co  Co156  1  0.32857474  0.87280762  0.18068664  1
  Co  Co157  1  0.20262156  -0.03360060  0.14167013  1
  Co  Co158  1  0.69905385  0.19742565  0.51783025  1
  Co  Co159  1  0.61265632  0.69110263  0.62078729  1
  Co  Co160  1  0.22044998  0.32591446  0.23867833  1
  Co  Co161  1  0.62349628  0.60125171  0.04109491  1
  Ni  Ni162  1  0.03150034  0.57008351  0.93955858  1
  Ni  Ni163  1  0.57622012  0.54980336  0.35698895  1
  Ni  Ni164  1  0.34809424  0.76772553  0.03322476  1
  Ni  Ni165  1  0.71659838  0.48572604  0.47880931  1
  Ni  Ni166  1  0.57748052  0.72726338  0.32271669  1
  Ni  Ni167  1  0.39992883  0.08932029  0.78099687  1
  Ni  Ni168  1  0.78218319  0.44096743  0.74004923  1
  Ni  Ni169  1  0.69856279  0.85637983  0.90317430  1
  Ni  Ni170  1  0.85169601  0.48187704  0.03478174  1
  Ni  Ni171  1  0.83209716  -0.06816487  0.86275943  1
  Ni  Ni172  1  0.62093151  0.48815120  0.79922487  1
  Ni  Ni173  1  0.03892679  0.85900487  0.20138872  1
  Ni  Ni174  1  -0.01193485  0.12527984  0.16058422  1
  Ni  Ni175  1  0.04248059  0.53393479  0.19772496  1
  Ni  Ni176  1  0.51676419  0.56490205  0.67366681  1
  Ni  Ni177  1  0.35406458  0.03505095  0.10024449  1
  Ni  Ni178  1  0.72037807  0.30154667  0.27208204  1
  Ni  Ni179  1  0.13533195  0.20964521  0.66732410  1
  Ni  Ni180  1  0.07716315  0.12961705  0.39858168  1
  Ni  Ni181  1  0.73928969  0.65348065  0.50984328  1
  Ni  Ni182  1  0.61248348  -0.04436354  0.01456326  1
  Ni  Ni183  1  0.78955005  0.33035275  0.43154952  1
  Ni  Ni184  1  0.57725716  0.19617156  0.37892429  1
  Ni  Ni185  1  0.84280896  0.91013477  0.67953459  1
  Ni  Ni186  1  -0.03111268  0.25308317  0.05387153  1
  Ni  Ni187  1  0.62535333  0.08604702  0.63038388  1
  Ni  Ni188  1  0.35769172  0.86399881  0.89456961  1
  Ni  Ni189  1  0.09967902  0.81630436  0.02250195  1
  Ni  Ni190  1  0.17575132  0.22577526  0.50647983  1
  Ni  Ni191  1  0.26321228  0.00994954  0.84623962  1
  Ni  Ni192  1  0.46505838  -0.02879554  0.21582781  1
  Ni  Ni193  1  0.90108300  -0.03573296  0.14200815  1
  Ni  Ni194  1  0.26568162  0.60462283  0.81018782  1
  Ni  Ni195  1  0.02857135  0.10434825  -0.01909473  1
  Ni  Ni196  1  0.92057195  0.19805180  0.36509926  1
  Ni  Ni197  1  -0.03678021  0.86838650  0.77956650  1
  Ni  Ni198  1  0.31659279  0.12473017  0.50961614  1
  Ni  Ni199  1  0.29229328  0.17433160  0.18413889  1
  Ni  Ni200  1  0.64797587  0.24669733  0.69493325  1
  Ni  Ni201  1  0.75024730  0.60268914  0.79769253  1
  Ni  Ni202  1  0.48176826  -0.09432874  0.47679839  1
  Ni  Ni203  1  0.84510327  -0.10941045  0.47208808  1
  Ni  Ni204  1  0.86130955  0.72423538  0.22434701  1
  Ni  Ni205  1  0.23291200  0.90322733  0.67295070  1
  Ni  Ni206  1  0.27866155  0.19618490  0.79909692  1
  Ni  Ni207  1  -0.00589052  0.56333686  0.35173878  1
  Ni  Ni208  1  0.17111802  0.68394037  0.92257526  1
  Ni  Ni209  1  0.42274578  0.75327217  0.40535419  1
  Ni  Ni210  1  0.10577950  -0.06530813  0.45275341  1
  Ni  Ni211  1  0.18112728  0.60272457  0.23740532  1
  Ni  Ni212  1  0.23773314  0.46901474  0.69540962  1
  Ni  Ni213  1  0.05110173  0.26090893  0.27388241  1
  Ni  Ni214  1  -0.05746045  0.61625813  0.08195051  1
