# generated using pymatgen
data_Ti108Co54Ni53
_symmetry_space_group_name_H-M   'P 1'
_cell_length_a   14.55319528
_cell_length_b   14.64035565
_cell_length_c   14.66305892
_cell_angle_alpha   89.51939273
_cell_angle_beta   90.18991594
_cell_angle_gamma   89.94954433
_symmetry_Int_Tables_number   1
_chemical_formula_structural   Ti108Co54Ni53
_chemical_formula_sum   'Ti108 Co54 Ni53'
_cell_volume   3124.04096147
_cell_formula_units_Z   1
loop_
 _symmetry_equiv_pos_site_id
 _symmetry_equiv_pos_as_xyz
  1  'x, y, z'
loop_
 _atom_site_type_symbol
 _atom_site_label
 _atom_site_symmetry_multiplicity
 _atom_site_fract_x
 _atom_site_fract_y
 _atom_site_fract_z
 _atom_site_occupancy
  Ti  Ti0  1  0.05816446  0.08854930  0.27952637  1
  Ti  Ti1  1  0.05786428  0.04119327  0.59620415  1
  Ti  Ti2  1  0.07028725  0.05759506  0.89622017  1
  Ti  Ti3  1  0.02104319  0.38706797  0.19432299  1
  Ti  Ti4  1  0.06964869  0.33349412  0.59232155  1
  Ti  Ti5  1  0.03423206  0.39738348  0.91299874  1
  Ti  Ti6  1  0.12521870  0.77077472  0.20949569  1
  Ti  Ti7  1  0.12935344  0.76021357  0.67011099  1
  Ti  Ti8  1  0.09249263  0.70357528  0.99226776  1
  Ti  Ti9  1  0.41481639  0.16854452  0.20791265  1
  Ti  Ti10  1  0.40341580  0.06606538  0.63607355  1
  Ti  Ti11  1  0.43979757  0.09878167  0.98982521  1
  Ti  Ti12  1  0.34752091  0.36467197  0.20784817  1
  Ti  Ti13  1  0.37478416  0.49641961  0.60412683  1
  Ti  Ti14  1  0.40677750  0.38782578  0.84811303  1
  Ti  Ti15  1  0.33752281  0.72244232  0.28902427  1
  Ti  Ti16  1  0.44863325  0.70209201  0.56070471  1
  Ti  Ti17  1  0.42931481  0.79746403  0.92103904  1
  Ti  Ti18  1  0.74521578  0.11172101  0.30189788  1
  Ti  Ti19  1  0.72238906  0.01069265  0.63284193  1
  Ti  Ti20  1  0.74931473  0.04440060  0.83922683  1
  Ti  Ti21  1  0.69620328  0.56031325  0.29947798  1
  Ti  Ti22  1  0.80473690  0.37429249  0.59448123  1
  Ti  Ti23  1  0.73080954  0.42450791  0.96957146  1
  Ti  Ti24  1  0.72085418  0.73551907  0.21073705  1
  Ti  Ti25  1  0.74633743  0.81051536  0.55326066  1
  Ti  Ti26  1  0.79648196  0.71672685  0.89187772  1
  Ti  Ti27  1  0.13468687  0.30354425  0.05822064  1
  Ti  Ti28  1  0.05151331  0.27114674  0.39415962  1
  Ti  Ti29  1  0.09450704  0.18756112  0.72990563  1
  Ti  Ti30  1  0.11300219  0.51388029  0.06210325  1
  Ti  Ti31  1  0.13950418  0.63653058  0.38465387  1
  Ti  Ti32  1  0.04548473  0.59711155  0.74476071  1
  Ti  Ti33  1  0.05922106  0.97503563  0.10847279  1
  Ti  Ti34  1  0.07063183  0.93632184  0.42674480  1
  Ti  Ti35  1  0.03488156  0.90167747  0.74875871  1
  Ti  Ti36  1  0.47516390  0.30998585  0.08399708  1
  Ti  Ti37  1  0.35328098  0.22579729  0.39331376  1
  Ti  Ti38  1  0.41888301  0.18784986  0.80335601  1
  Ti  Ti39  1  0.46468740  0.51558912  0.10638049  1
  Ti  Ti40  1  0.43950199  0.54824607  0.42029560  1
  Ti  Ti41  1  0.42774504  0.59151579  0.81123786  1
  Ti  Ti42  1  0.43860488  0.98976093  0.15063054  1
  Ti  Ti43  1  0.40357068  0.86299249  0.42934724  1
  Ti  Ti44  1  0.43584072  0.92191065  0.76449019  1
  Ti  Ti45  1  0.81263369  0.26437722  0.05917365  1
  Ti  Ti46  1  0.77239646  0.28423054  0.40059452  1
  Ti  Ti47  1  0.73857879  0.29704894  0.76493328  1
  Ti  Ti48  1  0.77171766  0.58398383  0.05891014  1
  Ti  Ti49  1  0.74645564  0.57639604  0.49516967  1
  Ti  Ti50  1  0.69487499  0.59704921  0.71625346  1
  Ti  Ti51  1  0.84704858  0.97919328  0.08625560  1
  Ti  Ti52  1  0.75797206  0.87897787  0.35082467  1
  Ti  Ti53  1  0.74392701  0.85039715  0.76313942  1
  Ti  Ti54  1  0.24312413  0.02327305  0.05252836  1
  Ti  Ti55  1  0.25189523  0.02708474  0.37506208  1
  Ti  Ti56  1  0.28375661  0.04894278  0.79860299  1
  Ti  Ti57  1  0.30212967  0.39892883  0.02576813  1
  Ti  Ti58  1  0.20732202  0.38519139  0.36775552  1
  Ti  Ti59  1  0.23706721  0.48578124  0.75105899  1
  Ti  Ti60  1  0.27258789  0.71410001  0.09601758  1
  Ti  Ti61  1  0.21640501  0.81511865  0.41391819  1
  Ti  Ti62  1  0.29463185  0.77757517  0.76906613  1
  Ti  Ti63  1  0.64294108  0.01575635  0.05569743  1
  Ti  Ti64  1  0.55140003  -0.00739275  0.35912241  1
  Ti  Ti65  1  0.60168785  0.14164687  0.73723176  1
  Ti  Ti66  1  0.63796379  0.43126373  0.15009238  1
  Ti  Ti67  1  0.52666129  0.33084928  0.39586284  1
  Ti  Ti68  1  0.60675432  0.44773946  0.82874885  1
  Ti  Ti69  1  0.54172849  0.74837764  0.07868357  1
  Ti  Ti70  1  0.58980440  0.80228710  0.42445066  1
  Ti  Ti71  1  0.58830328  0.79896402  0.68626443  1
  Ti  Ti72  1  0.97894182  0.14402483  0.04763534  1
  Ti  Ti73  1  0.89695917  0.03080847  0.39413476  1
  Ti  Ti74  1  0.92413657  0.06868411  0.73930485  1
  Ti  Ti75  1  0.82451968  0.43534235  0.19159799  1
  Ti  Ti76  1  1.03306863  0.46516177  0.44234854  1
  Ti  Ti77  1  0.94042918  0.41134038  0.74419464  1
  Ti  Ti78  1  0.85790610  0.76514082  0.07592637  1
  Ti  Ti79  1  0.92743893  0.69683348  0.45085754  1
  Ti  Ti80  1  0.92172265  0.75724162  0.76260306  1
  Ti  Ti81  1  0.19846899  0.24254677  0.23900179  1
  Ti  Ti82  1  0.28062403  0.23907419  0.64394156  1
  Ti  Ti83  1  0.23040380  0.26505669  0.86094627  1
  Ti  Ti84  1  0.27677148  0.54624706  0.27547852  1
  Ti  Ti85  1  0.21112328  0.60928225  0.57733530  1
  Ti  Ti86  1  0.26511242  0.57943733  0.93607713  1
  Ti  Ti87  1  0.28699789  0.89882340  0.22202930  1
  Ti  Ti88  1  0.28918222  0.94973882  0.54966616  1
  Ti  Ti89  1  0.18493031  0.89912872  0.88588525  1
  Ti  Ti90  1  0.60395550  0.23806290  0.23659147  1
  Ti  Ti91  1  0.53046405  0.34105894  0.59039121  1
  Ti  Ti92  1  0.56204431  0.26913615  0.91600611  1
  Ti  Ti93  1  0.53144819  0.68663898  0.27579999  1
  Ti  Ti94  1  0.57012242  0.52720690  0.55879731  1
  Ti  Ti95  1  0.57814572  0.60104319  0.95628560  1
  Ti  Ti96  1  0.58916958  0.88280409  0.20783536  1
  Ti  Ti97  1  0.53284692  0.94056479  0.56957331  1
  Ti  Ti98  1  0.62368836  0.86317275  0.90767036  1
  Ti  Ti99  1  0.91387836  0.22248536  0.21376232  1
  Ti  Ti100  1  0.92575390  0.20502983  0.56004027  1
  Ti  Ti101  1  0.89416888  0.20239121  0.87171232  1
  Ti  Ti102  1  0.90110168  0.55051461  0.32792896  1
  Ti  Ti103  1  0.91406139  0.53047867  0.59297418  1
  Ti  Ti104  1  0.90324961  0.54650112  0.89767090  1
  Ti  Ti105  1  0.95026889  0.89350497  0.24987693  1
  Ti  Ti106  1  0.96038706  0.86197281  0.56871758  1
  Ti  Ti107  1  0.98421977  0.86978864  0.94198968  1
  Co  Co108  1  0.20411124  0.64107865  0.79282766  1
  Co  Co109  1  -0.01125792  0.54577756  0.16642726  1
  Co  Co110  1  0.85748315  0.92095467  0.66877993  1
  Co  Co111  1  0.72434542  0.57444049  0.87734813  1
  Co  Co112  1  0.41466569  0.65969883  0.16140998  1
  Co  Co113  1  0.04696566  0.24020494  0.87918775  1
  Co  Co114  1  -0.06799903  0.25618304  0.71573239  1
  Co  Co115  1  0.46493799  0.20842823  0.64978985  1
  Co  Co116  1  0.28746167  0.13144313  0.50845262  1
  Co  Co117  1  0.40222552  0.81895027  0.12314760  1
  Co  Co118  1  0.26738633  0.77919364  0.57290884  1
  Co  Co119  1  0.40141919  0.66170504  -0.00258090  1
  Co  Co120  1  0.43904973  0.53617178  0.26229002  1
  Co  Co121  1  0.54888762  0.30907647  0.75412201  1
  Co  Co122  1  0.75831864  0.28820232  0.22216038  1
  Co  Co123  1  0.72968693  0.13731687  0.14564703  1
  Co  Co124  1  0.12542441  0.02162091  0.75174215  1
  Co  Co125  1  0.29920263  0.54080730  0.11120486  1
  Co  Co126  1  0.09795577  0.76667165  0.83743004  1
  Co  Co127  1  0.18626287  0.17960125  0.38714146  1
  Co  Co128  1  0.68967784  0.71932831  0.01227397  1
  Co  Co129  1  0.92264695  0.35135726  0.48518985  1
  Co  Co130  1  0.35154219  -0.04245455  -0.06892767  1
  Co  Co131  1  0.81875772  -0.05892651  0.50379797  1
  Co  Co132  1  0.50781814  0.38691912  0.24285300  1
  Co  Co133  1  0.01632473  0.65245422  0.28197017  1
  Co  Co134  1  0.15248135  0.61149668  0.18741158  1
  Co  Co135  1  -0.02923246  0.30391410  0.03876442  1
  Co  Co136  1  0.22270066  0.29695998  0.49802151  1
  Co  Co137  1  0.85060124  0.62398580  0.18744687  1
  Co  Co138  1  0.13853245  0.90016811  0.58436088  1
  Co  Co139  1  0.65075331  0.29484015  0.06704132  1
  Co  Co140  1  0.12784129  0.18658516  0.55806960  1
  Co  Co141  1  0.39733133  0.02213644  0.30321401  1
  Co  Co142  1  0.41024890  0.84468525  0.62437366  1
  Co  Co143  1  0.37785934  0.35661551  0.51411212  1
  Co  Co144  1  -0.08713470  -0.14502350  0.41061707  1
  Co  Co145  1  0.08752849  0.49983609  0.29434711  1
  Co  Co146  1  0.29281353  0.12251308  0.93363486  1
  Co  Co147  1  0.05076553  0.79256725  0.35073322  1
  Co  Co148  1  0.42215041  0.50774858  0.94951128  1
  Co  Co149  1  0.22609478  0.07779135  0.64418854  1
  Co  Co150  1  0.61924041  0.71382485  0.84144626  1
  Co  Co151  1  0.25373222  -0.08373815  0.70344193  1
  Co  Co152  1  0.09574704  0.75775280  0.50729850  1
  Co  Co153  1  0.50239657  0.15431848  0.34618333  1
  Co  Co154  1  0.58700097  0.06460125  0.21982723  1
  Co  Co155  1  0.78312302  0.45566176  0.77668296  1
  Co  Co156  1  -0.11205346  0.05649244  0.57850803  1
  Co  Co157  1  0.86995764  0.59978521  0.74966314  1
  Co  Co158  1  0.45078235  0.85277139  0.28089567  1
  Co  Co159  1  0.90818756  0.19216329  0.37142059  1
  Co  Co160  1  0.90089884  0.05964203  0.21462980  1
  Co  Co161  1  -0.04905146  0.62747112  0.02928318  1
  Ni  Ni162  1  0.15134913  0.16464792  -0.01839709  1
  Ni  Ni163  1  0.62333031  0.60728624  0.14168340  1
  Ni  Ni164  1  0.55547942  0.15821202  0.09131599  1
  Ni  Ni165  1  0.77753730  0.10618291  -0.00888132  1
  Ni  Ni166  1  0.13225421  0.93432769  0.27241461  1
  Ni  Ni167  1  0.63257570  0.68684150  0.57391951  1
  Ni  Ni168  1  0.03727565  0.10922183  0.44593963  1
  Ni  Ni169  1  0.42357496  0.04274206  0.46575012  1
  Ni  Ni170  1  0.90937257  0.45513278  0.04633278  1
  Ni  Ni171  1  0.87268379  0.74609814  0.29284183  1
  Ni  Ni172  1  0.38735426  0.35151965  0.69269658  1
  Ni  Ni173  1  0.60606360  -0.03499399  0.74896457  1
  Ni  Ni174  1  0.31782922  0.66768805  0.45013402  1
  Ni  Ni175  1  0.33352442  0.64581879  0.68101056  1
  Ni  Ni176  1  0.50215875  0.91181636  0.02223003  1
  Ni  Ni177  1  0.80587572  0.44716579  0.41687523  1
  Ni  Ni178  1  0.11369337  0.35682166  0.76263246  1
  Ni  Ni179  1  0.00980123  0.81671546  0.09714199  1
  Ni  Ni180  1  0.51262715  0.00053174  0.88147271  1
  Ni  Ni181  1  0.61849685  0.11607602  -0.07957670  1
  Ni  Ni182  1  0.73573723  0.70968594  0.38844253  1
  Ni  Ni183  1  0.17116128  0.85873156  0.05040117  1
  Ni  Ni184  1  0.09865089  0.48230999  0.64394884  1
  Ni  Ni185  1  0.27630238  0.50184961  0.46086923  1
  Ni  Ni186  1  0.66945082  0.39597960  0.31819984  1
  Ni  Ni187  1  0.55734108  0.42061450  -0.01092197  1
  Ni  Ni188  1  0.59136179  0.63133114  0.42497760  1
  Ni  Ni189  1  0.19038561  0.42119394  0.18349454  1
  Ni  Ni190  1  0.26318863  0.08256073  0.21525032  1
  Ni  Ni191  1  0.78925000  0.88332148  -0.05087774  1
  Ni  Ni192  1  0.88115290  -0.07709599  0.82297538  1
  Ni  Ni193  1  0.86423966  0.36344925  0.90119483  1
  Ni  Ni194  1  0.66595873  0.95904889  0.47312001  1
  Ni  Ni195  1  0.37804468  0.40803704  0.35894046  1
  Ni  Ni196  1  0.25332144  0.74953681  0.93150393  1
  Ni  Ni197  1  0.66194731  0.42818679  0.66436596  1
  Ni  Ni198  1  0.70840419  0.86013765  0.08954655  1
  Ni  Ni199  1  0.08969991  0.56122407  0.89726111  1
  Ni  Ni200  1  0.19762542  0.42534839  -0.09736334  1
  Ni  Ni201  1  0.73052618  0.25017956  0.91910189  1
  Ni  Ni202  1  -0.03020172  0.69893408  0.61948436  1
  Ni  Ni203  1  -0.08991873  0.03240874  -0.06683928  1
  Ni  Ni204  1  0.28418828  0.20118942  0.09139590  1
  Ni  Ni205  1  0.05613493  0.59932814  0.53257456  1
  Ni  Ni206  1  0.37758681  0.25966948  -0.04205414  1
  Ni  Ni207  1  0.50448057  0.47563190  0.70720018  1
  Ni  Ni208  1  -0.08664157  0.36093841  0.32128214  1
  Ni  Ni209  1  0.12583361  0.13646509  0.13574867  1
  Ni  Ni210  1  0.73848421  -0.02747273  0.21239284  1
  Ni  Ni211  1  0.66410131  0.39962567  0.49169085  1
  Ni  Ni212  1  0.78614409  0.15941199  0.68617674  1
  Ni  Ni213  1  0.46048788  0.74185004  0.75873425  1
  Ni  Ni214  1  0.80802482  0.67338672  0.61771343  1
