# generated using pymatgen
data_Ti108Co54Ni53
_symmetry_space_group_name_H-M   'P 1'
_cell_length_a   14.55197117
_cell_length_b   14.50215936
_cell_length_c   14.64025825
_cell_angle_alpha   90.16044073
_cell_angle_beta   90.25182059
_cell_angle_gamma   90.13653982
_symmetry_Int_Tables_number   1
_chemical_formula_structural   Ti108Co54Ni53
_chemical_formula_sum   'Ti108 Co54 Ni53'
_cell_volume   3089.55615398
_cell_formula_units_Z   1
loop_
 _symmetry_equiv_pos_site_id
 _symmetry_equiv_pos_as_xyz
  1  'x, y, z'
loop_
 _atom_site_type_symbol
 _atom_site_label
 _atom_site_symmetry_multiplicity
 _atom_site_fract_x
 _atom_site_fract_y
 _atom_site_fract_z
 _atom_site_occupancy
  Ti  Ti0  1  0.02414805  0.07123433  0.22978424  1
  Ti  Ti1  1  0.02528936  0.05813827  0.56330565  1
  Ti  Ti2  1  0.06909148  0.06250958  1.01248921  1
  Ti  Ti3  1  0.03078047  0.38435912  0.21901124  1
  Ti  Ti4  1  0.03883906  0.45030346  0.52090915  1
  Ti  Ti5  1  0.09341696  0.46103887  0.89976966  1
  Ti  Ti6  1  0.10428896  0.72916693  0.20757062  1
  Ti  Ti7  1  0.05520159  0.76351107  0.54240468  1
  Ti  Ti8  1  0.10977634  0.74579844  0.88164730  1
  Ti  Ti9  1  0.39713319  0.08243899  0.31291740  1
  Ti  Ti10  1  0.36293136  0.01193252  0.58319815  1
  Ti  Ti11  1  0.34482061  0.04690585  0.88367749  1
  Ti  Ti12  1  0.39747088  0.38716771  0.34226482  1
  Ti  Ti13  1  0.46674724  0.43432340  0.64197075  1
  Ti  Ti14  1  0.36951817  0.43342490  0.88592234  1
  Ti  Ti15  1  0.42815405  0.69931680  0.22080825  1
  Ti  Ti16  1  0.36955663  0.65440549  0.53607111  1
  Ti  Ti17  1  0.42386217  0.76511815  0.99277606  1
  Ti  Ti18  1  0.71682036  0.03349277  0.29949899  1
  Ti  Ti19  1  0.67173033  0.18715586  0.62751938  1
  Ti  Ti20  1  0.77073452  0.12296473  0.93661086  1
  Ti  Ti21  1  0.77589405  0.37403014  0.33638725  1
  Ti  Ti22  1  0.76952038  0.36542172  0.60468845  1
  Ti  Ti23  1  0.79602361  0.50731001  0.92965051  1
  Ti  Ti24  1  0.70500914  0.78636148  0.31583131  1
  Ti  Ti25  1  0.75072960  0.76547117  0.56218430  1
  Ti  Ti26  1  0.77777701  0.73630600  0.87741045  1
  Ti  Ti27  1  0.09906421  0.23019498  0.09783463  1
  Ti  Ti28  1  0.10129053  0.23636994  0.45858448  1
  Ti  Ti29  1  0.08860920  0.20963765  0.80014123  1
  Ti  Ti30  1  0.07167201  0.56078545  0.05823755  1
  Ti  Ti31  1  0.09643017  0.57980890  0.36737142  1
  Ti  Ti32  1  0.06139636  0.59433956  0.76018086  1
  Ti  Ti33  1  0.11764603  0.92375972  0.15148616  1
  Ti  Ti34  1  0.09414617  0.93178950  0.43678975  1
  Ti  Ti35  1  0.01262856  0.91579143  0.80530834  1
  Ti  Ti36  1  0.42828318  0.22191331  0.06834965  1
  Ti  Ti37  1  0.44883133  0.22690821  0.40927536  1
  Ti  Ti38  1  0.37189859  0.27484448  0.74152319  1
  Ti  Ti39  1  0.37520488  0.59503829  0.07945454  1
  Ti  Ti40  1  0.42751031  0.57184190  0.35916767  1
  Ti  Ti41  1  0.39969107  0.59625668  0.77018722  1
  Ti  Ti42  1  0.45002865  0.99495171  0.05325121  1
  Ti  Ti43  1  0.44482737  0.91188445  0.38709762  1
  Ti  Ti44  1  0.48413771  0.90145815  0.75329506  1
  Ti  Ti45  1  0.80050056  0.19422825  0.11702564  1
  Ti  Ti46  1  0.76741324  0.19513976  0.44865612  1
  Ti  Ti47  1  0.71544925  0.28983654  0.78688804  1
  Ti  Ti48  1  0.75328760  0.57211067  0.14133402  1
  Ti  Ti49  1  0.78412132  0.58853168  0.33585780  1
  Ti  Ti50  1  0.76493619  0.64040406  0.69530523  1
  Ti  Ti51  1  0.80572609  0.88229562  0.14895035  1
  Ti  Ti52  1  0.76971066  0.91476027  0.45857364  1
  Ti  Ti53  1  0.70540853  0.98456478  0.73758779  1
  Ti  Ti54  1  0.24931464  0.04214457  0.04612152  1
  Ti  Ti55  1  0.19545752  0.06432992  0.34723605  1
  Ti  Ti56  1  0.23702032  0.11093120  0.72875244  1
  Ti  Ti57  1  0.23904122  0.45133525  0.13271342  1
  Ti  Ti58  1  0.24528799  0.47878963  0.43537322  1
  Ti  Ti59  1  0.21086914  0.34523863  0.69557146  1
  Ti  Ti60  1  0.26924348  0.78288060  0.12812222  1
  Ti  Ti61  1  0.21389160  0.76027597  0.43525997  1
  Ti  Ti62  1  0.30441034  0.78875636  0.75287222  1
  Ti  Ti63  1  0.61407206  0.10393388  0.04378708  1
  Ti  Ti64  1  0.63229420  0.03129975  0.48979183  1
  Ti  Ti65  1  0.54573831  0.05637284  0.66658374  1
  Ti  Ti66  1  0.46327836  0.42839886  0.07790428  1
  Ti  Ti67  1  0.60199326  0.46216242  0.40161659  1
  Ti  Ti68  1  0.60188235  0.49837204  0.77298069  1
  Ti  Ti69  1  0.57742183  0.72677452  0.09915113  1
  Ti  Ti70  1  0.51540376  0.72907667  0.41834581  1
  Ti  Ti71  1  0.60871828  0.74629802  0.73708404  1
  Ti  Ti72  1  0.89976800  0.00996004  0.05663857  1
  Ti  Ti73  1  0.89594212  0.04569497  0.38797841  1
  Ti  Ti74  1  0.96217334  0.08283760  0.72824990  1
  Ti  Ti75  1  0.92792062  0.36818776  0.04824450  1
  Ti  Ti76  1  0.93069107  0.47500988  0.36885226  1
  Ti  Ti77  1  1.03786308  0.38993174  0.73805659  1
  Ti  Ti78  1  0.87286474  0.73031099  0.05343130  1
  Ti  Ti79  1  0.88326832  0.74370730  0.41097751  1
  Ti  Ti80  1  0.93692747  0.74022531  0.69460104  1
  Ti  Ti81  1  0.26602751  0.22821353  0.25852196  1
  Ti  Ti82  1  0.26751847  0.20481560  0.57030926  1
  Ti  Ti83  1  0.22739174  0.20187974  0.93455768  1
  Ti  Ti84  1  0.25671150  0.61687316  0.26619237  1
  Ti  Ti85  1  0.28380319  0.51679167  0.62615677  1
  Ti  Ti86  1  0.27548746  0.62382025  0.90682516  1
  Ti  Ti87  1  0.31285002  0.93906363  0.22098326  1
  Ti  Ti88  1  0.20523847  0.90268388  0.60161945  1
  Ti  Ti89  1  0.20529270  0.92330966  0.85392245  1
  Ti  Ti90  1  0.62591867  0.25991357  0.30946033  1
  Ti  Ti91  1  0.46907330  0.21387299  0.58923613  1
  Ti  Ti92  1  0.57473983  0.25861262  0.91176356  1
  Ti  Ti93  1  0.60150366  0.61329287  0.27053003  1
  Ti  Ti94  1  0.66471322  0.53763806  0.58271986  1
  Ti  Ti95  1  0.57120386  0.66061358  0.91502142  1
  Ti  Ti96  1  0.62279846  0.92037340  0.14563380  1
  Ti  Ti97  1  0.51508722  0.88041479  0.56930418  1
  Ti  Ti98  1  0.57223503  0.99955319  0.88757599  1
  Ti  Ti99  1  0.94040335  0.25318380  0.34516814  1
  Ti  Ti100  1  0.96292654  0.27852378  0.61189219  1
  Ti  Ti101  1  0.90391602  0.24157115  0.84888454  1
  Ti  Ti102  1  0.95143105  0.62317303  0.21961842  1
  Ti  Ti103  1  0.89683096  0.51140253  0.63557593  1
  Ti  Ti104  1  0.96182327  0.62000012  0.92497708  1
  Ti  Ti105  1  0.98181156  0.87617001  0.28463333  1
  Ti  Ti106  1  0.86730569  0.92468570  0.63873175  1
  Ti  Ti107  1  0.82668940  0.93031484  0.88416291  1
  Co  Co108  1  0.86010284  0.74711217  0.24069400  1
  Co  Co109  1  0.93737241  0.18326568  0.01136397  1
  Co  Co110  1  0.18454343  0.06035890  0.53492788  1
  Co  Co111  1  0.82785228  0.62536484  0.52687994  1
  Co  Co112  1  0.13074863  0.49376293  0.64701935  1
  Co  Co113  1  -0.07755987  0.17349930  0.49672137  1
  Co  Co114  1  0.86129608  0.32614915  0.20513634  1
  Co  Co115  1  0.56168026  0.87624052  -0.00102670  1
  Co  Co116  1  0.86609460  0.48013233  0.21642286  1
  Co  Co117  1  0.39519660  0.89410273  0.88616107  1
  Co  Co118  1  0.18221551  0.09325410  0.18329367  1
  Co  Co119  1  0.59818850  0.19367016  0.47043462  1
  Co  Co120  1  0.86810439  0.34388345  0.73148596  1
  Co  Co121  1  0.08705143  0.38106090  0.37627101  1
  Co  Co122  1  0.83058179  0.90440941  0.31231067  1
  Co  Co123  1  0.31816561  -0.09750071  0.03257900  1
  Co  Co124  1  0.13041781  0.06452855  0.86514295  1
  Co  Co125  1  0.21399241  0.64950582  0.75152485  1
  Co  Co126  1  0.71923943  -0.02477080  0.00410882  1
  Co  Co127  1  0.35012145  0.34428040  0.56251479  1
  Co  Co128  1  0.79510357  0.19181457  0.28360678  1
  Co  Co129  1  0.53928032  0.22561394  0.73586703  1
  Co  Co130  1  0.04645639  0.09767195  0.39939600  1
  Co  Co131  1  -0.03071470  0.61509974  0.45377811  1
  Co  Co132  1  -0.04441527  0.20408193  0.17314190  1
  Co  Co133  1  0.23401006  0.48795833  -0.02371399  1
  Co  Co134  1  0.36487414  0.09566938  0.15640805  1
  Co  Co135  1  0.77543856  0.48296690  0.47428128  1
  Co  Co136  1  0.55682916  0.56515211  0.11221017  1
  Co  Co137  1  0.60160092  -0.06479562  0.34243530  1
  Co  Co138  1  0.51786742  0.35186490  0.49758317  1
  Co  Co139  1  0.71813215  0.73239548  0.16348081  1
  Co  Co140  1  0.12572048  -0.00068778  0.70868368  1
  Co  Co141  1  0.37060986  0.50572150  0.22016877  1
  Co  Co142  1  0.52047225  0.45900073  0.24309207  1
  Co  Co143  1  0.44433603  0.84559121  0.13576390  1
  Co  Co144  1  0.47989595  0.06378656  0.48716536  1
  Co  Co145  1  0.26542621  0.20856024  0.09630707  1
  Co  Co146  1  0.81000952  0.10006868  0.78770887  1
  Co  Co147  1  0.16745892  0.60404359  0.51066026  1
  Co  Co148  1  0.68025560  0.46090664  0.24070568  1
  Co  Co149  1  0.67567388  0.33650432  0.47777036  1
  Co  Co150  1  -0.02758143  0.83573423  0.13120055  1
  Co  Co151  1  0.88204296  0.59502686  0.79548249  1
  Co  Co152  1  0.62545748  0.83465632  0.46026996  1
  Co  Co153  1  0.67058744  -0.09409956  0.60907291  1
  Co  Co154  1  0.31966998  -0.04070544  0.73232874  1
  Co  Co155  1  0.56173158  0.10056624  0.33782418  1
  Co  Co156  1  0.76919824  0.47334576  0.75193548  1
  Co  Co157  1  0.52931971  0.58015113  0.49598966  1
  Co  Co158  1  0.70277377  0.60017592  0.83987962  1
  Co  Co159  1  0.02317011  -0.09822764  0.62573501  1
  Co  Co160  1  0.71900445  0.81430625  0.01464648  1
  Co  Co161  1  0.45520522  0.55923312  -0.05280217  1
  Ni  Ni162  1  0.40481998  0.47781695  0.49278110  1
  Ni  Ni163  1  0.64456589  0.13087407  0.80738049  1
  Ni  Ni164  1  0.49565599  -0.00958326  0.22144923  1
  Ni  Ni165  1  0.11087905  0.20903506  0.63526977  1
  Ni  Ni166  1  0.23050070  0.72734181  0.60564400  1
  Ni  Ni167  1  0.04285218  0.29842717  -0.06963179  1
  Ni  Ni168  1  0.18259249  0.36321694  0.53365833  1
  Ni  Ni169  1  0.30580785  0.34206735  0.01618205  1
  Ni  Ni170  1  0.64841203  0.13425947  0.19571686  1
  Ni  Ni171  1  0.47922226  0.12677365  -0.06598863  1
  Ni  Ni172  1  0.35472645  0.82611759  0.52692020  1
  Ni  Ni173  1  0.80075689  0.05534859  0.55376603  1
  Ni  Ni174  1  0.22283660  0.40427128  0.28608842  1
  Ni  Ni175  1  0.12085482  0.80135989  0.71975583  1
  Ni  Ni176  1  0.83472624  0.18609791  0.65414698  1
  Ni  Ni177  1  0.54954855  0.80515475  0.25943917  1
  Ni  Ni178  1  0.71007843  0.64551463  0.00511526  1
  Ni  Ni179  1  0.77494579  0.82238443  0.73170199  1
  Ni  Ni180  1  0.50677372  0.36726135  0.80565162  1
  Ni  Ni181  1  -0.07324616  0.43828815  0.85416380  1
  Ni  Ni182  1  0.58879203  0.71674750  0.57374588  1
  Ni  Ni183  1  0.39532342  0.26092923  0.90010008  1
  Ni  Ni184  1  0.09840991  0.22483099  0.28102442  1
  Ni  Ni185  1  0.21225681  0.63617184  0.08119902  1
  Ni  Ni186  1  0.90342461  0.54136807  0.06458336  1
  Ni  Ni187  1  -0.00606960  -0.11293940  -0.02674202  1
  Ni  Ni188  1  0.41289465  0.10912924  0.74598989  1
  Ni  Ni189  1  0.21609855  0.34521778  0.86409396  1
  Ni  Ni190  1  0.32278709  0.11157957  0.45307313  1
  Ni  Ni191  1  0.85803824  0.05084240  0.21131631  1
  Ni  Ni192  1  0.03036813  0.61480734  0.60191849  1
  Ni  Ni193  1  -0.05247089  0.06043704  0.89401253  1
  Ni  Ni194  1  0.44132218  0.75232155  0.65824144  1
  Ni  Ni195  1  0.88268842  0.35100484  0.48017784  1
  Ni  Ni196  1  0.10893231  0.38847130  0.05179822  1
  Ni  Ni197  1  0.67555269  0.65231134  0.44278128  1
  Ni  Ni198  1  0.27017020  0.78377413  -0.06876534  1
  Ni  Ni199  1  0.17402019  0.86751938  0.30153930  1
  Ni  Ni200  1  0.60815540  0.35064565  0.65047456  1
  Ni  Ni201  1  0.35876270  0.34062059  0.18019184  1
  Ni  Ni202  1  0.65769295  0.85862711  0.85665387  1
  Ni  Ni203  1  0.15568734  0.87568619  0.00531418  1
  Ni  Ni204  1  0.45401177  0.74425896  0.82634879  1
  Ni  Ni205  1  0.22910183  0.49258143  0.79101817  1
  Ni  Ni206  1  -0.06193953  0.89214774  0.47654527  1
  Ni  Ni207  1  0.35505366  0.73627852  0.36871834  1
  Ni  Ni208  1  0.27620267  -0.05958350  0.42708744  1
  Ni  Ni209  1  -0.06423999  0.77311822  0.85965359  1
  Ni  Ni210  1  0.06737545  0.73598561  0.04226861  1
  Ni  Ni211  1  0.05323346  0.74873816  0.37032515  1
  Ni  Ni212  1  0.11335644  0.53651783  0.21297224  1
  Ni  Ni213  1  0.27702087  0.28020118  0.41668431  1
  Ni  Ni214  1  0.51509817  0.59977723  0.66014526  1
