# generated using pymatgen
data_Ti108Co54Ni53
_symmetry_space_group_name_H-M   'P 1'
_cell_length_a   14.66540399
_cell_length_b   14.63963777
_cell_length_c   14.60203042
_cell_angle_alpha   89.97018597
_cell_angle_beta   89.71054221
_cell_angle_gamma   89.83074827
_symmetry_Int_Tables_number   1
_chemical_formula_structural   Ti108Co54Ni53
_chemical_formula_sum   'Ti108 Co54 Ni53'
_cell_volume   3134.94638986
_cell_formula_units_Z   1
loop_
 _symmetry_equiv_pos_site_id
 _symmetry_equiv_pos_as_xyz
  1  'x, y, z'
loop_
 _atom_site_type_symbol
 _atom_site_label
 _atom_site_symmetry_multiplicity
 _atom_site_fract_x
 _atom_site_fract_y
 _atom_site_fract_z
 _atom_site_occupancy
  Ti  Ti0  1  0.12526279  0.12033281  0.19238054  1
  Ti  Ti1  1  0.04699280  0.04868484  0.58593515  1
  Ti  Ti2  1  0.08332760  0.05774927  0.98804888  1
  Ti  Ti3  1  0.12346108  0.30251257  0.24828840  1
  Ti  Ti4  1  0.10749759  0.37399281  0.54607920  1
  Ti  Ti5  1  0.09716610  0.49596596  0.87735513  1
  Ti  Ti6  1  0.11705614  0.75052039  0.24923568  1
  Ti  Ti7  1  0.06301964  0.72688711  0.56980446  1
  Ti  Ti8  1  0.14488920  0.79211362  0.85661336  1
  Ti  Ti9  1  0.43206612  0.09263242  0.30535721  1
  Ti  Ti10  1  0.37696112  0.06190008  0.60488192  1
  Ti  Ti11  1  0.47204193  0.07633014  0.96142187  1
  Ti  Ti12  1  0.47713098  0.47108596  0.26831042  1
  Ti  Ti13  1  0.50015194  0.39736026  0.58177330  1
  Ti  Ti14  1  0.40692029  0.36824248  0.82644111  1
  Ti  Ti15  1  0.43018860  0.78105375  0.28739850  1
  Ti  Ti16  1  0.39502115  0.85737925  0.62180881  1
  Ti  Ti17  1  0.38782256  0.67875397  0.93132557  1
  Ti  Ti18  1  0.80373758  0.09684246  0.30432131  1
  Ti  Ti19  1  0.71837153  0.10237974  0.62557006  1
  Ti  Ti20  1  0.79732118  0.11281428  0.89894125  1
  Ti  Ti21  1  0.78611754  0.42494814  0.18189849  1
  Ti  Ti22  1  0.72398150  0.45625552  0.55537059  1
  Ti  Ti23  1  0.77330277  0.32832523  0.89353446  1
  Ti  Ti24  1  0.67460830  0.76229941  0.28238289  1
  Ti  Ti25  1  0.71314907  0.78989419  0.55257894  1
  Ti  Ti26  1  0.71642301  0.71261604  0.89004302  1
  Ti  Ti27  1  0.01028572  0.34767416  0.10095152  1
  Ti  Ti28  1  0.01648386  0.29869599  0.40234688  1
  Ti  Ti29  1  0.08473279  0.30959970  0.74656803  1
  Ti  Ti30  1  0.01313015  0.55688003  0.06920336  1
  Ti  Ti31  1  0.13590364  0.54497966  0.48529948  1
  Ti  Ti32  1  0.10206349  0.63327092  0.74084300  1
  Ti  Ti33  1  0.13061249  0.93320329  0.14601531  1
  Ti  Ti34  1  0.05946722  0.97083499  0.36489229  1
  Ti  Ti35  1  0.10507732  0.97817516  0.77229511  1
  Ti  Ti36  1  0.39552736  0.27830230  0.01295010  1
  Ti  Ti37  1  0.42746959  0.28381397  0.38544416  1
  Ti  Ti38  1  0.41195060  0.22179406  0.70917645  1
  Ti  Ti39  1  0.48544667  0.59525070  0.09949799  1
  Ti  Ti40  1  0.48096000  0.61408933  0.40116210  1
  Ti  Ti41  1  0.41062963  0.57474955  0.73112786  1
  Ti  Ti42  1  0.32434500  0.90003105  0.12187335  1
  Ti  Ti43  1  0.35619805  0.96456072  0.45027840  1
  Ti  Ti44  1  0.48711113  0.91996547  0.77019758  1
  Ti  Ti45  1  0.70231976  0.23502490  0.05436562  1
  Ti  Ti46  1  0.72412724  0.20774203  0.44950099  1
  Ti  Ti47  1  0.78475943  0.23308276  0.73994315  1
  Ti  Ti48  1  0.66710670  0.55094316  0.01003077  1
  Ti  Ti49  1  0.80511394  0.60862876  0.43600185  1
  Ti  Ti50  1  0.68923274  0.56828619  0.75304394  1
  Ti  Ti51  1  0.79477412  0.95393913  0.02684250  1
  Ti  Ti52  1  0.74403104  0.97389802  0.46869026  1
  Ti  Ti53  1  0.79341562  0.89058751  0.74353422  1
  Ti  Ti54  1  0.28237201  0.09372583  0.03658737  1
  Ti  Ti55  1  0.22842156  0.06086815  0.35422919  1
  Ti  Ti56  1  0.26115127  0.08820581  0.74813211  1
  Ti  Ti57  1  0.24214438  0.38812265  0.11499460  1
  Ti  Ti58  1  0.29692196  0.40956652  0.47851978  1
  Ti  Ti59  1  0.23717887  0.43802802  0.76972126  1
  Ti  Ti60  1  0.21797938  0.77084205  0.03854981  1
  Ti  Ti61  1  0.27394973  0.69243676  0.36841956  1
  Ti  Ti62  1  0.25629561  0.73608372  0.70169883  1
  Ti  Ti63  1  0.61218152  0.04458492  0.11396739  1
  Ti  Ti64  1  0.61986524  0.04753931  0.33063403  1
  Ti  Ti65  1  0.62760197  0.06159740  0.79776950  1
  Ti  Ti66  1  0.58388726  0.37983527  0.13090347  1
  Ti  Ti67  1  0.60775251  0.36730071  0.38561282  1
  Ti  Ti68  1  0.59241664  0.30728632  0.75081350  1
  Ti  Ti69  1  0.49230280  0.80585198  0.07584160  1
  Ti  Ti70  1  0.51174330  0.77253495  0.48566543  1
  Ti  Ti71  1  0.54987747  0.70496880  0.78392713  1
  Ti  Ti72  1  0.93570019  0.01953829  0.16914337  1
  Ti  Ti73  1  0.92383667  0.10753639  0.46123549  1
  Ti  Ti74  1  0.97207177  0.12946022  0.77306873  1
  Ti  Ti75  1  0.91898480  0.43352591  -0.05212905  1
  Ti  Ti76  1  0.81609564  0.40482334  0.38397957  1
  Ti  Ti77  1  0.85007384  0.47338972  0.76077217  1
  Ti  Ti78  1  1.02562673  0.75743746  0.07937128  1
  Ti  Ti79  1  0.97689468  0.77507277  0.38438887  1
  Ti  Ti80  1  0.96749218  0.78790104  0.75878498  1
  Ti  Ti81  1  0.29658130  0.22563243  0.26713372  1
  Ti  Ti82  1  0.23221740  0.22826522  0.57822152  1
  Ti  Ti83  1  0.21033579  0.27069897  0.91798529  1
  Ti  Ti84  1  0.23287897  0.54525626  0.26436039  1
  Ti  Ti85  1  0.26783707  0.55220692  0.62264357  1
  Ti  Ti86  1  0.22626094  0.57320182  0.98868176  1
  Ti  Ti87  1  0.24285055  0.88015483  0.30334424  1
  Ti  Ti88  1  0.21150269  0.89377513  0.56755122  1
  Ti  Ti89  1  0.25474153  0.97119537  0.90353962  1
  Ti  Ti90  1  0.54064608  0.22714986  0.21977499  1
  Ti  Ti91  1  0.55678370  0.21273155  0.56627986  1
  Ti  Ti92  1  0.57088932  0.34878733  0.94826303  1
  Ti  Ti93  1  0.67777551  0.54474233  0.31894738  1
  Ti  Ti94  1  0.59881417  0.62501239  0.59009731  1
  Ti  Ti95  1  0.52572300  0.53522565  0.88916709  1
  Ti  Ti96  1  0.54675082  0.91081340  0.22450801  1
  Ti  Ti97  1  0.54950870  0.95142054  0.54671800  1
  Ti  Ti98  1  0.61739516  0.90322740  0.95684629  1
  Ti  Ti99  1  0.88290600  0.26298454  0.21812636  1
  Ti  Ti100  1  0.87700604  0.31207880  0.54955406  1
  Ti  Ti101  1  0.95235638  0.22097228  0.94897333  1
  Ti  Ti102  1  1.01271654  0.57165717  0.28885905  1
  Ti  Ti103  1  0.94529214  0.51593280  0.57076268  1
  Ti  Ti104  1  0.93732322  0.63224536  0.88990850  1
  Ti  Ti105  1  0.87683105  0.92707221  0.33441671  1
  Ti  Ti106  1  0.90008762  0.86826700  0.53659498  1
  Ti  Ti107  1  0.93996528  0.95414416  0.87235728  1
  Co  Co108  1  0.72335301  -0.08215762  0.30192314  1
  Co  Co109  1  0.69710552  0.72853437  0.70732435  1
  Co  Co110  1  0.41392525  0.16457962  0.13525485  1
  Co  Co111  1  0.53826441  0.07379662  0.65756809  1
  Co  Co112  1  -0.02970927  0.40244480  0.26319866  1
  Co  Co113  1  0.85777671  0.52934771  0.29272172  1
  Co  Co114  1  0.09078385  0.66699809  -0.05796357  1
  Co  Co115  1  0.45980457  0.54515849  0.56216171  1
  Co  Co116  1  0.11570949  0.43178133  0.02107620  1
  Co  Co117  1  0.24621150  0.61282140  0.81412579  1
  Co  Co118  1  0.31609330  0.15399679  0.44393399  1
  Co  Co119  1  0.38040968  -0.04807086  0.27266254  1
  Co  Co120  1  0.05041649  0.89682363  0.52951550  1
  Co  Co121  1  0.05967009  0.32836259  -0.09168012  1
  Co  Co122  1  0.85647928  0.29995880  0.05426934  1
  Co  Co123  1  0.40347175  0.75831637  0.75572303  1
  Co  Co124  1  0.65644523  0.20908395  0.87572154  1
  Co  Co125  1  0.13581788  0.14030881  0.85832190  1
  Co  Co126  1  0.82244342  0.05455524  0.74953069  1
  Co  Co127  1  -0.07456030  0.06130006  0.99317738  1
  Co  Co128  1  0.57296752  0.20203221  0.38252966  1
  Co  Co129  1  0.25810419  0.22995330  0.11608684  1
  Co  Co130  1  0.27189728  0.75077523  0.20389485  1
  Co  Co131  1  0.54632924  0.20607364  0.03177739  1
  Co  Co132  1  0.79398997  0.79173040  0.40547944  1
  Co  Co133  1  0.11186854  0.16155551  0.36635768  1
  Co  Co134  1  0.75246369  0.00267809  0.17949090  1
  Co  Co135  1  0.79368724  0.54105464  -0.09192068  1
  Co  Co136  1  0.55795891  0.80343794  0.65019248  1
  Co  Co137  1  0.92096513  0.31205483  0.80516989  1
  Co  Co138  1  0.25875763  0.25971810  0.75357892  1
  Co  Co139  1  0.28194020  0.05323513  0.19227136  1
  Co  Co140  1  0.84770138  0.76050182  0.65656351  1
  Co  Co141  1  0.64167536  0.85400670  0.80569269  1
  Co  Co142  1  -0.03527930  -0.08904506  0.05586133  1
  Co  Co143  1  0.46652435  0.10412078  0.47510343  1
  Co  Co144  1  0.44582088  0.45038541  0.42687889  1
  Co  Co145  1  0.11588069  0.48189611  0.66078447  1
  Co  Co146  1  0.82598406  0.65389845  0.77847639  1
  Co  Co147  1  -0.00269604  0.49874746  0.76274885  1
  Co  Co148  1  0.29890564  0.39300065  0.29977025  1
  Co  Co149  1  0.65329276  0.07114391  -0.03613492  1
  Co  Co150  1  -0.03285621  0.46817454  0.41869548  1
  Co  Co151  1  0.62309059  0.08318708  0.49286182  1
  Co  Co152  1  -0.03422233  -0.05662951  0.69707319  1
  Co  Co153  1  0.73268897  0.40874761  0.02682350  1
  Co  Co154  1  -0.02999987  0.37752459  0.65608187  1
  Co  Co155  1  0.44485313  0.00813859  0.12005562  1
  Co  Co156  1  0.60557938  0.51377154  0.46175344  1
  Co  Co157  1  0.65086683  0.68061607  0.42614905  1
  Co  Co158  1  0.38487127  0.62665659  0.25176159  1
  Co  Co159  1  0.63634268  0.85340882  0.41540952  1
  Co  Co160  1  0.11330581  0.83506767  0.68957793  1
  Co  Co161  1  -0.04975735  0.63474724  0.68017150  1
  Ni  Ni162  1  0.72111581  0.29390246  0.28712995  1
  Ni  Ni163  1  0.12424017  0.15341566  0.69215112  1
  Ni  Ni164  1  0.22435592  0.69912276  0.53325738  1
  Ni  Ni165  1  0.12678769  0.43291856  0.35845806  1
  Ni  Ni166  1  0.40461528  -0.07263867  -0.02207750  1
  Ni  Ni167  1  0.88961016  0.16397838  0.62711551  1
  Ni  Ni168  1  -0.00566704  0.86495160  0.22608284  1
  Ni  Ni169  1  0.35807593  0.49358294  0.15636277  1
  Ni  Ni170  1  0.38610417  0.68805034  0.59137276  1
  Ni  Ni171  1  0.80997793  0.84097938  -0.09548035  1
  Ni  Ni172  1  0.81903899  0.12979964  0.09538773  1
  Ni  Ni173  1  0.86447870  0.24169499  0.37851439  1
  Ni  Ni174  1  0.39274961  0.25714501  0.54354901  1
  Ni  Ni175  1  0.55318440  0.48267076  0.71519000  1
  Ni  Ni176  1  0.27134712  0.41243105  -0.04801822  1
  Ni  Ni177  1  0.65613133  -0.05534934  0.66886878  1
  Ni  Ni178  1  0.49316126  0.21905163  0.86146739  1
  Ni  Ni179  1  0.40902947  0.33430076  0.17823273  1
  Ni  Ni180  1  0.15040997  0.82022682  0.42562380  1
  Ni  Ni181  1  0.49734251  0.92564561  0.38466780  1
  Ni  Ni182  1  0.36196650  0.51968826  0.88627438  1
  Ni  Ni183  1  0.14841884  0.63215772  0.13602925  1
  Ni  Ni184  1  0.33607086  0.16743862  0.88317583  1
  Ni  Ni185  1  0.03174013  0.22665178  0.57166001  1
  Ni  Ni186  1  0.10549284  0.66830190  0.39594001  1
  Ni  Ni187  1  0.27447639  -0.09218827  0.74040371  1
  Ni  Ni188  1  0.10629412  0.89464976  -0.02413874  1
  Ni  Ni189  1  0.32645776  0.64960855  0.09585052  1
  Ni  Ni190  1  0.20805826  0.28775439  0.40586604  1
  Ni  Ni191  1  0.66597087  0.86568713  0.11909384  1
  Ni  Ni192  1  0.10441835  0.47135142  0.18552525  1
  Ni  Ni193  1  0.79151022  0.60398947  0.61476522  1
  Ni  Ni194  1  0.44602813  0.44138280  0.02027218  1
  Ni  Ni195  1  0.90485688  0.69732606  0.52173063  1
  Ni  Ni196  1  0.31220916  0.81674451  0.88128499  1
  Ni  Ni197  1  0.43039882  0.07124696  0.78993703  1
  Ni  Ni198  1  0.85632844  0.01164350  0.59304771  1
  Ni  Ni199  1  0.62715350  0.53041394  0.16956706  1
  Ni  Ni200  1  0.69309042  0.16053222  0.20509117  1
  Ni  Ni201  1  0.48554535  0.81282803  -0.10176724  1
  Ni  Ni202  1  0.66514328  0.44610462  0.85773871  1
  Ni  Ni203  1  0.33958447  0.37482312  0.65138349  1
  Ni  Ni204  1  0.71932613  0.39625682  0.70717678  1
  Ni  Ni205  1  0.56391971  0.68826777  -0.02962993  1
  Ni  Ni206  1  0.21096462  0.06274263  0.54309790  1
  Ni  Ni207  1  0.54840298  0.65345029  0.24821729  1
  Ni  Ni208  1  0.11531404  0.21970966  0.04026815  1
  Ni  Ni209  1  0.70478427  0.28668747  0.59290716  1
  Ni  Ni210  1  0.34450508  0.80095012  0.46391921  1
  Ni  Ni211  1  -0.02609689  0.13376502  0.29455183  1
  Ni  Ni212  1  -0.03165599  0.79777683  0.93107342  1
  Ni  Ni213  1  0.32504710  0.57353604  0.46632564  1
  Ni  Ni214  1  -0.01962370  0.17107537  0.11580817  1
