# generated using pymatgen
data_Ti108Co54Ni53
_symmetry_space_group_name_H-M   'P 1'
_cell_length_a   14.65996651
_cell_length_b   14.67045702
_cell_length_c   14.63907592
_cell_angle_alpha   89.73874708
_cell_angle_beta   90.13605553
_cell_angle_gamma   90.08798310
_symmetry_Int_Tables_number   1
_chemical_formula_structural   Ti108Co54Ni53
_chemical_formula_sum   'Ti108 Co54 Ni53'
_cell_volume   3148.35749485
_cell_formula_units_Z   1
loop_
 _symmetry_equiv_pos_site_id
 _symmetry_equiv_pos_as_xyz
  1  'x, y, z'
loop_
 _atom_site_type_symbol
 _atom_site_label
 _atom_site_symmetry_multiplicity
 _atom_site_fract_x
 _atom_site_fract_y
 _atom_site_fract_z
 _atom_site_occupancy
  Ti  Ti0  1  0.04251952  0.04301895  0.19967281  1
  Ti  Ti1  1  0.05066554  0.14753633  0.57360640  1
  Ti  Ti2  1  0.05076951  0.08021809  0.93203038  1
  Ti  Ti3  1  0.11773938  0.42543725  0.27152994  1
  Ti  Ti4  1  0.12267717  0.46099418  0.54818301  1
  Ti  Ti5  1  0.07830820  0.39171412  0.92903741  1
  Ti  Ti6  1  0.12723181  0.78571102  0.29263744  1
  Ti  Ti7  1  0.10259176  0.81600193  0.49674185  1
  Ti  Ti8  1  0.14387941  0.76042603  0.95273460  1
  Ti  Ti9  1  0.48903635  0.12371676  0.21596871  1
  Ti  Ti10  1  0.39224544  0.06582743  0.60504683  1
  Ti  Ti11  1  0.41502553  0.04858319  0.87256522  1
  Ti  Ti12  1  0.50860414  0.36591608  0.23913912  1
  Ti  Ti13  1  0.41120576  0.35145841  0.59080524  1
  Ti  Ti14  1  0.46005256  0.40422106  0.88971065  1
  Ti  Ti15  1  0.46080915  0.74552931  0.20368604  1
  Ti  Ti16  1  0.43722405  0.71637246  0.63692877  1
  Ti  Ti17  1  0.49710824  0.72151324  0.94547070  1
  Ti  Ti18  1  0.71359894  0.13698159  0.20408083  1
  Ti  Ti19  1  0.72890932  0.01882873  0.53474519  1
  Ti  Ti20  1  0.72936662  0.04684335  0.90035379  1
  Ti  Ti21  1  0.71609510  0.43639170  0.32564992  1
  Ti  Ti22  1  0.80796472  0.44150026  0.65207874  1
  Ti  Ti23  1  0.73269508  0.38647973  0.91324317  1
  Ti  Ti24  1  0.73880584  0.77960172  0.30081133  1
  Ti  Ti25  1  0.73564902  0.76127677  0.61227886  1
  Ti  Ti26  1  0.69761339  0.74087062  0.91956554  1
  Ti  Ti27  1  0.17373365  0.22601632  0.01843657  1
  Ti  Ti28  1  0.05921983  0.16743292  0.37913121  1
  Ti  Ti29  1  0.15534618  0.20687427  0.78221660  1
  Ti  Ti30  1  0.07697670  0.60125082  0.17288251  1
  Ti  Ti31  1  0.11062320  0.57529757  0.37854979  1
  Ti  Ti32  1  0.12210352  0.58287103  0.69233894  1
  Ti  Ti33  1  0.06565925  0.88622914  0.10442665  1
  Ti  Ti34  1  0.08375012  0.97562616  0.37505495  1
  Ti  Ti35  1  0.05805004  0.86943110  0.79700626  1
  Ti  Ti36  1  0.42031956  0.33279202  0.05405916  1
  Ti  Ti37  1  0.36937540  0.22474252  0.33866959  1
  Ti  Ti38  1  0.45086737  0.25443738  0.75598436  1
  Ti  Ti39  1  0.37685125  0.57509173  0.07674105  1
  Ti  Ti40  1  0.46968379  0.61470251  0.46488049  1
  Ti  Ti41  1  0.37434910  0.52712135  0.73045968  1
  Ti  Ti42  1  0.42445845  0.93751614  0.15479129  1
  Ti  Ti43  1  0.40349038  0.94715556  0.43822292  1
  Ti  Ti44  1  0.42435123  0.83307082  0.80312536  1
  Ti  Ti45  1  0.69674928  0.32883331  0.15099164  1
  Ti  Ti46  1  0.81228586  0.26821590  0.36356204  1
  Ti  Ti47  1  0.76711356  0.13337855  0.71925050  1
  Ti  Ti48  1  0.68776375  0.66292074  0.13250125  1
  Ti  Ti49  1  0.66342016  0.63887765  0.44304177  1
  Ti  Ti50  1  0.75392392  0.60861863  0.75090473  1
  Ti  Ti51  1  0.74448722  0.93112545  0.12602350  1
  Ti  Ti52  1  0.74337932  0.97584170  0.33137455  1
  Ti  Ti53  1  0.86370170  0.94502380  0.75415402  1
  Ti  Ti54  1  0.28838588  0.11510900  0.15194268  1
  Ti  Ti55  1  0.25292495  0.08966008  0.44858146  1
  Ti  Ti56  1  0.21262596  0.01560892  0.77323306  1
  Ti  Ti57  1  0.22787431  0.40022111  0.10975894  1
  Ti  Ti58  1  0.26309777  0.37387410  0.43894816  1
  Ti  Ti59  1  0.23145885  0.43661724  0.81760042  1
  Ti  Ti60  1  0.33886499  0.78038326  0.06491884  1
  Ti  Ti61  1  0.26470394  0.73002642  0.41619321  1
  Ti  Ti62  1  0.23648518  0.74508578  0.67208930  1
  Ti  Ti63  1  0.54882380  0.02267045  0.02750934  1
  Ti  Ti64  1  0.59221776  0.15225928  0.49530329  1
  Ti  Ti65  1  0.57911178  0.12751106  0.75169081  1
  Ti  Ti66  1  0.56444311  0.46882067  0.06444581  1
  Ti  Ti67  1  0.54468177  0.43590716  0.43984138  1
  Ti  Ti68  1  0.54260935  0.42376590  0.71342834  1
  Ti  Ti69  1  0.58232542  0.82642428  0.06522831  1
  Ti  Ti70  1  0.53516915  0.77985120  0.38631913  1
  Ti  Ti71  1  0.59010854  0.75620750  0.75311971  1
  Ti  Ti72  1  0.87083316  0.10730661  0.04285033  1
  Ti  Ti73  1  0.89163227  0.10286205  0.45978996  1
  Ti  Ti74  1  0.96562762  0.11995794  0.75549109  1
  Ti  Ti75  1  0.91904675  0.32418937  0.08219269  1
  Ti  Ti76  1  0.93145171  0.42829194  0.38196785  1
  Ti  Ti77  1  1.00109202  0.43929741  0.72669807  1
  Ti  Ti78  1  0.94980075  0.74256767  0.05846745  1
  Ti  Ti79  1  0.83813055  0.72829648  0.44224740  1
  Ti  Ti80  1  0.92254886  0.73388252  0.70026434  1
  Ti  Ti81  1  0.15772844  0.23830829  0.23264874  1
  Ti  Ti82  1  0.21046131  0.26482077  0.59250927  1
  Ti  Ti83  1  0.33067052  0.22275713  0.90355046  1
  Ti  Ti84  1  0.26680454  0.57772872  0.23869214  1
  Ti  Ti85  1  0.29156255  0.59246081  0.56409325  1
  Ti  Ti86  1  0.19584347  0.56765016  0.99322570  1
  Ti  Ti87  1  0.23993643  0.93294246  0.22426984  1
  Ti  Ti88  1  0.27094526  0.90717670  0.55494671  1
  Ti  Ti89  1  0.28915001  0.90809281  0.91156235  1
  Ti  Ti90  1  0.60838187  0.24937515  0.32787022  1
  Ti  Ti91  1  0.63856222  0.29415637  0.62098208  1
  Ti  Ti92  1  0.53076082  0.20056662  0.93914913  1
  Ti  Ti93  1  0.48630506  0.55728703  0.26629695  1
  Ti  Ti94  1  0.65210540  0.50228543  0.58284056  1
  Ti  Ti95  1  0.56415507  0.58326575  0.80573197  1
  Ti  Ti96  1  0.53012941  0.94623694  0.30758948  1
  Ti  Ti97  1  0.59920498  0.90624973  0.62888556  1
  Ti  Ti98  1  0.57927845  0.92395483  0.85710087  1
  Ti  Ti99  1  0.92128572  0.18636060  0.22769123  1
  Ti  Ti100  1  0.89027620  0.26932269  0.64047734  1
  Ti  Ti101  1  0.86400683  0.23813991  0.87319607  1
  Ti  Ti102  1  0.91833687  0.59967915  0.30062707  1
  Ti  Ti103  1  0.96798195  0.60552597  0.53599072  1
  Ti  Ti104  1  0.94396870  0.59733582  0.85502176  1
  Ti  Ti105  1  0.90767181  0.87309831  0.23514274  1
  Ti  Ti106  1  0.97943413  0.94340114  0.58883813  1
  Ti  Ti107  1  0.86380416  0.88441661  0.93690060  1
  Co  Co108  1  0.54767062  0.24795281  0.13566090  1
  Co  Co109  1  0.56317117  0.76988925  0.54536551  1
  Co  Co110  1  0.12827396  0.00236321  0.52581562  1
  Co  Co111  1  0.48324934  0.20023614  0.60322119  1
  Co  Co112  1  0.66284148  0.32712202  0.46184741  1
  Co  Co113  1  0.48277344  0.56072665  -0.05138831  1
  Co  Co114  1  0.04366145  0.30727528  0.60115191  1
  Co  Co115  1  0.48750485  0.28424683  0.44657332  1
  Co  Co116  1  0.38116788  0.47597633  0.50632627  1
  Co  Co117  1  0.83963905  -0.08057421  0.45463517  1
  Co  Co118  1  0.59960172  0.08296849  0.33603419  1
  Co  Co119  1  0.38869152  0.67552332  0.33363430  1
  Co  Co120  1  0.33829915  0.51215130  0.91974915  1
  Co  Co121  1  -0.00270899  0.30722082  0.29349546  1
  Co  Co122  1  -0.08278847  -0.05585640  0.07605614  1
  Co  Co123  1  0.34369149  0.21526330  0.50466970  1
  Co  Co124  1  0.26167723  0.43708210  0.62922258  1
  Co  Co125  1  0.35454439  0.26173050  0.17374516  1
  Co  Co126  1  0.80290228  0.90313787  0.61455888  1
  Co  Co127  1  0.63451527  0.60589409  -0.02402093  1
  Co  Co128  1  0.69182514  0.45551690  0.76790150  1
  Co  Co129  1  0.69533199  -0.09741986  -0.02890505  1
  Co  Co130  1  0.37629644  0.85240285  0.30660939  1
  Co  Co131  1  0.84328404  0.35601904  0.23340114  1
  Co  Co132  1  0.40948761  0.66985794  0.80259685  1
  Co  Co133  1  0.09836114  0.69955500  0.80325388  1
  Co  Co134  1  0.07043723  0.31836793  0.12202900  1
  Co  Co135  1  0.60282605  0.66720016  0.27594944  1
  Co  Co136  1  0.60971351  0.00274032  0.17673154  1
  Co  Co137  1  0.91306775  0.56723013  0.68681305  1
  Co  Co138  1  0.14001182  0.36334795  0.71359455  1
  Co  Co139  1  0.00062933  0.73938982  0.22287233  1
  Co  Co140  1  0.87867597  0.07571655  0.62035193  1
  Co  Co141  1  0.07893552  0.04005172  0.69481251  1
  Co  Co142  1  0.60969232  0.32220200  0.00061511  1
  Co  Co143  1  0.48321194  0.54067016  0.61178663  1
  Co  Co144  1  -0.02088172  0.75670835  0.89252278  1
  Co  Co145  1  0.04462920  0.62460663  -0.01129362  1
  Co  Co146  1  0.61119724  0.64686845  0.63426364  1
  Co  Co147  1  0.09488886  0.53719132  0.85293518  1
  Co  Co148  1  0.52803206  0.63595014  0.09987730  1
  Co  Co149  1  0.21936566  0.10186583  0.62115196  1
  Co  Co150  1  -0.06924014  0.79410923  0.54793384  1
  Co  Co151  1  -0.06532445  0.02055871  0.33678349  1
  Co  Co152  1  0.39767356  0.77604687  0.48332769  1
  Co  Co153  1  0.67846152  0.00237108  0.72841065  1
  Co  Co154  1  0.89442981  0.04853952  0.88690402  1
  Co  Co155  1  0.79465173  0.61814658  0.58081060  1
  Co  Co156  1  0.43763525  0.88396233  0.60144573  1
  Co  Co157  1  0.45165936  0.89014801  -0.02538162  1
  Co  Co158  1  0.45044733  0.10767017  0.42435716  1
  Co  Co159  1  0.86423858  0.40253970  0.80291603  1
  Co  Co160  1  0.75548468  0.60930675  0.30636191  1
  Co  Co161  1  0.36318451  0.03128820  0.29067825  1
  Ni  Ni162  1  0.72342594  0.85890005  0.78667697  1
  Ni  Ni163  1  0.69632075  0.20580116  0.89015132  1
  Ni  Ni164  1  0.03036066  0.16393034  0.08975877  1
  Ni  Ni165  1  0.01047748  0.70406473  0.40182638  1
  Ni  Ni166  1  0.27385079  0.36098473  0.27360128  1
  Ni  Ni167  1  0.78059472  0.51075154  0.45828137  1
  Ni  Ni168  1  0.61223700  0.83460221  0.22200675  1
  Ni  Ni169  1  0.42310199  0.14988074  0.05336271  1
  Ni  Ni170  1  -0.03065134  0.45732482  0.20710448  1
  Ni  Ni171  1  0.56702228  -0.02525867  0.47433583  1
  Ni  Ni172  1  0.37610723  0.44795622  0.18205571  1
  Ni  Ni173  1  0.68676007  0.85350902  0.46100422  1
  Ni  Ni174  1  0.01327841  0.24328038  -0.05147486  1
  Ni  Ni175  1  0.34257603  0.00820612  0.03160536  1
  Ni  Ni176  1  0.27760555  0.54606425  0.39931165  1
  Ni  Ni177  1  0.28118989  0.74562565  0.22121141  1
  Ni  Ni178  1  0.74598117  0.29698578  0.75507090  1
  Ni  Ni179  1  0.15273310  0.73325375  0.11569883  1
  Ni  Ni180  1  0.12833950  -0.06204393  0.93515762  1
  Ni  Ni181  1  0.14329227  0.89627691  0.65557453  1
  Ni  Ni182  1  0.27037439  0.36465047  -0.04115921  1
  Ni  Ni183  1  0.39852263  0.43539789  0.35044672  1
  Ni  Ni184  1  0.78516983  0.78740829  0.06045519  1
  Ni  Ni185  1  0.47764542  -0.01484559  0.72863120  1
  Ni  Ni186  1  0.83119682  0.74546636  0.82857935  1
  Ni  Ni187  1  0.07114844  0.47032706  0.07498600  1
  Ni  Ni188  1  0.22358565  0.88978255  0.06565366  1
  Ni  Ni189  1  0.77732025  0.25415203  0.02560215  1
  Ni  Ni190  1  0.15558539  0.04068644  0.07124396  1
  Ni  Ni191  1  0.00624997  0.28493041  0.78487873  1
  Ni  Ni192  1  0.76236438  0.19600845  0.54412878  1
  Ni  Ni193  1  0.14144587  0.65238651  0.52411011  1
  Ni  Ni194  1  0.23289927  0.90154831  0.39076056  1
  Ni  Ni195  1  0.31051499  -0.09979303  0.71618132  1
  Ni  Ni196  1  0.66016574  0.14636099  0.04637994  1
  Ni  Ni197  1  0.96973596  0.85714425  0.39056871  1
  Ni  Ni198  1  0.73780011  0.13099349  0.39144896  1
  Ni  Ni199  1  0.06950434  0.74727149  0.64199360  1
  Ni  Ni200  1  0.29750671  0.30922866  0.73425578  1
  Ni  Ni201  1  0.25663194  0.77372202  0.82618208  1
  Ni  Ni202  1  0.09207811  0.34903594  0.42931490  1
  Ni  Ni203  1  0.64033162  0.51392004  0.20451492  1
  Ni  Ni204  1  0.81352361  0.35448506  0.50582006  1
  Ni  Ni205  1  0.32072408  0.14314909  0.74872791  1
  Ni  Ni206  1  0.32543728  0.67588458  -0.05710732  1
  Ni  Ni207  1  0.23044496  0.08847591  -0.07396388  1
  Ni  Ni208  1  0.59721278  0.31377655  0.82565058  1
  Ni  Ni209  1  -0.04758483  0.27173053  0.46368557  1
  Ni  Ni210  1  -0.04992186  0.43661367  0.55052973  1
  Ni  Ni211  1  0.24268374  0.61111896  0.81571679  1
  Ni  Ni212  1  0.19784370  0.08681055  0.29445826  1
  Ni  Ni213  1  0.84393866  0.70354272  0.19257248  1
  Ni  Ni214  1  0.85402975  0.03476061  0.19862253  1
