# generated using pymatgen
data_Ti108Co54Ni53
_symmetry_space_group_name_H-M   'P 1'
_cell_length_a   14.58368200
_cell_length_b   14.62078562
_cell_length_c   14.55045773
_cell_angle_alpha   90.10610443
_cell_angle_beta   89.91585925
_cell_angle_gamma   89.66756199
_symmetry_Int_Tables_number   1
_chemical_formula_structural   Ti108Co54Ni53
_chemical_formula_sum   'Ti108 Co54 Ni53'
_cell_volume   3102.45878250
_cell_formula_units_Z   1
loop_
 _symmetry_equiv_pos_site_id
 _symmetry_equiv_pos_as_xyz
  1  'x, y, z'
loop_
 _atom_site_type_symbol
 _atom_site_label
 _atom_site_symmetry_multiplicity
 _atom_site_fract_x
 _atom_site_fract_y
 _atom_site_fract_z
 _atom_site_occupancy
  Ti  Ti0  1  0.03437411  -0.01275421  0.24762518  1
  Ti  Ti1  1  0.05230215  0.05884721  0.62199228  1
  Ti  Ti2  1  0.00491360  0.07971842  0.90766249  1
  Ti  Ti3  1  0.09408949  0.38873415  0.31000285  1
  Ti  Ti4  1  0.03029874  0.45621360  0.55933679  1
  Ti  Ti5  1  0.02713836  0.41230388  1.03061598  1
  Ti  Ti6  1  0.08663149  0.78530229  0.28639054  1
  Ti  Ti7  1  0.14855530  0.75585583  0.60733876  1
  Ti  Ti8  1  0.08362875  0.69548282  0.93234075  1
  Ti  Ti9  1  0.39695524  0.05943566  0.25131461  1
  Ti  Ti10  1  0.44754499  0.08199342  0.56554382  1
  Ti  Ti11  1  0.39555458  0.02163631  0.93431961  1
  Ti  Ti12  1  0.42425230  0.44476115  0.27203685  1
  Ti  Ti13  1  0.44784179  0.51240738  0.55100994  1
  Ti  Ti14  1  0.40006823  0.45317960  0.94206217  1
  Ti  Ti15  1  0.45924281  0.76836862  0.18994142  1
  Ti  Ti16  1  0.41314957  0.71161420  0.59000053  1
  Ti  Ti17  1  0.39905825  0.79382721  0.92916029  1
  Ti  Ti18  1  0.83304912  0.05096229  0.33524225  1
  Ti  Ti19  1  0.65627498  0.11009802  0.55980282  1
  Ti  Ti20  1  0.78979879  0.07935951  0.93911520  1
  Ti  Ti21  1  0.75369448  0.42056623  0.27174374  1
  Ti  Ti22  1  0.73615254  0.45776219  0.57534494  1
  Ti  Ti23  1  0.78896996  0.38177001  0.99216134  1
  Ti  Ti24  1  0.69869880  0.75073054  0.21948875  1
  Ti  Ti25  1  0.80483639  0.79443903  0.54091460  1
  Ti  Ti26  1  0.71731693  0.68630564  0.88239825  1
  Ti  Ti27  1  0.10882387  0.23288648  0.03096277  1
  Ti  Ti28  1  0.07820345  0.20085487  0.36838560  1
  Ti  Ti29  1  0.12303452  0.31916327  0.66711997  1
  Ti  Ti30  1  -0.00086190  0.61392314  0.08632380  1
  Ti  Ti31  1  0.05027653  0.61723437  0.42875901  1
  Ti  Ti32  1  0.04967058  0.65996554  0.74500145  1
  Ti  Ti33  1  0.10661180  0.97332779  0.04636631  1
  Ti  Ti34  1  0.09001333  0.90222407  0.47393448  1
  Ti  Ti35  1  0.15855081  0.93280857  0.69228503  1
  Ti  Ti36  1  0.41558713  0.27594755  0.03866097  1
  Ti  Ti37  1  0.41912075  0.24020532  0.34223476  1
  Ti  Ti38  1  0.48025771  0.26429304  0.81576603  1
  Ti  Ti39  1  0.36348394  0.58376634  0.15124307  1
  Ti  Ti40  1  0.40566922  0.64233383  0.33224364  1
  Ti  Ti41  1  0.43867146  0.56490902  0.76837357  1
  Ti  Ti42  1  0.42615034  0.93552642  0.10849713  1
  Ti  Ti43  1  0.41169653  0.95714765  0.41257651  1
  Ti  Ti44  1  0.41527349  0.91518146  0.75506030  1
  Ti  Ti45  1  0.74304073  0.14654188  0.15279806  1
  Ti  Ti46  1  0.75376559  0.26585218  0.49422105  1
  Ti  Ti47  1  0.66948748  0.27508662  0.68343010  1
  Ti  Ti48  1  0.73151932  0.57925149  0.06211690  1
  Ti  Ti49  1  0.70965064  0.60303469  0.39796870  1
  Ti  Ti50  1  0.73709369  0.57217245  0.71755810  1
  Ti  Ti51  1  0.76832511  0.92044945  0.07663907  1
  Ti  Ti52  1  0.71903970  0.95923847  0.43490736  1
  Ti  Ti53  1  0.68728757  0.85994270  0.78291585  1
  Ti  Ti54  1  0.27182542  0.10735316  0.07268200  1
  Ti  Ti55  1  0.21712510  0.04709217  0.33937527  1
  Ti  Ti56  1  0.26361766  0.06988251  0.80736044  1
  Ti  Ti57  1  0.25909722  0.44421494  0.07669283  1
  Ti  Ti58  1  0.27513952  0.37454650  0.38119159  1
  Ti  Ti59  1  0.18422917  0.41864504  0.89398952  1
  Ti  Ti60  1  0.17713623  0.75443770  0.09817473  1
  Ti  Ti61  1  0.30000450  0.79219529  0.42555300  1
  Ti  Ti62  1  0.24374226  0.70199103  0.79755328  1
  Ti  Ti63  1  0.60077977  0.05301598  0.07075196  1
  Ti  Ti64  1  0.54891135  0.09019082  0.38549050  1
  Ti  Ti65  1  0.73044646  0.04850568  0.74883206  1
  Ti  Ti66  1  0.60580496  0.28852200  0.10131854  1
  Ti  Ti67  1  0.61833299  0.40146757  0.42238365  1
  Ti  Ti68  1  0.64282093  0.40823760  0.81397831  1
  Ti  Ti69  1  0.57465821  0.76737561  0.00591032  1
  Ti  Ti70  1  0.61191776  0.80362226  0.43506251  1
  Ti  Ti71  1  0.58080489  0.69245424  0.74745825  1
  Ti  Ti72  1  0.96432892  0.11293135  0.08712208  1
  Ti  Ti73  1  0.99779728  0.05469853  0.43350131  1
  Ti  Ti74  1  0.90630628  0.08503157  0.75044246  1
  Ti  Ti75  1  0.87533769  0.47336109  0.13927122  1
  Ti  Ti76  1  0.95269191  0.33751434  0.42590845  1
  Ti  Ti77  1  0.85875609  0.41999037  0.80402160  1
  Ti  Ti78  1  0.88828365  0.76049180  0.07783960  1
  Ti  Ti79  1  0.88168731  0.69833499  0.38362708  1
  Ti  Ti80  1  0.89286170  0.77501797  0.79329414  1
  Ti  Ti81  1  0.22241652  0.22613197  0.23420301  1
  Ti  Ti82  1  0.27843205  0.20003714  0.56228844  1
  Ti  Ti83  1  0.17138727  0.22862809  0.83932768  1
  Ti  Ti84  1  0.21424957  0.62212082  0.31270780  1
  Ti  Ti85  1  0.25667514  0.61737766  0.50759853  1
  Ti  Ti86  1  0.28523923  0.61457598  0.96225546  1
  Ti  Ti87  1  0.23365163  0.92617967  0.18323684  1
  Ti  Ti88  1  0.26098333  0.96441283  0.53193352  1
  Ti  Ti89  1  0.25860025  0.87923510  0.83991962  1
  Ti  Ti90  1  0.63151780  0.24146254  0.29949704  1
  Ti  Ti91  1  0.53321109  0.24875754  0.50916283  1
  Ti  Ti92  1  0.67272642  0.23819436  0.93659934  1
  Ti  Ti93  1  0.61761206  0.55208357  0.23632144  1
  Ti  Ti94  1  0.63365462  0.68416020  0.57717105  1
  Ti  Ti95  1  0.57428105  0.53346866  0.95498963  1
  Ti  Ti96  1  0.55901170  0.92610022  0.27234096  1
  Ti  Ti97  1  0.56342966  0.98836194  0.67509154  1
  Ti  Ti98  1  0.56909204  1.02798946  0.86180028  1
  Ti  Ti99  1  0.91736610  0.19396111  0.25113428  1
  Ti  Ti100  1  0.94053179  0.21485527  0.59233874  1
  Ti  Ti101  1  0.94268335  0.26003400  0.89905998  1
  Ti  Ti102  1  0.91842429  0.52301366  0.31718431  1
  Ti  Ti103  1  0.93704464  0.64692489  0.60161045  1
  Ti  Ti104  1  1.00332219  0.52265780  0.88511030  1
  Ti  Ti105  1  0.89050374  0.85537324  0.24055555  1
  Ti  Ti106  1  0.90556811  0.95268269  0.56629050  1
  Ti  Ti107  1  0.98733977  0.86864521  0.93068381  1
  Co  Co108  1  0.15568340  0.57106290  0.83788626  1
  Co  Co109  1  0.44712279  0.10660527  0.06759731  1
  Co  Co110  1  0.73631242  -0.02416375  0.59787428  1
  Co  Co111  1  0.53886639  0.17209915  0.67281348  1
  Co  Co112  1  0.52388609  0.52459058  0.37860561  1
  Co  Co113  1  0.68384875  0.43259342  0.11479065  1
  Co  Co114  1  0.18057620  0.10093190  -0.05600093  1
  Co  Co115  1  0.52300717  0.17256720  -0.05602337  1
  Co  Co116  1  0.14658013  0.74823922  0.43890847  1
  Co  Co117  1  0.60453868  0.53728767  0.52277539  1
  Co  Co118  1  0.28832341  0.81997078  0.66984724  1
  Co  Co119  1  0.78275208  0.62707460  0.54644428  1
  Co  Co120  1  0.44030156  0.09920646  0.78156221  1
  Co  Co121  1  0.09072629  0.20968475  0.54135366  1
  Co  Co122  1  0.52275903  0.91959425  -0.02152026  1
  Co  Co123  1  0.04347612  0.49084978  0.72473671  1
  Co  Co124  1  0.47603975  0.30319406  0.19590449  1
  Co  Co125  1  0.51136099  0.66611487  0.88429199  1
  Co  Co126  1  0.34436666  0.51771136  0.41270403  1
  Co  Co127  1  0.40466046  0.73579774  0.76524001  1
  Co  Co128  1  0.53627446  0.14098893  0.20698477  1
  Co  Co129  1  -0.06230035  -0.04980675  0.06138102  1
  Co  Co130  1  0.35857752  0.11202587  0.43099578  1
  Co  Co131  1  0.76643321  0.72965355  0.69586503  1
  Co  Co132  1  0.09851761  0.81110260  0.78955520  1
  Co  Co133  1  0.20061638  0.88684095  0.34416841  1
  Co  Co134  1  -0.07157945  0.36492084  0.25693599  1
  Co  Co135  1  0.60377962  0.88429443  0.12233815  1
  Co  Co136  1  0.23612939  0.47665887  0.24634162  1
  Co  Co137  1  0.90191472  0.18480946  0.42104719  1
  Co  Co138  1  0.54852755  0.35966095  0.95237141  1
  Co  Co139  1  0.79268438  0.26492835  0.32671602  1
  Co  Co140  1  0.71129329  0.13796571  0.40306358  1
  Co  Co141  1  0.36983665  0.19401911  0.17774825  1
  Co  Co142  1  0.53883846  0.83325636  0.83645017  1
  Co  Co143  1  0.66579756  0.84229627  0.61201210  1
  Co  Co144  1  0.11728025  0.58957457  0.59852184  1
  Co  Co145  1  0.04760488  0.35956280  0.83588346  1
  Co  Co146  1  0.88610168  0.50155551  0.65888615  1
  Co  Co147  1  0.15741563  0.83111815  -0.04576855  1
  Co  Co148  1  0.63153087  0.16630880  0.80360907  1
  Co  Co149  1  0.13858532  0.08756321  0.17932435  1
  Co  Co150  1  0.82946879  0.08638964  0.52121319  1
  Co  Co151  1  0.16435933  0.08117720  0.48823785  1
  Co  Co152  1  0.28013973  0.74765677  0.23600230  1
  Co  Co153  1  0.35203785  0.18068772  0.90540958  1
  Co  Co154  1  0.06198932  0.22957806  0.19761571  1
  Co  Co155  1  0.13534945  0.34141901  0.47604054  1
  Co  Co156  1  0.80074779  0.40860154  0.42068144  1
  Co  Co157  1  0.87752290  0.52178731  -0.01841838  1
  Co  Co158  1  -0.03652971  0.35076209  0.69846974  1
  Co  Co159  1  0.31844274  0.34762157  0.19474019  1
  Co  Co160  1  0.36445603  -0.10785268  0.27120608  1
  Co  Co161  1  0.66129384  0.05933113  0.26523527  1
  Ni  Ni162  1  0.05264042  0.50469825  0.20110905  1
  Ni  Ni163  1  0.51823808  0.82027090  0.66344134  1
  Ni  Ni164  1  0.87995023  0.60365120  0.79308873  1
  Ni  Ni165  1  0.55831266  0.64380705  0.12476224  1
  Ni  Ni166  1  -0.08349476  -0.10475232  0.40051169  1
  Ni  Ni167  1  0.17716811  0.60460570  0.15355796  1
  Ni  Ni168  1  -0.02740152  0.81098583  0.64813193  1
  Ni  Ni169  1  0.29229232  0.61514280  0.66947158  1
  Ni  Ni170  1  0.58596669  0.39550461  0.25236796  1
  Ni  Ni171  1  0.29827158  0.50779172  0.81145549  1
  Ni  Ni172  1  0.13593693  0.54685236  0.00663876  1
  Ni  Ni173  1  0.03049620  0.20111622  0.75273567  1
  Ni  Ni174  1  0.82897809  0.21637511  0.01670928  1
  Ni  Ni175  1  0.43529259  0.65488370  0.02454313  1
  Ni  Ni176  1  0.18034491  0.13937318  0.67772903  1
  Ni  Ni177  1  -0.01521722  0.66516288  0.24519126  1
  Ni  Ni178  1  0.44096778  0.37985519  0.44738860  1
  Ni  Ni179  1  0.85252310  -0.04707686  0.86117989  1
  Ni  Ni180  1  0.16475687  0.49536009  0.43599593  1
  Ni  Ni181  1  0.80579117  0.81507235  -0.06270751  1
  Ni  Ni182  1  0.57956062  0.38568542  0.59337088  1
  Ni  Ni183  1  -0.05387160  0.29192151  0.09877317  1
  Ni  Ni184  1  0.85594003  0.02528824  0.17944398  1
  Ni  Ni185  1  0.51539055  0.66311839  0.46018005  1
  Ni  Ni186  1  0.76660847  0.80985929  0.36346109  1
  Ni  Ni187  1  0.79331220  0.17345996  0.65712763  1
  Ni  Ni188  1  0.33367731  0.78669992  0.08008307  1
  Ni  Ni189  1  0.14298858  0.36297002  0.15130355  1
  Ni  Ni190  1  0.03165007  0.83148053  0.12915232  1
  Ni  Ni191  1  0.72913995  -0.08269166  0.24277350  1
  Ni  Ni192  1  0.57940291  0.52132885  0.68704984  1
  Ni  Ni193  1  -0.01147844  0.77266132  0.48874404  1
  Ni  Ni194  1  0.82458185  0.63698895  0.20272605  1
  Ni  Ni195  1  0.56911744  0.69623061  0.30453920  1
  Ni  Ni196  1  0.56348710  -0.04856229  0.50971807  1
  Ni  Ni197  1  0.87123265  0.36793615  0.56939808  1
  Ni  Ni198  1  0.11524969  -0.03332854  0.86091180  1
  Ni  Ni199  1  0.23448997  0.21534334  0.40691747  1
  Ni  Ni200  1  -0.01273636  -0.06220730  0.75392361  1
  Ni  Ni201  1  0.27292508  -0.06575926  0.00966152  1
  Ni  Ni202  1  0.68638499  -0.06616373  -0.06504104  1
  Ni  Ni203  1  0.51114434  0.46148875  0.10203459  1
  Ni  Ni204  1  0.40664690  0.87847634  0.56016449  1
  Ni  Ni205  1  0.25841681  0.29263985  -0.01767993  1
  Ni  Ni206  1  0.45981362  0.79738227  0.37537331  1
  Ni  Ni207  1  0.72344945  0.74236542  0.05941262  1
  Ni  Ni208  1  0.32905059  0.02818433  0.66322614  1
  Ni  Ni209  1  0.79256354  0.30559023  0.15689520  1
  Ni  Ni210  1  -0.08596948  0.68290530  -0.06587496  1
  Ni  Ni211  1  0.83018861  0.89804638  0.70193916  1
  Ni  Ni212  1  0.74173938  0.52218852  0.88961277  1
  Ni  Ni213  1  -0.10701363  0.52649423  0.48264769  1
  Ni  Ni214  1  0.79220739  0.24175779  0.81695045  1
