# generated using pymatgen
data_Ti108Co54Ni53
_symmetry_space_group_name_H-M   'P 1'
_cell_length_a   14.66834979
_cell_length_b   14.62085065
_cell_length_c   14.58249949
_cell_angle_alpha   89.66627783
_cell_angle_beta   89.94666726
_cell_angle_gamma   89.64808256
_symmetry_Int_Tables_number   1
_chemical_formula_structural   Ti108Co54Ni53
_chemical_formula_sum   'Ti108 Co54 Ni53'
_cell_volume   3127.30425601
_cell_formula_units_Z   1
loop_
 _symmetry_equiv_pos_site_id
 _symmetry_equiv_pos_as_xyz
  1  'x, y, z'
loop_
 _atom_site_type_symbol
 _atom_site_label
 _atom_site_symmetry_multiplicity
 _atom_site_fract_x
 _atom_site_fract_y
 _atom_site_fract_z
 _atom_site_occupancy
  Ti  Ti0  1  0.17417057  0.12368271  0.26501019  1
  Ti  Ti1  1  0.12493929  0.11420019  0.56006083  1
  Ti  Ti2  1  0.05227323  0.02521868  0.95683672  1
  Ti  Ti3  1  0.05190990  0.38533961  0.20189656  1
  Ti  Ti4  1  0.10158515  0.42871157  0.59136829  1
  Ti  Ti5  1  0.03605480  0.38043965  0.93444078  1
  Ti  Ti6  1  0.07973824  0.84743585  0.28670148  1
  Ti  Ti7  1  0.09909387  0.77131697  0.61060388  1
  Ti  Ti8  1  0.06479035  0.69142444  0.92044807  1
  Ti  Ti9  1  0.38581261  0.13314713  0.29107905  1
  Ti  Ti10  1  0.49988895  0.13698874  0.57623764  1
  Ti  Ti11  1  0.38762778  0.11105403  0.94211029  1
  Ti  Ti12  1  0.45422165  0.32825471  0.22574174  1
  Ti  Ti13  1  0.42877582  0.42656283  0.64062411  1
  Ti  Ti14  1  0.37657007  0.41859197  0.96599443  1
  Ti  Ti15  1  0.44568990  0.80169320  0.26839341  1
  Ti  Ti16  1  0.43625638  0.77742715  0.60819250  1
  Ti  Ti17  1  0.41401055  0.72208361  0.91417578  1
  Ti  Ti18  1  0.72114908  0.08251296  0.19946214  1
  Ti  Ti19  1  0.80737918  0.12837068  0.56465866  1
  Ti  Ti20  1  0.72991727  0.10223660  0.93168829  1
  Ti  Ti21  1  0.76492326  0.42417312  0.26707436  1
  Ti  Ti22  1  0.75676395  0.44647900  0.57453414  1
  Ti  Ti23  1  0.70243158  0.35692019  0.89386885  1
  Ti  Ti24  1  0.81311990  0.70090479  0.30278572  1
  Ti  Ti25  1  0.77464578  0.75899127  0.62693126  1
  Ti  Ti26  1  0.73716589  0.73633358  0.99205814  1
  Ti  Ti27  1  0.08961778  0.20936708  -0.02833436  1
  Ti  Ti28  1  0.07382613  0.27413832  0.41653308  1
  Ti  Ti29  1  0.14858355  0.14357965  0.76425465  1
  Ti  Ti30  1  0.08579156  0.59511878  0.11412523  1
  Ti  Ti31  1  0.08894342  0.61239631  0.49960981  1
  Ti  Ti32  1  0.04799980  0.60773110  0.70914414  1
  Ti  Ti33  1  -0.01583111  0.91502284  0.11519799  1
  Ti  Ti34  1  0.03186365  0.94000905  0.46643468  1
  Ti  Ti35  1  0.11058932  0.94966031  0.67538852  1
  Ti  Ti36  1  0.49837537  0.18702644  0.10584959  1
  Ti  Ti37  1  0.53392177  0.24960032  0.38921226  1
  Ti  Ti38  1  0.46669546  0.24212224  0.72846479  1
  Ti  Ti39  1  0.45929749  0.55392304  0.06136407  1
  Ti  Ti40  1  0.44875824  0.65427808  0.42698454  1
  Ti  Ti41  1  0.31627619  0.51797375  0.77649443  1
  Ti  Ti42  1  0.39525612  0.85124842  0.08560285  1
  Ti  Ti43  1  0.47467353  0.97003938  0.37205610  1
  Ti  Ti44  1  0.42527826  0.96625027  0.65309895  1
  Ti  Ti45  1  0.76927645  0.28767662  0.09280620  1
  Ti  Ti46  1  0.73125410  0.30249146  0.40938530  1
  Ti  Ti47  1  0.74884775  0.29704444  0.70667257  1
  Ti  Ti48  1  0.81153926  0.56169602  0.09380284  1
  Ti  Ti49  1  0.74402696  0.62129194  0.49508155  1
  Ti  Ti50  1  0.74317908  0.65729717  0.80192826  1
  Ti  Ti51  1  0.78781149  0.87161302  0.13715795  1
  Ti  Ti52  1  0.73176885  0.94409441  0.48774341  1
  Ti  Ti53  1  0.75994977  0.85966964  0.79060791  1
  Ti  Ti54  1  0.20592386  0.10644427  0.07082472  1
  Ti  Ti55  1  0.29078003  0.04222370  0.44509751  1
  Ti  Ti56  1  0.28999707  0.00049998  0.77119581  1
  Ti  Ti57  1  0.19191556  0.40761230  0.05908526  1
  Ti  Ti58  1  0.26355511  0.37467363  0.44245855  1
  Ti  Ti59  1  0.23840239  0.33576030  0.71774429  1
  Ti  Ti60  1  0.14625815  0.79436803  0.10328859  1
  Ti  Ti61  1  0.25420086  0.74853420  0.36373664  1
  Ti  Ti62  1  0.25453548  0.73852682  0.74170395  1
  Ti  Ti63  1  0.52779146  0.00139468  0.05129072  1
  Ti  Ti64  1  0.60981195  0.08997159  0.43119327  1
  Ti  Ti65  1  0.59062461  0.05540813  0.76294891  1
  Ti  Ti66  1  0.62668499  0.44800234  0.12998093  1
  Ti  Ti67  1  0.47926956  0.43488494  0.40278450  1
  Ti  Ti68  1  0.52135407  0.41563858  0.81529702  1
  Ti  Ti69  1  0.56291388  0.77580081  0.05575862  1
  Ti  Ti70  1  0.62113530  0.72721105  0.35838576  1
  Ti  Ti71  1  0.57230802  0.71499100  0.72661872  1
  Ti  Ti72  1  0.99898467  0.11622868  0.13071208  1
  Ti  Ti73  1  0.95361627  0.11288322  0.41263499  1
  Ti  Ti74  1  0.91123712  0.16634191  0.71692256  1
  Ti  Ti75  1  0.85850721  0.40850297  -0.01841005  1
  Ti  Ti76  1  0.89836476  0.45132094  0.42933770  1
  Ti  Ti77  1  0.97704586  0.39969368  0.74078445  1
  Ti  Ti78  1  0.92359957  0.79312224  0.00259602  1
  Ti  Ti79  1  0.90610106  0.79582865  0.44179492  1
  Ti  Ti80  1  0.92976863  0.73858513  0.76148383  1
  Ti  Ti81  1  0.26487288  0.28736719  0.20925483  1
  Ti  Ti82  1  0.30672918  0.19552560  0.59563280  1
  Ti  Ti83  1  0.26258643  0.26115093  0.92920306  1
  Ti  Ti84  1  0.27714002  0.60224784  0.16319257  1
  Ti  Ti85  1  0.34638448  0.61081952  0.60377970  1
  Ti  Ti86  1  0.26557889  0.58389340  0.96759315  1
  Ti  Ti87  1  0.27662113  0.95214804  0.19516971  1
  Ti  Ti88  1  0.20249284  0.89368349  0.48984988  1
  Ti  Ti89  1  0.27148697  0.88334095  0.92703690  1
  Ti  Ti90  1  0.64147637  0.25170819  0.22602180  1
  Ti  Ti91  1  0.57840362  0.33531476  0.55492452  1
  Ti  Ti92  1  0.50524184  0.26550253  0.93292150  1
  Ti  Ti93  1  0.54861303  0.63759116  0.21103751  1
  Ti  Ti94  1  0.55670987  0.55313756  0.54914947  1
  Ti  Ti95  1  0.58332600  0.61259512  0.90901202  1
  Ti  Ti96  1  0.60127940  0.90166761  0.21355670  1
  Ti  Ti97  1  0.62219697  0.87950179  0.62019416  1
  Ti  Ti98  1  0.63602241  0.92763864  0.91515452  1
  Ti  Ti99  1  0.85888979  0.21762832  0.25679921  1
  Ti  Ti100  1  0.91043084  0.33179539  0.58639493  1
  Ti  Ti101  1  0.89824915  0.19236838  0.94449101  1
  Ti  Ti102  1  0.92575226  0.54801173  0.24732958  1
  Ti  Ti103  1  0.86620498  0.58250233  0.66093591  1
  Ti  Ti104  1  0.93853369  0.53794551  0.86694734  1
  Ti  Ti105  1  0.85222782  0.96972961  0.33063836  1
  Ti  Ti106  1  0.92216931  0.88531482  0.63879683  1
  Ti  Ti107  1  0.95883768  0.90146174  0.84666094  1
  Co  Co108  1  0.23747285  0.20220579  0.40903529  1
  Co  Co109  1  0.61286960  0.77005431  0.88109663  1
  Co  Co110  1  -0.03711322  0.51150580  0.56510674  1
  Co  Co111  1  0.88135953  -0.01538970  0.50540311  1
  Co  Co112  1  0.71453964  0.58998408  0.22686661  1
  Co  Co113  1  0.11421989  0.08410110  0.40659308  1
  Co  Co114  1  0.65033672  0.14761563  0.06654835  1
  Co  Co115  1  -0.08675017  0.84349861  0.25298264  1
  Co  Co116  1  -0.10607596  0.01860916  -0.00157289  1
  Co  Co117  1  0.78363105  0.96586377  0.65956410  1
  Co  Co118  1  0.48570597  0.37757735  0.07990492  1
  Co  Co119  1  0.22438601  0.42361663  0.89575799  1
  Co  Co120  1  0.00584394  0.22070305  0.82872496  1
  Co  Co121  1  0.59837555  0.87426030  0.41668349  1
  Co  Co122  1  0.37049057  0.29102178  0.35901196  1
  Co  Co123  1  0.86446126  0.70939869  0.14739063  1
  Co  Co124  1  0.66387919  0.44646538  0.44453953  1
  Co  Co125  1  0.83091323  0.14221727  0.08833933  1
  Co  Co126  1  0.37970232  0.50383231  0.49296617  1
  Co  Co127  1  0.74090097  0.84507402  0.31298340  1
  Co  Co128  1  0.35319365  0.27536642  0.06718817  1
  Co  Co129  1  0.67218851  0.20645151  0.52006257  1
  Co  Co130  1  0.62094236  0.30651526  0.04107018  1
  Co  Co131  1  -0.02116033  0.04050311  0.61982416  1
  Co  Co132  1  0.08324291  0.76034746  0.43488797  1
  Co  Co133  1  0.87617531  0.01688890  0.17790084  1
  Co  Co134  1  0.78034135  0.54781102  0.36707262  1
  Co  Co135  1  0.73699619  0.78318101  0.46713581  1
  Co  Co136  1  0.33613882  -0.00765196  0.03152163  1
  Co  Co137  1  0.25551290  0.02778158  0.61297050  1
  Co  Co138  1  -0.04565754  0.70386704  0.57337790  1
  Co  Co139  1  -0.06589922  0.35613820  0.30714216  1
  Co  Co140  1  0.13119385  0.30835937  0.82744379  1
  Co  Co141  1  0.09896944  0.53156329  -0.04743898  1
  Co  Co142  1  0.41497398  0.30961602  0.53311128  1
  Co  Co143  1  0.55398787  0.10369491  -0.07453665  1
  Co  Co144  1  0.41063839  0.69473888  0.11422122  1
  Co  Co145  1  0.79910215  0.90287581  -0.04851354  1
  Co  Co146  1  0.57944724  0.45297759  -0.03887851  1
  Co  Co147  1  -0.01883511  0.19232710  0.55433628  1
  Co  Co148  1  -0.04942722  0.62258469  0.03726902  1
  Co  Co149  1  0.32857649  -0.10624523  0.33597559  1
  Co  Co150  1  0.40865655  0.67338043  0.75523969  1
  Co  Co151  1  0.27379203  0.43208528  0.59444709  1
  Co  Co152  1  0.52439379  -0.02981341  0.52892546  1
  Co  Co153  1  0.17357455  0.28089401  0.55153741  1
  Co  Co154  1  0.17839195  0.96116611  0.33216771  1
  Co  Co155  1  -0.00500428  0.47023348  0.06739565  1
  Co  Co156  1  0.28369475  0.77496368  0.20010596  1
  Co  Co157  1  0.92607077  0.62286952  0.42804312  1
  Co  Co158  1  0.12772844  0.25382197  0.12807164  1
  Co  Co159  1  0.69958822  -0.01276941  0.06511291  1
  Co  Co160  1  0.43393425  0.55654672  0.88522823  1
  Co  Co161  1  0.59550284  0.56425103  0.36178640  1
  Ni  Ni162  1  0.60188887  0.39735652  0.29663686  1
  Ni  Ni163  1  0.66235844  0.50570582  0.80881623  1
  Ni  Ni164  1  0.19469580  0.56839774  0.65530837  1
  Ni  Ni165  1  0.44151062  -0.01163002  0.19655493  1
  Ni  Ni166  1  0.47271288  0.87492724  -0.06633127  1
  Ni  Ni167  1  0.59595288  0.72201826  0.54492720  1
  Ni  Ni168  1  0.44965312  0.00116155  0.83247546  1
  Ni  Ni169  1  0.22204880  0.08039622  -0.09360921  1
  Ni  Ni170  1  0.01501615  0.01477260  0.28295327  1
  Ni  Ni171  1  0.17734776  0.61583251  0.82376840  1
  Ni  Ni172  1  0.00539461  0.05035329  0.78766290  1
  Ni  Ni173  1  0.64367732  0.60981772  0.06902986  1
  Ni  Ni174  1  0.80599546  0.45532008  0.75522557  1
  Ni  Ni175  1  0.28263345  0.86522189  0.63901431  1
  Ni  Ni176  1  0.68375265  0.59093849  0.65888299  1
  Ni  Ni177  1  0.46959530  0.49623026  0.23667583  1
  Ni  Ni178  1  0.24871387  0.72952332  0.53432802  1
  Ni  Ni179  1  0.67815234  -0.00725327  0.32635256  1
  Ni  Ni180  1  0.32362013  0.17383464  0.78721395  1
  Ni  Ni181  1  0.74602364  0.12150847  0.73643584  1
  Ni  Ni182  1  0.63428361  0.21768204  0.83002457  1
  Ni  Ni183  1  0.68377889  0.74578167  0.17645541  1
  Ni  Ni184  1  0.61993633  0.43139346  0.67509789  1
  Ni  Ni185  1  0.77555945  0.12550671  0.39019447  1
  Ni  Ni186  1  0.33869507  0.43776743  0.13883457  1
  Ni  Ni187  1  0.34808581  0.12323397  0.13622840  1
  Ni  Ni188  1  0.06468404  0.27210802  0.67434435  1
  Ni  Ni189  1  0.88638569  0.26261750  0.43538769  1
  Ni  Ni190  1  0.86902352  0.67621554  0.90376286  1
  Ni  Ni191  1  0.02758613  0.21872808  0.26279805  1
  Ni  Ni192  1  0.75117515  0.54341450  -0.06214715  1
  Ni  Ni193  1  0.08809977  0.85619380  -0.04048541  1
  Ni  Ni194  1  -0.03858787  0.27870875  0.08531170  1
  Ni  Ni195  1  -0.01064412  0.69902244  0.29135703  1
  Ni  Ni196  1  0.61867355  0.20444799  0.67104614  1
  Ni  Ni197  1  0.40103322  0.16122343  0.45368553  1
  Ni  Ni198  1  0.09401661  0.79174549  0.78492356  1
  Ni  Ni199  1  0.36754984  0.34275352  0.81601867  1
  Ni  Ni200  1  0.27463211  0.73609614  0.02455903  1
  Ni  Ni201  1  0.38426060  0.84499040  0.78266291  1
  Ni  Ni202  1  0.86717167  0.31986381  0.83353430  1
  Ni  Ni203  1  0.37211890  0.87246050  0.49134073  1
  Ni  Ni204  1  0.14644194  0.69039227  0.24529255  1
  Ni  Ni205  1  0.83798356  0.01792585  0.82576576  1
  Ni  Ni206  1  0.12305976  0.46956992  0.77889001  1
  Ni  Ni207  1  0.55183557  0.09958627  0.26248771  1
  Ni  Ni208  1  0.51758126  0.55705587  0.72319208  1
  Ni  Ni209  1  0.38279696  0.64834576  0.27513854  1
  Ni  Ni210  1  0.88054319  0.40304107  0.15647579  1
  Ni  Ni211  1  0.65294127  0.05424000  0.60301501  1
  Ni  Ni212  1  0.54816303  0.88081558  0.76977417  1
  Ni  Ni213  1  0.14001002  -0.05069422  0.83492325  1
  Ni  Ni214  1  0.12197935  -0.01510488  0.15674924  1
