# generated using pymatgen
data_Ti108Co54Ni53
_symmetry_space_group_name_H-M   'P 1'
_cell_length_a   14.63037166
_cell_length_b   14.63893036
_cell_length_c   14.70275865
_cell_angle_alpha   90.05714927
_cell_angle_beta   89.91813170
_cell_angle_gamma   89.90147980
_symmetry_Int_Tables_number   1
_chemical_formula_structural   Ti108Co54Ni53
_chemical_formula_sum   'Ti108 Co54 Ni53'
_cell_volume   3148.92436624
_cell_formula_units_Z   1
loop_
 _symmetry_equiv_pos_site_id
 _symmetry_equiv_pos_as_xyz
  1  'x, y, z'
loop_
 _atom_site_type_symbol
 _atom_site_label
 _atom_site_symmetry_multiplicity
 _atom_site_fract_x
 _atom_site_fract_y
 _atom_site_fract_z
 _atom_site_occupancy
  Ti  Ti0  1  0.02573463  0.11425249  0.20371073  1
  Ti  Ti1  1  0.05587696  0.11752881  0.59075584  1
  Ti  Ti2  1  0.14770141  0.05278432  0.89626330  1
  Ti  Ti3  1  0.09690508  0.43543588  0.32296599  1
  Ti  Ti4  1  0.05344168  0.43827865  0.62904686  1
  Ti  Ti5  1  0.13414180  0.42283267  0.95918312  1
  Ti  Ti6  1  0.06822283  0.71645122  0.24718195  1
  Ti  Ti7  1  0.15818818  0.74428293  0.59170878  1
  Ti  Ti8  1  0.13337778  0.68648240  0.92361155  1
  Ti  Ti9  1  0.46357881  -0.00012584  0.23236010  1
  Ti  Ti10  1  0.35211055  0.11527849  0.57972782  1
  Ti  Ti11  1  0.34565117  0.07942810  0.89067806  1
  Ti  Ti12  1  0.37069737  0.45817335  0.28078404  1
  Ti  Ti13  1  0.44590494  0.41289863  0.70730793  1
  Ti  Ti14  1  0.40757424  0.42572380  0.90704570  1
  Ti  Ti15  1  0.37417390  0.79512379  0.23061130  1
  Ti  Ti16  1  0.38518833  0.79077368  0.61027840  1
  Ti  Ti17  1  0.46150849  0.68927561  0.93218135  1
  Ti  Ti18  1  0.75843203  0.13492183  0.30186415  1
  Ti  Ti19  1  0.69214024  0.13341071  0.60257355  1
  Ti  Ti20  1  0.73052522  0.15347235  0.91118110  1
  Ti  Ti21  1  0.80626174  0.36986106  0.28370719  1
  Ti  Ti22  1  0.75263114  0.43125377  0.53950911  1
  Ti  Ti23  1  0.76072234  0.44732255  0.91156439  1
  Ti  Ti24  1  0.69489547  0.78582344  0.09991972  1
  Ti  Ti25  1  0.77565722  0.72887975  0.61821441  1
  Ti  Ti26  1  0.79412950  0.78985252  0.92573556  1
  Ti  Ti27  1  0.10987800  0.28664312  0.08912756  1
  Ti  Ti28  1  0.08747344  0.17864852  0.38816306  1
  Ti  Ti29  1  0.13151927  0.25856958  0.79094185  1
  Ti  Ti30  1  0.03324106  0.56961915  0.03738205  1
  Ti  Ti31  1  0.09016808  0.60650855  0.46413021  1
  Ti  Ti32  1  0.04299313  0.56655147  0.78577901  1
  Ti  Ti33  1  0.09201786  0.94955770  0.06585563  1
  Ti  Ti34  1  0.16293867  0.95603252  0.40808348  1
  Ti  Ti35  1  0.08851839  0.85595530  0.78251910  1
  Ti  Ti36  1  0.39934638  0.26684077  0.09232004  1
  Ti  Ti37  1  0.42186341  0.29072961  0.36952428  1
  Ti  Ti38  1  0.35310705  0.23818808  0.75296401  1
  Ti  Ti39  1  0.36502638  0.61550644  0.08920603  1
  Ti  Ti40  1  0.39464667  0.60790466  0.41576224  1
  Ti  Ti41  1  0.44197835  0.60440951  0.75345014  1
  Ti  Ti42  1  0.42946151  0.95079190  0.04447194  1
  Ti  Ti43  1  0.46409939  0.87581187  0.41871645  1
  Ti  Ti44  1  0.40648765  0.90888902  0.76953503  1
  Ti  Ti45  1  0.77348060  0.15704171  0.09872979  1
  Ti  Ti46  1  0.79391058  0.24635936  0.45611877  1
  Ti  Ti47  1  0.79109001  0.10133040  0.75107274  1
  Ti  Ti48  1  0.73281414  0.54822907  0.14644877  1
  Ti  Ti49  1  0.70094761  0.55716886  0.36729818  1
  Ti  Ti50  1  0.74614200  0.55371030  0.69914887  1
  Ti  Ti51  1  0.74569920  0.97167873  0.17215931  1
  Ti  Ti52  1  0.74724860  0.93289269  0.35610051  1
  Ti  Ti53  1  0.68236111  0.95379918  0.81506819  1
  Ti  Ti54  1  0.19872722  0.11950804  0.11346949  1
  Ti  Ti55  1  0.32681256  0.08783216  0.38203940  1
  Ti  Ti56  1  0.21235980  0.11207020  0.71827608  1
  Ti  Ti57  1  0.24132617  0.43881451  0.15313379  1
  Ti  Ti58  1  0.19886133  0.43329241  0.50436359  1
  Ti  Ti59  1  0.24771436  0.39784930  0.68664604  1
  Ti  Ti60  1  0.19551456  0.77941383  0.11185675  1
  Ti  Ti61  1  0.28782328  0.78521538  0.43737527  1
  Ti  Ti62  1  0.31677783  0.72983972  0.81746864  1
  Ti  Ti63  1  0.60453760  0.06943213  0.02224617  1
  Ti  Ti64  1  0.60260340  0.13330809  0.43472898  1
  Ti  Ti65  1  0.54080387  0.10714356  0.78932582  1
  Ti  Ti66  1  0.58762872  0.40135606  0.08636930  1
  Ti  Ti67  1  0.54190676  0.43943625  0.40666279  1
  Ti  Ti68  1  0.65079038  0.38422094  0.75591293  1
  Ti  Ti69  1  0.59820060  0.63380761  0.05424013  1
  Ti  Ti70  1  0.64592089  0.75485972  0.41216499  1
  Ti  Ti71  1  0.59541798  0.82586759  0.64975691  1
  Ti  Ti72  1  0.91386870  0.03057532  0.06979965  1
  Ti  Ti73  1  0.91059872  0.05004146  0.43272554  1
  Ti  Ti74  1  0.97341526  0.13771183  0.78848575  1
  Ti  Ti75  1  0.81011241  0.37364304  0.10258399  1
  Ti  Ti76  1  0.88195618  0.49643083  0.40328145  1
  Ti  Ti77  1  0.95547652  0.35501070  0.78145765  1
  Ti  Ti78  1  0.86972682  0.68976229  0.08325994  1
  Ti  Ti79  1  0.83465638  0.72415817  0.39195904  1
  Ti  Ti80  1  0.93179626  0.72514628  0.74585853  1
  Ti  Ti81  1  0.29443416  0.22451492  0.24473347  1
  Ti  Ti82  1  0.25715936  0.25397640  0.46372910  1
  Ti  Ti83  1  0.22478359  0.22452697  0.95330779  1
  Ti  Ti84  1  0.23590711  0.63910713  0.27904960  1
  Ti  Ti85  1  0.36991580  0.52341017  0.57909913  1
  Ti  Ti86  1  0.25222033  0.54723788  0.82644246  1
  Ti  Ti87  1  0.26647354  0.94916947  0.18617667  1
  Ti  Ti88  1  0.20696405  0.95126391  0.61677415  1
  Ti  Ti89  1  0.23994286  0.87279816  0.92603562  1
  Ti  Ti90  1  0.60880164  0.27129812  0.30079055  1
  Ti  Ti91  1  0.53016196  0.25439706  0.63406008  1
  Ti  Ti92  1  0.55727578  0.25402512  0.94095977  1
  Ti  Ti93  1  0.54519231  0.55017513  0.23820313  1
  Ti  Ti94  1  0.60525335  0.61960431  0.56947712  1
  Ti  Ti95  1  0.61668774  0.56838611  0.85787009  1
  Ti  Ti96  1  0.58908808  0.84389066  0.25166425  1
  Ti  Ti97  1  0.61507457  0.95571628  0.51313508  1
  Ti  Ti98  1  0.58442677  0.87210014  0.93789691  1
  Ti  Ti99  1  0.97302695  0.31070001  0.22121422  1
  Ti  Ti100  1  0.86808984  0.23910178  0.64241868  1
  Ti  Ti101  1  0.86661898  0.29109818  0.94124232  1
  Ti  Ti102  1  0.94526972  0.52446378  0.20308549  1
  Ti  Ti103  1  0.90889932  0.55683045  0.59017173  1
  Ti  Ti104  1  0.88437354  0.59512582  0.88742220  1
  Ti  Ti105  1  0.94050530  0.89055967  0.21149848  1
  Ti  Ti106  1  0.78715923  0.94683511  0.62906939  1
  Ti  Ti107  1  0.84570110  0.98540086  0.89526398  1
  Co  Co108  1  -0.06251922  0.85130009  0.85090493  1
  Co  Co109  1  0.49150213  -0.00374750  0.88860286  1
  Co  Co110  1  0.65096083  0.42643102  0.23666938  1
  Co  Co111  1  0.71223499  0.29456304  0.62969967  1
  Co  Co112  1  0.00741908  -0.01003083  -0.09397159  1
  Co  Co113  1  0.92104303  0.18333710  0.33067505  1
  Co  Co114  1  -0.02928136  0.71710304  -0.06251603  1
  Co  Co115  1  0.91105857  0.73260543  0.23145892  1
  Co  Co116  1  0.24540359  0.35887162  0.33446294  1
  Co  Co117  1  0.07423792  0.84411074  -0.05260660  1
  Co  Co118  1  0.03615494  0.64134698  0.63553539  1
  Co  Co119  1  0.46796677  0.36593927  0.52907411  1
  Co  Co120  1  0.10579651  -0.08407136  0.22314118  1
  Co  Co121  1  0.91195498  -0.02840070  0.74146720  1
  Co  Co122  1  0.03104198  0.01525543  0.32979857  1
  Co  Co123  1  0.63178349  0.68774810  0.72602039  1
  Co  Co124  1  0.08229446  0.30435972  0.50173693  1
  Co  Co125  1  0.20200445  0.09032961  0.51407626  1
  Co  Co126  1  0.41145110  0.84115184  0.92002585  1
  Co  Co127  1  0.59104843  -0.00805852  0.34476621  1
  Co  Co128  1  0.03236418  0.26830212  0.65641046  1
  Co  Co129  1  0.80288761  0.28082684  0.79275689  1
  Co  Co130  1  0.56969470  0.53240491  0.70161421  1
  Co  Co131  1  0.55521065  0.60385735  0.41406123  1
  Co  Co132  1  0.25004826  0.53573940  -0.00833112  1
  Co  Co133  1  0.28539488  0.69878279  -0.02600438  1
  Co  Co134  1  0.70344259  0.38979247  0.39475329  1
  Co  Co135  1  0.59887003  0.41442994  0.92117515  1
  Co  Co136  1  0.70018553  0.29352546  0.00901134  1
  Co  Co137  1  0.38665306  0.06403362  0.72707083  1
  Co  Co138  1  0.75327777  0.05827986  0.47142365  1
  Co  Co139  1  0.24216601  -0.03298373  0.78475841  1
  Co  Co140  1  0.88015278  0.08214806  0.59914655  1
  Co  Co141  1  0.62922267  0.09332329  0.20808181  1
  Co  Co142  1  0.74426486  0.62766837  -0.01996601  1
  Co  Co143  1  0.90506069  0.13484950  -0.06368301  1
  Co  Co144  1  0.23377619  0.51972112  0.37325436  1
  Co  Co145  1  0.62647612  -0.00375848  0.68025248  1
  Co  Co146  1  0.45552686  0.20105323  0.48776932  1
  Co  Co147  1  0.70493679  0.27250572  0.17901871  1
  Co  Co148  1  0.02382788  0.46231987  0.46905872  1
  Co  Co149  1  0.45896635  0.13208123  -0.00257336  1
  Co  Co150  1  0.77252826  0.67020633  0.80231011  1
  Co  Co151  1  0.50380244  0.29745533  0.80119919  1
  Co  Co152  1  0.34698569  0.81170696  0.07126927  1
  Co  Co153  1  0.77131773  0.60656033  0.51181101  1
  Co  Co154  1  0.76457738  0.80709221  0.25294903  1
  Co  Co155  1  0.88088427  0.04044932  0.25070857  1
  Co  Co156  1  0.34553078  0.30220164  0.59500048  1
  Co  Co157  1  0.35185345  0.42624945  0.44417048  1
  Co  Co158  1  -0.04734948  0.20528955  0.49501844  1
  Co  Co159  1  0.28678432  0.36569311  0.01626450  1
  Co  Co160  1  0.08478032  0.44866951  0.15656552  1
  Co  Co161  1  0.66230477  0.67768976  0.24519455  1
  Ni  Ni162  1  0.20670000  0.80968388  0.29467634  1
  Ni  Ni163  1  0.60028655  0.42680790  0.59188729  1
  Ni  Ni164  1  0.36504143  0.09501742  0.12758649  1
  Ni  Ni165  1  0.86557790  0.51934458  0.03878387  1
  Ni  Ni166  1  0.65426732  0.21755716  0.76757111  1
  Ni  Ni167  1  -0.06534503  0.22123614  0.08230142  1
  Ni  Ni168  1  0.48987599  0.72971562  0.33834384  1
  Ni  Ni169  1  0.49493298  0.73255493  0.50483181  1
  Ni  Ni170  1  0.26378834  0.36173164  0.85114972  1
  Ni  Ni171  1  0.51244181  0.79507933  0.05706433  1
  Ni  Ni172  1  0.15467983  0.68464635  0.75213375  1
  Ni  Ni173  1  0.78732756  0.83097858  0.75802079  1
  Ni  Ni174  1  0.91709020  0.86739552  0.02416016  1
  Ni  Ni175  1  0.17113569  0.61005399  0.12210943  1
  Ni  Ni176  1  0.03546252  0.26115960  0.93199754  1
  Ni  Ni177  1  0.32271078  -0.07335423  0.33734753  1
  Ni  Ni178  1  0.26553759  -0.00155478  0.02531267  1
  Ni  Ni179  1  0.39428824  0.62623893  0.25056956  1
  Ni  Ni180  1  0.48763666  0.35335158  0.21946542  1
  Ni  Ni181  1  0.45808111  0.94361827  0.60790001  1
  Ni  Ni182  1  -0.03368350  0.45022860  0.91022508  1
  Ni  Ni183  1  0.41222861  0.44461973  0.09869532  1
  Ni  Ni184  1  -0.04734489  0.33574824  0.38750796  1
  Ni  Ni185  1  -0.02965165  0.62706744  0.34942013  1
  Ni  Ni186  1  0.51585704  0.70481281  0.18072261  1
  Ni  Ni187  1  0.91805360  0.36933789  0.55046111  1
  Ni  Ni188  1  0.82075333  0.60835890  0.26791428  1
  Ni  Ni189  1  0.63934929  0.72855679  0.89296994  1
  Ni  Ni190  1  0.25236134  0.63134260  0.50292638  1
  Ni  Ni191  1  0.19325029  0.24676614  0.61892252  1
  Ni  Ni192  1  0.73083981  -0.05738498  0.00924706  1
  Ni  Ni193  1  0.49418229  0.76575872  0.78348398  1
  Ni  Ni194  1  0.48459273  0.13567453  0.31627709  1
  Ni  Ni195  1  0.24529132  0.82115375  0.71147035  1
  Ni  Ni196  1  0.02839083  0.75773600  0.08938218  1
  Ni  Ni197  1  0.32299103  0.95009646  0.50066566  1
  Ni  Ni198  1  -0.02495865  0.38715825  0.05676517  1
  Ni  Ni199  1  0.07591975  0.01098561  0.73279483  1
  Ni  Ni200  1  0.46448742  0.03609560  0.45891192  1
  Ni  Ni201  1  0.75026070  0.84624533  0.50437387  1
  Ni  Ni202  1  0.61453140  0.29128996  0.48735241  1
  Ni  Ni203  1  0.52180766  0.09305878  0.60596898  1
  Ni  Ni204  1  0.38427232  0.25790615  0.91807781  1
  Ni  Ni205  1  0.12255122  0.42768260  0.79327470  1
  Ni  Ni206  1  0.18460542  0.07042935  0.27684080  1
  Ni  Ni207  1  0.56740271  0.21746404  0.11137268  1
  Ni  Ni208  1  0.05354322  0.12065305  0.02225802  1
  Ni  Ni209  1  0.58836762  0.93477423  0.11288006  1
  Ni  Ni210  1  0.29881895  0.65725025  0.66451612  1
  Ni  Ni211  1  0.13710258  0.26915731  0.24912678  1
  Ni  Ni212  1  0.49488451  0.53174764  -0.01339331  1
  Ni  Ni213  1  0.83062169  0.41215906  0.69219710  1
  Ni  Ni214  1  0.17826635  0.55265683  0.63664571  1
