# generated using pymatgen
data_Ti108Co54Ni53
_symmetry_space_group_name_H-M   'P 1'
_cell_length_a   14.63520203
_cell_length_b   14.61115623
_cell_length_c   14.63635015
_cell_angle_alpha   89.99125089
_cell_angle_beta   90.14474559
_cell_angle_gamma   90.03781262
_symmetry_Int_Tables_number   1
_chemical_formula_structural   Ti108Co54Ni53
_chemical_formula_sum   'Ti108 Co54 Ni53'
_cell_volume   3129.78577085
_cell_formula_units_Z   1
loop_
 _symmetry_equiv_pos_site_id
 _symmetry_equiv_pos_as_xyz
  1  'x, y, z'
loop_
 _atom_site_type_symbol
 _atom_site_label
 _atom_site_symmetry_multiplicity
 _atom_site_fract_x
 _atom_site_fract_y
 _atom_site_fract_z
 _atom_site_occupancy
  Ti  Ti0  1  0.07151223  0.10725544  0.12032238  1
  Ti  Ti1  1  0.04908470  0.04391920  0.59412612  1
  Ti  Ti2  1  0.01772856  0.11149821  0.93547959  1
  Ti  Ti3  1  0.07603556  0.43538645  0.21986940  1
  Ti  Ti4  1  0.03995047  0.49238030  0.62539811  1
  Ti  Ti5  1  0.06851115  0.44251657  0.98833791  1
  Ti  Ti6  1  0.03371789  0.71556068  0.18382477  1
  Ti  Ti7  1  0.10706146  0.80116853  0.55068903  1
  Ti  Ti8  1  0.08167549  0.80447394  0.86518433  1
  Ti  Ti9  1  0.46976921  0.05183036  0.20874290  1
  Ti  Ti10  1  0.49496388  0.02594567  0.55642401  1
  Ti  Ti11  1  0.42510467  0.03271818  0.87973262  1
  Ti  Ti12  1  0.40014527  0.42371340  0.21196353  1
  Ti  Ti13  1  0.39791559  0.51276967  0.58290182  1
  Ti  Ti14  1  0.39133667  0.36523521  0.85680985  1
  Ti  Ti15  1  0.41876929  0.74630439  0.28377448  1
  Ti  Ti16  1  0.36491839  0.76637130  0.58493047  1
  Ti  Ti17  1  0.49454617  0.73076219  1.00481143  1
  Ti  Ti18  1  0.75792389  0.12519954  0.28390606  1
  Ti  Ti19  1  0.70367313  0.04532099  0.55604760  1
  Ti  Ti20  1  0.74119372  0.02053313  0.92382268  1
  Ti  Ti21  1  0.73318116  0.45802508  0.20184901  1
  Ti  Ti22  1  0.72672170  0.36461762  0.58215740  1
  Ti  Ti23  1  0.62570461  0.35234972  0.87006917  1
  Ti  Ti24  1  0.75879556  0.66162246  0.32006725  1
  Ti  Ti25  1  0.78779559  0.72195322  0.64976144  1
  Ti  Ti26  1  0.75543422  0.81008518  0.86011833  1
  Ti  Ti27  1  0.17689317  0.28048938  0.11956406  1
  Ti  Ti28  1  0.03971981  0.25699860  0.43304561  1
  Ti  Ti29  1  0.04126109  0.18438903  0.75333781  1
  Ti  Ti30  1  0.15920349  0.56383640  0.11287562  1
  Ti  Ti31  1  0.09522311  0.50844710  0.44559230  1
  Ti  Ti32  1  0.11451398  0.49619133  0.79357463  1
  Ti  Ti33  1  0.12483821  0.90611335  0.15768422  1
  Ti  Ti34  1  0.05210893  0.85950437  0.34401203  1
  Ti  Ti35  1  0.09901238  0.98940881  0.77463385  1
  Ti  Ti36  1  0.48360075  0.24733735  0.13516973  1
  Ti  Ti37  1  0.46602012  0.26117674  0.33749240  1
  Ti  Ti38  1  0.38393828  0.18347237  0.73743461  1
  Ti  Ti39  1  0.44855446  0.56767148  0.09070814  1
  Ti  Ti40  1  0.41500492  0.53519667  0.37054240  1
  Ti  Ti41  1  0.39677800  0.66309516  0.86784702  1
  Ti  Ti42  1  0.41634623  0.91396104  0.04199821  1
  Ti  Ti43  1  0.42133523  0.95518669  0.37116131  1
  Ti  Ti44  1  0.40844903  0.90128821  0.72420027  1
  Ti  Ti45  1  0.77318532  0.31246399  0.02842469  1
  Ti  Ti46  1  0.75951794  0.31064332  0.37670178  1
  Ti  Ti47  1  0.78182870  0.21372331  0.81505965  1
  Ti  Ti48  1  0.81128936  0.54263191  0.04982643  1
  Ti  Ti49  1  0.75861234  0.54525221  0.47712589  1
  Ti  Ti50  1  0.77091105  0.52689496  0.77244656  1
  Ti  Ti51  1  0.72713497  0.95827896  0.14986939  1
  Ti  Ti52  1  0.75841769  0.94576762  0.36467052  1
  Ti  Ti53  1  0.77572330  0.92017879  0.69312174  1
  Ti  Ti54  1  0.30164333  0.11221815  0.12399226  1
  Ti  Ti55  1  0.19936442  -0.00378531  0.36650816  1
  Ti  Ti56  1  0.21779628  0.11852498  0.83814578  1
  Ti  Ti57  1  0.29267705  0.43929157  0.06058928  1
  Ti  Ti58  1  0.26395108  0.38442947  0.50047157  1
  Ti  Ti59  1  0.30201547  0.51200016  0.76204866  1
  Ti  Ti60  1  0.22592119  0.74311248  0.11509370  1
  Ti  Ti61  1  0.26915492  0.82035024  0.42987513  1
  Ti  Ti62  1  0.27266258  0.75151804  0.76705766  1
  Ti  Ti63  1  0.62009871  0.10609124  0.07892959  1
  Ti  Ti64  1  0.59058076  0.12387831  0.40902672  1
  Ti  Ti65  1  0.59160650  0.13661879  0.81033247  1
  Ti  Ti66  1  0.62226961  0.50254585  0.05137536  1
  Ti  Ti67  1  0.57163341  0.48714106  0.49492484  1
  Ti  Ti68  1  0.58877944  0.45276349  0.69890119  1
  Ti  Ti69  1  0.64872201  0.84154580  0.02343508  1
  Ti  Ti70  1  0.56215277  0.67471772  0.40580780  1
  Ti  Ti71  1  0.62302445  0.79566980  0.70550094  1
  Ti  Ti72  1  0.88177822  0.04061280  0.07136674  1
  Ti  Ti73  1  0.95924185  0.03595601  0.38701180  1
  Ti  Ti74  1  0.87048626  0.10359273  0.64821450  1
  Ti  Ti75  1  0.92744542  0.38515645  0.10956754  1
  Ti  Ti76  1  0.91647713  0.40433874  0.48310613  1
  Ti  Ti77  1  0.93809798  0.41315059  0.79102563  1
  Ti  Ti78  1  0.82412128  0.73072252  0.03967717  1
  Ti  Ti79  1  0.97754442  0.69955571  0.40608087  1
  Ti  Ti80  1  0.99775041  0.71584387  0.71503646  1
  Ti  Ti81  1  0.21181830  0.21396936  0.31250317  1
  Ti  Ti82  1  0.22334106  0.30423012  0.71907844  1
  Ti  Ti83  1  0.22454335  0.30019955  0.92512304  1
  Ti  Ti84  1  0.23431243  0.51336616  0.31127406  1
  Ti  Ti85  1  0.21289819  0.63106052  0.60144323  1
  Ti  Ti86  1  0.18793941  0.64201918  0.91402314  1
  Ti  Ti87  1  0.31426234  0.91943207  0.21675402  1
  Ti  Ti88  1  0.22708377  0.95345511  0.60909513  1
  Ti  Ti89  1  0.26277747  0.91172579  0.86657455  1
  Ti  Ti90  1  0.66876896  0.28139244  0.19991590  1
  Ti  Ti91  1  0.52607287  0.28609059  0.58682440  1
  Ti  Ti92  1  0.49672549  0.23098284  0.94436848  1
  Ti  Ti93  1  0.56779785  0.59139379  0.22974333  1
  Ti  Ti94  1  0.53632087  0.65089183  0.61358936  1
  Ti  Ti95  1  0.57935002  0.57164139  0.88539010  1
  Ti  Ti96  1  0.59685134  0.84162136  0.29022980  1
  Ti  Ti97  1  0.66898298  0.85028343  0.51922631  1
  Ti  Ti98  1  0.58541470  0.92925750  0.83459828  1
  Ti  Ti99  1  1.01361781  0.25725135  0.23142843  1
  Ti  Ti100  1  0.92431461  0.29390308  0.63930253  1
  Ti  Ti101  1  0.93491192  0.28069747  0.91623536  1
  Ti  Ti102  1  0.90291997  0.54881334  0.23662957  1
  Ti  Ti103  1  0.89970267  0.60325821  0.57364261  1
  Ti  Ti104  1  0.96006098  0.60208782  0.90596381  1
  Ti  Ti105  1  0.90696725  0.88335305  0.19214377  1
  Ti  Ti106  1  0.88640637  0.91862369  0.52720730  1
  Ti  Ti107  1  0.92827677  0.93713605  0.88534386  1
  Co  Co108  1  0.83873324  0.25018435  0.51059637  1
  Co  Co109  1  0.21228802  0.45822063  0.63465544  1
  Co  Co110  1  0.29750835  0.02428697  -0.01663586  1
  Co  Co111  1  0.56559710  -0.01433198  -0.01656242  1
  Co  Co112  1  0.30161502  0.02597503  0.73453170  1
  Co  Co113  1  0.68198047  0.21207645  0.50399566  1
  Co  Co114  1  0.67265388  0.19995453  0.95420652  1
  Co  Co115  1  0.47229816  0.74957865  0.74284883  1
  Co  Co116  1  0.36519918  0.64299979  0.68688511  1
  Co  Co117  1  0.88913830  0.82445975  0.75364998  1
  Co  Co118  1  0.09348215  -0.05710747  0.47825120  1
  Co  Co119  1  0.89468112  0.44362664  -0.04903293  1
  Co  Co120  1  0.77191275  0.15385272  0.11787499  1
  Co  Co121  1  0.44417965  0.84540849  -0.11452153  1
  Co  Co122  1  0.18639469  0.05693864  0.22207150  1
  Co  Co123  1  0.75085242  0.20232049  0.64618367  1
  Co  Co124  1  0.55771967  -0.07991007  0.13828255  1
  Co  Co125  1  0.05562252  0.64597699  0.55213265  1
  Co  Co126  1  0.80396064  0.46576622  0.34377009  1
  Co  Co127  1  0.07537778  0.34924593  0.69441360  1
  Co  Co128  1  0.01749570  -0.00506802  0.23231702  1
  Co  Co129  1  0.47398952  0.05159409  0.72179639  1
  Co  Co130  1  0.52078625  0.42406668  0.32923771  1
  Co  Co131  1  0.34075798  0.27505037  0.04824749  1
  Co  Co132  1  0.85282418  0.45967718  0.63499637  1
  Co  Co133  1  0.06635001  0.12892578  0.31246987  1
  Co  Co134  1  0.89784746  0.21513136  0.35851234  1
  Co  Co135  1  0.49735364  0.29465498  0.76081752  1
  Co  Co136  1  0.64429666  0.29190785  0.71640267  1
  Co  Co137  1  0.69613492  0.55162361  0.62494749  1
  Co  Co138  1  -0.07530468  0.54909004  0.40547701  1
  Co  Co139  1  0.58104540  0.16521488  0.25444276  1
  Co  Co140  1  0.27079695  0.55336033  0.47613628  1
  Co  Co141  1  0.82238398  0.88906616  0.00974277  1
  Co  Co142  1  0.83088251  0.15368937  -0.03736635  1
  Co  Co143  1  0.34480804  0.18149844  0.91760012  1
  Co  Co144  1  0.14889482  0.36148908  0.36518232  1
  Co  Co145  1  0.71978624  0.63341585  0.15405721  1
  Co  Co146  1  0.09973123  0.36398180  0.53752726  1
  Co  Co147  1  -0.04401588  0.14547531  0.51506159  1
  Co  Co148  1  0.78377556  0.36175173  0.75094317  1
  Co  Co149  1  0.01778033  -0.03574730  0.04668517  1
  Co  Co150  1  0.23206663  0.38177515  0.21803293  1
  Co  Co151  1  0.33516930  0.08899189  0.29436444  1
  Co  Co152  1  -0.06005340  0.77547344  0.56810085  1
  Co  Co153  1  0.83502537  0.28527708  0.21164518  1
  Co  Co154  1  -0.09605530  0.09523335  0.82037377  1
  Co  Co155  1  0.64862046  0.64100895  0.75386321  1
  Co  Co156  1  0.41305012  0.66200285  0.47584549  1
  Co  Co157  1  0.33032474  0.59829483  0.19981882  1
  Co  Co158  1  -0.07225690  0.76812612  0.90327659  1
  Co  Co159  1  0.13881363  0.65417322  0.74805903  1
  Co  Co160  1  0.06720244  0.26524480  0.01039056  1
  Co  Co161  1  -0.05892102  0.56730708  0.74405786  1
  Ni  Ni162  1  0.13798551  -0.00336346  0.94567987  1
  Ni  Ni163  1  0.32560950  0.35631622  0.34965179  1
  Ni  Ni164  1  0.60794910  -0.03101380  0.67173220  1
  Ni  Ni165  1  0.20062964  0.81236313  0.28157701  1
  Ni  Ni166  1  0.50943387  0.85674932  0.59896856  1
  Ni  Ni167  1  0.34139840  0.25208452  0.21688673  1
  Ni  Ni168  1  0.59085433  0.75229746  0.87081987  1
  Ni  Ni169  1  0.67115416  0.68486501  0.52551631  1
  Ni  Ni170  1  0.38461391  0.75651977  0.12345802  1
  Ni  Ni171  1  0.59180284  0.14366415  0.64233509  1
  Ni  Ni172  1  0.55135772  0.74490442  0.16056589  1
  Ni  Ni173  1  0.15185030  0.84133632  0.00317951  1
  Ni  Ni174  1  0.66570690  0.66543972  -0.00130829  1
  Ni  Ni175  1  0.30709722  0.77577025  0.95968308  1
  Ni  Ni176  1  0.65114214  0.51776967  0.34957939  1
  Ni  Ni177  1  -0.05388813  -0.03174918  0.70986955  1
  Ni  Ni178  1  -0.02408045  0.81484606  0.05129610  1
  Ni  Ni179  1  0.45944432  0.39415113  0.03710358  1
  Ni  Ni180  1  -0.06953440  0.21465205  0.08185695  1
  Ni  Ni181  1  0.86987180  0.70764669  0.19749548  1
  Ni  Ni182  1  0.08479906  0.32972918  0.85260497  1
  Ni  Ni183  1  0.91105824  0.11825754  0.22145277  1
  Ni  Ni184  1  0.19239526  0.15123857  0.00160527  1
  Ni  Ni185  1  0.43951033  0.37824192  0.47166376  1
  Ni  Ni186  1  0.56037516  0.41124730  0.17419631  1
  Ni  Ni187  1  0.62231698  0.00946801  0.26877271  1
  Ni  Ni188  1  0.30723712  0.62043886  0.02859455  1
  Ni  Ni189  1  0.72755746  0.06329402  0.75096249  1
  Ni  Ni190  1  0.44569170  0.09743898  0.03788323  1
  Ni  Ni191  1  0.30061727  0.66751082  0.35565627  1
  Ni  Ni192  1  0.18377908  0.11956284  0.67083640  1
  Ni  Ni193  1  0.60975301  0.32514252  0.04233637  1
  Ni  Ni194  1  0.48230743  0.56093680  0.75330867  1
  Ni  Ni195  1  0.72953273  0.46523035  0.92241998  1
  Ni  Ni196  1  0.05235347  0.57932277  0.29886944  1
  Ni  Ni197  1  0.83319207  0.67555780  0.81159068  1
  Ni  Ni198  1  0.17842794  0.65893546  0.25097097  1
  Ni  Ni199  1  0.75409542  0.81264150  0.23815066  1
  Ni  Ni200  1  0.81751403  0.72346626  0.46973420  1
  Ni  Ni201  1  0.06699761  0.68577449  0.01621748  1
  Ni  Ni202  1  0.40114667  0.51224865  0.93187811  1
  Ni  Ni203  1  0.87914158  0.82955902  0.35517255  1
  Ni  Ni204  1  0.15028598  0.68531285  0.41859445  1
  Ni  Ni205  1  0.48210478  0.81684150  0.44310485  1
  Ni  Ni206  1  0.59575486  0.32561014  0.43326880  1
  Ni  Ni207  1  0.37476274  0.36469737  0.66325358  1
  Ni  Ni208  1  -0.05784525  0.38326745  0.31624116  1
  Ni  Ni209  1  0.14965670  0.83910124  0.70928975  1
  Ni  Ni210  1  0.36721468  0.92551928  0.53018717  1
  Ni  Ni211  1  0.80961669  0.09777863  0.44654141  1
  Ni  Ni212  1  0.23179717  0.47148954  -0.08814359  1
  Ni  Ni213  1  -0.01978435  0.56027141  0.08322885  1
  Ni  Ni214  1  0.58829361  -0.04414444  0.42295143  1
