# generated using pymatgen
data_Ti108Co54Ni53
_symmetry_space_group_name_H-M   'P 1'
_cell_length_a   14.67553470
_cell_length_b   14.62287987
_cell_length_c   14.69811587
_cell_angle_alpha   90.33560128
_cell_angle_beta   89.93899183
_cell_angle_gamma   90.23300262
_symmetry_Int_Tables_number   1
_chemical_formula_structural   Ti108Co54Ni53
_chemical_formula_sum   'Ti108 Co54 Ni53'
_cell_volume   3154.11290981
_cell_formula_units_Z   1
loop_
 _symmetry_equiv_pos_site_id
 _symmetry_equiv_pos_as_xyz
  1  'x, y, z'
loop_
 _atom_site_type_symbol
 _atom_site_label
 _atom_site_symmetry_multiplicity
 _atom_site_fract_x
 _atom_site_fract_y
 _atom_site_fract_z
 _atom_site_occupancy
  Ti  Ti0  1  -0.00576250  0.13216225  0.23577743  1
  Ti  Ti1  1  0.15157547  0.08886307  0.58757566  1
  Ti  Ti2  1  0.17636013  0.10511498  0.88776184  1
  Ti  Ti3  1  0.13590766  0.42598455  0.26731784  1
  Ti  Ti4  1  0.06709009  0.40243801  0.51204323  1
  Ti  Ti5  1  0.07315376  0.45956573  0.88359682  1
  Ti  Ti6  1  0.06348196  0.75626404  0.23363462  1
  Ti  Ti7  1  0.07450497  0.82792381  0.60213815  1
  Ti  Ti8  1  0.02997663  0.76720105  0.95062866  1
  Ti  Ti9  1  0.37368148  0.12307906  0.20973901  1
  Ti  Ti10  1  0.44907791  0.11605898  0.52920144  1
  Ti  Ti11  1  0.37899210  0.04890379  0.89276891  1
  Ti  Ti12  1  0.42961552  0.42522153  0.18011034  1
  Ti  Ti13  1  0.34869938  0.43021495  0.59961624  1
  Ti  Ti14  1  0.45035241  0.35856874  0.87241944  1
  Ti  Ti15  1  0.43523307  0.79926617  0.22193914  1
  Ti  Ti16  1  0.47771801  0.71397747  0.53169693  1
  Ti  Ti17  1  0.42910822  0.73652690  0.87702868  1
  Ti  Ti18  1  0.69782002  0.11290730  0.24223085  1
  Ti  Ti19  1  0.76754869  0.04989153  0.54000760  1
  Ti  Ti20  1  0.72994187  0.08643830  1.00182198  1
  Ti  Ti21  1  0.77205371  0.34430424  0.28158090  1
  Ti  Ti22  1  0.75280469  0.33387962  0.56454851  1
  Ti  Ti23  1  0.79943624  0.50030038  0.89656390  1
  Ti  Ti24  1  0.73092272  0.76891899  0.23824797  1
  Ti  Ti25  1  0.79746755  0.73073547  0.59450794  1
  Ti  Ti26  1  0.81128292  0.79929727  0.92709886  1
  Ti  Ti27  1  0.09047701  0.32078402  0.04245918  1
  Ti  Ti28  1  0.05849836  0.25213521  0.37855561  1
  Ti  Ti29  1  0.06652906  0.18205002  0.74123776  1
  Ti  Ti30  1  0.12203263  0.51646240  0.07134144  1
  Ti  Ti31  1  -0.02976793  0.55715503  0.49168505  1
  Ti  Ti32  1  0.02606903  0.51304013  0.68076463  1
  Ti  Ti33  1  0.10827418  0.98877562  0.13037239  1
  Ti  Ti34  1  0.05852770  0.84953367  0.40543386  1
  Ti  Ti35  1  0.06921032  0.98340935  0.77204003  1
  Ti  Ti36  1  0.46397970  0.24784883  0.08758027  1
  Ti  Ti37  1  0.38328410  0.27410461  0.43805322  1
  Ti  Ti38  1  0.42485202  0.17291301  0.73689870  1
  Ti  Ti39  1  0.39689091  0.62256444  0.16534043  1
  Ti  Ti40  1  0.46467444  0.64643580  0.35238118  1
  Ti  Ti41  1  0.43083674  0.62737823  0.71911736  1
  Ti  Ti42  1  0.40750487  0.95433182  0.13223846  1
  Ti  Ti43  1  0.43509162  0.91741365  0.48485595  1
  Ti  Ti44  1  0.48324306  0.97462018  0.68896335  1
  Ti  Ti45  1  0.79656564  0.29737655  0.07185222  1
  Ti  Ti46  1  0.74166363  0.20415124  0.41174681  1
  Ti  Ti47  1  0.69411468  0.18719605  0.69615770  1
  Ti  Ti48  1  0.73999895  0.61443364  0.07687475  1
  Ti  Ti49  1  0.65609570  0.50419239  0.35028908  1
  Ti  Ti50  1  0.77027383  0.50180422  0.68095694  1
  Ti  Ti51  1  0.78747001  0.92547884  0.10754385  1
  Ti  Ti52  1  0.79699486  0.87905765  0.42267092  1
  Ti  Ti53  1  0.72241928  0.88628153  0.76806222  1
  Ti  Ti54  1  0.25689738  0.03216352  0.04157723  1
  Ti  Ti55  1  0.28766430  0.07903936  0.39151249  1
  Ti  Ti56  1  0.28153529  0.04736511  0.72845756  1
  Ti  Ti57  1  0.26048137  0.36075322  0.14292031  1
  Ti  Ti58  1  0.23366530  0.39856125  0.44386404  1
  Ti  Ti59  1  0.23911287  0.37320406  0.80924634  1
  Ti  Ti60  1  0.21083857  0.71018337  0.09162140  1
  Ti  Ti61  1  0.29155338  0.69748997  0.44388839  1
  Ti  Ti62  1  0.26954401  0.80261299  0.72922657  1
  Ti  Ti63  1  0.56694475  0.08099860  0.11600416  1
  Ti  Ti64  1  0.60226846  0.06422201  0.40106600  1
  Ti  Ti65  1  0.59712756  0.07852572  0.81736264  1
  Ti  Ti66  1  0.57498917  0.39367921  0.05920238  1
  Ti  Ti67  1  0.50275219  0.42634274  0.45335499  1
  Ti  Ti68  1  0.55574835  0.47266915  0.74094859  1
  Ti  Ti69  1  0.54867181  0.68790462  0.02260209  1
  Ti  Ti70  1  0.57989469  0.84450911  0.36672590  1
  Ti  Ti71  1  0.55239165  0.79547239  0.74585064  1
  Ti  Ti72  1  0.93325133  0.07448351  0.06407400  1
  Ti  Ti73  1  0.97061676  0.01845275  0.47158930  1
  Ti  Ti74  1  0.88265135  0.15296702  0.77556610  1
  Ti  Ti75  1  0.84572253  0.48005337  0.14375205  1
  Ti  Ti76  1  0.88869337  0.36869188  0.43513148  1
  Ti  Ti77  1  0.81784089  0.33670621  0.75582287  1
  Ti  Ti78  1  0.88946478  0.75500118  0.09925340  1
  Ti  Ti79  1  0.93107059  0.72541420  0.43316896  1
  Ti  Ti80  1  0.91053832  0.76888984  0.74166033  1
  Ti  Ti81  1  0.24391913  0.25264048  0.29761182  1
  Ti  Ti82  1  0.18164984  0.29450952  0.61121624  1
  Ti  Ti83  1  0.28697667  0.23821057  0.99752101  1
  Ti  Ti84  1  0.28456361  0.55148503  0.30167160  1
  Ti  Ti85  1  0.20079199  0.56611205  0.56075128  1
  Ti  Ti86  1  0.33702282  0.52892136  0.91849095  1
  Ti  Ti87  1  0.24972086  0.86132675  0.31087742  1
  Ti  Ti88  1  0.20294216  0.94156982  0.48407542  1
  Ti  Ti89  1  0.33417912  0.85412216  0.98482996  1
  Ti  Ti90  1  0.56928944  0.29109424  0.28506001  1
  Ti  Ti91  1  0.52526114  0.30547699  0.61146331  1
  Ti  Ti92  1  0.62252905  0.24436572  0.96214979  1
  Ti  Ti93  1  0.57820988  0.56168653  0.17921385  1
  Ti  Ti94  1  0.62639484  0.63955018  0.64115172  1
  Ti  Ti95  1  0.59207542  0.52579167  0.93196570  1
  Ti  Ti96  1  0.60438334  0.89428866  0.16445430  1
  Ti  Ti97  1  0.61732766  0.85696033  0.57843312  1
  Ti  Ti98  1  0.51674335  0.91712930  0.90700243  1
  Ti  Ti99  1  0.95931057  0.34226349  0.21429349  1
  Ti  Ti100  1  0.96090534  0.29866452  0.62979100  1
  Ti  Ti101  1  0.96838278  0.30195937  0.88864925  1
  Ti  Ti102  1  0.89634505  0.63990507  0.24394490  1
  Ti  Ti103  1  0.77204664  0.55468390  0.49532958  1
  Ti  Ti104  1  0.94298096  0.58328493  0.99179087  1
  Ti  Ti105  1  0.95970493  0.92400607  0.22088379  1
  Ti  Ti106  1  0.89523431  0.95947235  0.68443500  1
  Ti  Ti107  1  0.88253061  0.99726770  0.89691392  1
  Co  Co108  1  0.39970343  0.80137450  0.38140095  1
  Co  Co109  1  0.72692318  0.20059794  0.85472532  1
  Co  Co110  1  0.15642755  0.60356527  0.21248499  1
  Co  Co111  1  0.56450692  0.65627402  0.82747643  1
  Co  Co112  1  0.77565797  0.89300358  0.59729272  1
  Co  Co113  1  0.88461278  0.60047402  0.69072389  1
  Co  Co114  1  0.55176108  0.12519276  0.65636344  1
  Co  Co115  1  0.06415613  0.83281180  0.09514256  1
  Co  Co116  1  -0.10312335  0.44398867  0.59293290  1
  Co  Co117  1  0.05457602  0.20712382  0.53202488  1
  Co  Co118  1  0.15163653  0.12372934  0.27034969  1
  Co  Co119  1  0.00625939  0.44565802  0.35727553  1
  Co  Co120  1  0.33239959  0.39888432  0.31714433  1
  Co  Co121  1  0.18514548  0.92767991  0.66423391  1
  Co  Co122  1  0.02057486  0.61189626  0.33987047  1
  Co  Co123  1  0.05964674  -0.01488224  -0.04663946  1
  Co  Co124  1  0.72494093  0.44098241  0.02577355  1
  Co  Co125  1  0.23017612  0.16958458  0.13584610  1
  Co  Co126  1  -0.07365533  0.85899130  0.54848072  1
  Co  Co127  1  0.73525021  0.59309718  0.23982121  1
  Co  Co128  1  0.35858867  0.52297586  0.45519311  1
  Co  Co129  1  0.31356019  0.21353738  0.84865215  1
  Co  Co130  1  0.66951602  0.00454192  0.67035979  1
  Co  Co131  1  0.55348809  0.06665884  0.96580379  1
  Co  Co132  1  0.38892535  0.47054342  0.76071705  1
  Co  Co133  1  0.57605633  0.72394298  0.18429786  1
  Co  Co134  1  0.48272480  0.52334890  0.59884071  1
  Co  Co135  1  0.64930610  0.16942728  0.53801223  1
  Co  Co136  1  0.22356778  0.19794714  0.72835476  1
  Co  Co137  1  0.49993841  0.83440278  0.04607317  1
  Co  Co138  1  0.84899722  0.51461760  0.34411217  1
  Co  Co139  1  0.11046304  0.08034154  0.42171125  1
  Co  Co140  1  0.68610342  0.56097788  0.79613800  1
  Co  Co141  1  -0.03414863  0.87562826  0.84583150  1
  Co  Co142  1  0.13886988  0.27167008  0.88953143  1
  Co  Co143  1  0.87028871  0.65132452  0.85319094  1
  Co  Co144  1  -0.04176029  0.23724283  0.07727489  1
  Co  Co145  1  0.17972863  0.44515924  0.66089753  1
  Co  Co146  1  0.65087383  0.38722359  -0.13112244  1
  Co  Co147  1  -0.07618122  0.46167175  0.79968149  1
  Co  Co148  1  0.06772210  0.35754431  0.75376808  1
  Co  Co149  1  0.28866630  0.52339002  0.09018578  1
  Co  Co150  1  0.47435757  0.49783863  0.31265138  1
  Co  Co151  1  0.41269208  0.27475681  0.25098942  1
  Co  Co152  1  0.03604747  0.66151621  0.10211065  1
  Co  Co153  1  -0.05889979  0.41633342  0.00739799  1
  Co  Co154  1  0.21790207  0.40834251  -0.02858453  1
  Co  Co155  1  0.66000292  0.35745111  0.70040886  1
  Co  Co156  1  0.54716039  0.24684257  0.44369725  1
  Co  Co157  1  0.10384642  0.26382551  0.19457982  1
  Co  Co158  1  0.57735442  0.00533630  0.54068238  1
  Co  Co159  1  0.57916261  0.58932342  0.47745645  1
  Co  Co160  1  0.28513313  0.71719201  0.24538986  1
  Co  Co161  1  0.40766045  0.10290902  0.04232293  1
  Ni  Ni162  1  0.65267624  -0.06721423  0.00420689  1
  Ni  Ni163  1  0.20827557  0.21526169  0.46227674  1
  Ni  Ni164  1  0.71191673  0.66065300  -0.07524392  1
  Ni  Ni165  1  0.35726759  0.67081930  0.01134928  1
  Ni  Ni166  1  0.46741429  0.19457994  -0.09039039  1
  Ni  Ni167  1  0.09982770  0.68740030  0.49739060  1
  Ni  Ni168  1  0.32257593  0.20099875  0.59010094  1
  Ni  Ni169  1  0.45362746  0.13808398  0.35556058  1
  Ni  Ni170  1  0.10696047  -0.03201967  0.30321154  1
  Ni  Ni171  1  0.66582219  0.72945149  0.48845996  1
  Ni  Ni172  1  -0.02975821  0.69582171  0.59656160  1
  Ni  Ni173  1  0.53378086  0.00859360  0.26225222  1
  Ni  Ni174  1  0.17208562  0.87809947  -0.01096853  1
  Ni  Ni175  1  0.15912464  0.70581887  0.35177849  1
  Ni  Ni176  1  0.14659530  0.54332093  0.40584020  1
  Ni  Ni177  1  0.68139672  0.42963801  0.18348767  1
  Ni  Ni178  1  0.27245834  0.81719653  0.55965038  1
  Ni  Ni179  1  0.37684655  0.38947074  0.01824189  1
  Ni  Ni180  1  0.93312099  0.89684736  0.02068639  1
  Ni  Ni181  1  0.22864923  -0.06138867  0.84621179  1
  Ni  Ni182  1  0.62959676  0.79795802  0.90530189  1
  Ni  Ni183  1  0.24344434  0.86665570  0.13805740  1
  Ni  Ni184  1  0.73590438  0.71673083  0.76411111  1
  Ni  Ni185  1  0.35502959  0.31298503  0.71115004  1
  Ni  Ni186  1  0.70478262  -0.05101597  0.29625855  1
  Ni  Ni187  1  0.63674818  0.46155019  0.56708473  1
  Ni  Ni188  1  0.41766827  0.81934871  0.64822090  1
  Ni  Ni189  1  0.09703734  0.13777754  0.03988480  1
  Ni  Ni190  1  0.64890726  0.23983020  0.14036771  1
  Ni  Ni191  1  0.00587074  0.51683069  0.19656287  1
  Ni  Ni192  1  0.78163580  0.67815835  0.38040003  1
  Ni  Ni193  1  0.25530385  0.00854255  0.22612070  1
  Ni  Ni194  1  0.82228980  0.05398645  0.37467549  1
  Ni  Ni195  1  0.90150694  0.17040926  0.47769399  1
  Ni  Ni196  1  0.88527936  0.80397127  0.29407384  1
  Ni  Ni197  1  -0.03276044  0.10089356  0.62540283  1
  Ni  Ni198  1  0.38647306  0.89389129  0.80304847  1
  Ni  Ni199  1  0.39250760  -0.03701892  0.32343607  1
  Ni  Ni200  1  0.83200342  0.19555246  0.18693514  1
  Ni  Ni201  1  0.32198722  0.67129223  0.61111109  1
  Ni  Ni202  1  0.62219386  0.67770364  0.33724751  1
  Ni  Ni203  1  0.76029231  0.04663843  0.80036298  1
  Ni  Ni204  1  0.85869730  0.17892859  -0.05014959  1
  Ni  Ni205  1  0.33125297  -0.02765746  0.59513466  1
  Ni  Ni206  1  0.56692743  0.25356068  0.79219519  1
  Ni  Ni207  1  0.83047559  0.19458718  0.61602819  1
  Ni  Ni208  1  0.69916193  0.77904902  0.06120424  1
  Ni  Ni209  1  0.89149206  0.22868746  0.33144372  1
  Ni  Ni210  1  0.80002543  0.33398184  0.91866396  1
  Ni  Ni211  1  0.66991373  0.35934170  0.42440784  1
  Ni  Ni212  1  0.84118606  0.03645834  0.21230475  1
  Ni  Ni213  1  0.00705216  0.12861831  0.89506819  1
  Ni  Ni214  1  0.46028978  0.52981859  0.03636300  1
