# generated using pymatgen
data_Ti108Co54Ni53
_symmetry_space_group_name_H-M   'P 1'
_cell_length_a   14.71121208
_cell_length_b   14.67211216
_cell_length_c   14.69611570
_cell_angle_alpha   90.26531090
_cell_angle_beta   90.20124799
_cell_angle_gamma   89.62640605
_symmetry_Int_Tables_number   1
_chemical_formula_structural   Ti108Co54Ni53
_chemical_formula_sum   'Ti108 Co54 Ni53'
_cell_volume   3171.95586050
_cell_formula_units_Z   1
loop_
 _symmetry_equiv_pos_site_id
 _symmetry_equiv_pos_as_xyz
  1  'x, y, z'
loop_
 _atom_site_type_symbol
 _atom_site_label
 _atom_site_symmetry_multiplicity
 _atom_site_fract_x
 _atom_site_fract_y
 _atom_site_fract_z
 _atom_site_occupancy
  Ti  Ti0  1  0.07963050  0.15549564  0.25619462  1
  Ti  Ti1  1  -0.01052769  0.05554952  0.58507771  1
  Ti  Ti2  1  0.07451649  0.03194572  0.92338742  1
  Ti  Ti3  1  0.04882316  0.34733996  0.23035881  1
  Ti  Ti4  1  0.08036678  0.40006459  0.64002551  1
  Ti  Ti5  1  0.07948324  0.36623606  0.94286766  1
  Ti  Ti6  1  0.12761644  0.79435026  0.27728553  1
  Ti  Ti7  1  0.14186771  0.79356281  0.57197188  1
  Ti  Ti8  1  0.05187280  0.74683191  0.92245544  1
  Ti  Ti9  1  0.38120276  0.09203761  0.29225579  1
  Ti  Ti10  1  0.39153351  0.09604493  0.62349650  1
  Ti  Ti11  1  0.34479273  0.02560691  0.90933199  1
  Ti  Ti12  1  0.39452041  0.38755940  0.22934128  1
  Ti  Ti13  1  0.44431688  0.44354097  0.49029773  1
  Ti  Ti14  1  0.40511732  0.36393781  0.92698937  1
  Ti  Ti15  1  0.45661539  0.79836577  0.25164918  1
  Ti  Ti16  1  0.45313471  0.65775381  0.57213654  1
  Ti  Ti17  1  0.41265686  0.71815294  0.98352333  1
  Ti  Ti18  1  0.72660544  0.11725754  0.23994459  1
  Ti  Ti19  1  0.77495696  0.08689423  0.66328869  1
  Ti  Ti20  1  0.70842201  0.07908353  0.98543805  1
  Ti  Ti21  1  0.77155695  0.47555061  0.23114017  1
  Ti  Ti22  1  0.74770632  0.38532443  0.59351388  1
  Ti  Ti23  1  0.69568949  0.40875217  0.92432703  1
  Ti  Ti24  1  0.80381615  0.75471532  0.29648332  1
  Ti  Ti25  1  0.71528461  0.77723828  0.57946917  1
  Ti  Ti26  1  0.69638038  0.71791118  0.89477637  1
  Ti  Ti27  1  0.15654777  0.18047811  0.07094015  1
  Ti  Ti28  1  0.02071180  0.37904738  0.44993099  1
  Ti  Ti29  1  0.07499540  0.17402886  0.73746838  1
  Ti  Ti30  1  0.12184987  0.61131381  0.08074479  1
  Ti  Ti31  1  0.02820931  0.57947763  0.39182802  1
  Ti  Ti32  1  0.04008033  0.61239385  0.71298925  1
  Ti  Ti33  1  0.09591319  0.97639133  0.15443806  1
  Ti  Ti34  1  0.04316029  0.91164007  0.43006674  1
  Ti  Ti35  1  0.09675041  0.94030212  0.70227146  1
  Ti  Ti36  1  0.36524114  0.19723810  0.00460228  1
  Ti  Ti37  1  0.44032392  0.22450493  0.45346300  1
  Ti  Ti38  1  0.50945487  0.20980045  0.71368208  1
  Ti  Ti39  1  0.43155206  0.60800012  0.16906205  1
  Ti  Ti40  1  0.41271038  0.64190351  0.36658327  1
  Ti  Ti41  1  0.35166671  0.61776466  0.77824172  1
  Ti  Ti42  1  0.43418340  0.90113176  0.05940707  1
  Ti  Ti43  1  0.37638366  0.90782640  0.40090616  1
  Ti  Ti44  1  0.47022229  0.88273306  0.85138927  1
  Ti  Ti45  1  0.76183267  0.24446999  0.07767897  1
  Ti  Ti46  1  0.77213316  0.20046012  0.40122450  1
  Ti  Ti47  1  0.69871788  0.25156135  0.72943104  1
  Ti  Ti48  1  0.75245756  0.56456668  0.02861820  1
  Ti  Ti49  1  0.69847479  0.57720607  0.38852716  1
  Ti  Ti50  1  0.76137842  0.55683386  0.79419392  1
  Ti  Ti51  1  0.73491027  0.89624283  0.08023595  1
  Ti  Ti52  1  0.78541474  0.99422639  0.38790025  1
  Ti  Ti53  1  0.76809193  0.88699509  0.74409781  1
  Ti  Ti54  1  0.32240691  0.05466567  0.09976371  1
  Ti  Ti55  1  0.20509053  0.02230058  0.36452258  1
  Ti  Ti56  1  0.25234704  0.04250577  0.75009460  1
  Ti  Ti57  1  0.26006816  0.36362235  0.07269650  1
  Ti  Ti58  1  0.21802919  0.45374300  0.40808678  1
  Ti  Ti59  1  0.24352568  0.45445536  0.82981135  1
  Ti  Ti60  1  0.18794396  0.79729520  0.08641774  1
  Ti  Ti61  1  0.28237696  0.72869784  0.46704509  1
  Ti  Ti62  1  0.18037763  0.74527839  0.76461343  1
  Ti  Ti63  1  0.51879958  0.06762874  -0.03741379  1
  Ti  Ti64  1  0.54497580  0.05439436  0.42127239  1
  Ti  Ti65  1  0.60291270  0.01673046  0.75214229  1
  Ti  Ti66  1  0.55781331  0.43648417  0.08182086  1
  Ti  Ti67  1  0.68462498  0.37125264  0.38762732  1
  Ti  Ti68  1  0.61299336  0.43929207  0.73167384  1
  Ti  Ti69  1  0.57385048  0.76430753  0.11918399  1
  Ti  Ti70  1  0.59884012  0.76001682  0.41748071  1
  Ti  Ti71  1  0.60155740  0.68530617  0.71111160  1
  Ti  Ti72  1  0.89232157  0.12886852  -0.03424737  1
  Ti  Ti73  1  0.96197886  0.16825729  0.41451977  1
  Ti  Ti74  1  0.92989814  0.05411262  0.78143119  1
  Ti  Ti75  1  0.93283599  0.47713548  0.08262836  1
  Ti  Ti76  1  0.85559191  0.48914885  0.45095174  1
  Ti  Ti77  1  0.92048525  0.46436316  0.76934454  1
  Ti  Ti78  1  0.86643357  0.77715688  0.11906828  1
  Ti  Ti79  1  0.93450067  0.73849758  0.47161339  1
  Ti  Ti80  1  0.89236772  0.75783462  0.80349152  1
  Ti  Ti81  1  0.25253409  0.22492182  0.32709891  1
  Ti  Ti82  1  0.23117870  0.18175726  0.51771750  1
  Ti  Ti83  1  0.23083289  0.25891144  0.89337705  1
  Ti  Ti84  1  0.25436271  0.52247373  0.21032474  1
  Ti  Ti85  1  0.15727959  0.59502197  0.54680989  1
  Ti  Ti86  1  0.24179131  0.66970831  0.93556025  1
  Ti  Ti87  1  0.28018559  0.90763152  0.21257532  1
  Ti  Ti88  1  0.25801647  0.96095673  0.55574743  1
  Ti  Ti89  1  0.27557815  0.85673263  0.94344818  1
  Ti  Ti90  1  0.59276069  0.28241307  0.20955683  1
  Ti  Ti91  1  0.62599178  0.23296720  0.53320568  1
  Ti  Ti92  1  0.58160379  0.25538846  1.00089889  1
  Ti  Ti93  1  0.55100433  0.49570193  0.28844648  1
  Ti  Ti94  1  0.67504004  0.57712924  0.58393762  1
  Ti  Ti95  1  0.55065796  0.60177024  0.97993251  1
  Ti  Ti96  1  0.60373503  0.96573174  0.21377109  1
  Ti  Ti97  1  0.53590648  0.86095802  0.60233653  1
  Ti  Ti98  1  0.67927710  0.91332334  0.90317149  1
  Ti  Ti99  1  0.90461182  0.19621605  0.19755804  1
  Ti  Ti100  1  0.90876121  0.24672782  0.63313397  1
  Ti  Ti101  1  0.89162335  0.31957616  0.92904990  1
  Ti  Ti102  1  0.99449577  0.62311069  0.21052002  1
  Ti  Ti103  1  0.86202605  0.60019870  0.61644808  1
  Ti  Ti104  1  1.02146890  0.54393921  0.92805483  1
  Ti  Ti105  1  0.93814107  0.90795645  0.25200876  1
  Ti  Ti106  1  0.83338590  0.92839876  0.55531097  1
  Ti  Ti107  1  0.88379478  0.92935617  0.92960880  1
  Co  Co108  1  0.78926213  0.37056322  0.78742570  1
  Co  Co109  1  0.85082633  0.10647237  0.51947159  1
  Co  Co110  1  0.71422770  0.71519821  0.06844779  1
  Co  Co111  1  0.34692771  0.33858554  0.38818829  1
  Co  Co112  1  0.01698750  0.89009426  0.83998225  1
  Co  Co113  1  0.10161138  0.72564308  0.42823974  1
  Co  Co114  1  0.09370990  0.44791667  0.09837112  1
  Co  Co115  1  0.86483279  0.60759364  0.33053713  1
  Co  Co116  1  0.07480647  0.88709337  -0.00751675  1
  Co  Co117  1  0.32945714  0.17239716  0.80381133  1
  Co  Co118  1  0.17918565  -0.07656901  0.84707132  1
  Co  Co119  1  0.25973134  0.86059493  0.68900744  1
  Co  Co120  1  0.65030351  0.81071147  0.25977482  1
  Co  Co121  1  0.51652414  0.35414399  0.36325156  1
  Co  Co122  1  0.35071433  0.08353496  0.45090538  1
  Co  Co123  1  0.44846401  -0.02838966  0.53034477  1
  Co  Co124  1  0.37023158  0.82556053  0.56598325  1
  Co  Co125  1  0.78902603  0.67067899  0.47682535  1
  Co  Co126  1  0.44165208  0.76148036  0.69927982  1
  Co  Co127  1  0.55851446  0.66451973  0.28836808  1
  Co  Co128  1  0.37012243  0.49672179  0.34752298  1
  Co  Co129  1  0.08274239  0.46098385  0.79001655  1
  Co  Co130  1  0.10708031  0.25449562  0.39419438  1
  Co  Co131  1  -0.08105237  -0.08094177  0.71004285  1
  Co  Co132  1  0.35195368  0.76518829  0.11947702  1
  Co  Co133  1  0.82655407  0.78402808  -0.03847266  1
  Co  Co134  1  0.43853164  0.23888773  0.27156688  1
  Co  Co135  1  -0.01497191  0.31660044  0.78275905  1
  Co  Co136  1  0.61172573  0.57199376  0.83602062  1
  Co  Co137  1  0.71449115  0.39219897  0.10092746  1
  Co  Co138  1  0.63159121  0.12187771  0.11284316  1
  Co  Co139  1  0.85033211  0.47313360  -0.07367968  1
  Co  Co140  1  0.63259412  0.92140129  0.47732795  1
  Co  Co141  1  0.77832331  -0.07151105  0.23141247  1
  Co  Co142  1  0.21432398  0.10589772  -0.07059552  1
  Co  Co143  1  0.34226446  0.77881680  0.81884667  1
  Co  Co144  1  0.09843279  0.09193521  0.46068927  1
  Co  Co145  1  0.03061996  0.02411404  0.32197959  1
  Co  Co146  1  0.06087287  0.22222795  0.56237770  1
  Co  Co147  1  0.21954189  0.08603601  0.21416037  1
  Co  Co148  1  0.76405610  0.69953491  0.71776583  1
  Co  Co149  1  0.20696540  -0.02587088  0.03681304  1
  Co  Co150  1  0.58568059  -0.05048483  0.04485789  1
  Co  Co151  1  0.84341646  0.61514265  0.15749004  1
  Co  Co152  1  0.29761085  0.23179291  0.16811855  1
  Co  Co153  1  0.14685520  0.59721539  0.84627908  1
  Co  Co154  1  0.88209866  0.06485463  0.28052525  1
  Co  Co155  1  0.31965085  0.57084179  0.49763491  1
  Co  Co156  1  0.39422192  0.46545317  0.07477928  1
  Co  Co157  1  0.58234481  0.31238442  0.83685939  1
  Co  Co158  1  0.15315366  0.08650544  0.61968131  1
  Co  Co159  1  0.53163866  0.90231475  0.35691453  1
  Co  Co160  1  0.57521931  0.79954776  -0.03631854  1
  Co  Co161  1  0.68006471  -0.04620621  0.62266836  1
  Ni  Ni162  1  0.50195969  0.70631807  0.84317928  1
  Ni  Ni163  1  0.03654891  0.20502235  0.90869857  1
  Ni  Ni164  1  -0.00503464  0.87443944  0.57646774  1
  Ni  Ni165  1  -0.05712187  -0.05189472  0.08058309  1
  Ni  Ni166  1  0.74116750  0.24134676  -0.09554650  1
  Ni  Ni167  1  0.46573360  0.20744678  -0.12230921  1
  Ni  Ni168  1  0.75479681  0.29294111  0.25222817  1
  Ni  Ni169  1  0.61648862  0.15120998  0.84725803  1
  Ni  Ni170  1  -0.02552304  0.74933587  0.31327377  1
  Ni  Ni171  1  0.02703707  0.78187999  0.70993969  1
  Ni  Ni172  1  0.20606081  0.56233772  0.70199185  1
  Ni  Ni173  1  0.20298934  0.49742605  -0.01775077  1
  Ni  Ni174  1  0.30465858  0.77139663  0.30752318  1
  Ni  Ni175  1  0.21418272  0.36605074  0.25080091  1
  Ni  Ni176  1  0.59531044  0.58857685  0.13950110  1
  Ni  Ni177  1  0.76010498  0.83183359  0.42704571  1
  Ni  Ni178  1  0.30094177  0.60230473  0.06894350  1
  Ni  Ni179  1  0.47332832  0.12293024  0.12795581  1
  Ni  Ni180  1  0.85878669  0.20763877  0.79213618  1
  Ni  Ni181  1  0.28762374  0.69156086  0.63415292  1
  Ni  Ni182  1  0.69450670  0.07619393  0.50484396  1
  Ni  Ni183  1  0.56462213  0.08369112  0.60070927  1
  Ni  Ni184  1  0.44651942  0.30240138  0.09852071  1
  Ni  Ni185  1  0.45272102  0.06336904  0.78985609  1
  Ni  Ni186  1  -0.04049046  0.66169603  0.04248151  1
  Ni  Ni187  1  0.20376019  0.86345977  0.41005346  1
  Ni  Ni188  1  0.61065315  0.44493396  0.50986920  1
  Ni  Ni189  1  0.02824680  0.79797375  0.13231584  1
  Ni  Ni190  1  -0.06067689  0.46419867  0.28765900  1
  Ni  Ni191  1  0.82618129  0.06121970  0.11205898  1
  Ni  Ni192  1  0.00324646  0.11046526  0.08563271  1
  Ni  Ni193  1  0.53159628  0.45263558  -0.09683428  1
  Ni  Ni194  1  0.70840054  0.63975420  0.23353911  1
  Ni  Ni195  1  0.23369057  0.68300312  0.19889066  1
  Ni  Ni196  1  0.00350868  0.27945183  0.07168577  1
  Ni  Ni197  1  0.44158521  -0.03454607  0.21950994  1
  Ni  Ni198  1  0.17751235  0.33915898  0.51680060  1
  Ni  Ni199  1  0.15042921  0.31709170  0.77009343  1
  Ni  Ni200  1  0.54720559  0.58748584  0.44939949  1
  Ni  Ni201  1  0.54444994  0.34360422  0.61911662  1
  Ni  Ni202  1  0.37218298  0.53805343  0.92944640  1
  Ni  Ni203  1  0.00290228  0.53209297  0.55110357  1
  Ni  Ni204  1  0.60333147  0.83683131  0.76848023  1
  Ni  Ni205  1  0.87734046  0.63011611  0.90400937  1
  Ni  Ni206  1  0.76640363  0.06659585  0.83198685  1
  Ni  Ni207  1  0.87672928  0.35479405  0.16463527  1
  Ni  Ni208  1  0.55882396  0.12721449  0.27154761  1
  Ni  Ni209  1  0.91045117  0.41387379  0.60637239  1
  Ni  Ni210  1  0.10458710  0.49828569  0.26690673  1
  Ni  Ni211  1  0.40267520  -0.06403139  0.69504023  1
  Ni  Ni212  1  0.87959234  0.77174707  0.63007905  1
  Ni  Ni213  1  0.86137508  0.31581893  0.48206060  1
  Ni  Ni214  1  0.49419682  0.56502162  0.71482161  1
