# generated using pymatgen
data_Ti108Co54Ni53
_symmetry_space_group_name_H-M   'P 1'
_cell_length_a   14.63335040
_cell_length_b   14.69533493
_cell_length_c   14.73801331
_cell_angle_alpha   89.67801566
_cell_angle_beta   89.93241865
_cell_angle_gamma   89.75386357
_symmetry_Int_Tables_number   1
_chemical_formula_structural   Ti108Co54Ni53
_chemical_formula_sum   'Ti108 Co54 Ni53'
_cell_volume   3169.21023766
_cell_formula_units_Z   1
loop_
 _symmetry_equiv_pos_site_id
 _symmetry_equiv_pos_as_xyz
  1  'x, y, z'
loop_
 _atom_site_type_symbol
 _atom_site_label
 _atom_site_symmetry_multiplicity
 _atom_site_fract_x
 _atom_site_fract_y
 _atom_site_fract_z
 _atom_site_occupancy
  Ti  Ti0  1  0.06618646  0.07297532  0.27358605  1
  Ti  Ti1  1  0.08066631  0.09915151  0.55224065  1
  Ti  Ti2  1  0.04758798  0.11152660  0.82947178  1
  Ti  Ti3  1  0.09042729  0.39912886  0.19709105  1
  Ti  Ti4  1  0.15426601  0.42057005  0.60352551  1
  Ti  Ti5  1  -0.00512920  0.42078969  0.90818096  1
  Ti  Ti6  1  0.09278873  0.72506628  0.29240438  1
  Ti  Ti7  1  0.04777219  0.71834577  0.57920027  1
  Ti  Ti8  1  0.03828190  0.74584920  0.96926862  1
  Ti  Ti9  1  0.37823854  0.06749682  0.26124801  1
  Ti  Ti10  1  0.38153497  0.06740291  0.58983398  1
  Ti  Ti11  1  0.49670622  0.07213743  0.84713296  1
  Ti  Ti12  1  0.39840295  0.44328534  0.22878323  1
  Ti  Ti13  1  0.36480591  0.36192888  0.57094008  1
  Ti  Ti14  1  0.39785470  0.34472354  0.90353775  1
  Ti  Ti15  1  0.37966734  0.65636737  0.24232928  1
  Ti  Ti16  1  0.42971983  0.79598784  0.53500774  1
  Ti  Ti17  1  0.44213427  0.77700237  0.97883968  1
  Ti  Ti18  1  0.72722727  0.03837708  0.28173329  1
  Ti  Ti19  1  0.80996209  0.10598074  0.62536048  1
  Ti  Ti20  1  0.77121867  0.09856005  0.97886825  1
  Ti  Ti21  1  0.79117706  0.49004688  0.21946943  1
  Ti  Ti22  1  0.81187701  0.43601719  0.57740292  1
  Ti  Ti23  1  0.77391733  0.45322998  0.96339587  1
  Ti  Ti24  1  0.66778631  0.75013788  0.29398015  1
  Ti  Ti25  1  0.77451717  0.77296267  0.62066161  1
  Ti  Ti26  1  0.82745470  0.78318385  0.91030522  1
  Ti  Ti27  1  0.14348040  0.20617512  0.14208058  1
  Ti  Ti28  1  0.09463332  0.22932577  0.40096596  1
  Ti  Ti29  1  0.10453957  0.27363862  0.73038452  1
  Ti  Ti30  1  0.09561068  0.62863130  0.10503286  1
  Ti  Ti31  1  0.09146799  0.55925177  0.44588070  1
  Ti  Ti32  1  0.08915757  0.60922865  0.71777080  1
  Ti  Ti33  1  0.08753234  0.94235387  0.09125238  1
  Ti  Ti34  1  0.06304533  0.85719984  0.43605551  1
  Ti  Ti35  1  0.11305809  0.92150654  0.78082751  1
  Ti  Ti36  1  0.44365999  0.20166593  0.11039090  1
  Ti  Ti37  1  0.42955726  0.25010421  0.32177895  1
  Ti  Ti38  1  0.39764611  0.21060528  0.73501329  1
  Ti  Ti39  1  0.44839473  0.57581450  0.07414159  1
  Ti  Ti40  1  0.40520393  0.53635893  0.40448534  1
  Ti  Ti41  1  0.30198416  0.63378501  0.78201873  1
  Ti  Ti42  1  0.36853696  0.93218091  0.09318667  1
  Ti  Ti43  1  0.35275378  0.94730212  0.43497417  1
  Ti  Ti44  1  0.43011767  0.88324992  0.78695306  1
  Ti  Ti45  1  0.80256787  0.17668780  0.16375327  1
  Ti  Ti46  1  0.75643099  0.17934230  0.40530262  1
  Ti  Ti47  1  0.84295121  0.17401511  0.79712061  1
  Ti  Ti48  1  0.65355433  0.56381299  0.09573001  1
  Ti  Ti49  1  0.78151245  0.60714310  0.36770636  1
  Ti  Ti50  1  0.76560538  0.58110215  0.67770831  1
  Ti  Ti51  1  0.71707678  0.90372066  0.07059818  1
  Ti  Ti52  1  0.76444543  0.88959007  0.42003868  1
  Ti  Ti53  1  0.70719831  1.02218636  0.77771396  1
  Ti  Ti54  1  0.27841786  0.09313617  0.02631731  1
  Ti  Ti55  1  0.26261370  0.11887182  0.44104620  1
  Ti  Ti56  1  0.30411324  0.02996617  0.76333559  1
  Ti  Ti57  1  0.27938631  0.45648769  0.02015875  1
  Ti  Ti58  1  0.22198245  0.45289494  0.35073166  1
  Ti  Ti59  1  0.19036806  0.38502168  0.87183253  1
  Ti  Ti60  1  0.27128357  0.65870802  -0.00646129  1
  Ti  Ti61  1  0.27346246  0.79209212  0.36448333  1
  Ti  Ti62  1  0.21222938  0.78468793  0.69538878  1
  Ti  Ti63  1  0.62231236  0.06479975  0.12097131  1
  Ti  Ti64  1  0.51094239  0.13430117  0.45152056  1
  Ti  Ti65  1  0.61318997  0.19087472  0.71135901  1
  Ti  Ti66  1  0.59115502  0.38742080  0.06024763  1
  Ti  Ti67  1  0.66950407  0.44289288  0.41050067  1
  Ti  Ti68  1  0.63336176  0.36492700  0.86074241  1
  Ti  Ti69  1  0.63149090  0.74043632  0.04883007  1
  Ti  Ti70  1  0.48410860  0.75917332  0.34740670  1
  Ti  Ti71  1  0.60149233  0.80549271  0.70561148  1
  Ti  Ti72  1  0.97612566  0.10106640  0.09820650  1
  Ti  Ti73  1  0.92674401  0.15836818  0.47568153  1
  Ti  Ti74  1  0.89290353  -0.01808995  0.81210397  1
  Ti  Ti75  1  0.92348935  0.40224863  0.08004303  1
  Ti  Ti76  1  0.89309196  0.44081858  0.40133621  1
  Ti  Ti77  1  0.85094263  0.41775785  0.76991792  1
  Ti  Ti78  1  0.89518391  0.69228763  0.09566810  1
  Ti  Ti79  1  0.87877748  0.76970684  0.30478288  1
  Ti  Ti80  1  0.93446572  0.82942445  0.70974200  1
  Ti  Ti81  1  0.25231401  0.28266722  0.31321704  1
  Ti  Ti82  1  0.23805690  0.21123194  0.60964225  1
  Ti  Ti83  1  0.24366111  0.19741092  0.86426984  1
  Ti  Ti84  1  0.24377735  0.53828606  0.17282131  1
  Ti  Ti85  1  0.26216206  0.63308088  0.56965492  1
  Ti  Ti86  1  0.13594745  0.56998883  0.89668611  1
  Ti  Ti87  1  0.22412571  0.86006316  0.19473499  1
  Ti  Ti88  1  0.19872429  0.96327740  0.57764984  1
  Ti  Ti89  1  0.22284217  0.87779292  0.94672846  1
  Ti  Ti90  1  0.61927895  0.26723830  0.32159923  1
  Ti  Ti91  1  0.66760465  0.29865698  0.54570863  1
  Ti  Ti92  1  0.58041618  0.19973557  0.97903021  1
  Ti  Ti93  1  0.57032282  0.56110898  0.27495021  1
  Ti  Ti94  1  0.61899960  0.67277503  0.56345609  1
  Ti  Ti95  1  0.58617522  0.61000971  0.90743330  1
  Ti  Ti96  1  0.55652437  0.94075985  0.32240890  1
  Ti  Ti97  1  0.65136964  0.96379920  0.57183486  1
  Ti  Ti98  1  0.61282697  0.85389940  0.88559523  1
  Ti  Ti99  1  0.92256370  0.25748769  0.30412061  1
  Ti  Ti100  1  0.88422108  0.27565858  0.61643731  1
  Ti  Ti101  1  0.90947401  0.24893493  0.97755617  1
  Ti  Ti102  1  0.95245847  0.59063328  0.28620198  1
  Ti  Ti103  1  0.89822121  0.60534112  0.52678449  1
  Ti  Ti104  1  0.90135114  0.60106998  0.83468744  1
  Ti  Ti105  1  0.92752871  0.94179450  0.25431156  1
  Ti  Ti106  1  0.93192926  0.95428702  0.54471036  1
  Ti  Ti107  1  0.90900467  0.93438155  1.00411456  1
  Co  Co108  1  0.64124900  0.04262535  0.41499795  1
  Co  Co109  1  0.21824741  0.31832156  0.47877006  1
  Co  Co110  1  0.41318358  0.62445910  -0.08474958  1
  Co  Co111  1  0.62002279  0.63805264  0.40522478  1
  Co  Co112  1  -0.01956664  0.53060076  0.14780909  1
  Co  Co113  1  0.79099922  0.03605471  0.47841516  1
  Co  Co114  1  0.49554854  -0.00818159  0.17767672  1
  Co  Co115  1  0.30473992  0.19694896  0.17537615  1
  Co  Co116  1  0.82178380  0.31127666  0.46417849  1
  Co  Co117  1  0.49552853  0.90683125  0.62545775  1
  Co  Co118  1  0.15523914  -0.00227943  0.42102102  1
  Co  Co119  1  -0.09126512  0.67762373  0.68320797  1
  Co  Co120  1  -0.01398567  0.69772189  0.41785804  1
  Co  Co121  1  0.11037502  0.48131622  0.03103496  1
  Co  Co122  1  0.76548401  0.70178573  0.78767983  1
  Co  Co123  1  0.52151239  0.31653684  0.46223927  1
  Co  Co124  1  0.36411721  0.37784209  0.40758092  1
  Co  Co125  1  0.48314726  0.47575830  -0.04572555  1
  Co  Co126  1  0.06162874  0.46003653  0.77365993  1
  Co  Co127  1  0.51954369  0.24951519  0.83574999  1
  Co  Co128  1  0.09205598  0.90838229  0.28375818  1
  Co  Co129  1  0.20085623  0.03068819  0.88408052  1
  Co  Co130  1  0.57056292  -0.03122640  0.74946078  1
  Co  Co131  1  0.94133304  0.52478629  0.67420351  1
  Co  Co132  1  0.28292899  0.27205327  0.01709606  1
  Co  Co133  1  0.75310453  0.73213318  0.46064504  1
  Co  Co134  1  0.11265229  0.12731551  -0.00588024  1
  Co  Co135  1  0.93109261  0.40344951  0.24582581  1
  Co  Co136  1  0.07307958  0.86942074  0.61526054  1
  Co  Co137  1  0.31803866  0.50167278  0.87693116  1
  Co  Co138  1  0.51722541  0.41168257  0.33839744  1
  Co  Co139  1  0.81833832  0.01317460  0.14208343  1
  Co  Co140  1  0.25539647  -0.03090636  0.30601914  1
  Co  Co141  1  0.49129487  0.73141490  0.82108322  1
  Co  Co142  1  0.22231464  0.69206392  0.20663762  1
  Co  Co143  1  0.06846093  0.26871531  0.55734803  1
  Co  Co144  1  0.82712068  0.55015103  0.07531651  1
  Co  Co145  1  -0.00951802  0.37322784  0.66665476  1
  Co  Co146  1  0.20645658  0.03082132  0.15469466  1
  Co  Co147  1  0.79106540  0.30607851  0.87165190  1
  Co  Co148  1  0.36837754  0.22815124  0.48017818  1
  Co  Co149  1  0.50662893  -0.03634191  0.47848529  1
  Co  Co150  1  -0.04657100  0.28860589  0.80147150  1
  Co  Co151  1  0.93415073  0.09297358  -0.06007469  1
  Co  Co152  1  0.67896650  0.17914986  0.85711200  1
  Co  Co153  1  0.98377684  0.16713458  0.66955683  1
  Co  Co154  1  0.72726280  0.56166280  0.51187210  1
  Co  Co155  1  0.05640135  -0.02201144  -0.06256976  1
  Co  Co156  1  0.55398156  0.12364579  0.26973333  1
  Co  Co157  1  -0.02979429  0.25578898  0.15223018  1
  Co  Co158  1  0.75766761  0.86006313  0.77451787  1
  Co  Co159  1  0.11227395  0.55427045  0.26776285  1
  Co  Co160  1  0.26418825  0.48971158  0.49984002  1
  Co  Co161  1  0.75960112  -0.06298121  0.91586844  1
  Ni  Ni162  1  0.25318807  0.61704674  0.35716788  1
  Ni  Ni163  1  0.78547206  0.33649862  0.15263708  1
  Ni  Ni164  1  -0.02838680  0.57740873  -0.01428216  1
  Ni  Ni165  1  0.32477199  0.77565637  0.85633364  1
  Ni  Ni166  1  0.02770762  0.79453074  0.15779765  1
  Ni  Ni167  1  0.41725932  0.37474144  0.07376847  1
  Ni  Ni168  1  0.36676724  -0.03014621  -0.07791160  1
  Ni  Ni169  1  -0.10016055  0.79776607  0.51277070  1
  Ni  Ni170  1  0.72744700  0.27884210  0.01345618  1
  Ni  Ni171  1  0.53872083  0.90487141  0.03305068  1
  Ni  Ni172  1  0.63696698  0.23112974  0.14571900  1
  Ni  Ni173  1  0.05902125  0.39339413  0.36776576  1
  Ni  Ni174  1  -0.00919724  0.01502421  0.40557643  1
  Ni  Ni175  1  0.38354618  0.74984238  0.68571541  1
  Ni  Ni176  1  0.66361202  0.13689441  0.54760029  1
  Ni  Ni177  1  0.53433356  0.07142243  0.62804401  1
  Ni  Ni178  1  0.15850745  0.71003625  0.45766010  1
  Ni  Ni179  1  0.26354832  0.35911414  0.16394973  1
  Ni  Ni180  1  0.17266940  0.77608214  0.06678352  1
  Ni  Ni181  1  0.80782416  0.94259956  0.64575557  1
  Ni  Ni182  1  0.72108997  0.53808185  0.83068106  1
  Ni  Ni183  1  0.07911566  0.32130447  0.04067166  1
  Ni  Ni184  1  0.59029221  0.85213501  0.18097838  1
  Ni  Ni185  1  0.62095321  0.02471628  -0.05221674  1
  Ni  Ni186  1  0.27612764  0.32888900  0.73131774  1
  Ni  Ni187  1  -0.01074837  0.84841764  0.86423162  1
  Ni  Ni188  1  0.25997938  0.80762261  0.53436376  1
  Ni  Ni189  1  0.15971596  0.09096720  0.70829078  1
  Ni  Ni190  1  0.60354809  0.81584697  0.45970138  1
  Ni  Ni191  1  0.47053056  0.05670888  0.02406232  1
  Ni  Ni192  1  0.74960789  0.63993054  -0.04116925  1
  Ni  Ni193  1  0.47828227  0.65193629  0.48099768  1
  Ni  Ni194  1  0.76963592  0.65631775  0.20008134  1
  Ni  Ni195  1  0.73666445  0.30340397  0.70850319  1
  Ni  Ni196  1  0.34209595  0.75758114  0.11194344  1
  Ni  Ni197  1  0.64443986  0.41279765  0.22091597  1
  Ni  Ni198  1  0.22141080  0.49439337  0.73993025  1
  Ni  Ni199  1  0.39187083  0.87547965  0.25818565  1
  Ni  Ni200  1  -0.00411847  0.45048019  0.52984188  1
  Ni  Ni201  1  0.33476370  -0.09381984  0.64622716  1
  Ni  Ni202  1  0.08003936  0.25785417  0.89875919  1
  Ni  Ni203  1  0.53527003  0.69195521  0.17676382  1
  Ni  Ni204  1  0.61754819  0.64674841  0.74330131  1
  Ni  Ni205  1  0.48972370  0.23132012  0.59616031  1
  Ni  Ni206  1  0.88510517  0.09580346  0.30606039  1
  Ni  Ni207  1  0.00592396  0.00694113  0.68340036  1
  Ni  Ni208  1  0.21356160  0.12680892  0.28853814  1
  Ni  Ni209  1  0.77122113  0.34433801  0.31381855  1
  Ni  Ni210  1  0.87285436  0.84617511  0.13342861  1
  Ni  Ni211  1  0.51218532  0.32359809  0.19735877  1
  Ni  Ni212  1  0.75487844  0.88075610  0.24076737  1
  Ni  Ni213  1  0.16098947  0.73424440  0.84890212  1
  Ni  Ni214  1  0.39972511  0.17838627  0.93394628  1
