# generated using pymatgen
data_Ti108Co54Ni53
_symmetry_space_group_name_H-M   'P 1'
_cell_length_a   14.57457934
_cell_length_b   14.58436510
_cell_length_c   14.61549285
_cell_angle_alpha   89.76835195
_cell_angle_beta   90.25411032
_cell_angle_gamma   89.94636277
_symmetry_Int_Tables_number   1
_chemical_formula_structural   Ti108Co54Ni53
_chemical_formula_sum   'Ti108 Co54 Ni53'
_cell_volume   3106.62621581
_cell_formula_units_Z   1
loop_
 _symmetry_equiv_pos_site_id
 _symmetry_equiv_pos_as_xyz
  1  'x, y, z'
loop_
 _atom_site_type_symbol
 _atom_site_label
 _atom_site_symmetry_multiplicity
 _atom_site_fract_x
 _atom_site_fract_y
 _atom_site_fract_z
 _atom_site_occupancy
  Ti  Ti0  1  0.10392692  0.11716085  0.27939040  1
  Ti  Ti1  1  0.07089657  0.14141395  0.66291074  1
  Ti  Ti2  1  0.11134832  0.07534128  0.86003476  1
  Ti  Ti3  1  0.02367693  0.43618711  0.27078758  1
  Ti  Ti4  1  0.04374904  0.39696564  0.64995358  1
  Ti  Ti5  1  0.12202555  0.43639164  0.95768305  1
  Ti  Ti6  1  0.04948502  0.76714110  0.34220575  1
  Ti  Ti7  1  0.05771493  0.86370614  0.52518517  1
  Ti  Ti8  1  0.04607361  0.76959329  0.94459946  1
  Ti  Ti9  1  0.45783800  0.05895573  0.32878808  1
  Ti  Ti10  1  0.39640209  0.11700516  0.56131716  1
  Ti  Ti11  1  0.42301256  0.10452922  0.93700813  1
  Ti  Ti12  1  0.38150336  0.37563414  0.27352299  1
  Ti  Ti13  1  0.37350154  0.42858814  0.54115963  1
  Ti  Ti14  1  0.47649562  0.40728682  0.87580914  1
  Ti  Ti15  1  0.42146371  0.69783093  0.22647016  1
  Ti  Ti16  1  0.40372356  0.70938165  0.54194090  1
  Ti  Ti17  1  0.38904761  0.73459027  1.00712007  1
  Ti  Ti18  1  0.79358933  0.11624549  0.22325673  1
  Ti  Ti19  1  0.77304668  0.10538282  0.55726376  1
  Ti  Ti20  1  0.74526706  0.11481056  0.99136391  1
  Ti  Ti21  1  0.66370002  0.41447733  0.20300594  1
  Ti  Ti22  1  0.70824985  0.41367647  0.55771255  1
  Ti  Ti23  1  0.77222033  0.43688421  0.87522412  1
  Ti  Ti24  1  0.74452545  0.73907057  0.25889571  1
  Ti  Ti25  1  0.71047871  0.72443835  0.54468348  1
  Ti  Ti26  1  0.81601352  0.71976662  0.93546192  1
  Ti  Ti27  1  0.06195877  0.18244211  0.08101903  1
  Ti  Ti28  1  0.10279795  0.28496968  0.38036822  1
  Ti  Ti29  1  -0.00089084  0.26211344  0.77870086  1
  Ti  Ti30  1  0.13068559  0.56214925  0.10424904  1
  Ti  Ti31  1  0.06235380  0.57221182  0.39188449  1
  Ti  Ti32  1  0.13120717  0.55285030  0.76752195  1
  Ti  Ti33  1  0.05454215  0.89788917  0.10260492  1
  Ti  Ti34  1  0.17224426  0.92842892  0.36183041  1
  Ti  Ti35  1  0.13017061  0.84401477  0.69829603  1
  Ti  Ti36  1  0.38614469  0.25311405  0.08235724  1
  Ti  Ti37  1  0.45331694  0.28766231  0.45532062  1
  Ti  Ti38  1  0.38451651  0.25454408  0.80237135  1
  Ti  Ti39  1  0.45313845  0.51321198  0.14554349  1
  Ti  Ti40  1  0.40819797  0.55204589  0.38317542  1
  Ti  Ti41  1  0.38307723  0.53381887  0.77378214  1
  Ti  Ti42  1  0.39598424  0.94214929  0.04620916  1
  Ti  Ti43  1  0.36927193  0.86346947  0.36441375  1
  Ti  Ti44  1  0.37607720  0.95067674  0.81590273  1
  Ti  Ti45  1  0.63912871  0.23764389  0.10614781  1
  Ti  Ti46  1  0.78037901  0.22200982  0.40196877  1
  Ti  Ti47  1  0.74228528  0.14542578  0.78866752  1
  Ti  Ti48  1  0.77757205  0.58130978  0.12908226  1
  Ti  Ti49  1  0.74520941  0.53230893  0.33398646  1
  Ti  Ti50  1  0.76927992  0.53180958  0.68739068  1
  Ti  Ti51  1  0.74494674  0.89050439  0.01101233  1
  Ti  Ti52  1  0.80045644  0.92713577  0.28453350  1
  Ti  Ti53  1  0.71360371  0.94183778  0.77898173  1
  Ti  Ti54  1  0.23818828  0.09919656  0.04564603  1
  Ti  Ti55  1  0.19622161  0.10053328  0.44699455  1
  Ti  Ti56  1  0.26491168  0.12514983  0.69609280  1
  Ti  Ti57  1  0.24548293  0.40527165  0.11087802  1
  Ti  Ti58  1  0.22094881  0.44966388  0.41799639  1
  Ti  Ti59  1  0.26007349  0.40552910  0.72127172  1
  Ti  Ti60  1  0.19355713  0.74988067  0.08399645  1
  Ti  Ti61  1  0.23404859  0.78167437  0.49382010  1
  Ti  Ti62  1  0.26587761  0.69704650  0.74917137  1
  Ti  Ti63  1  0.56868660  0.06840558  0.04702701  1
  Ti  Ti64  1  0.57984905  0.11372450  0.49631569  1
  Ti  Ti65  1  0.51252334  0.10738404  0.72390990  1
  Ti  Ti66  1  0.63099164  0.41480970  0.01959834  1
  Ti  Ti67  1  0.57674392  0.48189456  0.43927386  1
  Ti  Ti68  1  0.60787664  0.42269826  0.73679940  1
  Ti  Ti69  1  0.63609352  0.72079315  0.04714067  1
  Ti  Ti70  1  0.53766215  0.79572307  0.41232684  1
  Ti  Ti71  1  0.56479023  0.71602679  0.78352649  1
  Ti  Ti72  1  0.88101304  -0.00359393  0.08085272  1
  Ti  Ti73  1  0.94066175  0.13513109  0.36800800  1
  Ti  Ti74  1  0.89832899  0.05273022  0.74418876  1
  Ti  Ti75  1  0.98571115  0.37430342  0.07912096  1
  Ti  Ti76  1  0.88187957  0.45577478  0.46516829  1
  Ti  Ti77  1  0.94523590  0.48722325  0.78606296  1
  Ti  Ti78  1  0.96108046  0.68246640  0.09586548  1
  Ti  Ti79  1  0.93495433  0.72439178  0.50923719  1
  Ti  Ti80  1  0.97010909  0.67717534  0.69944387  1
  Ti  Ti81  1  0.24222059  0.23065066  0.21578733  1
  Ti  Ti82  1  0.24565494  0.25518466  0.52768435  1
  Ti  Ti83  1  0.20315776  0.25664719  0.87599540  1
  Ti  Ti84  1  0.21755814  0.64713852  0.27193857  1
  Ti  Ti85  1  0.26502409  0.57585502  0.59816871  1
  Ti  Ti86  1  0.23962200  0.62669822  0.93036722  1
  Ti  Ti87  1  0.29468493  0.96251892  0.20927638  1
  Ti  Ti88  1  0.26291781  0.95681859  0.57060008  1
  Ti  Ti89  1  0.22261207  0.83731319  0.88836306  1
  Ti  Ti90  1  0.57658362  0.25114589  0.31190827  1
  Ti  Ti91  1  0.64812805  0.23358689  0.64581982  1
  Ti  Ti92  1  0.66735144  0.28233039  0.89257551  1
  Ti  Ti93  1  0.58049541  0.59476894  0.27010460  1
  Ti  Ti94  1  0.50127823  0.54720754  0.61743475  1
  Ti  Ti95  1  0.53412685  0.57451616  0.95831092  1
  Ti  Ti96  1  0.61747829  0.94945796  0.30022939  1
  Ti  Ti97  1  0.56132009  0.92586926  0.60614902  1
  Ti  Ti98  1  0.52513115  0.85242235  0.92833310  1
  Ti  Ti99  1  0.92416775  0.25975411  0.22047173  1
  Ti  Ti100  1  0.94098178  0.26586002  0.53118303  1
  Ti  Ti101  1  0.92304331  0.15238431  0.91408001  1
  Ti  Ti102  1  0.90496585  0.62714236  0.28136431  1
  Ti  Ti103  1  1.06292351  0.55582182  0.57064251  1
  Ti  Ti104  1  0.91511901  0.54091793  0.97275152  1
  Ti  Ti105  1  0.98370938  0.94416261  0.28338447  1
  Ti  Ti106  1  0.94071404  1.02392283  0.56062728  1
  Ti  Ti107  1  0.96506555  0.94336324  0.90248961  1
  Co  Co108  1  0.11174144  0.70907439  0.80924469  1
  Co  Co109  1  0.78511844  0.28172654  0.55613158  1
  Co  Co110  1  0.09077334  0.29686373  0.19734174  1
  Co  Co111  1  -0.12001185  0.39665396  0.64779451  1
  Co  Co112  1  0.05677675  0.26817399  0.94057730  1
  Co  Co113  1  0.47361136  0.83997576  0.71233644  1
  Co  Co114  1  0.70667189  0.56463177  0.51142470  1
  Co  Co115  1  0.63618772  0.61691966  0.65863227  1
  Co  Co116  1  0.05358943  0.03965217  0.01249189  1
  Co  Co117  1  -0.04482155  0.66277884  -0.14392572  1
  Co  Co118  1  0.10043365  0.28226657  0.55976327  1
  Co  Co119  1  0.84772157  0.28568540  0.81783561  1
  Co  Co120  1  0.79244914  0.30352437  0.12026127  1
  Co  Co121  1  0.28663152  0.11840848  0.85264671  1
  Co  Co122  1  0.05530692  0.60560483  0.23172707  1
  Co  Co123  1  0.81520390  0.01176572  0.88937286  1
  Co  Co124  1  0.51464113  0.33111648  0.16982957  1
  Co  Co125  1  0.40166138  0.86420947  0.54198659  1
  Co  Co126  1  0.22841247  0.80512538  0.27868948  1
  Co  Co127  1  0.13917370  0.02508414  0.16185230  1
  Co  Co128  1  0.31118335  0.83626575  0.68211254  1
  Co  Co129  1  0.52779225  0.43313244  0.29942980  1
  Co  Co130  1  0.19684497  0.39504698  0.26869534  1
  Co  Co131  1  0.68737104  0.08989474  0.38023779  1
  Co  Co132  1  -0.06212461  0.51684256  0.14296903  1
  Co  Co133  1  0.32064155  -0.00363265  0.42226860  1
  Co  Co134  1  0.72075892  0.57128114  -0.02644054  1
  Co  Co135  1  0.37455981  0.79238240  0.83864698  1
  Co  Co136  1  0.04710533  0.41688737  0.46465714  1
  Co  Co137  1  0.65916695  0.05229067  0.66030518  1
  Co  Co138  1  0.80378717  0.43978564  0.04765685  1
  Co  Co139  1  0.46741506  0.87995693  0.24730490  1
  Co  Co140  1  0.66515649  0.67473758  0.38602594  1
  Co  Co141  1  0.47349231  -0.01207041  0.48033829  1
  Co  Co142  1  0.79404214  0.75048441  0.10512171  1
  Co  Co143  1  0.62277830  0.11663109  0.23272132  1
  Co  Co144  1  0.27263945  0.09171062  0.28922172  1
  Co  Co145  1  0.83602027  0.03383445  0.40936694  1
  Co  Co146  1  0.17891657  0.26571779  0.70368692  1
  Co  Co147  1  0.03666162  -0.01991817  0.72734566  1
  Co  Co148  1  0.74471262  0.34052698  0.71973497  1
  Co  Co149  1  0.07900835  0.75669780  0.18784493  1
  Co  Co150  1  0.19661791  0.27133073  0.04293496  1
  Co  Co151  1  0.19132691  0.42182657  0.57541083  1
  Co  Co152  1  0.72930252  0.26377807  0.25580626  1
  Co  Co153  1  0.64230573  -0.02441932  -0.07073387  1
  Co  Co154  1  0.09854532  0.69805593  0.49155670  1
  Co  Co155  1  0.25563003  0.47084293  0.86895482  1
  Co  Co156  1  0.13214919  0.68737664  0.64359624  1
  Co  Co157  1  0.87323710  0.77639806  0.35329581  1
  Co  Co158  1  0.11365336  0.00651211  0.58371206  1
  Co  Co159  1  0.26156834  -0.01184136  -0.07174387  1
  Co  Co160  1  0.80541555  0.27416441  -0.03003806  1
  Co  Co161  1  0.48785079  0.23914057  0.62318219  1
  Ni  Ni162  1  0.30521959  0.51792425  0.22975709  1
  Ni  Ni163  1  0.37831246  0.09903725  0.13744854  1
  Ni  Ni164  1  0.22354838  0.91035279  0.06093594  1
  Ni  Ni165  1  0.61434859  0.56406026  0.10652691  1
  Ni  Ni166  1  0.07454741  0.60169060  0.94626413  1
  Ni  Ni167  1  0.40443920  -0.01608379  0.65926519  1
  Ni  Ni168  1  0.67855120  0.80753274  0.87472352  1
  Ni  Ni169  1  0.71640646  0.37798054  0.37732759  1
  Ni  Ni170  1  0.35840119  0.15695642  0.41272517  1
  Ni  Ni171  1  0.50861942  0.25607513  -0.03860091  1
  Ni  Ni172  1  0.71269942  0.83354489  0.40489937  1
  Ni  Ni173  1  0.70774807  0.01079447  0.13269701  1
  Ni  Ni174  1  0.21282384  -0.02310981  0.75771490  1
  Ni  Ni175  1  0.54520373  0.26398062  0.78674504  1
  Ni  Ni176  1  0.88676826  0.56996968  0.58282776  1
  Ni  Ni177  1  -0.01168964  0.82488012  0.78906582  1
  Ni  Ni178  1  0.63851337  0.55716873  0.82540049  1
  Ni  Ni179  1  0.42310134  0.65040135  0.87213509  1
  Ni  Ni180  1  0.41383048  0.20922965  0.26212077  1
  Ni  Ni181  1  0.50534922  0.81446919  0.10415257  1
  Ni  Ni182  1  0.57827060  0.76313056  0.25364412  1
  Ni  Ni183  1  -0.08429220  0.81927305  0.19700658  1
  Ni  Ni184  1  -0.06343519  0.37872437  -0.07998635  1
  Ni  Ni185  1  0.34023959  0.28316064  0.64564539  1
  Ni  Ni186  1  0.80926913  0.59512570  0.83028205  1
  Ni  Ni187  1  0.82523391  0.63723443  0.43262833  1
  Ni  Ni188  1  0.90940388  0.83611171  0.02660535  1
  Ni  Ni189  1  0.28163872  0.29052256  0.37134151  1
  Ni  Ni190  1  0.59021828  0.12692919  0.88400888  1
  Ni  Ni191  1  0.45478690  0.39863498  0.03524898  1
  Ni  Ni192  1  0.54195901  0.38234695  0.57116563  1
  Ni  Ni193  1  0.62997056  0.27400124  0.47748468  1
  Ni  Ni194  1  0.30610091  0.63103409  0.11114393  1
  Ni  Ni195  1  0.42100772  0.68574941  0.70181687  1
  Ni  Ni196  1  -0.03175722  0.08113246  0.18848371  1
  Ni  Ni197  1  0.03751245  0.00273061  0.42412195  1
  Ni  Ni198  1  0.05040693  0.14536376  0.49415819  1
  Ni  Ni199  1  -0.09286114  0.89300427  0.45043987  1
  Ni  Ni200  1  0.34190743  0.51264908  0.00177583  1
  Ni  Ni201  1  0.33815094  0.81171532  0.15019586  1
  Ni  Ni202  1  0.10702868  0.38525550  0.80803436  1
  Ni  Ni203  1  0.54596669  -0.03252740  0.79739375  1
  Ni  Ni204  1  0.32617972  0.34407536  -0.05186690  1
  Ni  Ni205  1  -0.06879531  0.32619870  0.37119892  1
  Ni  Ni206  1  0.55748350  0.64912189  0.49950836  1
  Ni  Ni207  1  0.66577865  0.85768725  0.15527236  1
  Ni  Ni208  1  0.87011147  0.20643521  0.67442008  1
  Ni  Ni209  1  0.50672490  0.00994968  0.17726036  1
  Ni  Ni210  1  0.23312041  0.61300521  0.44303766  1
  Ni  Ni211  1  0.34675510  0.70396197  0.37631585  1
  Ni  Ni212  1  0.83996983  0.41532322  0.24529307  1
  Ni  Ni213  1  0.44471732  0.39347260  0.70303477  1
  Ni  Ni214  1  0.88817860  0.17371417  0.07603543  1
