# generated using pymatgen
data_Ti108Co54Ni53
_symmetry_space_group_name_H-M   'P 1'
_cell_length_a   14.64063679
_cell_length_b   14.63033444
_cell_length_c   14.67545544
_cell_angle_alpha   89.66792474
_cell_angle_beta   89.95210123
_cell_angle_gamma   89.94247919
_symmetry_Int_Tables_number   1
_chemical_formula_structural   Ti108Co54Ni53
_chemical_formula_sum   'Ti108 Co54 Ni53'
_cell_volume   3143.38912042
_cell_formula_units_Z   1
loop_
 _symmetry_equiv_pos_site_id
 _symmetry_equiv_pos_as_xyz
  1  'x, y, z'
loop_
 _atom_site_type_symbol
 _atom_site_label
 _atom_site_symmetry_multiplicity
 _atom_site_fract_x
 _atom_site_fract_y
 _atom_site_fract_z
 _atom_site_occupancy
  Ti  Ti0  1  -0.00904564  0.18799931  0.27887028  1
  Ti  Ti1  1  0.09763902  0.06181477  0.63055491  1
  Ti  Ti2  1  0.09566273  0.05348601  0.85064614  1
  Ti  Ti3  1  0.07692352  0.38702000  0.18519572  1
  Ti  Ti4  1  0.12511879  0.43213718  0.65478458  1
  Ti  Ti5  1  0.10696495  0.41576839  0.92842336  1
  Ti  Ti6  1  0.06215485  0.67505916  0.30716410  1
  Ti  Ti7  1  0.00046080  0.73875447  0.61937695  1
  Ti  Ti8  1  -0.13951665  0.71888609  0.99914123  1
  Ti  Ti9  1  0.45411241  0.08220427  0.27418041  1
  Ti  Ti10  1  0.44751829  0.10388294  0.55797095  1
  Ti  Ti11  1  0.42378754  0.14685603  0.86893212  1
  Ti  Ti12  1  0.40447100  0.41204564  0.22238537  1
  Ti  Ti13  1  0.42232743  0.45629060  0.54313143  1
  Ti  Ti14  1  0.43027996  0.35068019  0.85881432  1
  Ti  Ti15  1  0.34151511  0.77260839  0.26341230  1
  Ti  Ti16  1  0.35884310  0.78200266  0.59763313  1
  Ti  Ti17  1  0.36228695  0.75349390  0.92225181  1
  Ti  Ti18  1  0.74267264  0.01701324  0.18111657  1
  Ti  Ti19  1  0.78613172  0.15354375  0.60722860  1
  Ti  Ti20  1  0.70027393  0.01627846  0.87128671  1
  Ti  Ti21  1  0.70679146  0.41998729  0.25393122  1
  Ti  Ti22  1  0.77914716  0.42377659  0.62523369  1
  Ti  Ti23  1  0.78948299  0.39925151  0.95467559  1
  Ti  Ti24  1  0.71217623  0.75689912  0.26100185  1
  Ti  Ti25  1  0.67996079  0.76407421  0.59261377  1
  Ti  Ti26  1  0.78341669  0.82878860  0.84113070  1
  Ti  Ti27  1  0.04277719  0.23908393  0.06560817  1
  Ti  Ti28  1  0.07847709  0.30926809  0.38613857  1
  Ti  Ti29  1  0.13036910  0.23402173  0.73337405  1
  Ti  Ti30  1  0.06372298  0.62288617  0.01145123  1
  Ti  Ti31  1  0.10325271  0.59322463  0.49210620  1
  Ti  Ti32  1  0.04609188  0.66265667  0.81591836  1
  Ti  Ti33  1  0.17911673  0.87199900  0.15158652  1
  Ti  Ti34  1  0.08556573  0.96799234  0.42188948  1
  Ti  Ti35  1  -0.01660703  0.93835748  0.74724128  1
  Ti  Ti36  1  0.46939655  0.23032455  0.12722755  1
  Ti  Ti37  1  0.40976588  0.24894555  0.34955997  1
  Ti  Ti38  1  0.47000824  0.27542462  0.67433201  1
  Ti  Ti39  1  0.45638469  0.62093525  0.15338354  1
  Ti  Ti40  1  0.43611777  0.56249755  0.35549449  1
  Ti  Ti41  1  0.40814127  0.65028891  0.75710598  1
  Ti  Ti42  1  0.48457357  0.88304823  0.06854458  1
  Ti  Ti43  1  0.40892757  0.87564483  0.41946349  1
  Ti  Ti44  1  0.37727396  0.96496223  0.72688736  1
  Ti  Ti45  1  0.71486421  0.25463058  0.13341249  1
  Ti  Ti46  1  0.76108186  0.19065898  0.43109878  1
  Ti  Ti47  1  0.73609517  0.18330006  0.78243297  1
  Ti  Ti48  1  0.78151417  0.60217789  0.16639985  1
  Ti  Ti49  1  0.77601771  0.58686983  0.50747189  1
  Ti  Ti50  1  0.72972717  0.53216135  0.82349015  1
  Ti  Ti51  1  0.71889585  0.91698589  0.01772324  1
  Ti  Ti52  1  0.75442050  0.87377449  0.42747039  1
  Ti  Ti53  1  0.80788023  0.98806761  0.70408889  1
  Ti  Ti54  1  0.22467171  0.07722513  0.13864415  1
  Ti  Ti55  1  0.21928744  0.14710486  0.36190065  1
  Ti  Ti56  1  0.28194496  0.11864638  0.67499961  1
  Ti  Ti57  1  0.28776191  0.37092208  0.07000762  1
  Ti  Ti58  1  0.20912569  0.47161491  0.39035792  1
  Ti  Ti59  1  0.32522647  0.45393533  0.72808255  1
  Ti  Ti60  1  0.25182642  0.66705008  0.06643707  1
  Ti  Ti61  1  0.22961534  0.73541896  0.43435800  1
  Ti  Ti62  1  0.21947527  0.72847751  0.75242557  1
  Ti  Ti63  1  0.61100806  0.11167502  0.03889764  1
  Ti  Ti64  1  0.64360352  0.04201820  0.48842840  1
  Ti  Ti65  1  0.62151135  0.04849479  0.69518265  1
  Ti  Ti66  1  0.58108640  0.40306111  0.08086811  1
  Ti  Ti67  1  0.53972210  0.40733713  0.38405123  1
  Ti  Ti68  1  0.60111825  0.42408138  0.72562042  1
  Ti  Ti69  1  0.65431061  0.72268202  0.06174396  1
  Ti  Ti70  1  0.53640162  0.74918729  0.34863920  1
  Ti  Ti71  1  0.62673585  0.69321729  0.75371596  1
  Ti  Ti72  1  0.96496504  0.06586034  -0.00959713  1
  Ti  Ti73  1  0.92246839  0.10312534  0.43652333  1
  Ti  Ti74  1  0.94219035  0.14280455  0.75985273  1
  Ti  Ti75  1  0.93237482  0.47479446  0.08614537  1
  Ti  Ti76  1  0.90814727  0.40785833  0.43801532  1
  Ti  Ti77  1  0.97116117  0.34349348  0.79377331  1
  Ti  Ti78  1  0.97552428  0.82953947  0.13634355  1
  Ti  Ti79  1  0.89155090  0.72969856  0.39076500  1
  Ti  Ti80  1  0.82331769  0.65733679  0.69416977  1
  Ti  Ti81  1  0.24359501  0.32485340  0.26458902  1
  Ti  Ti82  1  0.28562000  0.30655478  0.60795600  1
  Ti  Ti83  1  0.21391812  0.23834573  0.90800939  1
  Ti  Ti84  1  0.22211537  0.52387098  0.21478545  1
  Ti  Ti85  1  0.25649839  0.59928527  0.62311647  1
  Ti  Ti86  1  0.29035299  0.51789194  0.91542715  1
  Ti  Ti87  1  0.28278584  0.96615368  0.29564481  1
  Ti  Ti88  1  0.20920411  0.90365008  0.62044276  1
  Ti  Ti89  1  0.13307744  0.84927365  0.88497486  1
  Ti  Ti90  1  0.63482410  0.24546905  0.32065952  1
  Ti  Ti91  1  0.62017155  0.31153448  0.52353926  1
  Ti  Ti92  1  0.67282075  0.25515249  0.94088822  1
  Ti  Ti93  1  0.63882983  0.58037955  0.33238035  1
  Ti  Ti94  1  0.56486842  0.62585505  0.51421628  1
  Ti  Ti95  1  0.58411995  0.56057264  0.96356147  1
  Ti  Ti96  1  0.60212884  0.94385403  0.30795802  1
  Ti  Ti97  1  0.52131274  0.90315121  0.60629765  1
  Ti  Ti98  1  0.57978434  0.83248725  0.89261914  1
  Ti  Ti99  1  0.87461663  0.15255168  0.12957536  1
  Ti  Ti100  1  0.99649198  0.24058088  0.57393342  1
  Ti  Ti101  1  0.85983253  0.21275788  0.93134943  1
  Ti  Ti102  1  0.92612170  0.53488008  0.26887130  1
  Ti  Ti103  1  0.95228487  0.54275176  0.60694037  1
  Ti  Ti104  1  0.92911481  0.51689955  0.90684007  1
  Ti  Ti105  1  0.94071834  1.00193430  0.25173068  1
  Ti  Ti106  1  0.92086806  0.90187415  0.55904419  1
  Ti  Ti107  1  0.94825541  0.88703542  0.94389490  1
  Co  Co108  1  0.63391401  0.56728887  0.12953629  1
  Co  Co109  1  0.68731442  0.29069135  0.66684967  1
  Co  Co110  1  -0.04795313  0.58025958  0.43569716  1
  Co  Co111  1  0.54469884  0.49261338  0.23533132  1
  Co  Co112  1  0.07656301  0.13802854  0.44482079  1
  Co  Co113  1  0.44281454  0.42262147  0.00145924  1
  Co  Co114  1  0.10281023  0.77974135  0.03137354  1
  Co  Co115  1  0.16268081  0.20555510  0.56328315  1
  Co  Co116  1  0.05932304  0.47731457  0.33247200  1
  Co  Co117  1  0.12327838  0.02074509  0.27214692  1
  Co  Co118  1  0.32551371  0.20325991  0.19932460  1
  Co  Co119  1  0.57468817  0.26597489  0.79502026  1
  Co  Co120  1  0.50051437  0.80400271  0.73626278  1
  Co  Co121  1  0.85230504  0.28343197  0.70467194  1
  Co  Co122  1  0.07312022  0.56463812  0.17307579  1
  Co  Co123  1  0.82352036  0.82531157  0.68123922  1
  Co  Co124  1  0.77309090  0.09545748  0.01074728  1
  Co  Co125  1  0.46297121  0.51291577  0.84840326  1
  Co  Co126  1  0.41649094  0.60068878  -0.02358251  1
  Co  Co127  1  0.80841503  0.01907157  0.51076417  1
  Co  Co128  1  0.13457309  0.11206684  -0.00158896  1
  Co  Co129  1  0.09633017  0.61284281  0.66511294  1
  Co  Co130  1  0.19379447  0.68623780  0.91212347  1
  Co  Co131  1  0.55117862  0.32747358  0.22382441  1
  Co  Co132  1  0.31425918  0.17876527  0.50726973  1
  Co  Co133  1  0.83494897  0.29497472  0.53546740  1
  Co  Co134  1  -0.06163331  0.63732189  0.11162296  1
  Co  Co135  1  0.87791766  -0.03569643  0.09519206  1
  Co  Co136  1  0.47381265  0.11492586  0.72032452  1
  Co  Co137  1  0.50069083  0.00079057  0.42878104  1
  Co  Co138  1  0.74183903  0.35779050  0.80666736  1
  Co  Co139  1  0.51929412  0.26175860  -0.03368276  1
  Co  Co140  1  0.82477262  0.87953138  0.26755794  1
  Co  Co141  1  0.80900024  0.16079396  0.27459830  1
  Co  Co142  1  0.60307815  0.17009549  0.59677106  1
  Co  Co143  1  0.19956719  0.55437544  0.78868207  1
  Co  Co144  1  0.24334120  0.45055308  0.54719354  1
  Co  Co145  1  0.09265473  0.82681310  0.71833797  1
  Co  Co146  1  0.51926176  0.67988458  0.87304834  1
  Co  Co147  1  0.35911912  0.78107690  0.10896712  1
  Co  Co148  1  0.16633689  0.74642994  0.58338332  1
  Co  Co149  1  0.87039557  0.47411017  0.75373750  1
  Co  Co150  1  0.06314270  0.42791717  0.49924723  1
  Co  Co151  1  0.36296023  0.40710024  0.39759925  1
  Co  Co152  1  0.19178320  0.37858293  0.79769544  1
  Co  Co153  1  0.34287347  0.82168407  0.76647904  1
  Co  Co154  1  0.78017162  0.56967796  -0.00611919  1
  Co  Co155  1  0.58045978  0.12280692  0.86132639  1
  Co  Co156  1  -0.04696069  0.38603657  0.62558740  1
  Co  Co157  1  0.35400429  0.06202233  0.40781203  1
  Co  Co158  1  0.19693709  -0.03118579  0.76261642  1
  Co  Co159  1  -0.00247114  0.84280575  0.29822950  1
  Co  Co160  1  0.49960726  0.72555607  0.02685256  1
  Co  Co161  1  0.21005601  0.05142933  0.51246400  1
  Ni  Ni162  1  0.64252004  0.87174538  0.16021718  1
  Ni  Ni163  1  -0.04463872  0.34924208  -0.03182150  1
  Ni  Ni164  1  0.79312005  0.52213664  0.36094479  1
  Ni  Ni165  1  0.03927227  0.49811282  0.77636722  1
  Ni  Ni166  1  0.54373375  0.17204853  0.43475134  1
  Ni  Ni167  1  0.73423251  0.37007577  0.41358205  1
  Ni  Ni168  1  0.88581081  0.72502168  0.23182909  1
  Ni  Ni169  1  -0.05777670  0.78534022  0.79971836  1
  Ni  Ni170  1  0.54521998  -0.01127699  -0.04389999  1
  Ni  Ni171  1  -0.06378223  0.06342250  0.61020834  1
  Ni  Ni172  1  0.17169059  0.49721101  0.05575874  1
  Ni  Ni173  1  0.33944553  0.52158029  0.09444725  1
  Ni  Ni174  1  0.54893215  0.00764019  0.15157251  1
  Ni  Ni175  1  0.86842436  0.02520042  0.86105121  1
  Ni  Ni176  1  0.44248355  0.91005781  0.23905758  1
  Ni  Ni177  1  0.76384297  0.02335637  0.34911686  1
  Ni  Ni178  1  0.85545430  0.64776262  0.85032384  1
  Ni  Ni179  1  0.18457326  0.71261485  0.20975386  1
  Ni  Ni180  1  0.65834935  0.87207199  0.73842061  1
  Ni  Ni181  1  0.87563934  0.31889749  0.11584158  1
  Ni  Ni182  1  0.66835165  0.57391556  0.64454976  1
  Ni  Ni183  1  0.36076587  0.24683358  -0.00425379  1
  Ni  Ni184  1  0.70256163  0.69091535  -0.09397962  1
  Ni  Ni185  1  0.30836001  0.57614089  0.46850304  1
  Ni  Ni186  1  0.48221939  0.52087048  0.68246185  1
  Ni  Ni187  1  -0.09018888  -0.06865818  0.40089763  1
  Ni  Ni188  1  0.03856749  0.21607757  0.89394920  1
  Ni  Ni189  1  0.59180789  0.85460992  0.46465540  1
  Ni  Ni190  1  0.51946503  0.76723833  0.18901772  1
  Ni  Ni191  1  0.41961442  0.62872083  0.58211391  1
  Ni  Ni192  1  0.62235328  0.13156902  0.21654148  1
  Ni  Ni193  1  0.70338896  -0.07645432  0.59023260  1
  Ni  Ni194  1  0.40135462  0.70680985  0.43602264  1
  Ni  Ni195  1  0.15848581  0.84349265  0.31911008  1
  Ni  Ni196  1  0.35795913  -0.03628833  0.55171230  1
  Ni  Ni197  1  0.23710796  0.30746058  0.44151779  1
  Ni  Ni198  1  -0.06038394  0.35375097  0.27415108  1
  Ni  Ni199  1  0.44227643  0.29192697  0.50602058  1
  Ni  Ni200  1  0.75486033  0.44457626  0.10381969  1
  Ni  Ni201  1  0.28873122  0.62816928  0.31588656  1
  Ni  Ni202  1  0.83860267  0.74333362  0.54119674  1
  Ni  Ni203  1  0.14083227  0.20331521  0.21946828  1
  Ni  Ni204  1  0.79553861  0.81342329  0.12110867  1
  Ni  Ni205  1  0.59691286  0.40702967  0.89534076  1
  Ni  Ni206  1  0.24272353  0.90102042  0.45139988  1
  Ni  Ni207  1  0.52528549  -0.03459425  0.79723625  1
  Ni  Ni208  1  0.69597034  0.71470682  0.42788115  1
  Ni  Ni209  1  0.04674966  0.07874695  0.14040808  1
  Ni  Ni210  1  0.21038137  0.23511345  0.07869304  1
  Ni  Ni211  1  0.31142023  0.25913076  0.76814341  1
  Ni  Ni212  1  0.04824276  0.78349711  0.45255872  1
  Ni  Ni213  1  0.08873067  -0.05095756  0.02492035  1
  Ni  Ni214  1  0.64202442  0.47828098  0.50780877  1
