# generated using pymatgen
data_Ti108Co54Ni53
_symmetry_space_group_name_H-M   'P 1'
_cell_length_a   14.62917553
_cell_length_b   14.62285490
_cell_length_c   14.61729912
_cell_angle_alpha   89.97103494
_cell_angle_beta   89.98277944
_cell_angle_gamma   90.52591064
_symmetry_Int_Tables_number   1
_chemical_formula_structural   Ti108Co54Ni53
_chemical_formula_sum   'Ti108 Co54 Ni53'
_cell_volume   3126.80490435
_cell_formula_units_Z   1
loop_
 _symmetry_equiv_pos_site_id
 _symmetry_equiv_pos_as_xyz
  1  'x, y, z'
loop_
 _atom_site_type_symbol
 _atom_site_label
 _atom_site_symmetry_multiplicity
 _atom_site_fract_x
 _atom_site_fract_y
 _atom_site_fract_z
 _atom_site_occupancy
  Ti  Ti0  1  0.05927821  0.05486440  0.18848609  1
  Ti  Ti1  1  0.15886584  0.12262740  0.57737448  1
  Ti  Ti2  1  -0.03983932  0.08227761  0.86406756  1
  Ti  Ti3  1  0.02884952  0.34645961  0.22857126  1
  Ti  Ti4  1  0.06733556  0.39327492  0.57210995  1
  Ti  Ti5  1  0.11105421  0.38402234  0.93103459  1
  Ti  Ti6  1  0.08549483  0.74058322  0.21106746  1
  Ti  Ti7  1  0.14247939  0.80065792  0.70645882  1
  Ti  Ti8  1  0.11785657  0.68031636  0.90111884  1
  Ti  Ti9  1  0.41236166  0.12596264  0.24611969  1
  Ti  Ti10  1  0.46131928  0.10179721  0.57244944  1
  Ti  Ti11  1  0.39354778  0.05440559  0.90149638  1
  Ti  Ti12  1  0.39162917  0.44694189  0.26113897  1
  Ti  Ti13  1  0.44095844  0.41112141  0.61916606  1
  Ti  Ti14  1  0.41422211  0.47210648  0.95585173  1
  Ti  Ti15  1  0.46371176  0.78163352  0.30438704  1
  Ti  Ti16  1  0.34643285  0.76454231  0.61441348  1
  Ti  Ti17  1  0.42951676  0.78735575  0.89401315  1
  Ti  Ti18  1  0.72026083  0.08897347  0.19223541  1
  Ti  Ti19  1  0.77405450  0.11982268  0.56332283  1
  Ti  Ti20  1  0.70504882  0.06058653  0.98685334  1
  Ti  Ti21  1  0.79735956  0.36665939  0.23740512  1
  Ti  Ti22  1  0.66659951  0.47122300  0.57438907  1
  Ti  Ti23  1  0.70478536  0.41657675  0.94694616  1
  Ti  Ti24  1  0.76855354  0.75628098  0.29702710  1
  Ti  Ti25  1  0.79252669  0.77918466  0.58472650  1
  Ti  Ti26  1  0.74052967  0.73426925  0.97584230  1
  Ti  Ti27  1  0.13527196  0.17571978  0.00658447  1
  Ti  Ti28  1  0.06803184  0.22149593  0.38617021  1
  Ti  Ti29  1  0.09965571  0.22480313  0.82088315  1
  Ti  Ti30  1  0.01072988  0.59140487  0.07905226  1
  Ti  Ti31  1  0.09119935  0.62126477  0.46429366  1
  Ti  Ti32  1  0.01419157  0.56525091  0.73694816  1
  Ti  Ti33  1  0.07978998  0.88383386  0.08952206  1
  Ti  Ti34  1  0.08576820  0.91200059  0.34512079  1
  Ti  Ti35  1  0.04325163  0.93812409  0.78042176  1
  Ti  Ti36  1  0.32977093  0.20313844  0.06066124  1
  Ti  Ti37  1  0.49594872  0.20905027  0.40181753  1
  Ti  Ti38  1  0.44586969  0.22986720  0.71355426  1
  Ti  Ti39  1  0.47329396  0.65138002  0.05184787  1
  Ti  Ti40  1  0.45974212  0.60306540  0.39358400  1
  Ti  Ti41  1  0.49204303  0.52506165  0.76551593  1
  Ti  Ti42  1  0.42871549  0.85208956  0.11681413  1
  Ti  Ti43  1  0.30450680  0.90727994  0.37895962  1
  Ti  Ti44  1  0.41498163  0.93254148  0.71708409  1
  Ti  Ti45  1  0.77914797  0.25141253  0.05300452  1
  Ti  Ti46  1  0.70152378  0.20959517  0.36440011  1
  Ti  Ti47  1  0.75689930  0.24202378  0.76603332  1
  Ti  Ti48  1  0.77826580  0.53582293  0.10354012  1
  Ti  Ti49  1  0.80114897  0.61174147  0.43993277  1
  Ti  Ti50  1  0.73161611  0.67550427  0.77373048  1
  Ti  Ti51  1  0.76430087  0.90210385  0.11527796  1
  Ti  Ti52  1  0.70822472  0.91527309  0.45744938  1
  Ti  Ti53  1  0.73660040  0.87958814  0.75958943  1
  Ti  Ti54  1  0.22860901  0.00980639  0.02287585  1
  Ti  Ti55  1  0.29100965  0.15585536  0.42465174  1
  Ti  Ti56  1  0.29272412  0.08968435  0.72807088  1
  Ti  Ti57  1  0.24260090  0.42191797  0.08707663  1
  Ti  Ti58  1  0.27211110  0.35885142  0.41570462  1
  Ti  Ti59  1  0.29492678  0.46587002  0.74842883  1
  Ti  Ti60  1  0.24532912  0.81207171  0.00089985  1
  Ti  Ti61  1  0.31077011  0.71563059  0.42278528  1
  Ti  Ti62  1  0.23980585  0.64763696  0.74128349  1
  Ti  Ti63  1  0.50001938  0.06543380  0.07304941  1
  Ti  Ti64  1  0.58119054  0.04342811  0.37658955  1
  Ti  Ti65  1  0.65825023  0.06849095  0.79832437  1
  Ti  Ti66  1  0.54751999  0.46873208  0.09746794  1
  Ti  Ti67  1  0.53351834  0.40572219  0.43233924  1
  Ti  Ti68  1  0.59771718  0.35704342  0.75311847  1
  Ti  Ti69  1  0.61507616  0.77611248  0.14673959  1
  Ti  Ti70  1  0.61977851  0.73462402  0.45343827  1
  Ti  Ti71  1  0.52328898  0.73684882  0.70940223  1
  Ti  Ti72  1  0.88696661  0.09328750  0.06119242  1
  Ti  Ti73  1  0.91736334  0.01447143  0.45994536  1
  Ti  Ti74  1  0.96739921  0.07704105  0.65079115  1
  Ti  Ti75  1  0.90029028  0.44341655  -0.01151606  1
  Ti  Ti76  1  0.85909519  0.43193973  0.49077645  1
  Ti  Ti77  1  0.96170100  0.37698645  0.79266287  1
  Ti  Ti78  1  0.90142279  0.75723892  0.10733116  1
  Ti  Ti79  1  0.88743185  0.82291524  0.42376662  1
  Ti  Ti80  1  0.91462964  0.74761798  0.72629757  1
  Ti  Ti81  1  0.23181771  0.23899002  0.25378048  1
  Ti  Ti82  1  0.23662984  0.28394833  0.69283941  1
  Ti  Ti83  1  0.29060163  0.30568122  0.89788592  1
  Ti  Ti84  1  0.24647433  0.60568970  0.21064272  1
  Ti  Ti85  1  0.29797883  0.56943117  0.54863055  1
  Ti  Ti86  1  0.29143797  0.61860127  0.96195374  1
  Ti  Ti87  1  0.23927410  0.89934886  0.19738075  1
  Ti  Ti88  1  0.19774627  0.87553663  0.52432043  1
  Ti  Ti89  1  0.24703368  0.92275969  0.84044740  1
  Ti  Ti90  1  0.58065817  0.31637515  0.24867449  1
  Ti  Ti91  1  0.60869333  0.27268582  0.55516036  1
  Ti  Ti92  1  0.51970564  0.28948856  0.97181743  1
  Ti  Ti93  1  0.60512359  0.62517852  0.24722659  1
  Ti  Ti94  1  0.51103883  0.59436886  0.56738108  1
  Ti  Ti95  1  0.59010951  0.61917869  0.89442884  1
  Ti  Ti96  1  0.57848618  0.95262129  0.22358237  1
  Ti  Ti97  1  0.55221556  0.93412208  0.56569207  1
  Ti  Ti98  1  0.54902715  0.94131877  0.90124046  1
  Ti  Ti99  1  0.89077012  0.18953262  0.25271967  1
  Ti  Ti100  1  0.89811749  0.26981154  0.60483872  1
  Ti  Ti101  1  0.96161306  0.25701080  0.96726388  1
  Ti  Ti102  1  0.90953445  0.62910975  0.25917600  1
  Ti  Ti103  1  0.83221549  0.58642049  0.64088054  1
  Ti  Ti104  1  0.90599866  0.65605469  0.91491789  1
  Ti  Ti105  1  0.92962350  0.88064762  0.25449067  1
  Ti  Ti106  1  0.98133282  0.86883717  0.59135818  1
  Ti  Ti107  1  0.90592100  0.88093713  0.93821383  1
  Co  Co108  1  0.57417470  0.92174483  0.73803121  1
  Co  Co109  1  0.14830899  0.09279355  0.32483609  1
  Co  Co110  1  0.35320408  0.01720772  0.12466945  1
  Co  Co111  1  0.30602321  0.76496044  0.25910449  1
  Co  Co112  1  0.37516447  -0.08002705  -0.01623035  1
  Co  Co113  1  0.37002747  0.53370130  0.11016386  1
  Co  Co114  1  0.16349224  0.28706169  0.11645708  1
  Co  Co115  1  0.68870240  0.64280087  0.57118865  1
  Co  Co116  1  0.16832805  0.27422828  0.52039997  1
  Co  Co117  1  0.75669595  0.57303168  -0.07243035  1
  Co  Co118  1  0.11969936  0.09533764  0.73521026  1
  Co  Co119  1  0.10761558  0.88454149  -0.07118823  1
  Co  Co120  1  0.26096520  0.46165757  0.91269342  1
  Co  Co121  1  0.81818229  -0.00571215  0.87147762  1
  Co  Co122  1  0.54687868  0.48463814  0.29386023  1
  Co  Co123  1  0.67355050  0.24343929  0.91716784  1
  Co  Co124  1  0.28592491  0.04142658  0.28735347  1
  Co  Co125  1  0.62530380  0.10524353  0.51087516  1
  Co  Co126  1  0.65367649  0.34310381  0.09534063  1
  Co  Co127  1  0.64001782  0.81085542  0.62235876  1
  Co  Co128  1  0.38668171  0.45943007  0.46833225  1
  Co  Co129  1  0.81747718  0.15288400  -0.09657811  1
  Co  Co130  1  0.55331967  0.12470091  -0.07618318  1
  Co  Co131  1  0.41654197  0.20899820  0.87440381  1
  Co  Co132  1  0.51432159  0.89583607  0.40669139  1
  Co  Co133  1  -0.07409594  0.21803272  0.77718590  1
  Co  Co134  1  0.25948617  0.92363300  0.67520900  1
  Co  Co135  1  0.32164368  0.78682767  0.77493120  1
  Co  Co136  1  0.82894619  0.31674108  0.89238384  1
  Co  Co137  1  0.75058319  0.57258328  0.29100677  1
  Co  Co138  1  0.48581691  0.07556220  0.76532273  1
  Co  Co139  1  -0.01193398  0.07559948  0.33373752  1
  Co  Co140  1  0.62886495  0.57484150  0.70073643  1
  Co  Co141  1  -0.00128220  0.72921305  0.34887539  1
  Co  Co142  1  0.86762674  0.02961000  0.22619716  1
  Co  Co143  1  0.19553855  0.70466603  0.56696499  1
  Co  Co144  1  0.04533336  0.41205234  0.07330228  1
  Co  Co145  1  0.63534666  0.61897674  0.05418669  1
  Co  Co146  1  0.82893146  -0.06034544  0.57491275  1
  Co  Co147  1  0.68823062  -0.00512957  0.63804165  1
  Co  Co148  1  0.90732915  0.32433362  0.11666232  1
  Co  Co149  1  0.57780001  0.14425572  0.23870449  1
  Co  Co150  1  0.39031573  0.28770379  0.30581880  1
  Co  Co151  1  0.61401148  0.78846485  0.83127646  1
  Co  Co152  1  0.00298121  0.17597386  0.52169656  1
  Co  Co153  1  0.38684885  0.61059756  0.68223239  1
  Co  Co154  1  0.62440459  0.81902042  0.31098983  1
  Co  Co155  1  0.47224618  0.75711644  0.50840501  1
  Co  Co156  1  0.56239558  0.44573702  -0.10378049  1
  Co  Co157  1  0.67241327  0.46076220  0.20218229  1
  Co  Co158  1  0.40254799  0.63679718  0.84655617  1
  Co  Co159  1  0.21701167  0.11087143  0.15873396  1
  Co  Co160  1  0.00818730  0.52697455  0.90682003  1
  Co  Co161  1  0.02956473  0.75408755  0.01358920  1
  Ni  Ni162  1  0.33048152  0.71177210  0.10820573  1
  Ni  Ni163  1  0.87222435  0.17514249  0.42407341  1
  Ni  Ni164  1  0.05988637  0.24784124  0.66305014  1
  Ni  Ni165  1  0.00991965  0.78401204  0.84616972  1
  Ni  Ni166  1  0.93051720  0.69006501  0.51492403  1
  Ni  Ni167  1  -0.07873203  0.31987758  0.37243787  1
  Ni  Ni168  1  0.75882223  0.68898609  0.14967580  1
  Ni  Ni169  1  0.41729645  -0.05511374  0.26280523  1
  Ni  Ni170  1  0.41984427  0.63094274  0.23283855  1
  Ni  Ni171  1  0.41349568  0.03555425  0.41489072  1
  Ni  Ni172  1  0.43118453  0.36813223  0.80978236  1
  Ni  Ni173  1  0.60403084  0.15790936  0.66990479  1
  Ni  Ni174  1  0.70213631  0.41777877  0.37388332  1
  Ni  Ni175  1  0.15168903  0.53166630  0.82429761  1
  Ni  Ni176  1  0.06813145  0.78442134  0.48387474  1
  Ni  Ni177  1  0.29399678  0.55066737  0.36711903  1
  Ni  Ni178  1  0.88570411  0.43458635  0.66278553  1
  Ni  Ni179  1  0.14594291  0.54302834  0.62872244  1
  Ni  Ni180  1  -0.02107948  0.53796045  0.56341851  1
  Ni  Ni181  1  0.17192980  0.77258409  0.35443896  1
  Ni  Ni182  1  0.03515469  0.03053912  0.01169313  1
  Ni  Ni183  1  0.86622871  0.53066838  0.81022862  1
  Ni  Ni184  1  0.57334681  0.77842931  -0.01213551  1
  Ni  Ni185  1  0.04446038  0.68636688  0.62820188  1
  Ni  Ni186  1  0.01591928  0.20590431  0.12726188  1
  Ni  Ni187  1  0.48363204  0.23802474  0.13693837  1
  Ni  Ni188  1  0.25701468  0.14559073  -0.11447063  1
  Ni  Ni189  1  0.12224200  0.39783356  0.73420682  1
  Ni  Ni190  1  0.24927539  0.41166068  0.58279886  1
  Ni  Ni191  1  0.38931641  0.89865189  0.52565577  1
  Ni  Ni192  1  0.81995520  0.08688863  0.73075295  1
  Ni  Ni193  1  -0.07034955  0.47678488  0.17547181  1
  Ni  Ni194  1  0.74777058  0.92649879  0.28328271  1
  Ni  Ni195  1  0.39892994  0.36753636  0.09921685  1
  Ni  Ni196  1  0.31830094  0.19109807  0.58993188  1
  Ni  Ni197  1  0.74449281  0.34485277  0.63811354  1
  Ni  Ni198  1  0.08323515  0.02427631  0.46888825  1
  Ni  Ni199  1  0.72299859  0.46655024  0.77129516  1
  Ni  Ni200  1  0.70940968  0.89225953  -0.06170672  1
  Ni  Ni201  1  0.14537626  0.53525621  0.00388587  1
  Ni  Ni202  1  0.88957119  0.93039372  0.72983136  1
  Ni  Ni203  1  0.16660140  0.68374326  0.07665435  1
  Ni  Ni204  1  0.76529455  0.05683033  0.38097705  1
  Ni  Ni205  1  0.76804590  0.29528802  0.48359016  1
  Ni  Ni206  1  0.13223072  0.04424882  0.88447604  1
  Ni  Ni207  1  0.40948873  0.29410992  0.50901320  1
  Ni  Ni208  1  0.60216959  -0.07331718  0.06231011  1
  Ni  Ni209  1  0.10980014  -0.03168616  0.62807669  1
  Ni  Ni210  1  0.62927816  0.56007672  0.42790626  1
  Ni  Ni211  1  -0.07303099  0.93962111  0.09824731  1
  Ni  Ni212  1  0.87681866  0.47795778  0.33477187  1
  Ni  Ni213  1  0.30191417  0.02964869  0.54800575  1
  Ni  Ni214  1  0.62463841  0.18282862  0.07480547  1
