# generated using pymatgen
data_Ti108Co54Ni53
_symmetry_space_group_name_H-M   'P 1'
_cell_length_a   14.62680751
_cell_length_b   14.59541356
_cell_length_c   14.64186281
_cell_angle_alpha   89.49869458
_cell_angle_beta   89.96649051
_cell_angle_gamma   89.88339325
_symmetry_Int_Tables_number   1
_chemical_formula_structural   Ti108Co54Ni53
_chemical_formula_sum   'Ti108 Co54 Ni53'
_cell_volume   3125.68128015
_cell_formula_units_Z   1
loop_
 _symmetry_equiv_pos_site_id
 _symmetry_equiv_pos_as_xyz
  1  'x, y, z'
loop_
 _atom_site_type_symbol
 _atom_site_label
 _atom_site_symmetry_multiplicity
 _atom_site_fract_x
 _atom_site_fract_y
 _atom_site_fract_z
 _atom_site_occupancy
  Ti  Ti0  1  0.06062107  0.16409773  0.27426392  1
  Ti  Ti1  1  0.09369852  0.07439606  0.59263320  1
  Ti  Ti2  1  0.07679639  0.09079460  0.80657111  1
  Ti  Ti3  1  0.03093536  0.47331345  0.27715677  1
  Ti  Ti4  1  0.05972715  0.39474970  0.52172441  1
  Ti  Ti5  1  0.11747309  0.45549314  0.90074830  1
  Ti  Ti6  1  0.04528168  0.76777513  0.28925814  1
  Ti  Ti7  1  0.12919193  0.84211813  0.54195072  1
  Ti  Ti8  1  0.07382928  0.79573466  0.98906463  1
  Ti  Ti9  1  0.47424002  -0.02172708  0.23872403  1
  Ti  Ti10  1  0.41798858  0.09196735  0.54309246  1
  Ti  Ti11  1  0.46089201  0.06130978  0.89522493  1
  Ti  Ti12  1  0.40472894  0.33417699  0.27449806  1
  Ti  Ti13  1  0.42073386  0.39656038  0.58090236  1
  Ti  Ti14  1  0.38537839  0.42766554  0.88603777  1
  Ti  Ti15  1  0.50944930  0.77359795  0.19837135  1
  Ti  Ti16  1  0.42301519  0.72970276  0.57542281  1
  Ti  Ti17  1  0.44180744  0.76761599  0.87303740  1
  Ti  Ti18  1  0.71843735  0.10481399  0.27509796  1
  Ti  Ti19  1  0.74254726  0.10203517  0.60065924  1
  Ti  Ti20  1  0.75375129  0.09669330  0.93667756  1
  Ti  Ti21  1  0.73492496  0.35664225  0.19612345  1
  Ti  Ti22  1  0.75797686  0.40756356  0.60743992  1
  Ti  Ti23  1  0.73609163  0.41705834  0.83543400  1
  Ti  Ti24  1  0.71186945  0.71878057  0.25370700  1
  Ti  Ti25  1  0.78987300  0.76092647  0.64736047  1
  Ti  Ti26  1  0.74410574  0.74545313  0.94932788  1
  Ti  Ti27  1  0.14466318  0.25642170  0.08759499  1
  Ti  Ti28  1  -0.02225050  0.19651060  0.47750235  1
  Ti  Ti29  1  0.11324937  0.25049483  0.68248405  1
  Ti  Ti30  1  0.11271845  0.62360993  0.12963659  1
  Ti  Ti31  1  0.16428723  0.59258738  0.35277121  1
  Ti  Ti32  1  0.12178222  0.59378562  0.75513636  1
  Ti  Ti33  1  0.05448674  0.90234670  0.13640243  1
  Ti  Ti34  1  -0.05815639  0.88538805  0.41344892  1
  Ti  Ti35  1  0.04817371  0.89413345  0.81298316  1
  Ti  Ti36  1  0.43325515  0.26881314  -0.02014614  1
  Ti  Ti37  1  0.44368057  0.25731885  0.44693540  1
  Ti  Ti38  1  0.37130403  0.25664409  0.77428432  1
  Ti  Ti39  1  0.30432549  0.52501921  0.03353800  1
  Ti  Ti40  1  0.34694146  0.59711457  0.42256120  1
  Ti  Ti41  1  0.46691752  0.61488806  0.76528476  1
  Ti  Ti42  1  0.38372697  0.87508458  0.05512066  1
  Ti  Ti43  1  0.44116078  0.83739976  0.39997547  1
  Ti  Ti44  1  0.37563973  0.91956691  0.78989747  1
  Ti  Ti45  1  0.74291857  0.26061173  0.03972722  1
  Ti  Ti46  1  0.71775698  0.35210443  0.42959019  1
  Ti  Ti47  1  0.80623887  0.24564309  0.73593248  1
  Ti  Ti48  1  0.79866834  0.54336542  0.08723751  1
  Ti  Ti49  1  0.72750089  0.55720235  0.37313707  1
  Ti  Ti50  1  0.79913246  0.61488012  0.79091871  1
  Ti  Ti51  1  0.76718046  0.92203469  0.04089195  1
  Ti  Ti52  1  0.76259299  0.98422529  0.43120418  1
  Ti  Ti53  1  0.68785621  0.94571566  0.73001300  1
  Ti  Ti54  1  0.24472399  0.07554466  0.05504530  1
  Ti  Ti55  1  0.24737886  -0.00298618  0.45624287  1
  Ti  Ti56  1  0.25883186  0.08090777  0.80740477  1
  Ti  Ti57  1  0.20804382  0.42181247  0.18631158  1
  Ti  Ti58  1  0.24098929  0.45341060  0.49960395  1
  Ti  Ti59  1  0.22997577  0.40987771  0.71981807  1
  Ti  Ti60  1  0.24542810  0.75637378  0.09556496  1
  Ti  Ti61  1  0.26147653  0.77929833  0.39025452  1
  Ti  Ti62  1  0.21018104  0.77564698  0.71101093  1
  Ti  Ti63  1  0.60960267  0.04312356  0.07385930  1
  Ti  Ti64  1  0.60555649  0.11100368  0.44643609  1
  Ti  Ti65  1  0.54946700  0.14272099  0.73326901  1
  Ti  Ti66  1  0.65259590  0.45346283  0.01784472  1
  Ti  Ti67  1  0.55218426  0.49817506  0.41974382  1
  Ti  Ti68  1  0.54440846  0.40649164  0.73613824  1
  Ti  Ti69  1  0.63638639  0.64390164  0.08820912  1
  Ti  Ti70  1  0.65414499  0.71130636  0.46728438  1
  Ti  Ti71  1  0.55979592  0.79822417  0.70577180  1
  Ti  Ti72  1  0.93698342  0.05340169  0.14265614  1
  Ti  Ti73  1  0.90778233  0.07694634  0.33658138  1
  Ti  Ti74  1  0.85011437  0.05702578  0.78361015  1
  Ti  Ti75  1  0.92872606  0.37749198  0.12342814  1
  Ti  Ti76  1  0.90387896  0.50710484  0.44431975  1
  Ti  Ti77  1  0.94551062  0.36332582  0.82830280  1
  Ti  Ti78  1  0.91709886  0.68665429  0.00869103  1
  Ti  Ti79  1  0.86631945  0.71357578  0.39888892  1
  Ti  Ti80  1  0.98026333  0.74550889  0.71313634  1
  Ti  Ti81  1  0.22992970  0.24333459  0.29380654  1
  Ti  Ti82  1  0.18318106  0.22815101  0.49597193  1
  Ti  Ti83  1  0.24151396  0.30027638  0.91584373  1
  Ti  Ti84  1  0.29854310  0.60853398  0.21796289  1
  Ti  Ti85  1  0.22645174  0.65828252  0.55341027  1
  Ti  Ti86  1  0.22195120  0.65008333  0.92453390  1
  Ti  Ti87  1  0.21214371  0.92726652  0.22314275  1
  Ti  Ti88  1  0.27657161  0.96487838  0.63925726  1
  Ti  Ti89  1  0.25252513  0.83231912  0.90053166  1
  Ti  Ti90  1  0.58977395  0.24490819  0.30686240  1
  Ti  Ti91  1  0.59618664  0.24221332  0.57025612  1
  Ti  Ti92  1  0.63395176  0.25614165  0.86519052  1
  Ti  Ti93  1  0.55051326  0.49793771  0.18525815  1
  Ti  Ti94  1  0.54539844  0.57299865  0.60418593  1
  Ti  Ti95  1  0.50465582  0.57814335  0.95941761  1
  Ti  Ti96  1  0.67388161  0.91920303  0.22280220  1
  Ti  Ti97  1  0.59391650  0.91170530  0.51106452  1
  Ti  Ti98  1  0.59796294  0.88164078  0.91391915  1
  Ti  Ti99  1  0.91875938  0.29917718  0.30840986  1
  Ti  Ti100  1  0.93498816  0.32289277  0.62882455  1
  Ti  Ti101  1  0.99940350  0.18577186  0.95441045  1
  Ti  Ti102  1  0.87543974  0.59640297  0.24321880  1
  Ti  Ti103  1  0.95373793  0.56137791  0.62414259  1
  Ti  Ti104  1  0.92063314  0.51046828  0.94206103  1
  Ti  Ti105  1  0.87261037  0.88285159  0.22608911  1
  Ti  Ti106  1  0.95525928  0.89824506  0.59556974  1
  Ti  Ti107  1  0.93552627  0.98171097  0.94753088  1
  Co  Co108  1  0.06761450  0.60260878  -0.03745051  1
  Co  Co109  1  0.06971091  0.03246791  0.00972728  1
  Co  Co110  1  0.88625434  0.34934759  0.46418916  1
  Co  Co111  1  0.11550288  0.07100715  0.15872330  1
  Co  Co112  1  0.62807418  0.41018767  0.30461544  1
  Co  Co113  1  0.38594561  0.55790573  0.57185949  1
  Co  Co114  1  0.92746591  0.15563083  0.62987883  1
  Co  Co115  1  0.07795138  0.32643418  0.22239322  1
  Co  Co116  1  -0.00927504  0.22351550  0.13226183  1
  Co  Co117  1  0.77093357  0.84501539  0.34400107  1
  Co  Co118  1  0.81266239  0.39924014  -0.01461735  1
  Co  Co119  1  0.31368737  0.14109402  0.40160117  1
  Co  Co120  1  -0.01973198  0.52997203  0.78928238  1
  Co  Co121  1  0.29492461  0.31764618  0.42510948  1
  Co  Co122  1  0.32669373  -0.01985003  -0.05445662  1
  Co  Co123  1  0.57539425  0.64239866  0.28961449  1
  Co  Co124  1  0.07671300  0.67497917  0.60350106  1
  Co  Co125  1  0.13647995  0.11053854  0.40414219  1
  Co  Co126  1  0.70479558  0.53566062  0.21520749  1
  Co  Co127  1  0.34867480  0.82996350  0.22278900  1
  Co  Co128  1  0.27899859  0.45716506  0.32176781  1
  Co  Co129  1  0.62035821  0.53566420  0.82199031  1
  Co  Co130  1  0.46336220  0.13464821  0.34046527  1
  Co  Co131  1  0.71832699  0.79252519  0.79229899  1
  Co  Co132  1  0.06234543  0.41326223  0.71141443  1
  Co  Co133  1  0.16376226  -0.02676967  0.89887072  1
  Co  Co134  1  0.12273376  0.93852663  0.68108421  1
  Co  Co135  1  -0.00349131  0.61955108  0.34702908  1
  Co  Co136  1  0.40188418  0.70252466  0.30107612  1
  Co  Co137  1  0.14156342  0.51738769  0.61528549  1
  Co  Co138  1  0.82989107  0.43905334  0.30293791  1
  Co  Co139  1  0.07976184  0.72633024  0.44300105  1
  Co  Co140  1  -0.03524017  0.20322368  0.77569980  1
  Co  Co141  1  0.07015962  0.55412947  0.47734503  1
  Co  Co142  1  0.54486631  0.33777470  0.17894824  1
  Co  Co143  1  0.62385060  0.03578756  -0.12183605  1
  Co  Co144  1  0.73598237  0.57833908  -0.06210027  1
  Co  Co145  1  0.66000396  0.29631743  0.69994367  1
  Co  Co146  1  0.30404600  0.83280849  0.54505743  1
  Co  Co147  1  0.05393878  -0.00957517  0.46371637  1
  Co  Co148  1  0.57682162  0.04354743  0.60378602  1
  Co  Co149  1  0.16297581  0.15184006  -0.06422934  1
  Co  Co150  1  0.46472715  0.43299293  0.03967955  1
  Co  Co151  1  0.59253801  -0.00996948  0.34633110  1
  Co  Co152  1  0.30426059  0.36211097  0.05462074  1
  Co  Co153  1  0.32881246  0.15560662  0.93384557  1
  Co  Co154  1  0.76653463  -0.07177054  0.87874770  1
  Co  Co155  1  -0.05945099  0.74370118  0.54213691  1
  Co  Co156  1  0.19678836  0.74528014  0.24680844  1
  Co  Co157  1  0.44918345  -0.00228457  0.42767415  1
  Co  Co158  1  0.83117571  0.20739151  0.20484956  1
  Co  Co159  1  0.00592683  0.34615651  -0.01636392  1
  Co  Co160  1  0.37073221  0.77744023  0.71758247  1
  Co  Co161  1  0.70132069  0.12967786  0.76402455  1
  Ni  Ni162  1  0.09341763  0.45771561  0.07028248  1
  Ni  Ni163  1  -0.09708724  0.04458244  0.50915080  1
  Ni  Ni164  1  0.19866476  0.91224595  0.04685321  1
  Ni  Ni165  1  0.76855561  0.82835070  0.50172692  1
  Ni  Ni166  1  0.84153545  0.25071567  0.89899079  1
  Ni  Ni167  1  0.40643291  0.43142320  0.41805410  1
  Ni  Ni168  1  0.28338496  0.30283266  0.60623477  1
  Ni  Ni169  1  0.38759652  0.47539403  0.72149909  1
  Ni  Ni170  1  0.95549068  0.66884139  0.85327273  1
  Ni  Ni171  1  0.03498805  -0.01808640  0.28569771  1
  Ni  Ni172  1  0.79530667  0.20306674  0.38772561  1
  Ni  Ni173  1  -0.09993834  0.81918110  0.89757203  1
  Ni  Ni174  1  0.52648482  -0.03115361  0.75494644  1
  Ni  Ni175  1  0.86883267  0.16108547  0.04333937  1
  Ni  Ni176  1  0.65286340  0.65696140  0.70642514  1
  Ni  Ni177  1  0.56965411  0.15868085  -0.02291394  1
  Ni  Ni178  1  0.91490653  0.85351850  0.06070796  1
  Ni  Ni179  1  0.59959533  0.81887559  0.34522711  1
  Ni  Ni180  1  0.65982913  0.80796335  0.09407829  1
  Ni  Ni181  1  0.58377996  0.30780225  0.03200781  1
  Ni  Ni182  1  -0.03164637  0.55356474  0.11231648  1
  Ni  Ni183  1  0.30342004  0.62052857  0.70138395  1
  Ni  Ni184  1  0.81436612  0.63251717  0.53597164  1
  Ni  Ni185  1  0.80415876  0.74023440  0.12115030  1
  Ni  Ni186  1  0.13900402  0.36994484  0.37313607  1
  Ni  Ni187  1  0.79251063  0.24764615  0.55047973  1
  Ni  Ni188  1  0.76432364  0.06759077  0.12481930  1
  Ni  Ni189  1  0.54937969  0.40330455  0.89843327  1
  Ni  Ni190  1  0.44779719  0.91662861  0.60899222  1
  Ni  Ni191  1  0.85390913  0.45982689  0.72410315  1
  Ni  Ni192  1  0.86799605  0.88191605  0.75057330  1
  Ni  Ni193  1  0.59334337  0.40681374  0.56147833  1
  Ni  Ni194  1  -0.03330081  0.72733118  0.15817711  1
  Ni  Ni195  1  0.13285936  0.88120216  0.37237621  1
  Ni  Ni196  1  0.53642956  -0.09426654  0.08674503  1
  Ni  Ni197  1  0.26902946  0.52523448  0.83553844  1
  Ni  Ni198  1  0.63845769  0.19552216  0.14891460  1
  Ni  Ni199  1  0.36852876  0.69387691  0.00068914  1
  Ni  Ni200  1  0.25811245  0.14466378  0.64601756  1
  Ni  Ni201  1  0.50028236  0.66535857  0.43657607  1
  Ni  Ni202  1  -0.02427595  0.01396877  0.70323299  1
  Ni  Ni203  1  0.52422137  0.74980880  0.02021254  1
  Ni  Ni204  1  0.09663238  0.28589458  0.84206663  1
  Ni  Ni205  1  0.10427927  0.73623382  0.84158543  1
  Ni  Ni206  1  0.33308719  -0.04237496  0.32439646  1
  Ni  Ni207  1  0.37810152  0.46083806  0.17143686  1
  Ni  Ni208  1  0.44639953  0.62512732  0.13511537  1
  Ni  Ni209  1  0.43475141  0.23143678  0.62880152  1
  Ni  Ni210  1  0.60125339  0.69639911  0.86816941  1
  Ni  Ni211  1  0.39962307  0.07495423  0.71219988  1
  Ni  Ni212  1  0.79868046  -0.05221570  0.60642743  1
  Ni  Ni213  1  0.43769735  0.54267541  0.29669540  1
  Ni  Ni214  1  0.68866252  0.53652541  0.53070572  1
