# generated using pymatgen
data_Ti108Co54Ni53
_symmetry_space_group_name_H-M   'P 1'
_cell_length_a   14.61254248
_cell_length_b   14.66387542
_cell_length_c   14.65682409
_cell_angle_alpha   90.13768589
_cell_angle_beta   89.78476113
_cell_angle_gamma   90.16309122
_symmetry_Int_Tables_number   1
_chemical_formula_structural   Ti108Co54Ni53
_chemical_formula_sum   'Ti108 Co54 Ni53'
_cell_volume   3140.56913370
_cell_formula_units_Z   1
loop_
 _symmetry_equiv_pos_site_id
 _symmetry_equiv_pos_as_xyz
  1  'x, y, z'
loop_
 _atom_site_type_symbol
 _atom_site_label
 _atom_site_symmetry_multiplicity
 _atom_site_fract_x
 _atom_site_fract_y
 _atom_site_fract_z
 _atom_site_occupancy
  Ti  Ti0  1  0.07611960  0.02279474  0.25644813  1
  Ti  Ti1  1  0.06988526  0.10529709  0.60032805  1
  Ti  Ti2  1  0.02142903  0.08266885  0.95978891  1
  Ti  Ti3  1  0.10847483  0.38958936  0.24547190  1
  Ti  Ti4  1  0.09868505  0.38836573  0.56296541  1
  Ti  Ti5  1  0.03446526  0.42953533  1.00590199  1
  Ti  Ti6  1  0.13153101  0.71063196  0.31895538  1
  Ti  Ti7  1  0.13753873  0.72483418  0.62500940  1
  Ti  Ti8  1  0.11616384  0.80018222  0.85073057  1
  Ti  Ti9  1  0.39761705  0.09650433  0.18736430  1
  Ti  Ti10  1  0.42679023  0.05146802  0.58685084  1
  Ti  Ti11  1  0.36874730  0.01723148  0.99874815  1
  Ti  Ti12  1  0.42701218  0.45323918  0.30342842  1
  Ti  Ti13  1  0.50915077  0.44064077  0.54653278  1
  Ti  Ti14  1  0.38599793  0.44621831  0.90105471  1
  Ti  Ti15  1  0.48949296  0.72518138  0.23345997  1
  Ti  Ti16  1  0.47265216  0.81895854  0.52201715  1
  Ti  Ti17  1  0.39133544  0.78547162  0.98430570  1
  Ti  Ti18  1  0.72025939  0.10618894  0.24230659  1
  Ti  Ti19  1  0.77810711  0.10140652  0.52221578  1
  Ti  Ti20  1  0.72337595  0.04674328  0.95411464  1
  Ti  Ti21  1  0.78599351  0.42479173  0.23498825  1
  Ti  Ti22  1  0.67959471  0.39788934  0.61158790  1
  Ti  Ti23  1  0.73476908  0.41170609  0.88420608  1
  Ti  Ti24  1  0.75698446  0.75912489  0.21855239  1
  Ti  Ti25  1  0.79813415  0.76801080  0.55495894  1
  Ti  Ti26  1  0.72351237  0.70525728  0.90056567  1
  Ti  Ti27  1  0.10218793  0.26046187  -0.00313950  1
  Ti  Ti28  1  0.06138734  0.20349079  0.32816718  1
  Ti  Ti29  1  0.04803213  0.26418481  0.72347378  1
  Ti  Ti30  1  0.09347866  0.62402772  0.00240730  1
  Ti  Ti31  1  0.06360868  0.51213791  0.39958861  1
  Ti  Ti32  1  0.03468623  0.64079886  0.76410172  1
  Ti  Ti33  1  0.11673143  0.93036660  0.04383822  1
  Ti  Ti34  1  0.00845522  0.87738163  0.37510923  1
  Ti  Ti35  1  0.11140692  0.98057335  0.75394631  1
  Ti  Ti36  1  0.44351265  0.26916283  0.03572577  1
  Ti  Ti37  1  0.41131338  0.22822734  0.32692113  1
  Ti  Ti38  1  0.41621935  0.16593897  0.76109374  1
  Ti  Ti39  1  0.42031420  0.46074400  0.09481894  1
  Ti  Ti40  1  0.37403600  0.63397340  0.41031058  1
  Ti  Ti41  1  0.42844451  0.57601273  0.70758697  1
  Ti  Ti42  1  0.46825055  0.91354617  0.12639840  1
  Ti  Ti43  1  0.36171688  0.94825095  0.44093075  1
  Ti  Ti44  1  0.44730117  0.90326182  0.71011101  1
  Ti  Ti45  1  0.76555437  0.23108317  0.09162732  1
  Ti  Ti46  1  0.72440797  0.27488349  0.46618120  1
  Ti  Ti47  1  0.77171357  0.20150562  0.85159443  1
  Ti  Ti48  1  0.69217262  0.55319149  0.10745352  1
  Ti  Ti49  1  0.78108368  0.66343235  0.39113533  1
  Ti  Ti50  1  0.72792933  0.60029684  0.68483967  1
  Ti  Ti51  1  0.75480140  0.86624148  0.05210519  1
  Ti  Ti52  1  0.72065990  0.95318327  0.40646052  1
  Ti  Ti53  1  0.76151187  0.90024622  0.81924230  1
  Ti  Ti54  1  0.26393299  0.17647298  0.03956870  1
  Ti  Ti55  1  0.25982162  0.05523836  0.33847944  1
  Ti  Ti56  1  0.22270063  0.13464552  0.73311298  1
  Ti  Ti57  1  0.20200276  0.48291516  0.08684346  1
  Ti  Ti58  1  0.24258867  0.48699956  0.37213638  1
  Ti  Ti59  1  0.15422726  0.47522329  0.74640862  1
  Ti  Ti60  1  0.19745525  0.73369071  0.12553185  1
  Ti  Ti61  1  0.26013209  0.77599541  0.46400800  1
  Ti  Ti62  1  0.30410230  0.72117500  0.78257562  1
  Ti  Ti63  1  0.56491919  0.08958321  0.06831624  1
  Ti  Ti64  1  0.58276732  0.12700017  0.39985407  1
  Ti  Ti65  1  0.70539922  0.07172600  0.73376748  1
  Ti  Ti66  1  0.61910777  0.37409239  0.10798982  1
  Ti  Ti67  1  0.69253743  0.46468321  0.41802656  1
  Ti  Ti68  1  0.55568379  0.40348430  0.78121833  1
  Ti  Ti69  1  0.58850024  0.72905741  0.05800979  1
  Ti  Ti70  1  0.56718410  0.68394349  0.42904326  1
  Ti  Ti71  1  0.56501871  0.68787973  0.80500681  1
  Ti  Ti72  1  0.93042882  0.07189376  0.13941190  1
  Ti  Ti73  1  0.95399851  0.09728655  0.43688925  1
  Ti  Ti74  1  0.88898832  0.12381514  0.70240497  1
  Ti  Ti75  1  0.88279212  0.53207479  0.09020545  1
  Ti  Ti76  1  0.93170948  0.33873760  0.41110901  1
  Ti  Ti77  1  0.93867937  0.44003605  0.81664172  1
  Ti  Ti78  1  0.92485876  0.74238648  0.11736320  1
  Ti  Ti79  1  0.97248668  0.67399711  0.46608465  1
  Ti  Ti80  1  0.87582943  0.73060050  0.78243156  1
  Ti  Ti81  1  0.21565548  0.19452215  0.23529534  1
  Ti  Ti82  1  0.21532615  0.21089951  0.45575862  1
  Ti  Ti83  1  0.25761426  0.29801312  0.86351996  1
  Ti  Ti84  1  0.32460405  0.61119333  0.20824192  1
  Ti  Ti85  1  0.26367989  0.55558306  0.57409152  1
  Ti  Ti86  1  0.29334748  0.60479049  0.97999215  1
  Ti  Ti87  1  0.22084910  0.89515316  0.21429981  1
  Ti  Ti88  1  0.18659800  0.94359457  0.55535975  1
  Ti  Ti89  1  0.28491187  0.91304239  0.85538296  1
  Ti  Ti90  1  0.58712626  0.32013308  0.32884147  1
  Ti  Ti91  1  0.57192763  0.23121710  0.64686690  1
  Ti  Ti92  1  0.61824716  0.25144184  0.95124931  1
  Ti  Ti93  1  0.63936978  0.60417530  0.27996206  1
  Ti  Ti94  1  0.60338262  0.71971516  0.61607235  1
  Ti  Ti95  1  0.56009918  0.55620642  0.96245179  1
  Ti  Ti96  1  0.54078630  0.90950734  0.32485939  1
  Ti  Ti97  1  0.65054547  0.92318331  0.61682271  1
  Ti  Ti98  1  0.55713818  0.99460186  0.87580291  1
  Ti  Ti99  1  0.90626205  0.24648626  0.23348527  1
  Ti  Ti100  1  0.89590618  0.26307079  0.57769960  1
  Ti  Ti101  1  0.89349471  0.30883301  0.95779874  1
  Ti  Ti102  1  0.95698395  0.59133353  0.27414789  1
  Ti  Ti103  1  0.91223568  0.56611838  0.65039429  1
  Ti  Ti104  1  0.91961280  0.62930983  0.93636685  1
  Ti  Ti105  1  0.88452307  0.90231483  0.22624634  1
  Ti  Ti106  1  0.98825474  0.90070035  0.57604616  1
  Ti  Ti107  1  0.95875672  0.91393593  0.88008604  1
  Co  Co108  1  0.53959697  0.39769249  -0.04301421  1
  Co  Co109  1  0.65237566  0.82597890  0.48282433  1
  Co  Co110  1  0.61332996  -0.06028840  0.04023531  1
  Co  Co111  1  0.20756845  0.46082653  -0.08146094  1
  Co  Co112  1  0.65020915  0.78817141  0.32792370  1
  Co  Co113  1  0.24601730  0.09144844  0.56389744  1
  Co  Co114  1  0.45716502  0.74176974  0.67511359  1
  Co  Co115  1  0.60624538  0.83793491  0.17286859  1
  Co  Co116  1  0.82226567  0.40664872  0.53365766  1
  Co  Co117  1  0.85432448  0.04411822  0.84690616  1
  Co  Co118  1  0.05094252  0.84757313  0.19855966  1
  Co  Co119  1  0.16389415  0.62699598  0.46552604  1
  Co  Co120  1  0.44504622  0.05408871  0.34171993  1
  Co  Co121  1  0.06254106  0.52216626  0.87593559  1
  Co  Co122  1  0.65990572  0.54236410  0.82628851  1
  Co  Co123  1  0.53185455  0.52323730  0.40323959  1
  Co  Co124  1  0.42490646  0.64887136  0.06800230  1
  Co  Co125  1  0.27861863  -0.10215422  0.05227557  1
  Co  Co126  1  0.56510677  0.04957888  0.22997648  1
  Co  Co127  1  0.40598563  0.01887189  0.82219106  1
  Co  Co128  1  -0.05575524  0.75094345  0.29331241  1
  Co  Co129  1  0.37493336  0.48379206  0.47101667  1
  Co  Co130  1  0.63663557  0.56861168  0.52841716  1
  Co  Co131  1  0.09270616  0.78975945  0.48372426  1
  Co  Co132  1  0.56567740  0.29209412  0.49176933  1
  Co  Co133  1  0.68429879  0.30616055  0.76145705  1
  Co  Co134  1  0.17810125  0.31147483  0.12680537  1
  Co  Co135  1  0.76089187  0.55542475  -0.04030665  1
  Co  Co136  1  -0.04988853  0.41599059  0.27066587  1
  Co  Co137  1  0.12826786  0.17502332  -0.14047488  1
  Co  Co138  1  0.02706940  0.82789268  0.72636467  1
  Co  Co139  1  0.81759681  0.81820908  0.37912385  1
  Co  Co140  1  0.28978805  0.43883078  0.20784648  1
  Co  Co141  1  0.44199634  0.79636849  0.82997092  1
  Co  Co142  1  0.42615161  0.78772594  0.37080286  1
  Co  Co143  1  0.46512393  0.60934371  0.54859392  1
  Co  Co144  1  0.78061894  0.02159023  0.10704124  1
  Co  Co145  1  0.59288642  0.45614775  0.24996205  1
  Co  Co146  1  0.33623565  0.87282720  0.59007333  1
  Co  Co147  1  0.57818875  0.53734900  0.67772503  1
  Co  Co148  1  -0.03918521  0.22623046  0.07734825  1
  Co  Co149  1  0.80497207  0.60462286  0.22525318  1
  Co  Co150  1  -0.03735677  0.72506256  0.61642809  1
  Co  Co151  1  0.05775178  0.67333593  0.16674742  1
  Co  Co152  1  0.72186809  0.76917912  0.71764473  1
  Co  Co153  1  0.91491693  0.37351252  0.11983811  1
  Co  Co154  1  0.28586501  0.76080941  0.29754966  1
  Co  Co155  1  0.28941522  0.35302963  0.01598222  1
  Co  Co156  1  0.74642101  0.21340961  0.64349431  1
  Co  Co157  1  0.04922046  0.23271968  0.50357846  1
  Co  Co158  1  0.16611705  0.56537635  0.24287672  1
  Co  Co159  1  0.16514373  0.01121845  0.90399562  1
  Co  Co160  1  0.77109904  0.40145394  0.04737705  1
  Co  Co161  1  0.83333119  0.56828589  0.81229523  1
  Ni  Ni162  1  0.35813300  0.78681108  0.15382921  1
  Ni  Ni163  1  0.85866447  0.50023845  0.38354444  1
  Ni  Ni164  1  0.80320062  0.57407868  0.52661011  1
  Ni  Ni165  1  0.42826179  0.62989300  0.89043870  1
  Ni  Ni166  1  -0.06129691  -0.08563350  0.06157949  1
  Ni  Ni167  1  0.86394848  0.84801367  0.68366515  1
  Ni  Ni168  1  0.59575159  0.85457142  0.77224730  1
  Ni  Ni169  1  0.61980937  0.09822492  0.56527729  1
  Ni  Ni170  1  0.29574003  -0.00784926  0.69440140  1
  Ni  Ni171  1  -0.13215360  0.04251277  0.30383166  1
  Ni  Ni172  1  -0.05187061  -0.02141463  0.72159884  1
  Ni  Ni173  1  0.33571786  0.28209530  0.16800731  1
  Ni  Ni174  1  0.29694704  0.54433630  0.80066124  1
  Ni  Ni175  1  0.11820558  0.05560172  0.43539502  1
  Ni  Ni176  1  0.18002061  0.90466142  0.38102150  1
  Ni  Ni177  1  0.59816149  0.21519790  0.16972499  1
  Ni  Ni178  1  0.87774183  -0.05079707  0.45728887  1
  Ni  Ni179  1  0.45213745  0.29221017  0.85990430  1
  Ni  Ni180  1  0.29462248  0.12518712  0.88523461  1
  Ni  Ni181  1  0.71379978  -0.06404942  0.24092314  1
  Ni  Ni182  1  0.55813961  0.83092745  -0.06374244  1
  Ni  Ni183  1  0.09195646  0.14291348  0.12766150  1
  Ni  Ni184  1  0.17556790  0.63705806  0.85079446  1
  Ni  Ni185  1  0.77912196  0.68850837  0.05911780  1
  Ni  Ni186  1  0.03885441  0.50984106  0.15029930  1
  Ni  Ni187  1  0.22134414  0.76162959  -0.03497795  1
  Ni  Ni188  1  -0.04184641  0.40055764  0.65581461  1
  Ni  Ni189  1  0.08214247  0.56139581  0.60488599  1
  Ni  Ni190  1  0.86055419  0.13341108  -0.01202635  1
  Ni  Ni191  1  0.21345587  0.84818188  0.70541776  1
  Ni  Ni192  1  0.37265930  -0.08665337  0.27276345  1
  Ni  Ni193  1  0.12587866  0.34745905  0.40428095  1
  Ni  Ni194  1  -0.04175747  0.48833080  0.51487515  1
  Ni  Ni195  1  -0.04298508  0.19316123  0.85288802  1
  Ni  Ni196  1  0.27599406  0.32637112  0.32866113  1
  Ni  Ni197  1  0.79886262  0.43922524  0.71348278  1
  Ni  Ni198  1  0.18098986  0.24682189  0.61761222  1
  Ni  Ni199  1  0.48273860  0.33270487  0.19719813  1
  Ni  Ni200  1  0.86564176  0.29428593  0.75186899  1
  Ni  Ni201  1  0.46401258  0.14075050  -0.07082505  1
  Ni  Ni202  1  0.08979125  0.35189622  0.85689410  1
  Ni  Ni203  1  0.04145935  0.78493382  0.00738775  1
  Ni  Ni204  1  0.36613093  0.13195008  0.45773288  1
  Ni  Ni205  1  0.58624352  0.17432188  0.81360622  1
  Ni  Ni206  1  0.73041958  0.27216250  0.26650697  1
  Ni  Ni207  1  0.54114008  0.05095435  0.71085985  1
  Ni  Ni208  1  0.87123830  0.79350253  -0.04985720  1
  Ni  Ni209  1  0.32088420  0.70398590  0.60806117  1
  Ni  Ni210  1  0.54765332  -0.02560928  0.48138621  1
  Ni  Ni211  1  0.81325776  -0.02252302  0.61409913  1
  Ni  Ni212  1  0.82321349  0.18432044  0.37182341  1
  Ni  Ni213  1  0.22835395  0.04473359  0.14158044  1
  Ni  Ni214  1  0.53118053  0.57131792  0.15058220  1
