# generated using pymatgen
data_Ti108Co54Ni53
_symmetry_space_group_name_H-M   'P 1'
_cell_length_a   14.62531816
_cell_length_b   14.63893137
_cell_length_c   14.63650132
_cell_angle_alpha   89.62185632
_cell_angle_beta   90.18548161
_cell_angle_gamma   90.19945069
_symmetry_Int_Tables_number   1
_chemical_formula_structural   Ti108Co54Ni53
_chemical_formula_sum   'Ti108 Co54 Ni53'
_cell_volume   3133.55729621
_cell_formula_units_Z   1
loop_
 _symmetry_equiv_pos_site_id
 _symmetry_equiv_pos_as_xyz
  1  'x, y, z'
loop_
 _atom_site_type_symbol
 _atom_site_label
 _atom_site_symmetry_multiplicity
 _atom_site_fract_x
 _atom_site_fract_y
 _atom_site_fract_z
 _atom_site_occupancy
  Ti  Ti0  1  0.09832581  0.15822995  0.22435486  1
  Ti  Ti1  1  0.01955426  0.11540614  0.58130002  1
  Ti  Ti2  1  0.10308337  0.09212246  0.89333079  1
  Ti  Ti3  1  0.09034505  0.35922640  0.25619310  1
  Ti  Ti4  1  0.05849978  0.37290592  0.61555755  1
  Ti  Ti5  1  0.05137465  0.42581064  0.92245325  1
  Ti  Ti6  1  0.13734823  0.77693669  0.14810984  1
  Ti  Ti7  1  0.07358099  0.80071694  0.55085513  1
  Ti  Ti8  1  0.14551740  0.74570992  0.85486857  1
  Ti  Ti9  1  0.47527768  0.07739691  0.22019494  1
  Ti  Ti10  1  0.39382381  0.10500638  0.52050652  1
  Ti  Ti11  1  0.41392688  0.09359601  0.84027883  1
  Ti  Ti12  1  0.39657746  0.36331461  0.28056918  1
  Ti  Ti13  1  0.34532881  0.41931066  0.47457273  1
  Ti  Ti14  1  0.37947433  0.43661928  0.92109340  1
  Ti  Ti15  1  0.36235756  0.76921053  0.19063883  1
  Ti  Ti16  1  0.49884991  0.66628931  0.60765547  1
  Ti  Ti17  1  0.41342795  0.71367215  0.88260859  1
  Ti  Ti18  1  0.67736661  0.02121710  0.26715513  1
  Ti  Ti19  1  0.78852182  0.10433974  0.61001361  1
  Ti  Ti20  1  0.72151337  0.08453268  0.90616583  1
  Ti  Ti21  1  0.78268817  0.41647175  0.28179604  1
  Ti  Ti22  1  0.76207804  0.43016213  0.65654121  1
  Ti  Ti23  1  0.69862461  0.42870213  0.94889396  1
  Ti  Ti24  1  0.79293717  0.69838907  0.21249888  1
  Ti  Ti25  1  0.73675816  0.74099968  0.52111511  1
  Ti  Ti26  1  0.74439571  0.75775740  0.87688690  1
  Ti  Ti27  1  0.00442594  0.24527447  0.05959256  1
  Ti  Ti28  1  -0.00224733  0.28947885  0.42779586  1
  Ti  Ti29  1  0.12264675  0.23864023  0.73311229  1
  Ti  Ti30  1  0.10731965  0.58267105  0.05302378  1
  Ti  Ti31  1  0.07769184  0.55997769  0.36604280  1
  Ti  Ti32  1  0.11026637  0.56768294  0.70859566  1
  Ti  Ti33  1  0.06011877  0.96615888  0.15225550  1
  Ti  Ti34  1  0.05139479  0.87075202  0.32390225  1
  Ti  Ti35  1  0.06961808  0.90536457  0.71621733  1
  Ti  Ti36  1  0.47182016  0.22634752  0.07916553  1
  Ti  Ti37  1  0.47751879  0.28571803  0.46873768  1
  Ti  Ti38  1  0.40195906  0.29782149  0.78651147  1
  Ti  Ti39  1  0.42535160  0.55038223  0.14754935  1
  Ti  Ti40  1  0.40452799  0.61988655  0.43869893  1
  Ti  Ti41  1  0.46168077  0.53282720  0.76277125  1
  Ti  Ti42  1  0.41511794  0.94210824  0.10691072  1
  Ti  Ti43  1  0.39753800  0.91191919  0.47968724  1
  Ti  Ti44  1  0.45201326  0.88260302  0.79237744  1
  Ti  Ti45  1  0.73722362  0.23643883  0.06203175  1
  Ti  Ti46  1  0.69975732  0.22798576  0.46390430  1
  Ti  Ti47  1  0.79507947  0.24045963  0.76879589  1
  Ti  Ti48  1  0.75458834  0.58695670  0.04682469  1
  Ti  Ti49  1  0.72291179  0.56188068  0.40927995  1
  Ti  Ti50  1  0.81162170  0.62946846  0.71941593  1
  Ti  Ti51  1  0.77993554  0.84316204  0.07768247  1
  Ti  Ti52  1  0.79147338  0.90249690  0.39841850  1
  Ti  Ti53  1  0.72723318  0.97795295  0.74538900  1
  Ti  Ti54  1  0.26245643  0.07793804  0.10782698  1
  Ti  Ti55  1  0.27548928  0.12499402  0.32053011  1
  Ti  Ti56  1  0.25053311  0.01444648  0.74921398  1
  Ti  Ti57  1  0.24871085  0.47488102  0.14579604  1
  Ti  Ti58  1  0.17060579  0.37139985  0.44116553  1
  Ti  Ti59  1  0.30417648  0.44508846  0.69565458  1
  Ti  Ti60  1  0.26385149  0.78832450  0.01240546  1
  Ti  Ti61  1  0.22572620  0.73903111  0.45427758  1
  Ti  Ti62  1  0.27617321  0.64201648  0.77724186  1
  Ti  Ti63  1  0.56810634  0.06559069  0.03231764  1
  Ti  Ti64  1  0.55738703  0.08190062  0.41012611  1
  Ti  Ti65  1  0.53027852  0.02290756  0.68257003  1
  Ti  Ti66  1  0.64907407  0.44365609  0.13633190  1
  Ti  Ti67  1  0.53512122  0.47429776  0.41392996  1
  Ti  Ti68  1  0.60350453  0.35409928  0.74133649  1
  Ti  Ti69  1  0.55068457  0.78263272  0.10364168  1
  Ti  Ti70  1  0.53522894  0.77443332  0.43743069  1
  Ti  Ti71  1  0.59474115  0.69264173  0.76675243  1
  Ti  Ti72  1  0.88069785  0.06492684  0.03300647  1
  Ti  Ti73  1  0.85355207  0.11292531  0.33818873  1
  Ti  Ti74  1  0.91449097  0.04988480  0.83573684  1
  Ti  Ti75  1  0.94846067  0.42772276  0.10064413  1
  Ti  Ti76  1  0.89427428  0.46825960  0.45836783  1
  Ti  Ti77  1  0.83387642  0.43900704  0.82634387  1
  Ti  Ti78  1  0.93592564  0.65791658  0.06512023  1
  Ti  Ti79  1  0.87771062  0.69646156  0.41359338  1
  Ti  Ti80  1  0.87558476  0.86421400  0.78773752  1
  Ti  Ti81  1  0.22924374  0.28397729  0.14466462  1
  Ti  Ti82  1  0.29127021  0.26850371  0.61956183  1
  Ti  Ti83  1  0.31020499  0.24624727  0.95796795  1
  Ti  Ti84  1  0.26451568  0.62876968  0.28384613  1
  Ti  Ti85  1  0.28730233  0.61983408  0.59926043  1
  Ti  Ti86  1  0.27953014  0.59124001  0.97026677  1
  Ti  Ti87  1  0.27896092  0.89731805  0.31593877  1
  Ti  Ti88  1  0.27781597  0.83364574  0.64973996  1
  Ti  Ti89  1  0.32202306  0.93913117  0.92840166  1
  Ti  Ti90  1  0.56496457  0.25148334  0.27727682  1
  Ti  Ti91  1  0.51588023  0.21379600  0.64682228  1
  Ti  Ti92  1  0.55343169  0.21212971  0.88629922  1
  Ti  Ti93  1  0.60047236  0.67926069  0.26884613  1
  Ti  Ti94  1  0.60326557  0.50294643  0.59973812  1
  Ti  Ti95  1  0.57683747  0.59177651  0.93938787  1
  Ti  Ti96  1  0.50736988  0.88971224  0.28837253  1
  Ti  Ti97  1  0.61267649  0.84074809  0.61286523  1
  Ti  Ti98  1  0.62680842  0.90451865  0.95559810  1
  Ti  Ti99  1  0.90056777  0.27222437  0.22828287  1
  Ti  Ti100  1  0.87208441  0.29623101  0.58753467  1
  Ti  Ti101  1  0.97946978  0.24666437  0.86578971  1
  Ti  Ti102  1  0.99335721  0.69439540  0.24803545  1
  Ti  Ti103  1  0.96407693  0.63382122  0.58166860  1
  Ti  Ti104  1  0.95379540  0.66062292  0.85987330  1
  Ti  Ti105  1  0.87171585  0.96060909  0.21010297  1
  Ti  Ti106  1  0.88436357  0.84633295  0.59970141  1
  Ti  Ti107  1  1.00624336  0.91607102  0.97830064  1
  Co  Co108  1  0.42476686  0.18728890  0.35495146  1
  Co  Co109  1  0.03809292  0.71048600  0.42206887  1
  Co  Co110  1  -0.04707454  0.42008635  0.30848631  1
  Co  Co111  1  0.10563818  0.39887565  0.09448824  1
  Co  Co112  1  0.71300318  0.74855572  0.36284422  1
  Co  Co113  1  0.61702912  0.11372689  0.56856269  1
  Co  Co114  1  0.25811681  0.65032432  0.12052248  1
  Co  Co115  1  0.88128340  0.56733781  0.32150949  1
  Co  Co116  1  0.37211874  0.77419848  0.36485823  1
  Co  Co117  1  0.04378801  0.48348245  0.50415283  1
  Co  Co118  1  0.54022711  -0.03048475  0.52900515  1
  Co  Co119  1  0.06581061  0.06647574  0.73807681  1
  Co  Co120  1  0.59050190  0.60235213  0.10920292  1
  Co  Co121  1  0.24059092  0.49798974  0.83314460  1
  Co  Co122  1  0.26049335  0.29491393  0.30980193  1
  Co  Co123  1  0.66780791  0.64949854  0.62877775  1
  Co  Co124  1  0.15054297  -0.07060600  0.85721100  1
  Co  Co125  1  0.37944652  0.51211463  0.32165294  1
  Co  Co126  1  0.44124344  0.83927917  -0.01350959  1
  Co  Co127  1  0.45327031  0.36733148  0.64505238  1
  Co  Co128  1  0.15104081  0.72828087  0.67515616  1
  Co  Co129  1  0.12751709  0.62597865  0.54141719  1
  Co  Co130  1  0.01206139  0.82561286  0.85048468  1
  Co  Co131  1  0.80594465  -0.06099153  0.92523184  1
  Co  Co132  1  0.62957251  0.90260158  0.41079053  1
  Co  Co133  1  0.70069104  0.27957954  0.89127839  1
  Co  Co134  1  0.40255053  0.72533032  0.71715016  1
  Co  Co135  1  0.59753679  0.35076097  0.55068218  1
  Co  Co136  1  0.04459332  0.08472403  0.04487136  1
  Co  Co137  1  0.37387820  -0.01375569  0.63736606  1
  Co  Co138  1  0.58976450  0.62609397  0.46374197  1
  Co  Co139  1  0.19875038  0.12396118  0.64302213  1
  Co  Co140  1  0.06009849  0.74382098  0.00111078  1
  Co  Co141  1  0.70831315  0.55984700  0.23739551  1
  Co  Co142  1  0.45036086  0.65826314  0.28726801  1
  Co  Co143  1  0.76070474  0.59381834  0.87814205  1
  Co  Co144  1  0.46238074  0.85363319  0.63300487  1
  Co  Co145  1  0.11496209  0.58082661  0.88802159  1
  Co  Co146  1  0.70424798  0.25896278  0.62848569  1
  Co  Co147  1  0.87443122  0.81802204  0.28199200  1
  Co  Co148  1  0.79534432  0.37669386  0.11460087  1
  Co  Co149  1  0.56532947  0.76553930  0.90921641  1
  Co  Co150  1  0.15261720  0.74175650  0.31034558  1
  Co  Co151  1  0.13261313  0.21832343  0.37048125  1
  Co  Co152  1  0.58569303  -0.05826475  0.14670370  1
  Co  Co153  1  0.40823896  0.09253093  0.01092569  1
  Co  Co154  1  0.61481711  0.86964478  0.78074223  1
  Co  Co155  1  0.40111943  0.01954347  0.35700044  1
  Co  Co156  1  0.26127848  0.18438874  0.79547096  1
  Co  Co157  1  0.79650217  0.56740057  0.55675399  1
  Co  Co158  1  0.28133650  0.82499276  0.81189878  1
  Co  Co159  1  0.36897565  0.13723469  0.68604506  1
  Co  Co160  1  0.67854340  0.72535163  0.02456553  1
  Co  Co161  1  -0.01727320  0.74136451  0.70532376  1
  Ni  Ni162  1  0.85861186  0.53894337  0.16933682  1
  Ni  Ni163  1  -0.05150635  0.11665151  0.17889921  1
  Ni  Ni164  1  -0.11679903  0.16672644  0.48505256  1
  Ni  Ni165  1  0.16554980  0.00479324  0.26700044  1
  Ni  Ni166  1  0.25896342  0.08775192  -0.06946224  1
  Ni  Ni167  1  0.24114934  0.54990893  0.43893921  1
  Ni  Ni168  1  -0.05495449  0.34597497  0.73670424  1
  Ni  Ni169  1  0.16141977  0.19408111  0.02564076  1
  Ni  Ni170  1  0.89217784  0.51752192  -0.03729407  1
  Ni  Ni171  1  0.37674028  0.75570576  0.53542600  1
  Ni  Ni172  1  0.62900703  0.14955253  0.16436612  1
  Ni  Ni173  1  0.74259576  0.40515241  0.49619648  1
  Ni  Ni174  1  0.23787916  0.33997785  0.82948031  1
  Ni  Ni175  1  0.28814655  0.23124933  0.45927969  1
  Ni  Ni176  1  0.74748307  0.79077523  0.69894962  1
  Ni  Ni177  1  0.24954144  0.90898840  0.14881119  1
  Ni  Ni178  1  0.64956751  0.51700616  0.78157385  1
  Ni  Ni179  1  0.36744145  0.21007386  0.19900681  1
  Ni  Ni180  1  0.78888870  0.11698534  0.17772483  1
  Ni  Ni181  1  0.94025460  0.17545309  0.71145172  1
  Ni  Ni182  1  0.50787908  0.36879499  0.16453050  1
  Ni  Ni183  1  0.72725408  0.00274934  0.07535017  1
  Ni  Ni184  1  0.19326285  0.47147142  0.57867923  1
  Ni  Ni185  1  0.70016580  0.85556374  0.23776356  1
  Ni  Ni186  1  0.54036530  0.41003338  0.87630719  1
  Ni  Ni187  1  0.59201606  0.31773011  0.01951633  1
  Ni  Ni188  1  0.21688391  0.42622822  -0.01862998  1
  Ni  Ni189  1  0.51290197  0.46561366  0.03026809  1
  Ni  Ni190  1  -0.04735372  0.82172132  0.12614184  1
  Ni  Ni191  1  0.54458466  0.50739945  0.25673737  1
  Ni  Ni192  1  0.74063256  -0.06096996  0.56871510  1
  Ni  Ni193  1  0.36477724  0.36679618  0.07963363  1
  Ni  Ni194  1  0.89465757  0.79002284  -0.03734175  1
  Ni  Ni195  1  -0.08731272  0.00161880  0.67586041  1
  Ni  Ni196  1  0.92245158  0.48233216  0.64119519  1
  Ni  Ni197  1  -0.12658857  0.34869396  -0.03445137  1
  Ni  Ni198  1  0.16943628  0.96690081  0.01596001  1
  Ni  Ni199  1  0.83675767  0.30463727  0.39581302  1
  Ni  Ni200  1  0.22479380  0.45698342  0.30553116  1
  Ni  Ni201  1  0.43712548  0.51160055  0.57807049  1
  Ni  Ni202  1  0.72805244  0.05495028  0.44740002  1
  Ni  Ni203  1  0.64550235  0.35962838  0.37312861  1
  Ni  Ni204  1  0.00228027  0.03075365  0.31004902  1
  Ni  Ni205  1  -0.02017474  0.50938395  0.79570930  1
  Ni  Ni206  1  0.13284513  0.23632532  0.53963219  1
  Ni  Ni207  1  0.03164170  0.53748983  0.20053650  1
  Ni  Ni208  1  0.65162743  0.14730900  0.74638151  1
  Ni  Ni209  1  0.84268094  0.19229818  -0.06559243  1
  Ni  Ni210  1  -0.05512606  0.85313241  0.44207657  1
  Ni  Ni211  1  0.89054987  0.00184857  0.50547432  1
  Ni  Ni212  1  0.73553300  0.23824300  0.27583835  1
  Ni  Ni213  1  0.57387496  0.02937884  0.84773868  1
  Ni  Ni214  1  0.41114873  0.68488715  0.04901503  1
