# generated using pymatgen
data_Ti108Co54Ni53
_symmetry_space_group_name_H-M   'P 1'
_cell_length_a   14.68648557
_cell_length_b   14.64050601
_cell_length_c   14.68639440
_cell_angle_alpha   89.83196234
_cell_angle_beta   89.97901756
_cell_angle_gamma   90.07186912
_symmetry_Int_Tables_number   1
_chemical_formula_structural   Ti108Co54Ni53
_chemical_formula_sum   'Ti108 Co54 Ni53'
_cell_volume   3157.81670430
_cell_formula_units_Z   1
loop_
 _symmetry_equiv_pos_site_id
 _symmetry_equiv_pos_as_xyz
  1  'x, y, z'
loop_
 _atom_site_type_symbol
 _atom_site_label
 _atom_site_symmetry_multiplicity
 _atom_site_fract_x
 _atom_site_fract_y
 _atom_site_fract_z
 _atom_site_occupancy
  Ti  Ti0  1  0.00538333  0.09117743  0.30127019  1
  Ti  Ti1  1  0.05108316  0.04261706  0.59474243  1
  Ti  Ti2  1  0.04743110  0.07348299  0.95938543  1
  Ti  Ti3  1  0.02856980  0.45668967  0.31251416  1
  Ti  Ti4  1  0.08431102  0.40511120  0.62811125  1
  Ti  Ti5  1  0.08351144  0.41491964  0.96611500  1
  Ti  Ti6  1  0.07458550  0.78808792  0.27498497  1
  Ti  Ti7  1  0.06129244  0.71856522  0.49962332  1
  Ti  Ti8  1  0.00024312  0.77463949  0.93484137  1
  Ti  Ti9  1  0.46672081  0.18658558  0.25358990  1
  Ti  Ti10  1  0.43693012  0.11867227  0.62395570  1
  Ti  Ti11  1  0.46004293  0.10328245  0.90489230  1
  Ti  Ti12  1  0.36043654  0.41293697  0.20792897  1
  Ti  Ti13  1  0.46283433  0.42571669  0.63868014  1
  Ti  Ti14  1  0.39108473  0.52589130  0.95400516  1
  Ti  Ti15  1  0.39694450  0.75293730  0.27758482  1
  Ti  Ti16  1  0.40383757  0.81945415  0.52895094  1
  Ti  Ti17  1  0.48186074  0.71654661  0.94689173  1
  Ti  Ti18  1  0.67540620  0.02672782  0.22946489  1
  Ti  Ti19  1  0.70985078  0.12882697  0.56731064  1
  Ti  Ti20  1  0.77677907  0.09735224  0.94998461  1
  Ti  Ti21  1  0.75479533  0.41553987  0.21264679  1
  Ti  Ti22  1  0.86910330  0.40056223  0.63391505  1
  Ti  Ti23  1  0.79551088  0.31432601  0.91062737  1
  Ti  Ti24  1  0.74549440  0.77626271  0.22654568  1
  Ti  Ti25  1  0.75175818  0.76402803  0.65028281  1
  Ti  Ti26  1  0.69056238  0.73912965  0.86966738  1
  Ti  Ti27  1  0.02874803  0.23434502  0.09403749  1
  Ti  Ti28  1  0.02570667  0.27059627  0.34024826  1
  Ti  Ti29  1  0.14422657  0.20205824  0.80100968  1
  Ti  Ti30  1  0.10304644  0.60455532  0.03449581  1
  Ti  Ti31  1  0.16258801  0.58861579  0.38799913  1
  Ti  Ti32  1  0.12005144  0.53039383  0.78673843  1
  Ti  Ti33  1  0.08765363  0.90009339  0.09095565  1
  Ti  Ti34  1  0.10449709  0.92700179  0.40134974  1
  Ti  Ti35  1  0.08712375  0.91065950  0.75434127  1
  Ti  Ti36  1  0.35477446  0.21339832  0.04393462  1
  Ti  Ti37  1  0.37883763  0.17673841  0.43980687  1
  Ti  Ti38  1  0.36943392  0.24664755  0.76180486  1
  Ti  Ti39  1  0.48316103  0.58359982  0.12131631  1
  Ti  Ti40  1  0.42948600  0.54950713  0.32931986  1
  Ti  Ti41  1  0.39540578  0.59912387  0.77512574  1
  Ti  Ti42  1  0.40200209  0.92308353  0.11489365  1
  Ti  Ti43  1  0.36396627  0.99542928  0.45973284  1
  Ti  Ti44  1  0.38847220  0.86638172  0.74546411  1
  Ti  Ti45  1  0.72119297  0.26820567  0.08156940  1
  Ti  Ti46  1  0.71412596  0.27335312  0.43775921  1
  Ti  Ti47  1  0.71094481  0.20456094  0.75546347  1
  Ti  Ti48  1  0.76334437  0.61245542  0.03076714  1
  Ti  Ti49  1  0.80845613  0.65463692  0.37932371  1
  Ti  Ti50  1  0.76873204  0.58236376  0.75463591  1
  Ti  Ti51  1  0.73349832  0.92148586  0.03734100  1
  Ti  Ti52  1  0.74440456  0.90934605  0.37031747  1
  Ti  Ti53  1  0.76340187  0.95684204  0.69790398  1
  Ti  Ti54  1  0.21588711  0.07772032  0.09974822  1
  Ti  Ti55  1  0.20435452  0.09240796  0.35932825  1
  Ti  Ti56  1  0.30467962  0.05496587  0.76847089  1
  Ti  Ti57  1  0.20890128  0.32857059  0.09905878  1
  Ti  Ti58  1  0.31289957  0.41687157  0.49171062  1
  Ti  Ti59  1  0.27357304  0.40883330  0.69003681  1
  Ti  Ti60  1  0.25083491  0.74934635  0.12969544  1
  Ti  Ti61  1  0.32539584  0.67526402  0.43967268  1
  Ti  Ti62  1  0.23551339  0.71943880  0.72729793  1
  Ti  Ti63  1  0.54557440  0.12728329  0.08552123  1
  Ti  Ti64  1  0.54607217  0.03930684  0.38048456  1
  Ti  Ti65  1  0.64032103  0.04410809  0.82564457  1
  Ti  Ti66  1  0.54449299  0.35835431  0.12745345  1
  Ti  Ti67  1  0.53119859  0.40221234  0.42866290  1
  Ti  Ti68  1  0.69106660  0.40548124  0.77861477  1
  Ti  Ti69  1  0.62433058  0.74508877  0.07936422  1
  Ti  Ti70  1  0.55722957  0.83200440  0.42796489  1
  Ti  Ti71  1  0.59504271  0.87531416  0.73899824  1
  Ti  Ti72  1  0.87771212  0.06794247  0.12756715  1
  Ti  Ti73  1  0.87600344  0.13038522  0.45100013  1
  Ti  Ti74  1  0.88851218  0.13033081  0.65681380  1
  Ti  Ti75  1  0.92396872  0.48855918  0.11266989  1
  Ti  Ti76  1  0.88487991  0.46796652  0.43807372  1
  Ti  Ti77  1  0.97991262  0.38047968  0.81048895  1
  Ti  Ti78  1  0.90078531  0.78667936  0.11094028  1
  Ti  Ti79  1  0.91259387  0.82635048  0.42800487  1
  Ti  Ti80  1  0.95030634  0.69961784  0.74674405  1
  Ti  Ti81  1  0.28740155  0.22225070  0.24714390  1
  Ti  Ti82  1  0.19376921  0.23453086  0.49877780  1
  Ti  Ti83  1  0.28757958  0.33366606  0.90964495  1
  Ti  Ti84  1  0.17499190  0.49765585  0.18557063  1
  Ti  Ti85  1  0.32522521  0.57741579  0.60513591  1
  Ti  Ti86  1  0.23413588  0.63874580  0.90518018  1
  Ti  Ti87  1  0.26738167  0.92268337  0.26058356  1
  Ti  Ti88  1  0.22068174  0.85675077  0.59004491  1
  Ti  Ti89  1  0.25994746  0.90404366  0.90543696  1
  Ti  Ti90  1  0.64555376  0.21707698  0.25294417  1
  Ti  Ti91  1  0.56997394  0.26462624  0.63113577  1
  Ti  Ti92  1  0.53502659  0.32243906  0.83724219  1
  Ti  Ti93  1  0.67272033  0.59103919  0.22551625  1
  Ti  Ti94  1  0.51889414  0.64233741  0.58777601  1
  Ti  Ti95  1  0.57237157  0.56439235  0.83643083  1
  Ti  Ti96  1  0.56916199  0.85069274  0.24277075  1
  Ti  Ti97  1  0.66059166  0.94943815  0.53632723  1
  Ti  Ti98  1  0.51275570  0.91221142  0.91970905  1
  Ti  Ti99  1  0.82548261  0.20609736  0.25869645  1
  Ti  Ti100  1  1.00273182  0.26493528  0.53415551  1
  Ti  Ti101  1  0.93658525  0.20236365  0.87108298  1
  Ti  Ti102  1  0.98697483  0.62498145  0.22730221  1
  Ti  Ti103  1  0.94959994  0.57573348  0.58794091  1
  Ti  Ti104  1  0.87987515  0.50355797  0.91220375  1
  Ti  Ti105  1  0.94063725  0.92122698  0.25240653  1
  Ti  Ti106  1  0.92313012  0.84692784  0.61255157  1
  Ti  Ti107  1  0.89780548  0.94222196  0.87630352  1
  Co  Co108  1  0.43027961  0.43690515  0.79840937  1
  Co  Co109  1  0.37935106  0.39148432  0.05168540  1
  Co  Co110  1  0.14669083  0.65166967  0.21251507  1
  Co  Co111  1  0.87204210  0.20022009  0.03353216  1
  Co  Co112  1  0.08116199  0.91531491  0.92227743  1
  Co  Co113  1  0.04630824  0.51282877  0.47896402  1
  Co  Co114  1  0.61708993  0.02973985  -0.01447232  1
  Co  Co115  1  0.60014310  0.60732859  -0.00685258  1
  Co  Co116  1  0.64010330  0.36466268  0.31034378  1
  Co  Co117  1  0.83967860  0.81741724  0.78396120  1
  Co  Co118  1  0.70626231  0.50096359  0.91546619  1
  Co  Co119  1  0.54302193  0.68635221  0.24569228  1
  Co  Co120  1  0.11052443  0.18670758  0.63704105  1
  Co  Co121  1  0.90393308  0.75610171  0.28428014  1
  Co  Co122  1  0.06213839  0.88867616  0.54839747  1
  Co  Co123  1  0.15917724  0.03315408  0.83814085  1
  Co  Co124  1  0.05973045  0.74125057  0.10342542  1
  Co  Co125  1  -0.06278786  0.35285862  -0.00888955  1
  Co  Co126  1  0.87388035  0.30704008  0.45116627  1
  Co  Co127  1  0.55257496  0.12349005  0.51314247  1
  Co  Co128  1  0.06530032  0.12113626  0.45601738  1
  Co  Co129  1  -0.02868541  0.63318832  0.39540802  1
  Co  Co130  1  0.49054734  0.68452608  0.41777139  1
  Co  Co131  1  -0.11519900  0.35665556  0.30548764  1
  Co  Co132  1  0.29397081  0.60627749  0.26632304  1
  Co  Co133  1  0.83480571  0.29418165  0.74974985  1
  Co  Co134  1  0.21387235  0.69220052  0.55657335  1
  Co  Co135  1  0.82743142  0.63914458  0.17875901  1
  Co  Co136  1  0.69700229  0.10187146  0.39643332  1
  Co  Co137  1  0.04730929  0.39010701  0.14218293  1
  Co  Co138  1  0.36346805  0.06587976  0.30659281  1
  Co  Co139  1  0.65552138  0.72853965  0.35153377  1
  Co  Co140  1  0.44139281  0.53513887  0.49279397  1
  Co  Co141  1  0.01905740  0.58987385  0.89371338  1
  Co  Co142  1  0.71982604  0.10987218  0.10435680  1
  Co  Co143  1  0.65073619  0.35447591  -0.03607894  1
  Co  Co144  1  0.86215837  0.51973404  0.28381310  1
  Co  Co145  1  0.48525942  0.34177740  0.28273772  1
  Co  Co146  1  0.34214286  0.68194721  0.01770376  1
  Co  Co147  1  0.85381006  0.66459170  0.87141224  1
  Co  Co148  1  0.35483024  0.02034099  -0.01065905  1
  Co  Co149  1  0.54897895  0.48548333  0.23923781  1
  Co  Co150  1  0.18688841  0.50831092  0.55834329  1
  Co  Co151  1  0.17761556  0.77631644  -0.02279832  1
  Co  Co152  1  0.34673422  0.75434189  0.85940680  1
  Co  Co153  1  0.55771390  0.22996996  0.39080304  1
  Co  Co154  1  0.24582911  0.91151831  0.06976504  1
  Co  Co155  1  -0.04553772  -0.01650175  0.43152436  1
  Co  Co156  1  0.71533522  0.90826545  0.87265329  1
  Co  Co157  1  0.78952110  0.42631699  0.04139626  1
  Co  Co158  1  0.79228623  -0.07379642  0.18790483  1
  Co  Co159  1  0.46591019  0.28515338  0.51611254  1
  Co  Co160  1  0.64420431  0.48177413  0.08991481  1
  Co  Co161  1  0.81472462  0.24982289  0.58588496  1
  Ni  Ni162  1  0.63123992  0.19174648  0.92316908  1
  Ni  Ni163  1  0.53282418  0.16706125  0.76496658  1
  Ni  Ni164  1  0.82704662  -0.01357331  0.53788147  1
  Ni  Ni165  1  0.15999551  0.21974501  -0.01701827  1
  Ni  Ni166  1  0.28371386  0.15141574  0.90224823  1
  Ni  Ni167  1  0.33204198  0.27758427  0.60047893  1
  Ni  Ni168  1  -0.01311588  0.25861998  0.70322610  1
  Ni  Ni169  1  0.38939669  0.72688814  0.66040944  1
  Ni  Ni170  1  -0.07068974  -0.03135340  0.71409310  1
  Ni  Ni171  1  0.86619508  0.70237893  0.53737994  1
  Ni  Ni172  1  0.56849940  0.90849430  0.08528928  1
  Ni  Ni173  1  0.12934341  0.17815325  0.21836263  1
  Ni  Ni174  1  0.63003279  0.67631510  0.71344560  1
  Ni  Ni175  1  0.50422499  0.74310493  0.78709566  1
  Ni  Ni176  1  0.27442973  0.48383719  0.83651623  1
  Ni  Ni177  1  0.73425243  0.79153236  0.48672004  1
  Ni  Ni178  1  0.26612606  0.12678884  0.61052251  1
  Ni  Ni179  1  0.20052515  0.00823506  0.51326581  1
  Ni  Ni180  1  0.23216105  0.47535726  0.00114062  1
  Ni  Ni181  1  0.11712673  -0.02221876  0.24037486  1
  Ni  Ni182  1  0.46109688  0.76626528  0.11480060  1
  Ni  Ni183  1  0.47591777  0.00593610  0.76145734  1
  Ni  Ni184  1  -0.06747412  0.64282114  0.02999009  1
  Ni  Ni185  1  -0.06857997  -0.06248154  0.03692133  1
  Ni  Ni186  1  0.22993600  0.75325297  0.31018514  1
  Ni  Ni187  1  0.94195443  0.52882360  0.74738234  1
  Ni  Ni188  1  0.82654274  0.07534859  0.79869131  1
  Ni  Ni189  1  0.04143006  0.06206162  0.12816847  1
  Ni  Ni190  1  0.52930815  0.45161891  -0.03431569  1
  Ni  Ni191  1  0.42648969  0.90937350  0.32555218  1
  Ni  Ni192  1  0.13573227  0.38301207  0.44010822  1
  Ni  Ni193  1  0.31699555  0.55117071  0.11270380  1
  Ni  Ni194  1  0.15942896  0.34093260  0.26594374  1
  Ni  Ni195  1  0.83520071  0.04225815  0.30958677  1
  Ni  Ni196  1  0.10182428  0.72090659  0.82077207  1
  Ni  Ni197  1  0.35367968  0.32189330  0.36899247  1
  Ni  Ni198  1  0.50655822  0.01359375  0.21541471  1
  Ni  Ni199  1  0.08519024  0.77244859  0.66053472  1
  Ni  Ni200  1  0.33770002  -0.02504724  0.62464961  1
  Ni  Ni201  1  0.01706833  0.09310958  0.77083098  1
  Ni  Ni202  1  0.27427203  0.85757820  0.42225149  1
  Ni  Ni203  1  0.60123273  0.05184865  0.66132498  1
  Ni  Ni204  1  0.37689360  0.08903869  0.14553210  1
  Ni  Ni205  1  0.59891123  0.50846263  0.68305190  1
  Ni  Ni206  1  0.49719099  -0.04150596  0.56689060  1
  Ni  Ni207  1  0.82510447  0.80163428  -0.04349024  1
  Ni  Ni208  1  0.15455882  0.36464525  0.79796495  1
  Ni  Ni209  1  0.25539275  0.45695173  0.33682758  1
  Ni  Ni210  1  0.09967982  0.61156515  0.65192715  1
  Ni  Ni211  1  0.57288099  0.80184260  0.59794447  1
  Ni  Ni212  1  0.49497319  0.27494294  -0.01099613  1
  Ni  Ni213  1  0.70127951  0.35558481  0.61984959  1
  Ni  Ni214  1  0.88685272  0.32092395  0.14576880  1
