# generated using pymatgen
data_Ti108Co54Ni53
_symmetry_space_group_name_H-M   'P 1'
_cell_length_a   14.63655368
_cell_length_b   14.64348625
_cell_length_c   14.69054628
_cell_angle_alpha   89.60749415
_cell_angle_beta   89.85422576
_cell_angle_gamma   90.30958759
_symmetry_Int_Tables_number   1
_chemical_formula_structural   Ti108Co54Ni53
_chemical_formula_sum   'Ti108 Co54 Ni53'
_cell_volume   3148.49698472
_cell_formula_units_Z   1
loop_
 _symmetry_equiv_pos_site_id
 _symmetry_equiv_pos_as_xyz
  1  'x, y, z'
loop_
 _atom_site_type_symbol
 _atom_site_label
 _atom_site_symmetry_multiplicity
 _atom_site_fract_x
 _atom_site_fract_y
 _atom_site_fract_z
 _atom_site_occupancy
  Ti  Ti0  1  0.15312689  0.08268025  0.20410205  1
  Ti  Ti1  1  0.05365913  0.13300390  0.59112892  1
  Ti  Ti2  1  0.03211730  0.12042394  0.91457624  1
  Ti  Ti3  1  0.02456856  0.43583167  0.26285999  1
  Ti  Ti4  1  0.10027815  0.47157452  0.57437492  1
  Ti  Ti5  1  0.09247621  0.45943341  0.91420046  1
  Ti  Ti6  1  0.05913053  0.73854147  0.22442776  1
  Ti  Ti7  1  0.10809828  0.80624820  0.55722246  1
  Ti  Ti8  1  0.03484797  0.77559728  0.99355015  1
  Ti  Ti9  1  0.41450723  0.13038044  0.19324149  1
  Ti  Ti10  1  0.42372158  0.15047706  0.61729053  1
  Ti  Ti11  1  0.37934681  0.12221952  0.87352720  1
  Ti  Ti12  1  0.33398664  0.38643808  0.34078309  1
  Ti  Ti13  1  0.34751192  0.46981961  0.53497203  1
  Ti  Ti14  1  0.51803378  0.40008208  0.91766290  1
  Ti  Ti15  1  0.52341053  0.80166915  0.19984493  1
  Ti  Ti16  1  0.49752624  0.72633229  0.66556293  1
  Ti  Ti17  1  0.43261581  0.68648144  0.88744794  1
  Ti  Ti18  1  0.72852417  0.11668942  0.19997048  1
  Ti  Ti19  1  0.70638335  0.07915282  0.53504790  1
  Ti  Ti20  1  0.70755590  -0.00776022  0.87016620  1
  Ti  Ti21  1  0.82216208  0.40969066  0.30976830  1
  Ti  Ti22  1  0.74917735  0.39782696  0.65356274  1
  Ti  Ti23  1  0.73127466  0.40798366  0.92995316  1
  Ti  Ti24  1  0.71684497  0.79771184  0.23938480  1
  Ti  Ti25  1  0.74726397  0.70770029  0.63633951  1
  Ti  Ti26  1  0.74083916  0.67017083  0.94870191  1
  Ti  Ti27  1  0.05708319  0.25754975  0.17372924  1
  Ti  Ti28  1  0.12294818  0.29091882  0.37881668  1
  Ti  Ti29  1  0.12094634  0.23376820  0.74446956  1
  Ti  Ti30  1  0.06702487  0.56176617  0.12579496  1
  Ti  Ti31  1  0.01650230  0.55858408  0.42079498  1
  Ti  Ti32  1  0.06730884  0.63260141  0.75999147  1
  Ti  Ti33  1  0.10131086  0.90399271  0.14550381  1
  Ti  Ti34  1  0.10159220  0.90733049  0.37025512  1
  Ti  Ti35  1  0.04641478  0.91027371  0.82903356  1
  Ti  Ti36  1  0.37812587  0.28195013  0.04940530  1
  Ti  Ti37  1  0.44444112  0.20898617  0.36686906  1
  Ti  Ti38  1  0.49819222  0.27409554  0.75909488  1
  Ti  Ti39  1  0.35810167  0.59652062  0.06461789  1
  Ti  Ti40  1  0.49008627  0.66048152  0.34318349  1
  Ti  Ti41  1  0.38419965  0.46153624  0.77193769  1
  Ti  Ti42  1  0.43804392  0.94982050  0.09611279  1
  Ti  Ti43  1  0.45423397  0.97606186  0.36549651  1
  Ti  Ti44  1  0.41502815  0.91007701  0.78862926  1
  Ti  Ti45  1  0.78538860  0.25043227  0.07534752  1
  Ti  Ti46  1  0.82741611  0.22588640  0.42285466  1
  Ti  Ti47  1  0.73177810  0.19872384  0.73489216  1
  Ti  Ti48  1  0.73317723  0.60752277  0.15035507  1
  Ti  Ti49  1  0.75430941  0.59932908  0.34643126  1
  Ti  Ti50  1  0.75520202  0.54841727  0.78015673  1
  Ti  Ti51  1  0.78052797  0.92880127  0.08811093  1
  Ti  Ti52  1  0.76359504  0.90982428  0.40649392  1
  Ti  Ti53  1  0.75148137  0.89867503  0.68170389  1
  Ti  Ti54  1  0.28408940  0.10491363  0.04743536  1
  Ti  Ti55  1  0.17474697  0.09440137  0.42081468  1
  Ti  Ti56  1  0.30911147  0.23470216  0.74995095  1
  Ti  Ti57  1  0.20547802  0.40615673  0.07354417  1
  Ti  Ti58  1  0.19999244  0.53748796  0.42004911  1
  Ti  Ti59  1  0.23663726  0.39152545  0.67073351  1
  Ti  Ti60  1  0.28764391  0.80503234  0.10964514  1
  Ti  Ti61  1  0.27767162  0.69615285  0.32366130  1
  Ti  Ti62  1  0.24984362  0.77637998  0.80606604  1
  Ti  Ti63  1  0.65698438  0.09304781  0.02302045  1
  Ti  Ti64  1  0.65013660  0.19165651  0.36885869  1
  Ti  Ti65  1  0.53954382  0.07038451  0.77504335  1
  Ti  Ti66  1  0.53180208  0.41553272  0.11734009  1
  Ti  Ti67  1  0.51202803  0.46745216  0.42390395  1
  Ti  Ti68  1  0.52540880  0.46140886  0.62465198  1
  Ti  Ti69  1  0.57965941  0.69290133  0.04738992  1
  Ti  Ti70  1  0.65528868  0.73397569  0.45675681  1
  Ti  Ti71  1  0.62892364  0.74349830  0.80164750  1
  Ti  Ti72  1  0.95926311  0.03951426  0.10862826  1
  Ti  Ti73  1  0.94466898  0.04658807  0.42247956  1
  Ti  Ti74  1  0.87212772  0.06268032  0.78483800  1
  Ti  Ti75  1  0.95711905  0.41432084  0.04704911  1
  Ti  Ti76  1  0.97118252  0.37485845  0.45795189  1
  Ti  Ti77  1  0.94150221  0.45974386  0.74825255  1
  Ti  Ti78  1  0.90242532  0.66841205  0.07587517  1
  Ti  Ti79  1  0.97155885  0.74032249  0.43208993  1
  Ti  Ti80  1  0.92876865  0.78982949  0.65887120  1
  Ti  Ti81  1  0.26168073  0.23687807  0.24368362  1
  Ti  Ti82  1  0.24674733  0.23634266  0.56306699  1
  Ti  Ti83  1  0.20541096  0.24780789  0.92673149  1
  Ti  Ti84  1  0.27252857  0.52563810  0.22773128  1
  Ti  Ti85  1  0.23270538  0.59740446  0.65226924  1
  Ti  Ti86  1  0.24621943  0.57019472  0.85512360  1
  Ti  Ti87  1  0.29268716  0.96337349  0.23193940  1
  Ti  Ti88  1  0.17151497  0.97079039  0.69349887  1
  Ti  Ti89  1  0.23393031  0.97024772  0.88919069  1
  Ti  Ti90  1  0.58345008  0.23588910  0.16720037  1
  Ti  Ti91  1  0.57394445  0.29218273  0.51428334  1
  Ti  Ti92  1  0.54389230  0.21086079  0.93380183  1
  Ti  Ti93  1  0.62826182  0.48345028  0.25908281  1
  Ti  Ti94  1  0.68035964  0.53179514  0.51355093  1
  Ti  Ti95  1  0.59629783  0.57185133  0.88836637  1
  Ti  Ti96  1  0.64074882  0.96502137  0.26120033  1
  Ti  Ti97  1  0.54746965  0.97907769  0.59461647  1
  Ti  Ti98  1  0.54298174  0.86289172  0.93459305  1
  Ti  Ti99  1  0.90088168  0.15068880  0.24878452  1
  Ti  Ti100  1  0.89844700  0.26833019  0.60740468  1
  Ti  Ti101  1  0.90056954  0.26352025  0.90829335  1
  Ti  Ti102  1  0.92347000  0.61116062  0.27408455  1
  Ti  Ti103  1  0.96093728  0.61358009  0.59075930  1
  Ti  Ti104  1  0.90704048  0.60954629  0.89254797  1
  Ti  Ti105  1  0.92709392  0.86640546  0.28259295  1
  Ti  Ti106  1  0.97231764  0.96677188  0.64116822  1
  Ti  Ti107  1  0.90501155  0.94607386  0.94920030  1
  Co  Co108  1  0.36904096  0.43607799  0.11558831  1
  Co  Co109  1  0.13279053  0.69421243  0.89227445  1
  Co  Co110  1  -0.00761496  0.20046118  0.46065920  1
  Co  Co111  1  0.01380430  0.00535447  0.26467331  1
  Co  Co112  1  -0.07449908  0.44583076  0.58877100  1
  Co  Co113  1  0.54058660  0.02353366  0.93061278  1
  Co  Co114  1  0.58046958  0.83509042  0.35546005  1
  Co  Co115  1  0.20579230  0.24356654  0.09622932  1
  Co  Co116  1  0.54801111  0.09410011  0.29982577  1
  Co  Co117  1  0.79905265  0.36896012  0.50103999  1
  Co  Co118  1  0.63766765  0.30198254  0.02157305  1
  Co  Co119  1  0.28166324  0.70114785  -0.03193246  1
  Co  Co120  1  0.53422820  0.58918597  0.16166595  1
  Co  Co121  1  0.82256304  0.81069446  0.53166105  1
  Co  Co122  1  0.52527746  0.11340141  0.47921608  1
  Co  Co123  1  0.03941730  0.32788286  0.84292730  1
  Co  Co124  1  0.35375797  0.83699816  0.92352844  1
  Co  Co125  1  0.68854062  0.03893995  0.70739585  1
  Co  Co126  1  0.85686806  0.11151253  0.62958866  1
  Co  Co127  1  0.71474171  0.84401384  0.92471374  1
  Co  Co128  1  -0.05544544  0.20014117  0.06945217  1
  Co  Co129  1  0.35753431  0.11029422  0.47926699  1
  Co  Co130  1  0.86518871  0.78918007  -0.04280538  1
  Co  Co131  1  0.53206892  0.61128460  0.51035491  1
  Co  Co132  1  0.03400771  0.59626469  -0.02643169  1
  Co  Co133  1  0.86206005  0.74081030  0.20559159  1
  Co  Co134  1  0.80709994  0.54793920  0.62362404  1
  Co  Co135  1  0.72972680  0.23712490  0.56646700  1
  Co  Co136  1  0.48397321  0.53429881  0.00084388  1
  Co  Co137  1  0.66936681  0.88078086  0.54038484  1
  Co  Co138  1  0.27965816  0.23253044  0.40576478  1
  Co  Co139  1  0.38534441  -0.01531571  -0.04667811  1
  Co  Co140  1  0.61259682  -0.00827198  0.42340244  1
  Co  Co141  1  0.05581051  0.15067156  0.31693479  1
  Co  Co142  1  0.76911718  0.07559150  0.36486050  1
  Co  Co143  1  0.73812710  0.77075706  0.07733974  1
  Co  Co144  1  0.64752605  0.30564859  0.83185527  1
  Co  Co145  1  -0.05914181  0.85025821  0.10417867  1
  Co  Co146  1  -0.10778844  0.63927858  0.73275723  1
  Co  Co147  1  0.10536732  -0.01556493  0.52831862  1
  Co  Co148  1  0.73235657  0.28167961  0.25267157  1
  Co  Co149  1  0.62592245  0.67038007  0.27196917  1
  Co  Co150  1  0.31845004  0.08690932  0.32543816  1
  Co  Co151  1  0.35277190  0.65809335  0.75169304  1
  Co  Co152  1  0.12636263  0.72252188  0.39115679  1
  Co  Co153  1  0.59006770  0.15434865  0.63197311  1
  Co  Co154  1  0.23758386  -0.03841976  0.06653350  1
  Co  Co155  1  0.45616016  0.11862422  0.03634584  1
  Co  Co156  1  0.10776443  0.12221620  0.05212288  1
  Co  Co157  1  0.11764996  0.64339036  0.53645422  1
  Co  Co158  1  -0.10238208  0.44156013  0.90114060  1
  Co  Co159  1  0.61724394  0.31462160  0.66595141  1
  Co  Co160  1  0.17727166  0.39178937  0.23819353  1
  Co  Co161  1  0.80980964  0.34485167  0.79691968  1
  Ni  Ni162  1  -0.04576145  0.28757708  0.32010435  1
  Ni  Ni163  1  0.55219902  0.33944206  0.31332644  1
  Ni  Ni164  1  0.72781852  0.40831009  0.13679890  1
  Ni  Ni165  1  0.21756087  0.37830646  0.48338551  1
  Ni  Ni166  1  0.56196758  0.05435496  0.14675881  1
  Ni  Ni167  1  0.04866187  0.07080237  0.75744094  1
  Ni  Ni168  1  0.43331300  0.76414977  0.04610753  1
  Ni  Ni169  1  0.11718796  0.58954947  0.28269612  1
  Ni  Ni170  1  0.82445599  0.65498862  0.49380636  1
  Ni  Ni171  1  0.82875669  0.08826893  0.00424037  1
  Ni  Ni172  1  0.12071899  0.47431970  0.74944788  1
  Ni  Ni173  1  -0.03168159  0.89357121  0.48706882  1
  Ni  Ni174  1  0.39318991  0.68121555  0.19869061  1
  Ni  Ni175  1  0.60292193  0.45155632  0.76967917  1
  Ni  Ni176  1  0.67487017  0.40124490  0.40233197  1
  Ni  Ni177  1  0.83274883  -0.02796906  0.54624657  1
  Ni  Ni178  1  0.79613713  0.74832690  0.80205029  1
  Ni  Ni179  1  0.33207831  0.04651862  0.73008431  1
  Ni  Ni180  1  0.10231938  0.79735230  0.72167187  1
  Ni  Ni181  1  0.40858356  0.59064774  0.61995764  1
  Ni  Ni182  1  0.20700542  0.66922526  0.15997203  1
  Ni  Ni183  1  0.18655605  0.83586700  -0.02907450  1
  Ni  Ni184  1  0.03960612  0.34591657  0.66406959  1
  Ni  Ni185  1  0.64262792  0.51862818  0.04427935  1
  Ni  Ni186  1  0.20270415  0.11143069  0.81828016  1
  Ni  Ni187  1  0.38103169  0.83073463  0.27629089  1
  Ni  Ni188  1  0.39926270  0.33572053  0.64177235  1
  Ni  Ni189  1  0.87316859  -0.10836254  0.79732151  1
  Ni  Ni190  1  0.19447444  0.56863452  0.01739523  1
  Ni  Ni191  1  0.36500874  0.55813761  0.39034066  1
  Ni  Ni192  1  0.42463157  0.30922054  0.21293915  1
  Ni  Ni193  1  0.06864494  0.29162959  0.00507204  1
  Ni  Ni194  1  -0.05108954  0.20952489  0.75074591  1
  Ni  Ni195  1  -0.12537624  0.49711474  0.16961277  1
  Ni  Ni196  1  0.58055751  0.89595737  0.74662880  1
  Ni  Ni197  1  0.23231031  0.38460646  0.83904761  1
  Ni  Ni198  1  0.20195872  0.82526803  0.26829879  1
  Ni  Ni199  1  0.82005091  0.75429424  0.36638578  1
  Ni  Ni200  1  0.33552322  0.45400340  -0.04668462  1
  Ni  Ni201  1  0.85742843  0.50700988  0.44732870  1
  Ni  Ni202  1  -0.02879660  0.75804735  0.82894589  1
  Ni  Ni203  1  0.07681266  -0.03486690  -0.01068382  1
  Ni  Ni204  1  0.49709877  0.57967016  0.76114625  1
  Ni  Ni205  1  0.23659514  0.07879170  0.59207242  1
  Ni  Ni206  1  0.74133656  0.19756023  0.90976230  1
  Ni  Ni207  1  0.80951207  0.52536231  0.01746268  1
  Ni  Ni208  1  0.38066317  0.30592375  0.88518733  1
  Ni  Ni209  1  0.40080993  0.31542625  0.48518868  1
  Ni  Ni210  1  0.88935591  0.32758356  0.17556606  1
  Ni  Ni211  1  0.44875764  0.48696419  0.26154506  1
  Ni  Ni212  1  0.82946181  -0.01427369  0.24396337  1
  Ni  Ni213  1  0.62123197  0.60509107  0.66179699  1
  Ni  Ni214  1  0.61464851  -0.10190791  0.08554403  1
