# generated using pymatgen
data_Ti108Co54Ni53
_symmetry_space_group_name_H-M   'P 1'
_cell_length_a   14.62659077
_cell_length_b   14.54874260
_cell_length_c   14.61324486
_cell_angle_alpha   90.11176386
_cell_angle_beta   89.62721512
_cell_angle_gamma   90.13211219
_symmetry_Int_Tables_number   1
_chemical_formula_structural   Ti108Co54Ni53
_chemical_formula_sum   'Ti108 Co54 Ni53'
_cell_volume   3109.59673682
_cell_formula_units_Z   1
loop_
 _symmetry_equiv_pos_site_id
 _symmetry_equiv_pos_as_xyz
  1  'x, y, z'
loop_
 _atom_site_type_symbol
 _atom_site_label
 _atom_site_symmetry_multiplicity
 _atom_site_fract_x
 _atom_site_fract_y
 _atom_site_fract_z
 _atom_site_occupancy
  Ti  Ti0  1  0.09032864  0.09397125  0.29528263  1
  Ti  Ti1  1  0.11455301  0.18804236  0.50900206  1
  Ti  Ti2  1  0.12525137  0.09226788  0.90784560  1
  Ti  Ti3  1  0.14164303  0.44727940  0.24483845  1
  Ti  Ti4  1  0.17606068  0.42693198  0.55883502  1
  Ti  Ti5  1  0.12942023  0.33367234  0.92229925  1
  Ti  Ti6  1  0.00780505  0.68515715  0.18429165  1
  Ti  Ti7  1  0.16506292  0.82118212  0.50710888  1
  Ti  Ti8  1  0.05698688  0.67810419  0.98818541  1
  Ti  Ti9  1  0.41376398  0.13019028  0.24993060  1
  Ti  Ti10  1  0.40578623  0.08780809  0.59335848  1
  Ti  Ti11  1  0.48040388  0.02315173  0.97601159  1
  Ti  Ti12  1  0.43256010  0.43374708  0.19983564  1
  Ti  Ti13  1  0.36182980  0.47209541  0.62713922  1
  Ti  Ti14  1  0.36971978  0.45991467  0.90980296  1
  Ti  Ti15  1  0.33977603  0.72001641  0.18975654  1
  Ti  Ti16  1  0.40645648  0.80249827  0.61713373  1
  Ti  Ti17  1  0.38494114  0.74085070  0.93786467  1
  Ti  Ti18  1  0.68267553  0.03680266  0.22317692  1
  Ti  Ti19  1  0.71592679  0.06308795  0.62905402  1
  Ti  Ti20  1  0.70410197  0.13380378  0.96933141  1
  Ti  Ti21  1  0.76837174  0.33520643  0.23431763  1
  Ti  Ti22  1  0.67297971  0.42218069  0.50832922  1
  Ti  Ti23  1  0.79733978  0.41589272  0.86673207  1
  Ti  Ti24  1  0.67143259  0.72387155  0.20197031  1
  Ti  Ti25  1  0.76013507  0.57589856  0.59948376  1
  Ti  Ti26  1  0.75553857  0.66922101  0.94149242  1
  Ti  Ti27  1  0.06550355  0.21121789  0.05686718  1
  Ti  Ti28  1  0.05924094  0.31525849  0.36898435  1
  Ti  Ti29  1  0.04579466  0.17654864  0.72671081  1
  Ti  Ti30  1  0.16713005  0.60589167  0.13097913  1
  Ti  Ti31  1  0.08788465  0.62511148  0.49324577  1
  Ti  Ti32  1  0.06605933  0.64369875  0.79941449  1
  Ti  Ti33  1  0.06468244  0.85219732  0.08506706  1
  Ti  Ti34  1  0.00991114  0.92181076  0.41245729  1
  Ti  Ti35  1  0.11486648  0.84474448  0.77709198  1
  Ti  Ti36  1  0.38332481  0.17428996  0.05928974  1
  Ti  Ti37  1  0.35019720  0.24503154  0.39450275  1
  Ti  Ti38  1  0.42300796  0.21612927  0.75253580  1
  Ti  Ti39  1  0.45723215  0.56785565  0.04524318  1
  Ti  Ti40  1  0.42096938  0.60371834  0.45003711  1
  Ti  Ti41  1  0.45858497  0.56549461  0.76611173  1
  Ti  Ti42  1  0.40702836  0.87094511  0.09201924  1
  Ti  Ti43  1  0.48657520  0.91731941  0.40314516  1
  Ti  Ti44  1  0.46429882  0.88301760  0.81365854  1
  Ti  Ti45  1  0.73893258  0.32435090  0.04994732  1
  Ti  Ti46  1  0.78229565  0.27789966  0.43206251  1
  Ti  Ti47  1  0.73352257  0.34613196  0.67151407  1
  Ti  Ti48  1  0.75145569  0.55391740  0.11579537  1
  Ti  Ti49  1  0.77023490  0.59816645  0.40889808  1
  Ti  Ti50  1  0.83692653  0.58739516  0.78142517  1
  Ti  Ti51  1  0.79503662  0.96443604  0.04231596  1
  Ti  Ti52  1  0.67342664  0.88735650  0.36354614  1
  Ti  Ti53  1  0.76642608  0.89723938  0.75296232  1
  Ti  Ti54  1  0.16593115  0.04072977  0.09570971  1
  Ti  Ti55  1  0.29133336  0.02898544  0.36548109  1
  Ti  Ti56  1  0.28821955  0.04869731  0.77446317  1
  Ti  Ti57  1  0.25559644  0.43784946  0.06532264  1
  Ti  Ti58  1  0.32206609  0.45907542  0.35260194  1
  Ti  Ti59  1  0.20263575  0.36301891  0.74857387  1
  Ti  Ti60  1  0.22768023  0.77361263  0.04453589  1
  Ti  Ti61  1  0.32260248  0.80821765  0.37185009  1
  Ti  Ti62  1  0.31108806  0.70789992  0.76846721  1
  Ti  Ti63  1  0.58176558  0.16775391  0.10750294  1
  Ti  Ti64  1  0.61453444  0.06912659  0.46319110  1
  Ti  Ti65  1  0.60706953  0.14815310  0.79003238  1
  Ti  Ti66  1  0.53682444  0.37702402  0.04439768  1
  Ti  Ti67  1  0.49600738  0.41517832  0.47821115  1
  Ti  Ti68  1  0.53869047  0.39762612  0.75273556  1
  Ti  Ti69  1  0.65761476  0.81227548  0.02777267  1
  Ti  Ti70  1  0.58221881  0.69504906  0.37020761  1
  Ti  Ti71  1  0.68308735  0.70229717  0.73855764  1
  Ti  Ti72  1  0.90744569  0.11502976  -0.00529797  1
  Ti  Ti73  1  0.84197472  0.08589891  0.42103016  1
  Ti  Ti74  1  0.85799738  0.12705633  0.79494739  1
  Ti  Ti75  1  0.96708949  0.36209723  0.16809340  1
  Ti  Ti76  1  0.95035052  0.50172132  0.42597138  1
  Ti  Ti77  1  1.00455349  0.40772155  0.76078592  1
  Ti  Ti78  1  0.87521940  0.78784770  0.06270709  1
  Ti  Ti79  1  0.94087965  0.70749889  0.36472070  1
  Ti  Ti80  1  0.92261708  0.77452395  0.75316624  1
  Ti  Ti81  1  0.28226781  0.30116771  0.21378372  1
  Ti  Ti82  1  0.29864445  0.26648056  0.60359248  1
  Ti  Ti83  1  0.29681904  0.26434002  0.91253717  1
  Ti  Ti84  1  0.22136978  0.63251982  0.33822936  1
  Ti  Ti85  1  0.21318604  0.63980851  0.63074901  1
  Ti  Ti86  1  0.22993130  0.59617567  0.91521155  1
  Ti  Ti87  1  0.16429356  0.89835170  0.30153918  1
  Ti  Ti88  1  0.22323307  0.99472986  0.58724370  1
  Ti  Ti89  1  0.29145291  0.94930236  0.95076199  1
  Ti  Ti90  1  0.59398519  0.23052197  0.30979590  1
  Ti  Ti91  1  0.50499452  0.22954925  0.49540108  1
  Ti  Ti92  1  0.63327459  0.32160004  0.89299485  1
  Ti  Ti93  1  0.55951773  0.57165461  0.19728971  1
  Ti  Ti94  1  0.55775717  0.67050515  0.59447435  1
  Ti  Ti95  1  0.55846896  0.67224165  0.90049903  1
  Ti  Ti96  1  0.55770651  0.88281173  0.20387018  1
  Ti  Ti97  1  0.66567668  0.86784330  0.57833513  1
  Ti  Ti98  1  0.64041194  0.96922920  0.89025540  1
  Ti  Ti99  1  0.90788306  0.19955486  0.26308969  1
  Ti  Ti100  1  0.93266696  0.29669920  0.59387600  1
  Ti  Ti101  1  0.95236918  0.34062881  0.96252117  1
  Ti  Ti102  1  0.88842516  0.52841058  0.24470468  1
  Ti  Ti103  1  0.95851583  0.60114445  0.63499776  1
  Ti  Ti104  1  0.95330294  0.52411690  0.93527361  1
  Ti  Ti105  1  0.86456603  0.89022233  0.27241798  1
  Ti  Ti106  1  0.83775434  0.83171978  0.48881834  1
  Ti  Ti107  1  0.96818150  0.96561019  0.86130772  1
  Co  Co108  1  0.11067328  0.52343856  0.67676443  1
  Co  Co109  1  0.11009111  0.36825971  0.09297880  1
  Co  Co110  1  0.04797663  -0.03451898  0.19981039  1
  Co  Co111  1  0.05199562  0.58281967  0.29904045  1
  Co  Co112  1  0.29798467  0.86796820  0.80944442  1
  Co  Co113  1  0.37122348  0.11987014  0.89273708  1
  Co  Co114  1  0.61063079  0.56894261  0.47446532  1
  Co  Co115  1  0.53572411  0.17387162  -0.06155013  1
  Co  Co116  1  0.69859801  0.55331773  0.27675891  1
  Co  Co117  1  0.13617666  0.91719526  -0.06187334  1
  Co  Co118  1  0.27576786  0.13287771  0.49651990  1
  Co  Co119  1  0.52486858  0.50836649  0.60948305  1
  Co  Co120  1  0.39217378  0.63579901  0.60858925  1
  Co  Co121  1  0.31290840  0.61591318  0.04736318  1
  Co  Co122  1  0.00044963  0.82167678  0.92130043  1
  Co  Co123  1  0.22340228  0.24343877  0.06748196  1
  Co  Co124  1  0.41511998  0.61663124  0.28307912  1
  Co  Co125  1  -0.05903361  0.02983970  0.30664161  1
  Co  Co126  1  -0.08616330  0.36012732  0.32623639  1
  Co  Co127  1  0.37082096  -0.05196637  0.67237522  1
  Co  Co128  1  0.75072866  -0.02758249  0.48100279  1
  Co  Co129  1  0.28398697  0.70790612  0.49620862  1
  Co  Co130  1  0.57357486  0.82932989  0.69977083  1
  Co  Co131  1  0.85718718  0.44173187  0.06088988  1
  Co  Co132  1  0.46490043  0.33625188  0.33349698  1
  Co  Co133  1  0.55624252  0.13124893  0.63441395  1
  Co  Co134  1  0.89564673  0.29216491  0.76991865  1
  Co  Co135  1  0.10228794  0.30131177  0.63296618  1
  Co  Co136  1  0.52041216  -0.03892672  0.59043977  1
  Co  Co137  1  0.88014688  0.66376712  0.51122156  1
  Co  Co138  1  0.45303958  0.76554526  0.46661592  1
  Co  Co139  1  0.48080318  0.71986329  0.76263960  1
  Co  Co140  1  0.61319837  -0.01897179  0.72578677  1
  Co  Co141  1  0.67076983  0.47112090  0.00280948  1
  Co  Co142  1  0.26656629  0.54535717  0.48801515  1
  Co  Co143  1  0.80358019  0.00375299  0.88285946  1
  Co  Co144  1  0.51274511  0.84991415  -0.02966951  1
  Co  Co145  1  0.74752197  0.16473038  0.30372006  1
  Co  Co146  1  0.53455299  0.47916011  -0.09501465  1
  Co  Co147  1  0.46922993  0.77651546  0.28617282  1
  Co  Co148  1  0.00415845  0.20773781  0.87760222  1
  Co  Co149  1  0.64480353  0.80914511  0.85440072  1
  Co  Co150  1  0.10637899  0.74626395  0.37431457  1
  Co  Co151  1  0.74383163  0.17145334  0.13734634  1
  Co  Co152  1  0.07459956  0.72745935  0.65302291  1
  Co  Co153  1  0.62602623  -0.02651808  0.06472291  1
  Co  Co154  1  0.88048382  0.24636608  0.09323224  1
  Co  Co155  1  0.01532074  -0.00398885  0.02464327  1
  Co  Co156  1  0.16909190  0.75318102  0.21605422  1
  Co  Co157  1  0.35759295  0.92259387  0.50544752  1
  Co  Co158  1  0.80840650  0.74912040  0.64335354  1
  Co  Co159  1  0.20090420  0.19542253  0.80199434  1
  Co  Co160  1  0.34797308  0.38022604  0.49559357  1
  Co  Co161  1  0.37686601  0.33959465  0.05382396  1
  Ni  Ni162  1  0.65412349  0.51898893  0.70520543  1
  Ni  Ni163  1  0.49300353  0.02476095  0.14861066  1
  Ni  Ni164  1  0.27124349  0.52889800  0.76123605  1
  Ni  Ni165  1  0.78580345  0.44009341  0.36944504  1
  Ni  Ni166  1  0.12556983  0.48736777  0.83836308  1
  Ni  Ni167  1  0.67971259  0.54497801  0.85820099  1
  Ni  Ni168  1  0.70314272  0.71818482  0.50755387  1
  Ni  Ni169  1  0.19452962  0.75844307  0.88904530  1
  Ni  Ni170  1  0.46143323  0.31493897  0.89351908  1
  Ni  Ni171  1  0.81301642  0.83806713  -0.09032925  1
  Ni  Ni172  1  0.54456336  0.04553570  0.30819829  1
  Ni  Ni173  1  0.81668559  0.19595079  0.64197908  1
  Ni  Ni174  1  0.82619700  0.24622363  -0.07726886  1
  Ni  Ni175  1  0.01675466  0.51926777  0.12658693  1
  Ni  Ni176  1  0.91243571  0.68820529  0.90015906  1
  Ni  Ni177  1  -0.05418956  0.21915786  0.44642317  1
  Ni  Ni178  1  0.23738935  0.83276669  0.65563150  1
  Ni  Ni179  1  0.43293096  0.08799639  0.42688494  1
  Ni  Ni180  1  0.62212073  0.63553962  0.04928449  1
  Ni  Ni181  1  0.51595224  0.50734050  0.34360525  1
  Ni  Ni182  1  0.12429787  0.48331919  0.40820053  1
  Ni  Ni183  1  0.10962572  0.50229504  -0.00557687  1
  Ni  Ni184  1  0.19891421  0.19580857  0.35647972  1
  Ni  Ni185  1  0.36526352  0.37549128  0.76660839  1
  Ni  Ni186  1  0.29825003  0.53603858  0.20154872  1
  Ni  Ni187  1  0.64166422  0.42168328  0.17103886  1
  Ni  Ni188  1  0.63119893  0.39280634  0.33884671  1
  Ni  Ni189  1  0.84188844  0.04709081  0.18272063  1
  Ni  Ni190  1  0.14193436  0.02782329  0.44302901  1
  Ni  Ni191  1  0.00726331  0.44559829  0.57404866  1
  Ni  Ni192  1  0.76293894  0.75272034  0.34660987  1
  Ni  Ni193  1  0.21383775  0.34639103  0.41165922  1
  Ni  Ni194  1  0.56961134  0.32089223  0.61569279  1
  Ni  Ni195  1  0.73996068  0.23940078  0.79051587  1
  Ni  Ni196  1  0.12437127  0.01283234  0.75882930  1
  Ni  Ni197  1  0.38249721  -0.07048762  0.25249818  1
  Ni  Ni198  1  0.33479005  0.02591099  0.11318561  1
  Ni  Ni199  1  0.73411513  0.87692183  0.17612554  1
  Ni  Ni200  1  0.83750953  0.69545485  0.21021994  1
  Ni  Ni201  1  0.23866324  0.89790755  0.15293325  1
  Ni  Ni202  1  -0.00215979  0.78001903  0.51424626  1
  Ni  Ni203  1  -0.10277545  0.62018600  0.06328392  1
  Ni  Ni204  1  0.24691759  0.13525699  0.20827164  1
  Ni  Ni205  1  0.01534134  0.82653143  0.26398255  1
  Ni  Ni206  1  0.67621173  0.21606251  0.54654950  1
  Ni  Ni207  1  -0.00922630  0.10683066  0.15303727  1
  Ni  Ni208  1  0.11591081  0.24923544  0.21815427  1
  Ni  Ni209  1  0.86198685  0.44971294  0.69062129  1
  Ni  Ni210  1  0.50728988  0.73060013  0.11975748  1
  Ni  Ni211  1  0.20147598  0.14144320  0.65153166  1
  Ni  Ni212  1  0.47403333  0.27253159  0.18127270  1
  Ni  Ni213  1  0.46848036  0.05011366  0.77096224  1
  Ni  Ni214  1  0.83940130  0.42782813  0.52910357  1
