# generated using pymatgen
data_Ti108Co54Ni53
_symmetry_space_group_name_H-M   'P 1'
_cell_length_a   14.65596441
_cell_length_b   14.60121604
_cell_length_c   14.58736550
_cell_angle_alpha   90.20093657
_cell_angle_beta   89.98339379
_cell_angle_gamma   89.93293430
_symmetry_Int_Tables_number   1
_chemical_formula_structural   Ti108Co54Ni53
_chemical_formula_sum   'Ti108 Co54 Ni53'
_cell_volume   3121.60039033
_cell_formula_units_Z   1
loop_
 _symmetry_equiv_pos_site_id
 _symmetry_equiv_pos_as_xyz
  1  'x, y, z'
loop_
 _atom_site_type_symbol
 _atom_site_label
 _atom_site_symmetry_multiplicity
 _atom_site_fract_x
 _atom_site_fract_y
 _atom_site_fract_z
 _atom_site_occupancy
  Ti  Ti0  1  0.07325588  0.08447838  0.21076357  1
  Ti  Ti1  1  0.05747738  0.07836172  0.60858715  1
  Ti  Ti2  1  0.05110720  0.10950790  0.94402913  1
  Ti  Ti3  1  0.01172905  0.43637895  0.26934292  1
  Ti  Ti4  1  0.02233742  0.40423094  0.56496486  1
  Ti  Ti5  1  0.04388393  0.45916676  0.91397476  1
  Ti  Ti6  1  0.09696879  0.75674156  0.24354884  1
  Ti  Ti7  1  0.13050509  0.68286980  0.57246237  1
  Ti  Ti8  1  0.10229096  0.76707082  0.91066272  1
  Ti  Ti9  1  0.34592141  0.06119092  0.30848071  1
  Ti  Ti10  1  0.39214473  0.15058233  0.61205062  1
  Ti  Ti11  1  0.39789101  0.01204375  0.95133390  1
  Ti  Ti12  1  0.49569961  0.31600742  0.23543551  1
  Ti  Ti13  1  0.40736063  0.37616424  0.64391824  1
  Ti  Ti14  1  0.35041072  0.37102491  0.92828108  1
  Ti  Ti15  1  0.41439145  0.74285396  0.29193543  1
  Ti  Ti16  1  0.45575282  0.69046028  0.58975122  1
  Ti  Ti17  1  0.43059011  0.75043822  0.91398027  1
  Ti  Ti18  1  0.72994396  0.05601601  0.30926970  1
  Ti  Ti19  1  0.73099525  0.06097542  0.63609327  1
  Ti  Ti20  1  0.71739537  0.05004070  0.98490848  1
  Ti  Ti21  1  0.80456795  0.46451074  0.13238080  1
  Ti  Ti22  1  0.79991233  0.38060755  0.55989463  1
  Ti  Ti23  1  0.67346252  0.46945966  0.98346534  1
  Ti  Ti24  1  0.79243042  0.76220645  0.22069727  1
  Ti  Ti25  1  0.72539270  0.71447382  0.55826685  1
  Ti  Ti26  1  0.77543553  0.76142233  0.88802295  1
  Ti  Ti27  1  0.14284564  0.32116715  0.01533495  1
  Ti  Ti28  1  0.11106730  0.23332917  0.48167100  1
  Ti  Ti29  1  0.09678236  0.22722118  0.71774001  1
  Ti  Ti30  1  0.09783131  0.59149754  0.04002378  1
  Ti  Ti31  1  0.11210358  0.54083283  0.40381392  1
  Ti  Ti32  1  0.06815299  0.56413701  0.71818746  1
  Ti  Ti33  1  0.00867944  0.90646293  0.08549942  1
  Ti  Ti34  1  0.03613873  0.90605455  0.51278918  1
  Ti  Ti35  1  0.08660426  0.89752475  0.74218040  1
  Ti  Ti36  1  0.35231578  0.19008562  0.02975027  1
  Ti  Ti37  1  0.38257999  0.22269022  0.40226633  1
  Ti  Ti38  1  0.48726353  0.24524195  0.74549155  1
  Ti  Ti39  1  0.35752413  0.56361260  0.02245332  1
  Ti  Ti40  1  0.42407542  0.59694742  0.42801023  1
  Ti  Ti41  1  0.39817018  0.57618671  0.83049012  1
  Ti  Ti42  1  0.37051864  0.85347273  0.07929046  1
  Ti  Ti43  1  0.45520392  0.91616456  0.40048152  1
  Ti  Ti44  1  0.42858155  0.96133115  0.66347124  1
  Ti  Ti45  1  0.75760590  0.24981550  0.08989968  1
  Ti  Ti46  1  0.83241891  0.19355960  0.42345764  1
  Ti  Ti47  1  0.77133967  0.21311239  0.81138467  1
  Ti  Ti48  1  0.74844716  0.63744976  0.03391187  1
  Ti  Ti49  1  0.73833314  0.62222917  0.37281414  1
  Ti  Ti50  1  0.75990564  0.52943007  0.71548707  1
  Ti  Ti51  1  0.71002613  0.82746753  0.05821715  1
  Ti  Ti52  1  0.80620512  0.94866731  0.46915227  1
  Ti  Ti53  1  0.74440969  0.91546439  0.77271460  1
  Ti  Ti54  1  0.27270774  0.03363735  0.11314755  1
  Ti  Ti55  1  0.18353566  -0.00178079  0.41822856  1
  Ti  Ti56  1  0.30206569  0.07431307  0.78320904  1
  Ti  Ti57  1  0.29772848  0.38484381  0.13111009  1
  Ti  Ti58  1  0.34742311  0.41271812  0.44036879  1
  Ti  Ti59  1  0.18447617  0.39507480  0.68513669  1
  Ti  Ti60  1  0.23343257  0.71064641  0.07122608  1
  Ti  Ti61  1  0.24067728  0.70590669  0.39391434  1
  Ti  Ti62  1  0.32067113  0.76869218  0.73011468  1
  Ti  Ti63  1  0.56676930  -0.03107264  0.06956649  1
  Ti  Ti64  1  0.55198112  0.13010244  0.45006952  1
  Ti  Ti65  1  0.62076966  0.10875406  0.81475270  1
  Ti  Ti66  1  0.50676888  0.45314420  0.08985769  1
  Ti  Ti67  1  0.60746548  0.41519692  0.59590239  1
  Ti  Ti68  1  0.62725870  0.41275872  0.79051043  1
  Ti  Ti69  1  0.54228757  0.75213996  0.13693508  1
  Ti  Ti70  1  0.57448013  0.74642010  0.43203758  1
  Ti  Ti71  1  0.58593113  0.81179087  0.67833661  1
  Ti  Ti72  1  0.89127755  0.09626263  0.10277286  1
  Ti  Ti73  1  0.99668266  0.07933725  0.40457451  1
  Ti  Ti74  1  0.89787125  0.12451005  0.68988135  1
  Ti  Ti75  1  0.98292402  0.38470201  0.08503512  1
  Ti  Ti76  1  0.89815164  0.49803328  0.43584698  1
  Ti  Ti77  1  0.85566090  0.40430331  0.85186980  1
  Ti  Ti78  1  0.90842761  0.66561958  0.12048553  1
  Ti  Ti79  1  0.92034162  0.81297253  0.38594098  1
  Ti  Ti80  1  0.86080293  0.78724790  0.68721344  1
  Ti  Ti81  1  0.23783622  0.22447778  0.23628094  1
  Ti  Ti82  1  0.26967665  0.27525928  0.56856738  1
  Ti  Ti83  1  0.21749612  0.21739567  0.87139238  1
  Ti  Ti84  1  0.28203038  0.55374533  0.26963132  1
  Ti  Ti85  1  0.31063519  0.55226090  0.62747018  1
  Ti  Ti86  1  0.20916034  0.56163492  0.85451541  1
  Ti  Ti87  1  0.19274844  0.92256748  0.23031265  1
  Ti  Ti88  1  0.29954520  0.88298918  0.53675521  1
  Ti  Ti89  1  0.24048843  0.90006182  0.90527644  1
  Ti  Ti90  1  0.56379430  0.16879594  0.11177780  1
  Ti  Ti91  1  0.64596304  0.23696787  0.62088044  1
  Ti  Ti92  1  0.53760421  0.28601387  0.93571923  1
  Ti  Ti93  1  0.55474621  0.59482362  0.26315158  1
  Ti  Ti94  1  0.60455130  0.59593372  0.63824730  1
  Ti  Ti95  1  0.61795621  0.60834897  0.84029009  1
  Ti  Ti96  1  0.54297084  1.01125147  0.25382862  1
  Ti  Ti97  1  0.60603574  0.94990254  0.52463578  1
  Ti  Ti98  1  0.53533986  0.93339800  0.85051457  1
  Ti  Ti99  1  1.01135941  0.24702416  0.30278397  1
  Ti  Ti100  1  0.92242187  0.30158803  0.70609112  1
  Ti  Ti101  1  0.91316394  0.26401916  0.97087247  1
  Ti  Ti102  1  0.95378315  0.64016329  0.30582390  1
  Ti  Ti103  1  0.89689301  0.61613810  0.62948964  1
  Ti  Ti104  1  0.94604031  0.66521776  0.92852254  1
  Ti  Ti105  1  0.91179042  0.97194913  0.25668183  1
  Ti  Ti106  1  0.90826436  0.94831164  0.65346980  1
  Ti  Ti107  1  0.88518635  0.94879392  0.93791221  1
  Co  Co108  1  0.00655622  0.58011565  0.52997681  1
  Co  Co109  1  0.85451864  0.11953489  -0.05574494  1
  Co  Co110  1  0.48094149  0.27864067  0.54052460  1
  Co  Co111  1  0.72616886  0.60716334  0.20468282  1
  Co  Co112  1  0.64931987  0.74302033  0.28500918  1
  Co  Co113  1  0.42327595  0.03886121  0.49508394  1
  Co  Co114  1  0.90376461  0.46034192  0.66610989  1
  Co  Co115  1  -0.05194412  0.81210055  0.20798408  1
  Co  Co116  1  0.39179984  0.18823027  0.87130136  1
  Co  Co117  1  0.17235782  0.81813104  0.62714563  1
  Co  Co118  1  0.63942696  -0.07398015  0.37168762  1
  Co  Co119  1  0.12972742  0.06852118  0.78891057  1
  Co  Co120  1  0.86222767  0.67001408  0.78960929  1
  Co  Co121  1  0.61606791  0.32613211  0.08027846  1
  Co  Co122  1  0.47996576  0.47719979  0.52221425  1
  Co  Co123  1  0.85193181  0.53045090  0.26989176  1
  Co  Co124  1  0.87489704  0.79696637  0.03157919  1
  Co  Co125  1  0.44501320  0.30527878  0.07660298  1
  Co  Co126  1  0.11464274  0.02524183  0.06800098  1
  Co  Co127  1  0.66972580  0.90966382  0.19594421  1
  Co  Co128  1  0.30334003  0.26255998  0.73894485  1
  Co  Co129  1  0.47419090  0.85244079  0.55638479  1
  Co  Co130  1  0.07635504  -0.05528593  -0.08622505  1
  Co  Co131  1  0.53602549  0.84677565  0.27105685  1
  Co  Co132  1  0.19132490  0.41865909  0.30496347  1
  Co  Co133  1  0.67177326  0.19461206  0.96218132  1
  Co  Co134  1  0.80203438  0.21620506  0.58600086  1
  Co  Co135  1  0.04438049  0.29555190  -0.12279887  1
  Co  Co136  1  0.50342682  0.15875955  0.29713941  1
  Co  Co137  1  -0.02750136  0.00642589  0.79713819  1
  Co  Co138  1  0.59541507  0.58894548  0.47542307  1
  Co  Co139  1  0.34511598  0.35940329  0.28544551  1
  Co  Co140  1  0.60762864  0.57825715  0.10406936  1
  Co  Co141  1  0.78438589  0.89487162  0.30671736  1
  Co  Co142  1  0.46798785  0.07433341  0.77631183  1
  Co  Co143  1  0.75345475  0.35044557  0.71156861  1
  Co  Co144  1  0.82126697  -0.06415293  0.12370836  1
  Co  Co145  1  0.52582124  0.10789344  -0.04429533  1
  Co  Co146  1  0.39233091  0.76517879  0.44953586  1
  Co  Co147  1  0.73244576  0.88168650  0.60983271  1
  Co  Co148  1  0.17237114  -0.02309146  0.58712642  1
  Co  Co149  1  0.74165408  0.79284077  0.42203547  1
  Co  Co150  1  0.26359438  0.55809328  0.46285041  1
  Co  Co151  1  0.38103144  0.90638183  0.81976000  1
  Co  Co152  1  -0.02639230  0.21945847  0.56298953  1
  Co  Co153  1  0.03584938  0.40589787  0.75878794  1
  Co  Co154  1  0.05238644  0.74891677  0.07132466  1
  Co  Co155  1  -0.04599089  0.17341061  0.82752620  1
  Co  Co156  1  0.53420416  0.84103454  -0.00717847  1
  Co  Co157  1  0.05673010  0.37832966  0.40546375  1
  Co  Co158  1  0.40905905  0.49973208  0.20101896  1
  Co  Co159  1  0.81006812  0.04883423  0.80706915  1
  Co  Co160  1  0.71154156  0.09954682  0.48020966  1
  Co  Co161  1  0.38435133  0.19632280  0.19929735  1
  Ni  Ni162  1  0.54846904  0.10714462  0.62551142  1
  Ni  Ni163  1  -0.05284870  0.83172688  0.83822398  1
  Ni  Ni164  1  0.31592955  0.44240666  0.77222759  1
  Ni  Ni165  1  0.27450428  0.70565565  -0.09322398  1
  Ni  Ni166  1  0.17830903  0.86880419  0.06353675  1
  Ni  Ni167  1  0.19122856  0.39388278  0.48348611  1
  Ni  Ni168  1  0.47221404  0.52423635  0.69079676  1
  Ni  Ni169  1  0.02563723  0.20494482  0.09566340  1
  Ni  Ni170  1  0.60171186  -0.02466768  0.70016911  1
  Ni  Ni171  1  0.88938647  0.13594853  0.27011281  1
  Ni  Ni172  1  -0.02050451  0.76750931  0.57099703  1
  Ni  Ni173  1  0.15933033  0.14154615  0.35020403  1
  Ni  Ni174  1  -0.06462788  0.53605326  0.81363150  1
  Ni  Ni175  1  0.01752303  0.72539634  0.73083327  1
  Ni  Ni176  1  0.18553821  0.17546595  0.07326493  1
  Ni  Ni177  1  0.27262758  0.12048878  0.48409255  1
  Ni  Ni178  1  0.72539849  0.33216783  0.91967099  1
  Ni  Ni179  1  0.51163467  0.52636178  -0.05802376  1
  Ni  Ni180  1  0.70990444  0.71260622  0.73204625  1
  Ni  Ni181  1  0.47758169  0.45885701  0.33991186  1
  Ni  Ni182  1  0.29314326  0.70546202  0.56373879  1
  Ni  Ni183  1  0.89059611  0.07338223  0.53124652  1
  Ni  Ni184  1  0.11336693  0.31275914  0.18461927  1
  Ni  Ni185  1  0.60594907  0.77769972  0.84977836  1
  Ni  Ni186  1  0.39091038  0.91880958  0.22609293  1
  Ni  Ni187  1  0.47001337  0.41038892  0.81558767  1
  Ni  Ni188  1  0.78064721  0.56040380  0.88327072  1
  Ni  Ni189  1  0.15238181  0.51736804  0.57796779  1
  Ni  Ni190  1  0.91746856  0.32694871  0.44796543  1
  Ni  Ni191  1  0.29765614  -0.12514235  0.35630275  1
  Ni  Ni192  1  0.89642448  0.51449218  -0.00229493  1
  Ni  Ni193  1  -0.01472547  0.53513985  0.14824451  1
  Ni  Ni194  1  0.43384166  0.05319648  0.12471815  1
  Ni  Ni195  1  0.14816027  0.83389193  0.41482149  1
  Ni  Ni196  1  0.49125892  0.69301450  0.75590089  1
  Ni  Ni197  1  0.14636057  0.46489849  0.14414581  1
  Ni  Ni198  1  0.87425998  0.67415003  0.46848974  1
  Ni  Ni199  1  0.05225107  -0.07171649  0.32386710  1
  Ni  Ni200  1  0.04812197  0.70725547  0.42614446  1
  Ni  Ni201  1  0.89688982  0.27605857  0.17274253  1
  Ni  Ni202  1  0.21786491  0.47210471  -0.00418081  1
  Ni  Ni203  1  0.25894556  -0.07348596  0.71456269  1
  Ni  Ni204  1  0.27023959  0.77071533  0.22087671  1
  Ni  Ni205  1  0.18638804  0.38137470  0.85306587  1
  Ni  Ni206  1  0.11797371  0.59443907  0.23945336  1
  Ni  Ni207  1  0.21820781  0.13089939  0.64792488  1
  Ni  Ni208  1  0.39138238  0.66522180  0.14698397  1
  Ni  Ni209  1  0.17497793  0.70386143  0.76438694  1
  Ni  Ni210  1  0.75426410  0.54576355  0.53054567  1
  Ni  Ni211  1  0.59119765  0.68438823  -0.01501854  1
  Ni  Ni212  1  0.68156674  -0.09397931  -0.07910703  1
  Ni  Ni213  1  0.71136361  0.07911372  0.14747751  1
  Ni  Ni214  1  0.22255556  0.06460082  -0.05639050  1
