# generated using pymatgen
data_Ti108Co54Ni53
_symmetry_space_group_name_H-M   'P 1'
_cell_length_a   14.53495287
_cell_length_b   14.55411562
_cell_length_c   14.57257700
_cell_angle_alpha   89.95484907
_cell_angle_beta   90.34956248
_cell_angle_gamma   90.11267402
_symmetry_Int_Tables_number   1
_chemical_formula_structural   Ti108Co54Ni53
_chemical_formula_sum   'Ti108 Co54 Ni53'
_cell_volume   3082.66799975
_cell_formula_units_Z   1
loop_
 _symmetry_equiv_pos_site_id
 _symmetry_equiv_pos_as_xyz
  1  'x, y, z'
loop_
 _atom_site_type_symbol
 _atom_site_label
 _atom_site_symmetry_multiplicity
 _atom_site_fract_x
 _atom_site_fract_y
 _atom_site_fract_z
 _atom_site_occupancy
  Ti  Ti0  1  0.05072506  0.02043105  0.22974972  1
  Ti  Ti1  1  0.08495699  0.07785173  0.56766198  1
  Ti  Ti2  1  0.13003417  0.09280456  0.89887828  1
  Ti  Ti3  1  0.08587486  0.41063328  0.31940226  1
  Ti  Ti4  1  0.08172890  0.43763727  0.65066765  1
  Ti  Ti5  1  0.14791278  0.47697986  0.96241854  1
  Ti  Ti6  1  0.06074850  0.70820113  0.26597555  1
  Ti  Ti7  1  0.10625705  0.78976083  0.56505950  1
  Ti  Ti8  1  0.02380721  0.78391040  0.87432726  1
  Ti  Ti9  1  0.38242801  0.11700627  0.28468136  1
  Ti  Ti10  1  0.42131342  0.00271566  0.61514876  1
  Ti  Ti11  1  0.42495463  0.00865311  0.91082678  1
  Ti  Ti12  1  0.38497289  0.31125379  0.25926866  1
  Ti  Ti13  1  0.44101994  0.45052043  0.56831277  1
  Ti  Ti14  1  0.35034052  0.38767959  0.94209881  1
  Ti  Ti15  1  0.37862352  0.76901216  0.24860353  1
  Ti  Ti16  1  0.42709551  0.79271799  0.59374768  1
  Ti  Ti17  1  0.38115294  0.77516552  0.90515298  1
  Ti  Ti18  1  0.79403925  0.06478823  0.21385238  1
  Ti  Ti19  1  0.72505501  0.08266182  0.55508743  1
  Ti  Ti20  1  0.83335321  0.16836400  0.82468794  1
  Ti  Ti21  1  0.71568999  0.35227069  0.29680669  1
  Ti  Ti22  1  0.77504805  0.46735238  0.65373063  1
  Ti  Ti23  1  0.74525016  0.42766749  0.98958677  1
  Ti  Ti24  1  0.70014876  0.72637187  0.25595966  1
  Ti  Ti25  1  0.77617956  0.72420298  0.52737106  1
  Ti  Ti26  1  0.81875822  0.83837569  0.87001169  1
  Ti  Ti27  1  0.06341337  0.23125284  0.09930051  1
  Ti  Ti28  1  0.09026185  0.25123078  0.43467258  1
  Ti  Ti29  1  0.11351364  0.28447092  0.76790510  1
  Ti  Ti30  1  0.06615954  0.55596104  0.13746204  1
  Ti  Ti31  1  0.10571253  0.56917326  0.46399230  1
  Ti  Ti32  1  0.04723942  0.61161289  0.78773075  1
  Ti  Ti33  1  0.06232128  0.93198931  0.00842640  1
  Ti  Ti34  1  0.03983091  0.91260150  0.41509089  1
  Ti  Ti35  1  0.08999532  0.95465513  0.76742693  1
  Ti  Ti36  1  0.37317934  0.21879016  0.02550538  1
  Ti  Ti37  1  0.43572525  0.23925007  0.44735178  1
  Ti  Ti38  1  0.40150973  0.31492284  0.77279378  1
  Ti  Ti39  1  0.47133973  0.58991563  0.13777434  1
  Ti  Ti40  1  0.40402315  0.59592485  0.33094171  1
  Ti  Ti41  1  0.39003607  0.62005484  0.63490132  1
  Ti  Ti42  1  0.40497744  1.03991479  0.10439623  1
  Ti  Ti43  1  0.42860876  0.93813348  0.33361833  1
  Ti  Ti44  1  0.36980338  0.87347562  0.76019534  1
  Ti  Ti45  1  0.79989709  0.25061067  0.12262777  1
  Ti  Ti46  1  0.79560550  0.22114646  0.44384282  1
  Ti  Ti47  1  0.71725809  0.30905513  0.76731251  1
  Ti  Ti48  1  0.80585779  0.59107932  0.16093368  1
  Ti  Ti49  1  0.74417984  0.51203444  0.44271140  1
  Ti  Ti50  1  0.81921662  0.64397317  0.75846642  1
  Ti  Ti51  1  0.77498647  0.91483577  0.08925644  1
  Ti  Ti52  1  0.71904742  0.91208823  0.29595293  1
  Ti  Ti53  1  0.66269052  0.96412580  0.75100396  1
  Ti  Ti54  1  0.20192898  0.06452614  0.11849741  1
  Ti  Ti55  1  0.25570136  0.10546046  0.44136012  1
  Ti  Ti56  1  0.31183430  0.07827574  0.75614568  1
  Ti  Ti57  1  0.31442551  0.47851416  0.09832165  1
  Ti  Ti58  1  0.28467169  0.44219861  0.40193963  1
  Ti  Ti59  1  0.27422443  0.40655778  0.64689345  1
  Ti  Ti60  1  0.32003138  0.72733075  0.06721239  1
  Ti  Ti61  1  0.29643746  0.80860212  0.44273993  1
  Ti  Ti62  1  0.26352869  0.68392100  0.77430211  1
  Ti  Ti63  1  0.59005300  -0.03066497  0.02599013  1
  Ti  Ti64  1  0.59970478  -0.00894235  0.42085535  1
  Ti  Ti65  1  0.60183740  0.13297551  0.84533517  1
  Ti  Ti66  1  0.52074705  0.38612576  0.13508870  1
  Ti  Ti67  1  0.50322371  0.42484463  0.38641974  1
  Ti  Ti68  1  0.57177574  0.38161216  0.68890172  1
  Ti  Ti69  1  0.52504490  0.77332473  0.09428013  1
  Ti  Ti70  1  0.49746904  0.73999636  0.42010217  1
  Ti  Ti71  1  0.53790367  0.71854636  0.74819111  1
  Ti  Ti72  1  0.85480056  0.08739698  0.01801130  1
  Ti  Ti73  1  0.89011757  0.03812815  0.43525035  1
  Ti  Ti74  1  0.91939485  0.06603369  0.65412092  1
  Ti  Ti75  1  0.95545144  0.38331309  0.03157553  1
  Ti  Ti76  1  0.90805336  0.37794464  0.39761924  1
  Ti  Ti77  1  0.93001707  0.36316427  0.74171686  1
  Ti  Ti78  1  0.95526849  0.71821622  0.06515331  1
  Ti  Ti79  1  0.96131630  0.72605375  0.43208788  1
  Ti  Ti80  1  0.94483709  0.75931980  0.65492289  1
  Ti  Ti81  1  0.19760948  0.28291183  0.24189574  1
  Ti  Ti82  1  0.23990619  0.23619129  0.60483123  1
  Ti  Ti83  1  0.25905747  0.22227671  0.86414071  1
  Ti  Ti84  1  0.26024825  0.60919011  0.20873920  1
  Ti  Ti85  1  0.20722462  0.57383546  0.63014944  1
  Ti  Ti86  1  0.32213065  0.57617526  0.93051362  1
  Ti  Ti87  1  0.24107396  0.95792039  0.31034406  1
  Ti  Ti88  1  0.21976655  0.91940361  0.64597892  1
  Ti  Ti89  1  0.26059838  0.90796555  1.00026030  1
  Ti  Ti90  1  0.63425782  0.20572214  0.20378624  1
  Ti  Ti91  1  0.56021397  0.17452926  0.62512404  1
  Ti  Ti92  1  0.53802220  0.30589200  0.94395187  1
  Ti  Ti93  1  0.60919857  0.54077282  0.28585921  1
  Ti  Ti94  1  0.59545938  0.62089750  0.58260306  1
  Ti  Ti95  1  0.57337009  0.57264272  0.89182032  1
  Ti  Ti96  1  0.58834097  1.02618399  0.20649786  1
  Ti  Ti97  1  0.63106750  0.84158074  0.57966075  1
  Ti  Ti98  1  0.54860060  0.86533447  0.87964815  1
  Ti  Ti99  1  0.94685493  0.30732789  0.23345249  1
  Ti  Ti100  1  0.87142227  0.24652166  0.62022324  1
  Ti  Ti101  1  0.98957323  0.24123493  0.91021946  1
  Ti  Ti102  1  0.94360372  0.56342214  0.34205357  1
  Ti  Ti103  1  0.90311387  0.58032855  0.54265006  1
  Ti  Ti104  1  0.90465332  0.50787676  0.87808733  1
  Ti  Ti105  1  0.91137423  0.88515500  0.26836622  1
  Ti  Ti106  1  0.81218466  0.92581533  0.61731388  1
  Ti  Ti107  1  0.94117118  1.01218676  0.87606402  1
  Co  Co108  1  0.80090099  0.63836822  0.36629749  1
  Co  Co109  1  0.24889910  0.06378700  0.59738874  1
  Co  Co110  1  0.67315673  0.80032212  0.80683275  1
  Co  Co111  1  0.83980011  0.24886863  -0.02186021  1
  Co  Co112  1  0.83390351  0.35721189  0.87058725  1
  Co  Co113  1  0.32999004  0.96173164  0.48201946  1
  Co  Co114  1  0.58600227  0.00519159  0.59114035  1
  Co  Co115  1  0.03196113  0.60777585  -0.03407979  1
  Co  Co116  1  0.92832477  -0.02187109  0.12782373  1
  Co  Co117  1  0.42424129  0.63511572  0.81997085  1
  Co  Co118  1  0.46679741  0.65384473  -0.01549965  1
  Co  Co119  1  0.93335436  0.52861777  0.69621141  1
  Co  Co120  1  0.63998398  0.64167178  0.41408019  1
  Co  Co121  1  0.81266149  0.00758402  0.77402906  1
  Co  Co122  1  0.24272253  0.44333731  0.24446630  1
  Co  Co123  1  0.47320662  0.47944414  0.00264221  1
  Co  Co124  1  0.13007836  0.76387436  0.40800264  1
  Co  Co125  1  0.19532904  0.19118879  0.01858982  1
  Co  Co126  1  0.56259148  0.31831435  0.51751920  1
  Co  Co127  1  0.30268863  0.18716078  0.16476825  1
  Co  Co128  1  0.48547510  -0.10260228  0.48856579  1
  Co  Co129  1  0.16226014  -0.08926993  0.13585332  1
  Co  Co130  1  0.52594529  0.87792611  0.70139918  1
  Co  Co131  1  0.05102086  0.42656191  0.83661146  1
  Co  Co132  1  0.12777387  0.31946501  -0.05078854  1
  Co  Co133  1  0.48133676  -0.08782835  0.17275879  1
  Co  Co134  1  0.18813389  0.52793384  0.78987734  1
  Co  Co135  1  0.17295265  -0.04913511  0.48503738  1
  Co  Co136  1  0.79864589  0.81068656  0.70972218  1
  Co  Co137  1  0.65190966  0.80254467  0.41842144  1
  Co  Co138  1  0.64383376  0.86243270  0.15606662  1
  Co  Co139  1  0.89894313  0.67786726  0.90190898  1
  Co  Co140  1  0.37623997  0.15397792  0.57225764  1
  Co  Co141  1  0.81552800  0.40649196  0.13820990  1
  Co  Co142  1  0.69154724  0.25683068  0.92186772  1
  Co  Co143  1  0.01814493  0.83730196  0.15289762  1
  Co  Co144  1  -0.04310550  0.17531361  0.49528002  1
  Co  Co145  1  0.53856855  0.69143773  0.26256022  1
  Co  Co146  1  0.43788185  0.16769851  0.72252103  1
  Co  Co147  1  0.28828735  0.07674672  -0.04295294  1
  Co  Co148  1  0.50107750  0.02203695  0.77059686  1
  Co  Co149  1  0.19205559  0.61849534  0.05400266  1
  Co  Co150  1  0.16998991  0.65857066  0.90231390  1
  Co  Co151  1  0.42510921  0.88349036  0.02451451  1
  Co  Co152  1  0.10917387  0.76842612  0.72851694  1
  Co  Co153  1  0.81678099  0.21525284  0.28666805  1
  Co  Co154  1  0.65739238  0.31662220  0.07466279  1
  Co  Co155  1  0.62275302  0.17809714  0.46178010  1
  Co  Co156  1  0.02486366  -0.07094478  0.60381860  1
  Co  Co157  1  0.41389815  0.46810959  0.24271080  1
  Co  Co158  1  0.43088869  0.17290829  0.87994531  1
  Co  Co159  1  0.55866641  0.85152347  0.29923126  1
  Co  Co160  1  0.42840722  0.29741173  0.61451608  1
  Co  Co161  1  0.22192410  0.68026243  0.51807274  1
  Ni  Ni162  1  0.02419744  0.08775141  0.03557470  1
  Ni  Ni163  1  0.91041312  0.87076504  0.00361779  1
  Ni  Ni164  1  0.08288857  0.07862175  0.39638059  1
  Ni  Ni165  1  -0.09569123  0.86632435  0.49891101  1
  Ni  Ni166  1  0.53599846  0.12935065  0.00997078  1
  Ni  Ni167  1  0.68967687  0.70469788  0.67572581  1
  Ni  Ni168  1  0.66886499  0.46880791  0.14955176  1
  Ni  Ni169  1  0.72650388  0.14133271  0.70612691  1
  Ni  Ni170  1  0.19788660  0.81404184  0.86524371  1
  Ni  Ni171  1  0.16277834  0.38894647  0.50584858  1
  Ni  Ni172  1  0.19102846  0.75673952  0.17019841  1
  Ni  Ni173  1  0.73105488  0.08211575  0.36726436  1
  Ni  Ni174  1  0.05627294  0.19246304  0.27616960  1
  Ni  Ni175  1  0.89047155  0.71605088  0.24402439  1
  Ni  Ni176  1  0.67044908  0.54629157  0.74937405  1
  Ni  Ni177  1  0.54143247  0.12763724  0.32847859  1
  Ni  Ni178  1  0.81503388  0.79745874  0.37593821  1
  Ni  Ni179  1  -0.06522056  0.90053041  0.74764898  1
  Ni  Ni180  1  -0.05275264  0.42340006  0.55535841  1
  Ni  Ni181  1  0.10208961  0.39329048  0.13133978  1
  Ni  Ni182  1  0.13359919  0.77508196  0.01797358  1
  Ni  Ni183  1  0.70068240  0.26642779  0.59636767  1
  Ni  Ni184  1  0.75342247  -0.07051397  0.46228436  1
  Ni  Ni185  1  0.47509342  0.19590174  0.15830208  1
  Ni  Ni186  1  0.50156790  0.56930539  0.46378119  1
  Ni  Ni187  1  0.51280557  0.53801449  0.71629879  1
  Ni  Ni188  1  0.45363415  0.06694363  0.45576036  1
  Ni  Ni189  1  0.24895257  0.33127278  0.08001604  1
  Ni  Ni190  1  0.49765092  0.43452247  0.84400394  1
  Ni  Ni191  1  0.13124486  0.56035279  0.30257732  1
  Ni  Ni192  1  0.73883570  -0.01700541  -0.07044761  1
  Ni  Ni193  1  0.79325628  0.37392053  0.51826650  1
  Ni  Ni194  1  0.27057720  0.76743988  0.63831788  1
  Ni  Ni195  1  0.11810428  0.86227509  0.28144339  1
  Ni  Ni196  1  0.24479298  -0.03851310  0.84303944  1
  Ni  Ni197  1  0.56508200  0.28726389  0.33580569  1
  Ni  Ni198  1  0.23648765  0.38416910  0.81963406  1
  Ni  Ni199  1  0.00243890  0.14998242  0.76832584  1
  Ni  Ni200  1  0.24833076  0.66205809  0.36042362  1
  Ni  Ni201  1  0.79802609  0.48914954  0.28465103  1
  Ni  Ni202  1  0.04818806  0.63330221  0.61409995  1
  Ni  Ni203  1  0.20199413  0.11853535  0.28334694  1
  Ni  Ni204  1  0.15690735  0.12991790  0.71768620  1
  Ni  Ni205  1  0.69169223  0.10310495  0.06430721  1
  Ni  Ni206  1  0.35514434  0.49514906  0.76376245  1
  Ni  Ni207  1  -0.06518635  0.13998977  0.17599342  1
  Ni  Ni208  1  0.33635627  0.57496272  0.48446585  1
  Ni  Ni209  1  -0.05298073  0.46892662  0.20769782  1
  Ni  Ni210  1  0.05065908  0.24600993  0.61758410  1
  Ni  Ni211  1  0.26890304  0.27425310  0.40585488  1
  Ni  Ni212  1  0.62280561  0.46298267  0.54664591  1
  Ni  Ni213  1  0.90696497  0.53840408  0.04582705  1
  Ni  Ni214  1  0.31926839  0.89960571  0.16486106  1
