# generated using pymatgen
data_Ti108Co54Ni53
_symmetry_space_group_name_H-M   'P 1'
_cell_length_a   14.65534722
_cell_length_b   14.65446153
_cell_length_c   14.65572356
_cell_angle_alpha   90.20664669
_cell_angle_beta   90.03034080
_cell_angle_gamma   90.14900686
_symmetry_Int_Tables_number   1
_chemical_formula_structural   Ti108Co54Ni53
_chemical_formula_sum   'Ti108 Co54 Ni53'
_cell_volume   3147.52280562
_cell_formula_units_Z   1
loop_
 _symmetry_equiv_pos_site_id
 _symmetry_equiv_pos_as_xyz
  1  'x, y, z'
loop_
 _atom_site_type_symbol
 _atom_site_label
 _atom_site_symmetry_multiplicity
 _atom_site_fract_x
 _atom_site_fract_y
 _atom_site_fract_z
 _atom_site_occupancy
  Ti  Ti0  1  0.13103950  0.04646392  0.23126222  1
  Ti  Ti1  1  0.06762480  0.07740222  0.46885848  1
  Ti  Ti2  1  0.13348994  0.04271046  0.92657494  1
  Ti  Ti3  1  0.05230715  0.38923849  0.27569278  1
  Ti  Ti4  1  0.14935386  0.43690945  0.58387895  1
  Ti  Ti5  1  0.06628338  0.39766754  0.89422828  1
  Ti  Ti6  1  0.08867366  0.72164389  0.22032667  1
  Ti  Ti7  1  0.13771194  0.77181646  0.56950078  1
  Ti  Ti8  1  0.06511301  0.68407890  0.90668624  1
  Ti  Ti9  1  0.38290025  0.07456679  0.23869350  1
  Ti  Ti10  1  0.40691188  0.14465334  0.62618973  1
  Ti  Ti11  1  0.37762494  0.02835803  0.90423757  1
  Ti  Ti12  1  0.39266309  0.44351271  0.31245340  1
  Ti  Ti13  1  0.46258577  0.36102798  0.59070470  1
  Ti  Ti14  1  0.43490617  0.38440328  0.87736984  1
  Ti  Ti15  1  0.31105779  0.72275034  0.22293864  1
  Ti  Ti16  1  0.42301649  0.73861600  0.67325881  1
  Ti  Ti17  1  0.37612548  0.70484949  0.91686084  1
  Ti  Ti18  1  0.85729920  0.13109971  0.32231048  1
  Ti  Ti19  1  0.76367402  0.10155778  0.51797279  1
  Ti  Ti20  1  0.74754355  0.11854917  0.98722593  1
  Ti  Ti21  1  0.75038826  0.47383288  0.20398384  1
  Ti  Ti22  1  0.77708486  0.50020462  0.61498220  1
  Ti  Ti23  1  0.74152131  0.32083358  0.89787376  1
  Ti  Ti24  1  0.70766907  0.74813040  0.19350607  1
  Ti  Ti25  1  0.80000197  0.74002416  0.62615951  1
  Ti  Ti26  1  0.79160772  0.84942532  0.91985448  1
  Ti  Ti27  1  0.10727651  0.21040686  0.10600716  1
  Ti  Ti28  1  0.04786216  0.25557356  0.51413424  1
  Ti  Ti29  1  0.14831688  0.28628524  0.72107996  1
  Ti  Ti30  1  0.09035704  0.45202472  0.09790641  1
  Ti  Ti31  1  0.03542330  0.67776932  0.40789374  1
  Ti  Ti32  1  0.12480544  0.60915662  0.71097795  1
  Ti  Ti33  1  0.08202410  0.84182513  0.05189749  1
  Ti  Ti34  1  0.07179366  0.88030214  0.36041594  1
  Ti  Ti35  1  0.05126463  0.94864844  0.78285497  1
  Ti  Ti36  1  0.35273444  0.25719385  0.11113907  1
  Ti  Ti37  1  0.37044444  0.25438301  0.45395257  1
  Ti  Ti38  1  0.35115622  0.28264656  0.75326022  1
  Ti  Ti39  1  0.43929822  0.53271087  0.00786909  1
  Ti  Ti40  1  0.43562236  0.62687192  0.44910025  1
  Ti  Ti41  1  0.48289937  0.58383366  0.79558243  1
  Ti  Ti42  1  0.52026287  0.91725334  0.13459786  1
  Ti  Ti43  1  0.33290581  0.87843727  0.42952802  1
  Ti  Ti44  1  0.38852930  0.96309261  0.70787920  1
  Ti  Ti45  1  0.72564278  0.24806760  0.16698639  1
  Ti  Ti46  1  0.78191049  0.31886529  0.33851185  1
  Ti  Ti47  1  0.68496286  0.21616579  0.67750231  1
  Ti  Ti48  1  0.72549598  0.52293948  0.00477563  1
  Ti  Ti49  1  0.78220762  0.52344894  0.41005409  1
  Ti  Ti50  1  0.79172415  0.54938404  0.81371991  1
  Ti  Ti51  1  0.86767817  0.95463260  0.06281311  1
  Ti  Ti52  1  0.73783495  0.89901923  0.49497307  1
  Ti  Ti53  1  0.70962772  0.88749659  0.71979827  1
  Ti  Ti54  1  0.25573923  0.08619744  0.06578739  1
  Ti  Ti55  1  0.21907516  0.14925773  0.37358953  1
  Ti  Ti56  1  0.23248736  0.10815404  0.75788015  1
  Ti  Ti57  1  0.29887411  0.43609508  0.14205311  1
  Ti  Ti58  1  0.29848446  0.47491249  0.47877771  1
  Ti  Ti59  1  0.27047121  0.46515767  0.72212648  1
  Ti  Ti60  1  0.23480138  0.70804205  0.04476173  1
  Ti  Ti61  1  0.22613861  0.69569536  0.40928800  1
  Ti  Ti62  1  0.23460807  0.78930953  0.75311606  1
  Ti  Ti63  1  0.48687334  0.11099872  0.06279698  1
  Ti  Ti64  1  0.60419411  0.04836073  0.39392241  1
  Ti  Ti65  1  0.57244390  0.06192940  0.75570741  1
  Ti  Ti66  1  0.58930872  0.41555030  0.10177424  1
  Ti  Ti67  1  0.62263542  0.39903730  0.44552399  1
  Ti  Ti68  1  0.58109446  0.37707178  0.76621873  1
  Ti  Ti69  1  0.55624615  0.75607665  0.01969516  1
  Ti  Ti70  1  0.70172892  0.71287735  0.43732443  1
  Ti  Ti71  1  0.62597061  0.70646172  0.71222586  1
  Ti  Ti72  1  0.96385264  0.11990193  0.03086492  1
  Ti  Ti73  1  0.91278098  -0.02121312  0.45781792  1
  Ti  Ti74  1  0.88565514  0.10857700  0.70369089  1
  Ti  Ti75  1  0.90894594  0.47874925  0.08894092  1
  Ti  Ti76  1  0.94087262  0.39539521  0.44252760  1
  Ti  Ti77  1  0.92047619  0.41785779  0.75429735  1
  Ti  Ti78  1  0.89166833  0.77249604  0.12868662  1
  Ti  Ti79  1  0.89763403  0.79313022  0.45604486  1
  Ti  Ti80  1  0.93495392  0.65611199  0.74705979  1
  Ti  Ti81  1  0.23699135  0.34095523  0.32301141  1
  Ti  Ti82  1  0.23051903  0.15042356  0.56509999  1
  Ti  Ti83  1  0.26349801  0.22380547  0.91504013  1
  Ti  Ti84  1  0.17766323  0.54120757  0.28700798  1
  Ti  Ti85  1  0.27069177  0.63998000  0.58186937  1
  Ti  Ti86  1  0.22352917  0.52381215  0.97458575  1
  Ti  Ti87  1  0.23193620  0.90084534  0.15569823  1
  Ti  Ti88  1  0.17504325  0.96663608  0.63312636  1
  Ti  Ti89  1  0.26481601  0.88088412  0.95779044  1
  Ti  Ti90  1  0.54300000  0.21099844  0.23541173  1
  Ti  Ti91  1  0.55616372  0.20480022  0.51673486  1
  Ti  Ti92  1  0.57210339  0.19895387  0.87725743  1
  Ti  Ti93  1  0.56980398  0.51083938  0.29149680  1
  Ti  Ti94  1  0.56262579  0.52553184  0.60020957  1
  Ti  Ti95  1  0.65493034  0.66701416  0.89207085  1
  Ti  Ti96  1  0.70583388  0.96887190  0.20308229  1
  Ti  Ti97  1  0.59363990  0.98374937  0.58984613  1
  Ti  Ti98  1  0.60639316  0.97647492  0.96594351  1
  Ti  Ti99  1  0.91343559  0.29204204  0.16545537  1
  Ti  Ti100  1  0.85580573  0.29406430  0.60482779  1
  Ti  Ti101  1  0.93640850  0.23948413  0.88220176  1
  Ti  Ti102  1  0.87689374  0.63193277  0.28316591  1
  Ti  Ti103  1  0.97261448  0.53272224  0.57160312  1
  Ti  Ti104  1  0.86962524  0.65526530  0.95535013  1
  Ti  Ti105  1  0.88833805  0.94632852  0.25531440  1
  Ti  Ti106  1  0.95579739  0.85117427  0.64285023  1
  Ti  Ti107  1  0.88472528  1.03902601  0.87530351  1
  Co  Co108  1  0.89366394  0.43691921  0.27690167  1
  Co  Co109  1  0.40262598  0.55344404  0.60296865  1
  Co  Co110  1  0.23440297  -0.04403381  0.81065923  1
  Co  Co111  1  0.84278776  0.24491753  0.02119172  1
  Co  Co112  1  0.86951615  0.23508577  0.45571903  1
  Co  Co113  1  0.78534147  0.73227276  0.79524842  1
  Co  Co114  1  0.52721275  0.23333191  0.69850869  1
  Co  Co115  1  0.73138987  0.14868463  0.82692527  1
  Co  Co116  1  0.64746877  0.59323241  0.13530732  1
  Co  Co117  1  0.42839648  0.44884500  0.72287635  1
  Co  Co118  1  0.09165320  0.13615023  0.64321006  1
  Co  Co119  1  0.94935450  0.79571496  -0.02005549  1
  Co  Co120  1  0.08806249  0.01142264  0.08052275  1
  Co  Co121  1  -0.00654539  -0.05093370  -0.04918381  1
  Co  Co122  1  0.64489657  0.35584674  0.60544539  1
  Co  Co123  1  0.54580749  0.04146074  0.24105743  1
  Co  Co124  1  0.22022857  0.66450652  0.87336323  1
  Co  Co125  1  0.50438457  0.75642199  0.83293081  1
  Co  Co126  1  0.47058340  0.46575696  0.45728260  1
  Co  Co127  1  0.47429655  0.14905397  0.37251334  1
  Co  Co128  1  0.09426575  0.20948850  0.28811165  1
  Co  Co129  1  0.83043913  0.61724720  0.12407138  1
  Co  Co130  1  0.00489496  0.04058832  0.32576327  1
  Co  Co131  1  0.85944336  0.93836315  0.75530855  1
  Co  Co132  1  0.64114202  0.83313126  0.85786547  1
  Co  Co133  1  0.33599994  0.52201623  0.86593614  1
  Co  Co134  1  0.71993476  -0.00762521  0.85253769  1
  Co  Co135  1  0.47152532  0.53334953  0.16584140  1
  Co  Co136  1  0.83696083  -0.03096063  0.60057887  1
  Co  Co137  1  0.60679131  0.57649797  0.43878652  1
  Co  Co138  1  0.07074691  0.76401757  0.73359274  1
  Co  Co139  1  0.72885824  0.70593616  0.03400211  1
  Co  Co140  1  0.64034519  0.80768609  0.57833099  1
  Co  Co141  1  0.00253359  0.37940948  0.61462027  1
  Co  Co142  1  0.12776401  0.59154924  0.51289899  1
  Co  Co143  1  -0.06829848  0.12797970  0.55175661  1
  Co  Co144  1  0.49866976  0.32159214  0.37207511  1
  Co  Co145  1  0.72585994  0.05007997  0.68671915  1
  Co  Co146  1  -0.00108848  0.31439989  0.02598023  1
  Co  Co147  1  0.08157678  0.45478130  0.74033221  1
  Co  Co148  1  0.31682579  0.58280540  0.15002858  1
  Co  Co149  1  0.11729394  0.84010358  -0.11347289  1
  Co  Co150  1  -0.00950512  0.53470397  0.37640121  1
  Co  Co151  1  0.69383982  0.62785390  0.57331869  1
  Co  Co152  1  -0.04631728  0.27018251  0.32515450  1
  Co  Co153  1  0.17879970  0.33298318  0.18006901  1
  Co  Co154  1  0.42707493  0.67484940  0.08262645  1
  Co  Co155  1  0.36761860  0.85535891  0.82417037  1
  Co  Co156  1  0.76328389  0.37559574  0.06023103  1
  Co  Co157  1  0.22662032  0.37864593  0.85428849  1
  Co  Co158  1  0.16010862  0.59597148  0.13202214  1
  Co  Co159  1  0.78433144  0.38822549  0.49807329  1
  Co  Co160  1  -0.00188822  0.00696707  0.63396492  1
  Co  Co161  1  0.69756988  0.12582415  0.27657518  1
  Ni  Ni162  1  0.04273892  0.12277707  0.80214335  1
  Ni  Ni163  1  0.53494586  0.86028066  0.69547942  1
  Ni  Ni164  1  0.03567114  0.89872836  0.19821020  1
  Ni  Ni165  1  0.37578549  -0.01792650  0.07359544  1
  Ni  Ni166  1  0.47289254  0.05109039  0.51095057  1
  Ni  Ni167  1  0.36768426  0.82185537  0.09620105  1
  Ni  Ni168  1  0.32827210  0.37583716  -0.01129500  1
  Ni  Ni169  1  0.76206923  -0.00543178  0.36335021  1
  Ni  Ni170  1  0.19928559  -0.01984301  0.45284227  1
  Ni  Ni171  1  -0.00650935  0.69361765  0.58965419  1
  Ni  Ni172  1  0.17471551  0.33778110  0.01226523  1
  Ni  Ni173  1  0.64299699  0.53623133  0.74799998  1
  Ni  Ni174  1  0.26636314  -0.02176914  0.30229776  1
  Ni  Ni175  1  0.69843865  0.61761985  0.29602042  1
  Ni  Ni176  1  0.42020767  0.13932230  0.79707457  1
  Ni  Ni177  1  0.32369653  -0.01017439  0.56315142  1
  Ni  Ni178  1  0.21364266  0.82738523  0.30922915  1
  Ni  Ni179  1  0.01470177  0.65852939  0.07198397  1
  Ni  Ni180  1  0.58428556  0.51016167  -0.09254033  1
  Ni  Ni181  1  0.70690286  0.24898248  0.48288867  1
  Ni  Ni182  1  0.37478218  0.24855716  0.28214149  1
  Ni  Ni183  1  -0.05705763  0.78761743  0.29259431  1
  Ni  Ni184  1  0.31472044  0.62858086  0.74366634  1
  Ni  Ni185  1  0.51216936  -0.06565456  0.83365804  1
  Ni  Ni186  1  0.20179937  0.30309308  0.47836632  1
  Ni  Ni187  1  0.42130959  0.21965626  -0.04557800  1
  Ni  Ni188  1  0.85982884  0.63600135  0.50148642  1
  Ni  Ni189  1  0.63155903  0.23763103  0.03558280  1
  Ni  Ni190  1  -0.02379910  0.54062687  0.86336135  1
  Ni  Ni191  1  -0.02226945  0.13042546  0.19632964  1
  Ni  Ni192  1  0.46716005  0.36099101  0.19487017  1
  Ni  Ni193  1  0.82805614  0.26291928  0.76413596  1
  Ni  Ni194  1  0.78637645  0.82837218  0.32652950  1
  Ni  Ni195  1  0.24222691  0.17917549  0.21059273  1
  Ni  Ni196  1  0.69165588  0.86640203  0.06761827  1
  Ni  Ni197  1  0.64224071  0.09613423  0.11914661  1
  Ni  Ni198  1  0.30010580  0.82376764  0.58694508  1
  Ni  Ni199  1  0.12715594  0.44517604  0.42081748  1
  Ni  Ni200  1  0.98677259  0.25281358  0.71279378  1
  Ni  Ni201  1  0.45125301  0.87663170  -0.03069359  1
  Ni  Ni202  1  0.63042659  0.35537300  0.26899436  1
  Ni  Ni203  1  0.34519338  0.05946760  0.41940192  1
  Ni  Ni204  1  0.58349732  0.35740239  0.94630284  1
  Ni  Ni205  1  0.82054043  0.10310653  0.14825204  1
  Ni  Ni206  1  -0.06146934  0.81232387  0.82210107  1
  Ni  Ni207  1  0.01381115  0.55982528  0.21213273  1
  Ni  Ni208  1  0.87821879  0.41656806  -0.06480422  1
  Ni  Ni209  1  0.29697038  0.32057574  0.60495248  1
  Ni  Ni210  1  0.06018962  0.90402976  0.51896103  1
  Ni  Ni211  1  0.74309140  0.39751700  0.73867436  1
  Ni  Ni212  1  0.09751807  0.21360645  -0.07116013  1
  Ni  Ni213  1  0.53920518  0.68779332  0.55780901  1
  Ni  Ni214  1  0.33134286  0.59462881  0.32457700  1
