# generated using pymatgen
data_Ti108Co54Ni53
_symmetry_space_group_name_H-M   'P 1'
_cell_length_a   14.66680333
_cell_length_b   14.59692077
_cell_length_c   14.63779178
_cell_angle_alpha   89.69162189
_cell_angle_beta   89.99999636
_cell_angle_gamma   89.95221319
_symmetry_Int_Tables_number   1
_chemical_formula_structural   Ti108Co54Ni53
_chemical_formula_sum   'Ti108 Co54 Ni53'
_cell_volume   3133.76079559
_cell_formula_units_Z   1
loop_
 _symmetry_equiv_pos_site_id
 _symmetry_equiv_pos_as_xyz
  1  'x, y, z'
loop_
 _atom_site_type_symbol
 _atom_site_label
 _atom_site_symmetry_multiplicity
 _atom_site_fract_x
 _atom_site_fract_y
 _atom_site_fract_z
 _atom_site_occupancy
  Ti  Ti0  1  -0.01241690  0.14521075  0.26390767  1
  Ti  Ti1  1  0.12251520  0.05948496  0.56280065  1
  Ti  Ti2  1  0.06750210  0.06860369  1.00319302  1
  Ti  Ti3  1  0.07832068  0.44731418  0.27494727  1
  Ti  Ti4  1  0.15609520  0.41637820  0.62830262  1
  Ti  Ti5  1  0.11471906  0.37474184  0.95246309  1
  Ti  Ti6  1  0.11599981  0.73936267  0.24409986  1
  Ti  Ti7  1  0.05013292  0.75343214  0.65863310  1
  Ti  Ti8  1  0.10566904  0.70970781  0.85645733  1
  Ti  Ti9  1  0.38772492  0.14581562  0.24316941  1
  Ti  Ti10  1  0.33957180  0.05121037  0.57814497  1
  Ti  Ti11  1  0.36755878  0.04624688  0.88347296  1
  Ti  Ti12  1  0.38211022  0.44213961  0.25880830  1
  Ti  Ti13  1  0.36961332  0.38894497  0.64152274  1
  Ti  Ti14  1  0.43587483  0.38113059  0.90859447  1
  Ti  Ti15  1  0.44657968  0.81383017  0.23737835  1
  Ti  Ti16  1  0.36161324  0.73102862  0.61574253  1
  Ti  Ti17  1  0.45537067  0.70424067  0.90640978  1
  Ti  Ti18  1  0.76290127  0.17723847  0.19700166  1
  Ti  Ti19  1  0.67886861  0.15489179  0.61423623  1
  Ti  Ti20  1  0.76524168  0.10756705  0.99121904  1
  Ti  Ti21  1  0.77659319  0.38211123  0.32670495  1
  Ti  Ti22  1  0.82925009  0.42536891  0.58015639  1
  Ti  Ti23  1  0.75091905  0.45413691  0.85539887  1
  Ti  Ti24  1  0.73465816  0.70390275  0.21757997  1
  Ti  Ti25  1  0.75690196  0.73099585  0.53367745  1
  Ti  Ti26  1  0.77808990  0.81082773  0.86091320  1
  Ti  Ti27  1  0.10886291  0.28918899  0.13887322  1
  Ti  Ti28  1  0.12776455  0.24979339  0.34708090  1
  Ti  Ti29  1  0.07722760  0.21510947  0.68962532  1
  Ti  Ti30  1  0.07638594  0.60115507  0.12050644  1
  Ti  Ti31  1  0.14253215  0.58331221  0.41800319  1
  Ti  Ti32  1  0.10606140  0.52217171  0.80971277  1
  Ti  Ti33  1  0.15544071  0.91819789  0.14426116  1
  Ti  Ti34  1  0.10561009  0.91022909  0.35458143  1
  Ti  Ti35  1  0.06094034  0.94891453  0.74267459  1
  Ti  Ti36  1  0.46926224  0.23517598  0.07342705  1
  Ti  Ti37  1  0.41196805  0.29012673  0.44207646  1
  Ti  Ti38  1  0.38956129  0.19122255  0.74019772  1
  Ti  Ti39  1  0.40684714  0.60126845  0.12166689  1
  Ti  Ti40  1  0.40132750  0.61840831  0.45994016  1
  Ti  Ti41  1  0.42044927  0.56874395  0.71054033  1
  Ti  Ti42  1  0.45451617  0.94996902  0.04582948  1
  Ti  Ti43  1  0.39245214  0.98286120  0.37571140  1
  Ti  Ti44  1  0.35814929  0.85617349  0.76778905  1
  Ti  Ti45  1  0.80700804  0.29033746  0.00905813  1
  Ti  Ti46  1  0.69722705  0.30616948  0.50351439  1
  Ti  Ti47  1  0.75760188  0.21704398  0.80959460  1
  Ti  Ti48  1  0.73529118  0.52952684  0.13359406  1
  Ti  Ti49  1  0.64161372  0.53305210  0.45414003  1
  Ti  Ti50  1  0.71664015  0.57476129  0.65687303  1
  Ti  Ti51  1  0.72949025  0.87550228  0.09491207  1
  Ti  Ti52  1  0.78889116  0.99861642  0.37755876  1
  Ti  Ti53  1  0.75339964  0.99926300  0.80410389  1
  Ti  Ti54  1  0.31820054  0.13404361  0.04408139  1
  Ti  Ti55  1  0.26414471  0.12532437  0.41125347  1
  Ti  Ti56  1  0.23785337  0.00726310  0.74537601  1
  Ti  Ti57  1  0.23384140  0.44192377  0.11072157  1
  Ti  Ti58  1  0.25326267  0.42397218  0.40261048  1
  Ti  Ti59  1  0.26919303  0.40590394  0.82136830  1
  Ti  Ti60  1  0.28763405  0.79292361  0.10899283  1
  Ti  Ti61  1  0.33792819  0.80551308  0.40950356  1
  Ti  Ti62  1  0.28716421  0.68853675  0.80635122  1
  Ti  Ti63  1  0.61324030  0.06401632  0.11491265  1
  Ti  Ti64  1  0.60725442  0.05404708  0.44591641  1
  Ti  Ti65  1  0.55317379  0.08314126  0.77023498  1
  Ti  Ti66  1  0.55908918  0.43254175  0.08551144  1
  Ti  Ti67  1  0.57836026  0.35730343  0.35396544  1
  Ti  Ti68  1  0.55741588  0.42078203  0.73044579  1
  Ti  Ti69  1  0.59718747  0.65683233  0.04394154  1
  Ti  Ti70  1  0.55968092  0.72379698  0.37625271  1
  Ti  Ti71  1  0.59288899  0.86096001  0.76712601  1
  Ti  Ti72  1  0.90018178  0.02662288  0.09876470  1
  Ti  Ti73  1  0.94301096  0.11882977  0.46290503  1
  Ti  Ti74  1  0.94720840  0.09599733  0.80126340  1
  Ti  Ti75  1  0.89495617  0.46682921  0.02295261  1
  Ti  Ti76  1  0.93349651  0.47191763  0.41271635  1
  Ti  Ti77  1  0.98220778  0.43654738  0.69189579  1
  Ti  Ti78  1  0.88362668  0.66799911  0.07143997  1
  Ti  Ti79  1  0.88014169  0.66608541  0.37902875  1
  Ti  Ti80  1  0.84123479  0.72848039  0.70433038  1
  Ti  Ti81  1  0.19429083  0.13051532  0.20141659  1
  Ti  Ti82  1  0.21285110  0.26631840  0.53160079  1
  Ti  Ti83  1  0.23306169  0.21407018  0.85114068  1
  Ti  Ti84  1  0.28666033  0.66834042  0.28674890  1
  Ti  Ti85  1  0.25741227  0.56222728  0.57520602  1
  Ti  Ti86  1  0.23175240  0.55556370  0.95626460  1
  Ti  Ti87  1  0.33822497  0.97317826  0.18804761  1
  Ti  Ti88  1  0.19240530  0.86423689  0.59455712  1
  Ti  Ti89  1  0.19201310  0.87522005  0.92632733  1
  Ti  Ti90  1  0.56250440  0.18120576  0.27813905  1
  Ti  Ti91  1  0.52459703  0.26832108  0.62043861  1
  Ti  Ti92  1  0.60989528  0.26973823  0.95431908  1
  Ti  Ti93  1  0.59455753  0.54955248  0.26056186  1
  Ti  Ti94  1  0.56029516  0.68329978  0.59117653  1
  Ti  Ti95  1  0.58671531  0.58413306  0.82711869  1
  Ti  Ti96  1  0.64292742  0.88621082  0.26891220  1
  Ti  Ti97  1  0.62286643  0.87327642  0.55994504  1
  Ti  Ti98  1  0.62723919  0.96415381  0.94650883  1
  Ti  Ti99  1  0.93159080  0.33520203  0.20171585  1
  Ti  Ti100  1  0.88665252  0.23391247  0.63154942  1
  Ti  Ti101  1  0.94517080  0.28798310  0.84377428  1
  Ti  Ti102  1  0.90317665  0.52834099  0.21846043  1
  Ti  Ti103  1  0.92328111  0.60659424  0.58076911  1
  Ti  Ti104  1  0.89569917  0.62589274  0.88280749  1
  Ti  Ti105  1  0.93878894  0.88165277  0.21820283  1
  Ti  Ti106  1  0.81945177  0.97354962  0.57602070  1
  Ti  Ti107  1  0.94588906  0.92000501  0.90735778  1
  Co  Co108  1  0.20735284  0.70489286  0.66758812  1
  Co  Co109  1  0.05793246  0.21657982  0.50899381  1
  Co  Co110  1  0.30720675  0.27274660  0.14925162  1
  Co  Co111  1  0.66508309  0.72710328  0.70494728  1
  Co  Co112  1  0.35822418  0.21528648  0.57885669  1
  Co  Co113  1  0.23111340  0.14382058  0.66394078  1
  Co  Co114  1  -0.00570435  0.74554250  -0.03608936  1
  Co  Co115  1  0.02336483  0.76934113  0.11900556  1
  Co  Co116  1  0.59116831  0.42807354  0.90167345  1
  Co  Co117  1  0.79579965  -0.04843087  -0.03532320  1
  Co  Co118  1  0.75424780  0.57262443  -0.02561867  1
  Co  Co119  1  0.50394285  0.09704830  -0.02220561  1
  Co  Co120  1  0.07364812  0.19200916  0.87751248  1
  Co  Co121  1  -0.02617411  0.07685725  0.63279244  1
  Co  Co122  1  0.03782208  0.44177011  0.10157043  1
  Co  Co123  1  0.22235033  0.52910154  0.25685709  1
  Co  Co124  1  0.63216945  0.73184523  0.87140795  1
  Co  Co125  1  0.66089658  0.05338910  0.27839206  1
  Co  Co126  1  0.17803513  0.83640088  0.76327310  1
  Co  Co127  1  0.64318745  0.38632007  0.21586019  1
  Co  Co128  1  0.57157564  0.21323796  0.46185303  1
  Co  Co129  1  0.64330237  0.12906325  0.88849031  1
  Co  Co130  1  0.56276268  0.70458207  0.19576382  1
  Co  Co131  1  0.10512867  0.58446088  0.65465351  1
  Co  Co132  1  0.78801117  0.36910838  0.15317901  1
  Co  Co133  1  0.22444454  0.00864822  0.29631772  1
  Co  Co134  1  0.56734766  0.86536353  0.12326801  1
  Co  Co135  1  0.24767374  0.29589299  0.70075831  1
  Co  Co136  1  -0.01497696  0.34987674  0.55759350  1
  Co  Co137  1  0.21517217  0.36157930  0.24873238  1
  Co  Co138  1  0.05136976  0.01284099  0.21259074  1
  Co  Co139  1  0.44563788  0.75503350  0.07441674  1
  Co  Co140  1  0.77168259  0.54396271  0.31480466  1
  Co  Co141  1  0.41112310  0.21372598  0.90785836  1
  Co  Co142  1  0.15030352  0.73681494  0.02921479  1
  Co  Co143  1  0.75149049  0.86358732  0.67902699  1
  Co  Co144  1  0.79769856  0.56106405  0.48163721  1
  Co  Co145  1  0.52682888  0.89260744  0.38046643  1
  Co  Co146  1  0.36972987  0.53685612  0.86077414  1
  Co  Co147  1  0.10409289  0.08174784  0.38683270  1
  Co  Co148  1  0.70651706  0.41681653  0.01831618  1
  Co  Co149  1  0.25143991  0.54502467  0.73765114  1
  Co  Co150  1  0.50955592  0.10974985  0.60441494  1
  Co  Co151  1  0.85132892  0.53408261  0.73361551  1
  Co  Co152  1  0.70953043  0.67594220  0.38501386  1
  Co  Co153  1  0.23705284  0.62602998  0.12619502  1
  Co  Co154  1  0.74477628  0.63218458  0.81840834  1
  Co  Co155  1  0.09998316  0.34713903  0.79187914  1
  Co  Co156  1  0.52818119  0.38393929  0.50860948  1
  Co  Co157  1  0.47828660  0.85335214  0.65212441  1
  Co  Co158  1  0.37294393  0.45652763  0.49964666  1
  Co  Co159  1  0.78265188  0.13267254  0.49453270  1
  Co  Co160  1  0.48385260  0.71724616  0.74480814  1
  Co  Co161  1  0.55514110  0.82056565  -0.02971724  1
  Ni  Ni162  1  0.47506482  0.79565519  0.50040430  1
  Ni  Ni163  1  0.78822836  -0.01894449  0.21127596  1
  Ni  Ni164  1  -0.01644556  0.62764143  0.74705816  1
  Ni  Ni165  1  0.47641367  0.31619860  0.21525182  1
  Ni  Ni166  1  -0.02155326  0.30750113  0.01515864  1
  Ni  Ni167  1  0.89538061  -0.06357241  0.72667789  1
  Ni  Ni168  1  0.27640324  -0.02789557  0.02976388  1
  Ni  Ni169  1  0.64157201  0.25760478  0.11698344  1
  Ni  Ni170  1  0.28879017  0.31848608  -0.01859530  1
  Ni  Ni171  1  0.22760261  -0.03694112  0.45689925  1
  Ni  Ni172  1  0.85789016  0.21787511  0.32822996  1
  Ni  Ni173  1  0.17056831  0.19978322  0.01822083  1
  Ni  Ni174  1  0.85835009  0.28747722  0.47390119  1
  Ni  Ni175  1  0.70539711  0.19812638  0.36409786  1
  Ni  Ni176  1  0.87951529  0.83389158  0.04321906  1
  Ni  Ni177  1  0.69693669  0.84569526  0.42089868  1
  Ni  Ni178  1  -0.02096375  0.31692303  0.36943006  1
  Ni  Ni179  1  0.36392910  0.84963153  0.94344686  1
  Ni  Ni180  1  -0.04844750  0.45345263  0.86346689  1
  Ni  Ni181  1  0.30690419  0.26269031  0.32247199  1
  Ni  Ni182  1  0.04226621  0.50869773  0.53228555  1
  Ni  Ni183  1  0.02704773  0.60733638  0.30444616  1
  Ni  Ni184  1  0.65440143  0.43880854  0.59582182  1
  Ni  Ni185  1  0.83346341  0.36451351  0.74313574  1
  Ni  Ni186  1  0.50953311  0.52526198  0.57843397  1
  Ni  Ni187  1  0.30422689  0.69570263  -0.01926637  1
  Ni  Ni188  1  0.48493754  -0.06198716  0.86572942  1
  Ni  Ni189  1  0.10570964  0.38408209  0.45442901  1
  Ni  Ni190  1  0.03806503  0.56092833  -0.03420064  1
  Ni  Ni191  1  0.43839455  0.12259480  0.45113595  1
  Ni  Ni192  1  0.47894069  0.53795494  -0.02087165  1
  Ni  Ni193  1  0.65613017  0.00214017  0.65848002  1
  Ni  Ni194  1  0.48564053  -0.03169985  0.52688544  1
  Ni  Ni195  1  0.23180018  0.70893697  0.49077217  1
  Ni  Ni196  1  0.74034064  0.73272936  0.00573776  1
  Ni  Ni197  1  0.50603793  -0.00341731  0.23521995  1
  Ni  Ni198  1  0.44504532  0.62716035  0.29123915  1
  Ni  Ni199  1  0.19659064  0.05840329  0.90203253  1
  Ni  Ni200  1  0.39548314  0.40711792  0.08174446  1
  Ni  Ni201  1  0.55027186  0.26333757  0.79880836  1
  Ni  Ni202  1  0.25532488  0.84324370  0.27127624  1
  Ni  Ni203  1  0.48438891  0.49483509  0.38608320  1
  Ni  Ni204  1  0.02088841  -0.08443630  0.05830864  1
  Ni  Ni205  1  0.42132696  0.00087054  0.71430183  1
  Ni  Ni206  1  -0.08580110  0.19260685  0.11665918  1
  Ni  Ni207  1  0.92320480  0.15711152  -0.04308303  1
  Ni  Ni208  1  0.80995568  0.82015616  0.30857860  1
  Ni  Ni209  1  0.92126535  0.71137729  0.22826616  1
  Ni  Ni210  1  -0.03981734  0.79123610  0.80333514  1
  Ni  Ni211  1  0.81655655  0.09396969  0.68853778  1
  Ni  Ni212  1  0.34664418  0.88815841  0.55488081  1
  Ni  Ni213  1  0.68370833  0.30772948  0.69059750  1
  Ni  Ni214  1  -0.04086559  -0.00671194  0.35184833  1
