# generated using pymatgen
data_Ti108Co54Ni53
_symmetry_space_group_name_H-M   'P 1'
_cell_length_a   14.59522243
_cell_length_b   14.62650220
_cell_length_c   14.62380142
_cell_angle_alpha   89.98578148
_cell_angle_beta   89.77366589
_cell_angle_gamma   89.93418285
_symmetry_Int_Tables_number   1
_chemical_formula_structural   Ti108Co54Ni53
_chemical_formula_sum   'Ti108 Co54 Ni53'
_cell_volume   3121.81952052
_cell_formula_units_Z   1
loop_
 _symmetry_equiv_pos_site_id
 _symmetry_equiv_pos_as_xyz
  1  'x, y, z'
loop_
 _atom_site_type_symbol
 _atom_site_label
 _atom_site_symmetry_multiplicity
 _atom_site_fract_x
 _atom_site_fract_y
 _atom_site_fract_z
 _atom_site_occupancy
  Ti  Ti0  1  0.10863195  0.03093248  0.25144597  1
  Ti  Ti1  1  0.11682789  0.06429901  0.63771846  1
  Ti  Ti2  1  0.10282056  0.02339651  0.90251342  1
  Ti  Ti3  1  0.06272835  0.45819830  0.21540615  1
  Ti  Ti4  1  0.01226050  0.42877400  0.58623729  1
  Ti  Ti5  1  0.07285750  0.42707306  0.90156968  1
  Ti  Ti6  1  0.01364812  0.72116475  0.27674626  1
  Ti  Ti7  1  0.03109316  0.73845603  0.63416907  1
  Ti  Ti8  1  0.08288861  0.75780927  0.94973638  1
  Ti  Ti9  1  0.30812631  0.06285997  0.19510396  1
  Ti  Ti10  1  0.34986181  0.02869916  0.64648493  1
  Ti  Ti11  1  0.50589390  0.07019848  0.89882662  1
  Ti  Ti12  1  0.46628266  0.44314793  0.25361460  1
  Ti  Ti13  1  0.40630265  0.49683641  0.54808126  1
  Ti  Ti14  1  0.40499535  0.38222316  0.83123018  1
  Ti  Ti15  1  0.48721805  0.83743087  0.25014674  1
  Ti  Ti16  1  0.49706321  0.78862316  0.56390245  1
  Ti  Ti17  1  0.47219181  0.77822831  0.91711767  1
  Ti  Ti18  1  0.74146411  0.07871223  0.24278319  1
  Ti  Ti19  1  0.75182783  0.04001978  0.65552730  1
  Ti  Ti20  1  0.70436011  0.09706939  0.85195491  1
  Ti  Ti21  1  0.73110668  0.43650120  0.22614974  1
  Ti  Ti22  1  0.77121351  0.41419377  0.52649821  1
  Ti  Ti23  1  0.70581244  0.39273478  0.94489218  1
  Ti  Ti24  1  0.67411118  0.76767102  0.21422488  1
  Ti  Ti25  1  0.80612525  0.78261757  0.60546417  1
  Ti  Ti26  1  0.79129189  0.72387531  0.92213371  1
  Ti  Ti27  1  0.10557171  0.31761047  0.06112379  1
  Ti  Ti28  1  0.08701763  0.31214362  0.43243486  1
  Ti  Ti29  1  0.10130848  0.24844172  0.83602561  1
  Ti  Ti30  1  0.09125888  0.60311186  0.10052119  1
  Ti  Ti31  1  0.11791807  0.59277793  0.39612300  1
  Ti  Ti32  1  0.11093964  0.54163429  0.73839845  1
  Ti  Ti33  1  0.06288300  0.92199129  0.07557636  1
  Ti  Ti34  1  0.08045722  0.87216412  0.39387663  1
  Ti  Ti35  1  0.02311851  0.94994703  0.74028083  1
  Ti  Ti36  1  0.37071882  0.22841421  0.10499502  1
  Ti  Ti37  1  0.42505025  0.25509653  0.37382824  1
  Ti  Ti38  1  0.41967799  0.19970942  0.76397932  1
  Ti  Ti39  1  0.42044760  0.55976896  0.12064703  1
  Ti  Ti40  1  0.35283695  0.68456156  0.47569735  1
  Ti  Ti41  1  0.38637882  0.57726537  0.80193103  1
  Ti  Ti42  1  0.37546193  0.90160346  0.09671225  1
  Ti  Ti43  1  0.40249871  0.92578766  0.45640068  1
  Ti  Ti44  1  0.44907649  0.75770265  0.73729865  1
  Ti  Ti45  1  0.76652415  0.28050890  0.12479414  1
  Ti  Ti46  1  0.86039790  0.22207284  0.32461027  1
  Ti  Ti47  1  0.72600270  0.33403165  0.72950342  1
  Ti  Ti48  1  0.74470964  0.61508720  0.08520564  1
  Ti  Ti49  1  0.77671231  0.53844346  0.37941164  1
  Ti  Ti50  1  0.75184674  0.54277833  0.77424415  1
  Ti  Ti51  1  0.79519063  0.95112623  0.03270009  1
  Ti  Ti52  1  0.74834107  0.91383000  0.36947062  1
  Ti  Ti53  1  0.76906007  0.86360549  0.78738980  1
  Ti  Ti54  1  0.24218047  0.06973154  0.02498476  1
  Ti  Ti55  1  0.23759854  0.09578450  0.45990513  1
  Ti  Ti56  1  0.24644872  0.12396136  0.81108249  1
  Ti  Ti57  1  0.27714365  0.40563966  0.14239407  1
  Ti  Ti58  1  0.28440653  0.35163028  0.47333169  1
  Ti  Ti59  1  0.26657474  0.43566562  0.67543214  1
  Ti  Ti60  1  0.23278802  0.75866886  0.07668242  1
  Ti  Ti61  1  0.21166424  0.74782242  0.36568843  1
  Ti  Ti62  1  0.24409447  0.72573026  0.75112570  1
  Ti  Ti63  1  0.52071069  0.06293021  0.14344167  1
  Ti  Ti64  1  0.53377231  0.07315471  0.37312456  1
  Ti  Ti65  1  0.55473083  0.03894864  0.70630837  1
  Ti  Ti66  1  0.60690824  0.45848977  0.09639850  1
  Ti  Ti67  1  0.62532328  0.38897294  0.38641735  1
  Ti  Ti68  1  0.58633376  0.45750270  0.80936006  1
  Ti  Ti69  1  0.49071734  0.73779126  0.09047450  1
  Ti  Ti70  1  0.55061903  0.73957475  0.39272861  1
  Ti  Ti71  1  0.65495862  0.72972542  0.70491918  1
  Ti  Ti72  1  0.90495135  0.09288240  0.13915079  1
  Ti  Ti73  1  0.95193542  0.12021863  0.48572346  1
  Ti  Ti74  1  0.95329298  0.12884405  0.82680102  1
  Ti  Ti75  1  0.91957799  0.32772723  0.03876850  1
  Ti  Ti76  1  0.95757953  0.47435514  0.40192631  1
  Ti  Ti77  1  0.93727669  0.39514635  0.76194172  1
  Ti  Ti78  1  0.86010217  0.76679531  0.13026098  1
  Ti  Ti79  1  0.88845851  0.79658151  0.44179271  1
  Ti  Ti80  1  0.94782011  0.76100914  0.79763465  1
  Ti  Ti81  1  0.24802897  0.21348797  0.30094268  1
  Ti  Ti82  1  0.29111014  0.20966673  0.60542170  1
  Ti  Ti83  1  0.26461598  0.31172315  0.94925150  1
  Ti  Ti84  1  0.30473341  0.59275125  0.27311999  1
  Ti  Ti85  1  0.22538591  0.61667616  0.58847593  1
  Ti  Ti86  1  0.22848297  0.60007595  0.91853855  1
  Ti  Ti87  1  0.27919453  0.90887908  0.29909773  1
  Ti  Ti88  1  0.21609268  0.91510649  0.54253242  1
  Ti  Ti89  1  0.33290083  0.95389006  0.89138078  1
  Ti  Ti90  1  0.55810133  0.27909358  0.20584528  1
  Ti  Ti91  1  0.52427109  0.32424330  0.55481600  1
  Ti  Ti92  1  0.58318320  0.25640464  0.87595104  1
  Ti  Ti93  1  0.60744228  0.58039997  0.30029512  1
  Ti  Ti94  1  0.56176689  0.58181842  0.65726695  1
  Ti  Ti95  1  0.51733086  0.56045357  0.96085785  1
  Ti  Ti96  1  0.60498205  0.90681305  0.10116534  1
  Ti  Ti97  1  0.64956435  0.89880063  0.55297053  1
  Ti  Ti98  1  0.64068498  0.92602876  0.90222225  1
  Ti  Ti99  1  1.02919852  0.21926389  0.20318662  1
  Ti  Ti100  1  0.98577425  0.23771540  0.64397911  1
  Ti  Ti101  1  0.80631842  0.24307445  0.89519694  1
  Ti  Ti102  1  0.90521574  0.56286682  0.19564726  1
  Ti  Ti103  1  0.89475931  0.60150499  0.56706916  1
  Ti  Ti104  1  0.91609663  0.58025404  0.87791234  1
  Ti  Ti105  1  0.93983892  0.91706975  0.24262574  1
  Ti  Ti106  1  0.99628566  0.91675886  0.55803390  1
  Ti  Ti107  1  0.92878690  0.91618414  0.89056643  1
  Co  Co108  1  0.77506951  0.64005487  0.25226078  1
  Co  Co109  1  -0.04165975  0.29494839  -0.11855748  1
  Co  Co110  1  0.15490296  0.32634249  0.57964645  1
  Co  Co111  1  0.38300285  0.63535837  0.64507914  1
  Co  Co112  1  0.33263153  0.75260518  0.19797245  1
  Co  Co113  1  0.10913422  0.37418696  0.72694489  1
  Co  Co114  1  0.77221641  -0.08443963  0.19198055  1
  Co  Co115  1  0.09166703  0.68766019  0.79795576  1
  Co  Co116  1  0.64748973  0.71714342  0.53979905  1
  Co  Co117  1  -0.04078831  0.58310989  0.71794404  1
  Co  Co118  1  0.23995152  0.44944733  0.84254710  1
  Co  Co119  1  0.78102857  0.66274926  0.47991261  1
  Co  Co120  1  0.11482471  0.18072870  0.52271138  1
  Co  Co121  1  0.70316866  0.26413626  0.27879466  1
  Co  Co122  1  0.14739532  0.21191109  0.68497926  1
  Co  Co123  1  0.46668577  0.66606802  0.24779328  1
  Co  Co124  1  0.11920482  0.85225725  0.23764667  1
  Co  Co125  1  0.94130604  0.08475362  0.29435983  1
  Co  Co126  1  0.92895296  0.80463703  -0.00936825  1
  Co  Co127  1  0.17448163  0.46503346  0.01892161  1
  Co  Co128  1  0.40207266  0.05775938  0.03368579  1
  Co  Co129  1  0.21880874  -0.06994895  0.13798618  1
  Co  Co130  1  0.81035723  0.37389297  0.36279300  1
  Co  Co131  1  0.44671130  0.38061938  0.09821063  1
  Co  Co132  1  0.45947087  0.91185289  0.64747707  1
  Co  Co133  1  0.61325647  0.30372599  0.04976733  1
  Co  Co134  1  0.70930070  0.74561420  0.37379549  1
  Co  Co135  1  0.38804025  0.32763422  0.64701438  1
  Co  Co136  1  0.37752641  0.77542105  0.35285195  1
  Co  Co137  1  0.19848133  -0.01624597  0.75390400  1
  Co  Co138  1  0.20773740  0.20938059  0.13300840  1
  Co  Co139  1  0.62284567  0.67590935  -0.00927838  1
  Co  Co140  1  -0.02241446  0.18663819  0.99488476  1
  Co  Co141  1  -0.07441810  0.07383542  0.64574725  1
  Co  Co142  1  0.82315141  0.68365918  0.73550597  1
  Co  Co143  1  0.44940891  -0.01928808  0.26610493  1
  Co  Co144  1  0.56071603  0.90995210  0.41585394  1
  Co  Co145  1  0.71284801  0.80458126  0.04177046  1
  Co  Co146  1  0.63587476  0.43253178  0.63249855  1
  Co  Co147  1  0.73066854  0.58764055  0.61535715  1
  Co  Co148  1  0.20318375  0.90055272  -0.02376730  1
  Co  Co149  1  0.49291008  0.93000635  -0.01459080  1
  Co  Co150  1  0.72251524  0.55036536  0.93512755  1
  Co  Co151  1  0.46077594  0.46074048  0.69484635  1
  Co  Co152  1  0.17251910  0.75771669  0.53143381  1
  Co  Co153  1  0.54197967  0.31641700  0.72077169  1
  Co  Co154  1  0.11976616  0.85842073  0.83752745  1
  Co  Co155  1  0.62126167  -0.11198624  0.71934376  1
  Co  Co156  1  0.51555445  0.39517726  -0.04571365  1
  Co  Co157  1  0.15038415  0.18583332  -0.03065202  1
  Co  Co158  1  0.48640568  0.17268239  0.62805616  1
  Co  Co159  1  0.84089177  0.78913681  0.28893262  1
  Co  Co160  1  0.16976174  0.68107318  0.21963358  1
  Co  Co161  1  0.26706833  0.29451987  0.77538257  1
  Ni  Ni162  1  0.56011105  0.63486630  0.82122201  1
  Ni  Ni163  1  0.29710094  0.78086178  0.89747304  1
  Ni  Ni164  1  0.44932307  0.57005146  0.37457238  1
  Ni  Ni165  1  0.80740116  0.46206858  0.06834182  1
  Ni  Ni166  1  0.51917236  0.02403179  0.54014329  1
  Ni  Ni167  1  0.64496645  0.18528709  0.71803470  1
  Ni  Ni168  1  0.35462873  0.06580492  0.35816361  1
  Ni  Ni169  1  0.58742015  0.61560600  0.14327852  1
  Ni  Ni170  1  0.07978963  0.09519981  0.09186703  1
  Ni  Ni171  1  0.83696083  0.02233151  0.79626383  1
  Ni  Ni172  1  0.32205088  0.79743684  0.60531174  1
  Ni  Ni173  1  -0.08625037  0.63533458  0.37224123  1
  Ni  Ni174  1  0.48197449  -0.08024716  0.81230452  1
  Ni  Ni175  1  -0.02019280  0.33533942  0.31534521  1
  Ni  Ni176  1  0.89442781  0.39183458  0.19511368  1
  Ni  Ni177  1  0.31416833  0.38672579  0.30967769  1
  Ni  Ni178  1  0.37049778  0.17454563  0.92593041  1
  Ni  Ni179  1  0.82344374  -0.04256097  0.52500165  1
  Ni  Ni180  1  0.08882834  0.02259578  0.45874774  1
  Ni  Ni181  1  0.03184313  0.72028168  0.46283277  1
  Ni  Ni182  1  0.36921969  0.65595239  -0.01449840  1
  Ni  Ni183  1  0.03690528  0.76498762  0.11974167  1
  Ni  Ni184  1  -0.06558645  -0.03365021  0.40329143  1
  Ni  Ni185  1  0.34783807  0.47523275  -0.02270676  1
  Ni  Ni186  1  -0.04915091  0.03226422  -0.00733847  1
  Ni  Ni187  1  0.64061380  0.53566251  0.48571596  1
  Ni  Ni188  1  0.64250736  0.05333511  0.01167058  1
  Ni  Ni189  1  0.40581085  0.13959735  0.49492184  1
  Ni  Ni190  1  0.51293017  0.18604651  0.02157535  1
  Ni  Ni191  1  0.29301564  0.52274479  0.42337981  1
  Ni  Ni192  1  0.06758011  0.58697614  0.93478359  1
  Ni  Ni193  1  0.05971979  0.58855796  0.56465255  1
  Ni  Ni194  1  0.15334253  0.84451633  0.67556594  1
  Ni  Ni195  1  -0.06384252  0.64561928  0.03539475  1
  Ni  Ni196  1  0.15502523  0.32765274  0.24238169  1
  Ni  Ni197  1  0.84275516  0.46774351  0.65799016  1
  Ni  Ni198  1  0.86281676  0.42998150  0.90889120  1
  Ni  Ni199  1  0.08059776  0.15748896  0.35936256  1
  Ni  Ni200  1  0.50775856  0.62711029  0.51399175  1
  Ni  Ni201  1  -0.01790985  0.48375768  0.04596834  1
  Ni  Ni202  1  0.81823382  0.18493873  0.72681498  1
  Ni  Ni203  1  0.63455424  0.77286360  0.86332524  1
  Ni  Ni204  1  0.16487450  0.47333889  0.51574721  1
  Ni  Ni205  1  0.92190251  0.31260234  0.47854678  1
  Ni  Ni206  1  0.45107277  0.41006059  0.41591413  1
  Ni  Ni207  1  0.25918263  0.58266668  0.09858191  1
  Ni  Ni208  1  0.79808453  0.12942287  0.01637346  1
  Ni  Ni209  1  0.43589928  0.15777558  0.24840240  1
  Ni  Ni210  1  0.16238212  0.44118323  0.35318394  1
  Ni  Ni211  1  0.32588625  -0.11932643  0.74616262  1
  Ni  Ni212  1  0.65822498  0.16245176  0.12749907  1
  Ni  Ni213  1  0.62189528  -0.04051341  0.26617196  1
  Ni  Ni214  1  0.87691345  0.91313053  0.67705123  1
