# generated using pymatgen
data_Ti108Co54Ni53
_symmetry_space_group_name_H-M   'P 1'
_cell_length_a   14.58685783
_cell_length_b   14.67915502
_cell_length_c   14.65924341
_cell_angle_alpha   89.84984944
_cell_angle_beta   89.91738730
_cell_angle_gamma   90.05548029
_symmetry_Int_Tables_number   1
_chemical_formula_structural   Ti108Co54Ni53
_chemical_formula_sum   'Ti108 Co54 Ni53'
_cell_volume   3138.86194680
_cell_formula_units_Z   1
loop_
 _symmetry_equiv_pos_site_id
 _symmetry_equiv_pos_as_xyz
  1  'x, y, z'
loop_
 _atom_site_type_symbol
 _atom_site_label
 _atom_site_symmetry_multiplicity
 _atom_site_fract_x
 _atom_site_fract_y
 _atom_site_fract_z
 _atom_site_occupancy
  Ti  Ti0  1  0.05270279  0.02536337  0.28116726  1
  Ti  Ti1  1  0.16654798  0.12432067  0.56215206  1
  Ti  Ti2  1  0.07198517  0.03107230  0.93381316  1
  Ti  Ti3  1  0.14455717  0.44021646  0.26499384  1
  Ti  Ti4  1  0.03143417  0.39372700  0.49400272  1
  Ti  Ti5  1  0.00720181  0.39550720  0.95781270  1
  Ti  Ti6  1  0.13609075  0.74575664  0.22634107  1
  Ti  Ti7  1  0.08396081  0.73552623  0.62022462  1
  Ti  Ti8  1  0.09662056  0.70872903  0.90507572  1
  Ti  Ti9  1  0.43229459  0.03114502  0.25849794  1
  Ti  Ti10  1  0.39370004  0.06733694  0.62104252  1
  Ti  Ti11  1  0.36999213  0.08379356  0.92296180  1
  Ti  Ti12  1  0.38389216  0.39548685  0.28621753  1
  Ti  Ti13  1  0.40616670  0.46453596  0.51020136  1
  Ti  Ti14  1  0.49589111  0.42328705  0.93056773  1
  Ti  Ti15  1  0.43378515  0.73254552  0.21114791  1
  Ti  Ti16  1  0.48488203  0.75146816  0.62003658  1
  Ti  Ti17  1  0.37447583  0.84694050  0.92664398  1
  Ti  Ti18  1  0.71564061  0.05016450  0.26228660  1
  Ti  Ti19  1  0.73532200  0.06853768  0.59923136  1
  Ti  Ti20  1  0.69480529  0.08698394  0.92612631  1
  Ti  Ti21  1  0.76906190  0.37966306  0.20140716  1
  Ti  Ti22  1  0.69474424  0.41471950  0.59050006  1
  Ti  Ti23  1  0.72146296  0.40638557  0.98687573  1
  Ti  Ti24  1  0.76645655  0.72061029  0.32131519  1
  Ti  Ti25  1  0.72068115  0.77749764  0.74444652  1
  Ti  Ti26  1  0.66504594  0.76285416  0.93340942  1
  Ti  Ti27  1  0.13001995  0.23433311  0.19399977  1
  Ti  Ti28  1  -0.01436788  0.22535508  0.37069583  1
  Ti  Ti29  1  0.05324645  0.33186517  0.78891798  1
  Ti  Ti30  1  0.07675373  0.61107817  0.07908516  1
  Ti  Ti31  1  0.15113815  0.64264140  0.39680972  1
  Ti  Ti32  1  0.12330908  0.51570536  0.78863373  1
  Ti  Ti33  1  0.14637038  0.92098368  0.13050907  1
  Ti  Ti34  1  0.13441892  0.96636905  0.45014663  1
  Ti  Ti35  1  0.09378763  0.93329178  0.64716303  1
  Ti  Ti36  1  0.43697181  0.24119088  0.07290740  1
  Ti  Ti37  1  0.45620644  0.19303732  0.34755908  1
  Ti  Ti38  1  0.42234952  0.24082692  0.72152476  1
  Ti  Ti39  1  0.39684618  0.55662742  0.03546019  1
  Ti  Ti40  1  0.43840994  0.60737526  0.37771604  1
  Ti  Ti41  1  0.43079953  0.58737756  0.77779716  1
  Ti  Ti42  1  0.37315968  0.90829846  0.11448692  1
  Ti  Ti43  1  0.43822074  0.88862363  0.46693695  1
  Ti  Ti44  1  0.42713365  0.94782363  0.76030790  1
  Ti  Ti45  1  0.69752640  0.22521497  0.05835580  1
  Ti  Ti46  1  0.74521173  0.24539263  0.49567141  1
  Ti  Ti47  1  0.81232956  0.28335786  0.69815652  1
  Ti  Ti48  1  0.72453950  0.56961792  0.15122755  1
  Ti  Ti49  1  0.67544040  0.56651865  0.41330090  1
  Ti  Ti50  1  0.79484724  0.58690483  0.76957866  1
  Ti  Ti51  1  0.76501256  0.87623404  0.14526493  1
  Ti  Ti52  1  0.75811243  0.91023982  0.44569612  1
  Ti  Ti53  1  0.78008988  0.91786173  0.90701207  1
  Ti  Ti54  1  0.23976127  0.14799246  0.06461774  1
  Ti  Ti55  1  0.29570525  0.12813577  0.41807192  1
  Ti  Ti56  1  0.15416689  0.14126084  0.75388290  1
  Ti  Ti57  1  0.17514592  0.40125293  0.06739944  1
  Ti  Ti58  1  0.21394789  0.44422115  0.45279389  1
  Ti  Ti59  1  0.23768826  0.35122670  0.73859969  1
  Ti  Ti60  1  0.23322643  0.77649306  0.04946770  1
  Ti  Ti61  1  0.25392109  0.81290408  0.40705200  1
  Ti  Ti62  1  0.22960669  0.68195846  0.75468937  1
  Ti  Ti63  1  0.57280843  0.08541611  0.13685763  1
  Ti  Ti64  1  0.57652755  -0.00827598  0.37691854  1
  Ti  Ti65  1  0.67904147  -0.01347766  0.75480819  1
  Ti  Ti66  1  0.59651208  0.38280199  0.11740972  1
  Ti  Ti67  1  0.55520731  0.32509811  0.46508145  1
  Ti  Ti68  1  0.54257880  0.43767164  0.71940006  1
  Ti  Ti69  1  0.57002504  0.67742043  0.08902940  1
  Ti  Ti70  1  0.57174657  0.77767716  0.36464813  1
  Ti  Ti71  1  0.50820359  0.76614026  0.81602384  1
  Ti  Ti72  1  0.99613821  0.17173718  0.04073068  1
  Ti  Ti73  1  0.88413019  0.04689908  0.35005488  1
  Ti  Ti74  1  0.92096420  0.03078086  0.77498449  1
  Ti  Ti75  1  0.88352547  0.46448066  0.07955205  1
  Ti  Ti76  1  0.85137302  0.36743008  0.37186970  1
  Ti  Ti77  1  0.84310580  0.40821620  0.84921857  1
  Ti  Ti78  1  0.99444776  0.78387149  0.09189052  1
  Ti  Ti79  1  0.97004700  0.76872332  0.32397496  1
  Ti  Ti80  1  0.92044330  0.76344814  0.74615380  1
  Ti  Ti81  1  0.23598729  0.28723088  0.33307120  1
  Ti  Ti82  1  0.27674214  0.30196641  0.56797047  1
  Ti  Ti83  1  0.28465356  0.26348912  0.89700702  1
  Ti  Ti84  1  0.26679396  0.62075822  0.17611160  1
  Ti  Ti85  1  0.25288196  0.53525698  0.62647774  1
  Ti  Ti86  1  0.28928979  0.50213984  0.88208379  1
  Ti  Ti87  1  0.23913571  1.05361110  0.23967222  1
  Ti  Ti88  1  0.30378348  0.84213192  0.60149669  1
  Ti  Ti89  1  0.22652617  0.95761384  0.83097451  1
  Ti  Ti90  1  0.57848896  0.32359470  0.28334962  1
  Ti  Ti91  1  0.56410817  0.14904531  0.52139938  1
  Ti  Ti92  1  0.60589685  0.23847135  0.80344268  1
  Ti  Ti93  1  0.48889683  0.53718092  0.20632740  1
  Ti  Ti94  1  0.64662866  0.61188339  0.62418353  1
  Ti  Ti95  1  0.65164329  0.55518789  0.90484857  1
  Ti  Ti96  1  0.56680290  0.88667017  0.17173693  1
  Ti  Ti97  1  0.56957798  0.96790641  0.57626190  1
  Ti  Ti98  1  0.51120537  0.98338334  0.98367764  1
  Ti  Ti99  1  0.85462051  0.22475863  0.18063788  1
  Ti  Ti100  1  0.96709616  0.22222232  0.56321457  1
  Ti  Ti101  1  0.89747496  0.20486221  0.87687804  1
  Ti  Ti102  1  0.92081972  0.59234792  0.22394682  1
  Ti  Ti103  1  0.96184681  0.53578764  0.62161824  1
  Ti  Ti104  1  0.95482987  0.58417596  0.89802747  1
  Ti  Ti105  1  0.89528417  1.03078834  0.14718573  1
  Ti  Ti106  1  0.91248139  0.97175510  0.56336330  1
  Ti  Ti107  1  0.95545489  0.86391964  0.90180984  1
  Co  Co108  1  0.65381828  -0.08184822  0.01739249  1
  Co  Co109  1  0.73631433  -0.10011633  0.61086047  1
  Co  Co110  1  -0.03605250  0.48050194  0.77212474  1
  Co  Co111  1  0.20775849  0.84304028  0.71705139  1
  Co  Co112  1  0.34248636  0.66929419  0.63480340  1
  Co  Co113  1  0.82943834  0.14774869  0.01994269  1
  Co  Co114  1  0.17548438  0.38569317  0.89970631  1
  Co  Co115  1  0.20817018  0.11407934  0.90802968  1
  Co  Co116  1  -0.01118456  0.16395030  0.21972011  1
  Co  Co117  1  0.39555809  0.07230700  0.09832901  1
  Co  Co118  1  0.59234964  0.63545981  0.28776547  1
  Co  Co119  1  0.29668876  0.46916058  0.16088600  1
  Co  Co120  1  0.39157887  0.38260630  0.82084648  1
  Co  Co121  1  -0.03003618  -0.08561142  0.40507336  1
  Co  Co122  1  0.69100985  0.40315951  0.40469345  1
  Co  Co123  1  0.01669173  0.07692896  0.46088235  1
  Co  Co124  1  0.82124975  0.45666603  0.68106704  1
  Co  Co125  1  0.74795883  0.26578747  0.88724075  1
  Co  Co126  1  0.84045049  0.90331444  0.73211092  1
  Co  Co127  1  0.36079691  0.78601066  0.75955953  1
  Co  Co128  1  0.22962560  0.79823078  0.87195938  1
  Co  Co129  1  0.84698859  0.88710235  0.29965899  1
  Co  Co130  1  0.11504834  0.52522233  -0.04833196  1
  Co  Co131  1  0.86020864  0.31004596  0.01399753  1
  Co  Co132  1  0.24868819  0.00461171  0.67580715  1
  Co  Co133  1  0.73863226  0.67772733  0.04067579  1
  Co  Co134  1  0.32391194  0.11735657  0.77141084  1
  Co  Co135  1  -0.03746678  0.36392351  0.65752690  1
  Co  Co136  1  0.38599100  0.71867427  0.05410668  1
  Co  Co137  1  0.85993106  0.12534957  0.48709983  1
  Co  Co138  1  0.11587351  0.26749229  0.63698749  1
  Co  Co139  1  0.11346956  0.86636496  -0.03510319  1
  Co  Co140  1  0.34087013  0.38059120  -0.00728900  1
  Co  Co141  1  0.80463316  0.55184285  -0.04808212  1
  Co  Co142  1  -0.01591117  0.88941434  0.21692778  1
  Co  Co143  1  0.21545380  0.71113568  0.54366343  1
  Co  Co144  1  0.30919167  0.69479741  0.31735691  1
  Co  Co145  1  0.90203347  0.03559044  0.94132542  1
  Co  Co146  1  0.43756224  0.04971752  0.45261581  1
  Co  Co147  1  0.56844781  0.52074001  0.04218507  1
  Co  Co148  1  0.07283666  0.82718076  0.79357486  1
  Co  Co149  1  0.69026134  0.38936885  0.78101280  1
  Co  Co150  1  0.44766918  0.24586811  0.89066811  1
  Co  Co151  1  0.66805163  0.74498521  0.19527140  1
  Co  Co152  1  0.02505477  0.07541892  0.63262087  1
  Co  Co153  1  0.09570713  0.07310022  0.12192786  1
  Co  Co154  1  0.61816809  0.18407546  0.36606295  1
  Co  Co155  1  0.03141256  0.47407086  0.14350584  1
  Co  Co156  1  0.12768439  0.88252493  0.30820600  1
  Co  Co157  1  0.29133376  0.59105530  0.47188722  1
  Co  Co158  1  0.47513719  0.57563233  0.62353046  1
  Co  Co159  1  0.48410842  0.33397316  0.60291790  1
  Co  Co160  1  0.86566716  0.12910468  0.65516653  1
  Co  Co161  1  0.34590331  0.67929705  -0.10971681  1
  Ni  Ni162  1  0.11019399  0.56319178  0.53545181  1
  Ni  Ni163  1  0.85546866  0.37630610  0.53737205  1
  Ni  Ni164  1  0.84073458  0.73073610  0.17306889  1
  Ni  Ni165  1  0.64868689  0.47847754  0.26287057  1
  Ni  Ni166  1  -0.01147762  0.19686264  0.73364898  1
  Ni  Ni167  1  0.38535843  0.72749777  0.48096784  1
  Ni  Ni168  1  0.71307566  0.07558562  0.43512186  1
  Ni  Ni169  1  0.02897826  0.63967874  0.74537368  1
  Ni  Ni170  1  0.61914615  0.81556996  0.52352450  1
  Ni  Ni171  1  0.51691568  0.81642999  0.01138505  1
  Ni  Ni172  1  0.80266454  0.51612553  0.31233224  1
  Ni  Ni173  1  0.58617640  0.90485210  0.86197524  1
  Ni  Ni174  1  0.82791995  0.71576747  0.88453391  1
  Ni  Ni175  1  0.58107510  0.11031754  0.68292119  1
  Ni  Ni176  1  0.34325491  0.18025844  0.22366894  1
  Ni  Ni177  1  0.54845463  0.66561990  0.49114915  1
  Ni  Ni178  1  0.67944386  0.21278556  0.21573766  1
  Ni  Ni179  1  0.36977498  0.32126042  0.43243464  1
  Ni  Ni180  1  0.27362936  0.85243725  0.23667731  1
  Ni  Ni181  1  0.23966597  0.61849206  0.00251774  1
  Ni  Ni182  1  0.01077697  0.31902778  0.10624525  1
  Ni  Ni183  1  0.08597517  0.79898445  0.45806495  1
  Ni  Ni184  1  0.56919012  0.49362677  0.52254639  1
  Ni  Ni185  1  0.59169596  0.29713521  -0.04201608  1
  Ni  Ni186  1  0.30989574  -0.03828137  0.35644244  1
  Ni  Ni187  1  0.29028529  0.30915800  0.14629690  1
  Ni  Ni188  1  0.25279654  -0.03137822  0.00458516  1
  Ni  Ni189  1  0.74597529  0.14235432  0.76871869  1
  Ni  Ni190  1  0.11003772  0.24711975  -0.04850205  1
  Ni  Ni191  1  0.40935792  0.20163958  0.52867609  1
  Ni  Ni192  1  0.50745890  0.64694374  0.93279203  1
  Ni  Ni193  1  0.43723435  0.40031157  0.12221233  1
  Ni  Ni194  1  -0.00919793  -0.05451142  0.05321646  1
  Ni  Ni195  1  0.37297776  0.43550017  0.67317010  1
  Ni  Ni196  1  0.84217381  0.80374071  0.01949362  1
  Ni  Ni197  1  0.52693883  0.46557942  0.36714458  1
  Ni  Ni198  1  0.28990928  -0.01566384  0.51644943  1
  Ni  Ni199  1  0.73209832  0.03794522  0.09130484  1
  Ni  Ni200  1  0.13676475  0.26785107  0.46858784  1
  Ni  Ni201  1  0.11598325  0.43244809  0.63595636  1
  Ni  Ni202  1  -0.09636232  0.64161330  0.04951452  1
  Ni  Ni203  1  0.07968238  0.59456245  0.25206571  1
  Ni  Ni204  1  0.60472288  0.64023189  0.77713788  1
  Ni  Ni205  1  0.51325457  0.08037006  0.82714866  1
  Ni  Ni206  1  0.79162096  0.19877858  0.34015987  1
  Ni  Ni207  1  0.68459516  -0.12124539  0.29587228  1
  Ni  Ni208  1  0.54012448  0.14511870  -0.02188139  1
  Ni  Ni209  1  0.13937647  0.14144399  0.36305751  1
  Ni  Ni210  1  0.58691553  0.85836209  0.69449724  1
  Ni  Ni211  1  -0.02460783  0.35575225  0.25732292  1
  Ni  Ni212  1  0.28812649  0.52790240  0.31993467  1
  Ni  Ni213  1  0.43618021  0.86881008  0.29824278  1
  Ni  Ni214  1  0.63662852  0.26616465  0.63821219  1
