# generated using pymatgen
data_Ti108Co54Ni53
_symmetry_space_group_name_H-M   'P 1'
_cell_length_a   14.62297588
_cell_length_b   14.60638751
_cell_length_c   14.71115815
_cell_angle_alpha   90.11654824
_cell_angle_beta   89.66834973
_cell_angle_gamma   90.02433501
_symmetry_Int_Tables_number   1
_chemical_formula_structural   Ti108Co54Ni53
_chemical_formula_sum   'Ti108 Co54 Ni53'
_cell_volume   3142.07997662
_cell_formula_units_Z   1
loop_
 _symmetry_equiv_pos_site_id
 _symmetry_equiv_pos_as_xyz
  1  'x, y, z'
loop_
 _atom_site_type_symbol
 _atom_site_label
 _atom_site_symmetry_multiplicity
 _atom_site_fract_x
 _atom_site_fract_y
 _atom_site_fract_z
 _atom_site_occupancy
  Ti  Ti0  1  0.03599045  0.14930096  0.32301517  1
  Ti  Ti1  1  0.06093438  0.12641114  0.70327707  1
  Ti  Ti2  1  0.17941470  0.04861513  0.96872560  1
  Ti  Ti3  1  0.04916829  0.42364421  0.16359260  1
  Ti  Ti4  1  0.12253796  0.44275074  0.58986207  1
  Ti  Ti5  1  0.09784718  0.42425699  0.97733995  1
  Ti  Ti6  1  0.12349781  0.76263515  0.31247884  1
  Ti  Ti7  1  0.13180807  0.79458062  0.57735860  1
  Ti  Ti8  1  0.11259223  0.76617929  0.86816804  1
  Ti  Ti9  1  0.40273183  0.12284006  0.25741495  1
  Ti  Ti10  1  0.39959358  0.06719505  0.53475201  1
  Ti  Ti11  1  0.49206221  0.09538883  0.86291812  1
  Ti  Ti12  1  0.37821361  0.35492430  0.27420240  1
  Ti  Ti13  1  0.42389501  0.44110764  0.61233973  1
  Ti  Ti14  1  0.42099859  0.43163606  0.86581979  1
  Ti  Ti15  1  0.40250925  0.66847170  0.26249170  1
  Ti  Ti16  1  0.43652419  0.77159521  0.66920894  1
  Ti  Ti17  1  0.42241836  0.75078554  0.98753741  1
  Ti  Ti18  1  0.70623636  0.05717834  0.20445668  1
  Ti  Ti19  1  0.71439711  0.13743717  0.63666347  1
  Ti  Ti20  1  0.72308202  0.12378646  0.86805762  1
  Ti  Ti21  1  0.75431586  0.43427614  0.32520341  1
  Ti  Ti22  1  0.72628765  0.41493535  0.52371498  1
  Ti  Ti23  1  0.70455364  0.43899324  0.97015265  1
  Ti  Ti24  1  0.74979297  0.74879015  0.31953437  1
  Ti  Ti25  1  0.71273385  0.73716851  0.51885735  1
  Ti  Ti26  1  0.80641947  0.76852619  0.98807142  1
  Ti  Ti27  1  0.00805108  0.26046863  0.02975137  1
  Ti  Ti28  1  0.05488993  0.32951215  0.44007033  1
  Ti  Ti29  1  0.20102004  0.20998015  0.78773874  1
  Ti  Ti30  1  -0.01903392  0.58438425  0.07526359  1
  Ti  Ti31  1  0.06526753  0.54060586  0.31426566  1
  Ti  Ti32  1  0.10958803  0.57323681  0.81282297  1
  Ti  Ti33  1  0.06508130  0.89521534  0.01189326  1
  Ti  Ti34  1  0.07680237  0.98116686  0.45279666  1
  Ti  Ti35  1  0.06522767  0.92070602  0.70333421  1
  Ti  Ti36  1  0.40204784  0.19298555  0.00964181  1
  Ti  Ti37  1  0.43099505  0.22765026  0.41902859  1
  Ti  Ti38  1  0.36884422  0.26595432  0.73008842  1
  Ti  Ti39  1  0.33124825  0.61089212  0.07192643  1
  Ti  Ti40  1  0.41183469  0.59247791  0.45328154  1
  Ti  Ti41  1  0.46486552  0.57692597  0.75188153  1
  Ti  Ti42  1  0.41039312  0.91799388  0.09587558  1
  Ti  Ti43  1  0.46945336  0.92976023  0.38196455  1
  Ti  Ti44  1  0.42594009  0.92108786  0.79096124  1
  Ti  Ti45  1  0.75949059  0.21854128  0.05324744  1
  Ti  Ti46  1  0.76590968  0.21215670  0.34289524  1
  Ti  Ti47  1  0.76929568  0.28359779  0.76730003  1
  Ti  Ti48  1  0.67412114  0.62693272  0.07587952  1
  Ti  Ti49  1  0.82286424  0.58750229  0.44508293  1
  Ti  Ti50  1  0.72844229  0.64534146  0.85449208  1
  Ti  Ti51  1  0.72124609  0.92041895  0.07155913  1
  Ti  Ti52  1  0.77099127  0.93502787  0.45305696  1
  Ti  Ti53  1  0.76874785  0.86160419  0.69628438  1
  Ti  Ti54  1  0.28907616  0.06710887  0.11769273  1
  Ti  Ti55  1  0.22500992  0.12432436  0.44490022  1
  Ti  Ti56  1  0.25083761  0.02804859  0.78020137  1
  Ti  Ti57  1  0.30366944  0.38814259  0.07167998  1
  Ti  Ti58  1  0.21555619  0.44712912  0.38866714  1
  Ti  Ti59  1  0.21675881  0.40913495  0.78012609  1
  Ti  Ti60  1  0.16849243  0.72003644  0.05783603  1
  Ti  Ti61  1  0.31328788  0.78246615  0.41045372  1
  Ti  Ti62  1  0.23580296  0.69436451  0.72504480  1
  Ti  Ti63  1  0.55618826  0.16472195  0.11915488  1
  Ti  Ti64  1  0.61571231  0.15497633  0.45593818  1
  Ti  Ti65  1  0.54116126  0.02800300  0.67355532  1
  Ti  Ti66  1  0.55242358  0.45055919  0.09671803  1
  Ti  Ti67  1  0.55121450  0.46326588  0.41450484  1
  Ti  Ti68  1  0.55331870  0.35848798  0.74396464  1
  Ti  Ti69  1  0.54008826  0.76202782  0.14072820  1
  Ti  Ti70  1  0.56230274  0.71262926  0.37204891  1
  Ti  Ti71  1  0.55135161  0.75097300  0.82914573  1
  Ti  Ti72  1  1.00630655  0.07196343  0.07830774  1
  Ti  Ti73  1  0.88084231  0.13503417  0.47833106  1
  Ti  Ti74  1  0.90436895  0.03317716  0.75816653  1
  Ti  Ti75  1  0.87280450  0.41398015  0.04930429  1
  Ti  Ti76  1  0.92348222  0.32382362  0.29571852  1
  Ti  Ti77  1  0.96327193  0.25937792  0.78642395  1
  Ti  Ti78  1  0.90569364  0.80609213  0.15993612  1
  Ti  Ti79  1  0.92122764  0.83475855  0.34034901  1
  Ti  Ti80  1  0.99493269  0.73663024  0.72144289  1
  Ti  Ti81  1  0.21508526  0.23249755  0.28221216  1
  Ti  Ti82  1  0.17312063  0.23332663  0.58440821  1
  Ti  Ti83  1  0.19708945  0.22966316  0.99431787  1
  Ti  Ti84  1  0.22677846  0.60290445  0.22298199  1
  Ti  Ti85  1  0.22391734  0.62730486  0.54195364  1
  Ti  Ti86  1  0.25281331  0.52012751  0.93813273  1
  Ti  Ti87  1  0.27218954  0.90736623  0.23755697  1
  Ti  Ti88  1  0.25749105  0.93723929  0.52469881  1
  Ti  Ti89  1  0.27301199  0.87076938  0.91759018  1
  Ti  Ti90  1  0.57144751  0.31541799  0.26103270  1
  Ti  Ti91  1  0.51364262  0.21148036  0.61410961  1
  Ti  Ti92  1  0.60826311  0.26786225  0.93271654  1
  Ti  Ti93  1  0.54782723  0.54439148  0.25259833  1
  Ti  Ti94  1  0.55873417  0.63249713  0.58486342  1
  Ti  Ti95  1  0.55619394  0.58434296  0.93495792  1
  Ti  Ti96  1  0.61171127  0.88786704  0.25229371  1
  Ti  Ti97  1  0.57403945  0.84586488  0.56819023  1
  Ti  Ti98  1  0.61442697  0.94619002  0.89623590  1
  Ti  Ti99  1  0.87741123  0.15768311  0.18997257  1
  Ti  Ti100  1  0.95129112  0.28382062  0.59079208  1
  Ti  Ti101  1  0.89756961  0.15609369  0.91977728  1
  Ti  Ti102  1  0.88130280  0.61492990  0.25948729  1
  Ti  Ti103  1  0.97662952  0.65920981  0.54513769  1
  Ti  Ti104  1  0.94287151  0.66901744  0.89961996  1
  Ti  Ti105  1  1.02646862  0.97011432  0.25827963  1
  Ti  Ti106  1  0.92553417  0.86593174  0.57779468  1
  Ti  Ti107  1  0.81769837  0.94096941  0.89186135  1
  Co  Co108  1  0.65776082  0.74212230  0.68761498  1
  Co  Co109  1  0.87363703  0.33134198  0.44993650  1
  Co  Co110  1  0.40330324  0.10421913  0.72068847  1
  Co  Co111  1  0.10468603  0.34622665  0.29279842  1
  Co  Co112  1  0.84356587  0.06034630  0.32281797  1
  Co  Co113  1  0.02721722  0.81859032  0.45492822  1
  Co  Co114  1  0.45370680  0.74516863  0.49260650  1
  Co  Co115  1  0.70469251  0.81848750  0.85115037  1
  Co  Co116  1  0.42280262  0.48767238  0.01171587  1
  Co  Co117  1  -0.02163021  0.00970682  -0.07936378  1
  Co  Co118  1  0.24497460  0.68249930  0.90644675  1
  Co  Co119  1  0.34582477  -0.04339864  0.66001619  1
  Co  Co120  1  0.26542511  0.11125873  0.63973058  1
  Co  Co121  1  0.35258042  0.22480031  0.56632887  1
  Co  Co122  1  0.66793138  0.01964313  0.35871373  1
  Co  Co123  1  0.40304823  0.61415116  -0.09244620  1
  Co  Co124  1  0.05667238  0.66768414  0.19066002  1
  Co  Co125  1  0.42214586  0.89637331  0.53636044  1
  Co  Co126  1  0.63419040  0.86053251  0.41233040  1
  Co  Co127  1  0.63137084  0.31621833  0.09084961  1
  Co  Co128  1  0.18798663  0.90171916  0.37320831  1
  Co  Co129  1  0.09731087  0.60904503  0.64916552  1
  Co  Co130  1  0.10007978  0.30694975  0.87106909  1
  Co  Co131  1  -0.05854575  0.35410823  -0.08745441  1
  Co  Co132  1  0.86054899  0.75729136  0.46830565  1
  Co  Co133  1  -0.00662795  0.75040238  0.03487100  1
  Co  Co134  1  0.30339718  0.78261501  0.58147201  1
  Co  Co135  1  0.24473866  0.52033380  0.66453106  1
  Co  Co136  1  0.14550103  0.14890817  0.14047377  1
  Co  Co137  1  0.02275576  0.23949380  0.18942928  1
  Co  Co138  1  0.84399901  0.75942907  0.80056447  1
  Co  Co139  1  0.11345750  0.68068661  0.44658781  1
  Co  Co140  1  0.68928694  0.21566126  0.20601938  1
  Co  Co141  1  0.34392662  0.01550882  -0.04392243  1
  Co  Co142  1  0.46855862  0.89592216  -0.06026007  1
  Co  Co143  1  0.87306001  0.16559520  0.66701494  1
  Co  Co144  1  0.13884450  -0.00986650  0.13824350  1
  Co  Co145  1  0.32893663  0.15288890  0.87120578  1
  Co  Co146  1  0.88482836  -0.01565930  0.17565601  1
  Co  Co147  1  -0.02969360  0.66760329  0.37734998  1
  Co  Co148  1  0.37816516  0.61985670  0.61495337  1
  Co  Co149  1  0.29748391  0.48484086  0.51754813  1
  Co  Co150  1  -0.07286636  -0.01821280  0.43126856  1
  Co  Co151  1  0.06138961  0.52869267  0.47608647  1
  Co  Co152  1  0.23739322  0.88757752  0.07089161  1
  Co  Co153  1  0.90076904  0.90596937  0.02800961  1
  Co  Co154  1  0.59383176  -0.11502277  0.73562302  1
  Co  Co155  1  0.61880752  0.60238478  0.74483967  1
  Co  Co156  1  0.39483048  0.49336440  0.17501388  1
  Co  Co157  1  0.15863747  0.31233072  0.12738431  1
  Co  Co158  1  0.79323197  0.30098364  0.92150684  1
  Co  Co159  1  0.30457888  0.56590586  0.79491421  1
  Co  Co160  1  -0.02411111  0.51148533  0.92114071  1
  Co  Co161  1  0.36490487  0.50766074  0.32819137  1
  Ni  Ni162  1  0.43572013  0.83530667  0.25363772  1
  Ni  Ni163  1  0.32955787  0.76651596  0.14256526  1
  Ni  Ni164  1  0.29630183  0.32181580  -0.10202823  1
  Ni  Ni165  1  0.73482569  0.50054953  0.16105179  1
  Ni  Ni166  1  0.05154652  0.15647706  0.49609348  1
  Ni  Ni167  1  0.55771237  0.00766112  0.49626002  1
  Ni  Ni168  1  0.22710586  0.86018084  0.73690449  1
  Ni  Ni169  1  0.77969125  0.34120067  0.18156517  1
  Ni  Ni170  1  0.71481308  0.77665293  0.15231329  1
  Ni  Ni171  1  0.45984334  0.26464769  0.86626189  1
  Ni  Ni172  1  0.82672364  0.00991836  0.60847953  1
  Ni  Ni173  1  0.45878826  0.31087293  0.12604289  1
  Ni  Ni174  1  0.60580077  0.19373740  0.76284102  1
  Ni  Ni175  1  0.11897366  -0.05953700  0.85344547  1
  Ni  Ni176  1  0.81991967  0.56548408  -0.01813770  1
  Ni  Ni177  1  0.14059219  0.03388954  0.59356332  1
  Ni  Ni178  1  0.49574500  0.04184230  0.02354635  1
  Ni  Ni179  1  0.09307796  0.32055635  0.70162267  1
  Ni  Ni180  1  0.27248771  0.35978462  0.62303925  1
  Ni  Ni181  1  0.51389903  0.00840431  0.19623011  1
  Ni  Ni182  1  0.69904578  0.59330794  0.30452055  1
  Ni  Ni183  1  0.67748494  -0.02943054  0.59259481  1
  Ni  Ni184  1  0.36989018  0.75688713  0.82318936  1
  Ni  Ni185  1  0.32877611  0.01830435  0.37054470  1
  Ni  Ni186  1  0.70712571  0.01078801  0.75223659  1
  Ni  Ni187  1  -0.10975349  0.46313239  0.21048718  1
  Ni  Ni188  1  0.40718537  0.38835864  0.44889234  1
  Ni  Ni189  1  0.22986134  0.43540542  0.21858534  1
  Ni  Ni190  1  0.83597131  0.71433939  0.63551519  1
  Ni  Ni191  1  0.75417080  0.24578623  0.51429208  1
  Ni  Ni192  1  0.66714785  0.30612870  0.63938905  1
  Ni  Ni193  1  0.83103234  0.65685776  0.11475733  1
  Ni  Ni194  1  0.15479456  0.54378832  0.08814717  1
  Ni  Ni195  1  0.77716483  0.90923272  0.26877818  1
  Ni  Ni196  1  0.62028380  0.47182273  0.83442359  1
  Ni  Ni197  1  0.25313469  0.62778580  0.37677071  1
  Ni  Ni198  1  0.49442695  0.61190357  0.10156854  1
  Ni  Ni199  1  0.31026106  0.23514839  0.14771600  1
  Ni  Ni200  1  -0.02152928  0.03634508  0.58864990  1
  Ni  Ni201  1  0.18583777  0.05729480  0.28899857  1
  Ni  Ni202  1  0.62064937  0.77582496  -0.01080565  1
  Ni  Ni203  1  0.59998928  0.47636538  0.62923556  1
  Ni  Ni204  1  0.06801585  0.14168680  0.88174120  1
  Ni  Ni205  1  0.64500408  0.31937119  0.40777534  1
  Ni  Ni206  1  0.82318498  0.05759315  0.03885792  1
  Ni  Ni207  1  0.92997402  0.47363080  0.38596797  1
  Ni  Ni208  1  -0.03454744  0.85791495  0.85440346  1
  Ni  Ni209  1  0.54695828  0.34739970  0.53569678  1
  Ni  Ni210  1  0.65945260  0.57510158  0.46413002  1
  Ni  Ni211  1  0.65758966  0.07423241  0.01382401  1
  Ni  Ni212  1  0.56596384  0.13911637  0.29608840  1
  Ni  Ni213  1  0.09150851  0.83095480  0.16570461  1
  Ni  Ni214  1  0.26025821  0.29990417  0.44905888  1
