# generated using pymatgen
data_Ti108Co54Ni53
_symmetry_space_group_name_H-M   'P 1'
_cell_length_a   14.58807152
_cell_length_b   14.62887211
_cell_length_c   14.60179796
_cell_angle_alpha   90.06152490
_cell_angle_beta   90.04064490
_cell_angle_gamma   90.26888744
_symmetry_Int_Tables_number   1
_chemical_formula_structural   Ti108Co54Ni53
_chemical_formula_sum   'Ti108 Co54 Ni53'
_cell_volume   3116.08946730
_cell_formula_units_Z   1
loop_
 _symmetry_equiv_pos_site_id
 _symmetry_equiv_pos_as_xyz
  1  'x, y, z'
loop_
 _atom_site_type_symbol
 _atom_site_label
 _atom_site_symmetry_multiplicity
 _atom_site_fract_x
 _atom_site_fract_y
 _atom_site_fract_z
 _atom_site_occupancy
  Ti  Ti0  1  0.08362749  -0.01529838  0.30554958  1
  Ti  Ti1  1  0.02767234  0.09426033  0.63267333  1
  Ti  Ti2  1  0.05256533  0.13620729  0.94245797  1
  Ti  Ti3  1  0.13742770  0.41990847  0.28089556  1
  Ti  Ti4  1  0.09343569  0.44201473  0.62622501  1
  Ti  Ti5  1  0.11226688  0.41104087  0.94741416  1
  Ti  Ti6  1  0.05569940  0.75560342  0.23902742  1
  Ti  Ti7  1  0.01664082  0.77194072  0.61893818  1
  Ti  Ti8  1  0.12210275  0.69241818  0.92201374  1
  Ti  Ti9  1  0.38614306  0.11144364  0.23290788  1
  Ti  Ti10  1  0.39619379  0.05551641  0.54286344  1
  Ti  Ti11  1  0.34265495  0.01771747  0.87797822  1
  Ti  Ti12  1  0.45251135  0.46625347  0.24129751  1
  Ti  Ti13  1  0.41348763  0.45864393  0.60671959  1
  Ti  Ti14  1  0.40933907  0.47933002  0.85322852  1
  Ti  Ti15  1  0.47538205  0.74260725  0.24134174  1
  Ti  Ti16  1  0.46203527  0.75810494  0.55747462  1
  Ti  Ti17  1  0.39445755  0.80711336  0.81577734  1
  Ti  Ti18  1  0.71907261  0.03629756  0.23186548  1
  Ti  Ti19  1  0.76978589  0.11007087  0.53168681  1
  Ti  Ti20  1  0.74501182  0.13088283  0.88417596  1
  Ti  Ti21  1  0.75514428  0.36726340  0.25339339  1
  Ti  Ti22  1  0.78779652  0.35926405  0.53620552  1
  Ti  Ti23  1  0.70635063  0.44121450  0.97986222  1
  Ti  Ti24  1  0.88173864  0.65150692  0.28063417  1
  Ti  Ti25  1  0.80996108  0.71783560  0.57327690  1
  Ti  Ti26  1  0.74627284  0.73357112  0.95790325  1
  Ti  Ti27  1  0.12380950  0.24516807  0.06779323  1
  Ti  Ti28  1  0.08319711  0.22904070  0.36698979  1
  Ti  Ti29  1  0.10627040  0.26931426  0.71648476  1
  Ti  Ti30  1  0.06931915  0.55114377  0.12559620  1
  Ti  Ti31  1  0.08410973  0.52189671  0.44321497  1
  Ti  Ti32  1  0.06229007  0.58489057  0.75289191  1
  Ti  Ti33  1  -0.00953860  0.90160770  0.12238344  1
  Ti  Ti34  1  0.13650897  0.84618643  0.44407724  1
  Ti  Ti35  1  0.10468241  0.92061012  0.73762916  1
  Ti  Ti36  1  0.45945758  0.21606061  0.08212960  1
  Ti  Ti37  1  0.40177224  0.18785381  0.40490227  1
  Ti  Ti38  1  0.45285525  0.21858724  0.80369581  1
  Ti  Ti39  1  0.34532276  0.57398313  0.10938176  1
  Ti  Ti40  1  0.35528866  0.59740269  0.48781540  1
  Ti  Ti41  1  0.36607552  0.63457873  0.68932531  1
  Ti  Ti42  1  0.39543929  1.01686908  0.06547728  1
  Ti  Ti43  1  0.35468111  0.89124235  0.46957268  1
  Ti  Ti44  1  0.43069634  0.94540721  0.69038545  1
  Ti  Ti45  1  0.79438290  0.27193730  0.05565569  1
  Ti  Ti46  1  0.72200198  0.22518199  0.38905923  1
  Ti  Ti47  1  0.81996154  0.21681644  0.70876185  1
  Ti  Ti48  1  0.72768025  0.62752011  0.14179025  1
  Ti  Ti49  1  0.67880631  0.52301368  0.44538254  1
  Ti  Ti50  1  0.73481258  0.61196401  0.72694462  1
  Ti  Ti51  1  0.81017204  0.95609556  0.06636815  1
  Ti  Ti52  1  0.78987250  0.95876302  0.40565636  1
  Ti  Ti53  1  0.74938670  0.96789995  0.77319286  1
  Ti  Ti54  1  0.18118048  0.06956658  0.13181176  1
  Ti  Ti55  1  0.22497305  0.16295631  0.46853150  1
  Ti  Ti56  1  0.17908573  0.09491810  0.79556528  1
  Ti  Ti57  1  0.22183171  0.41341780  0.10641103  1
  Ti  Ti58  1  0.32745801  0.40976578  0.40823756  1
  Ti  Ti59  1  0.23991760  0.40602058  0.77976700  1
  Ti  Ti60  1  0.27890260  0.79742318  0.10715571  1
  Ti  Ti61  1  0.32751210  0.74580242  0.35620211  1
  Ti  Ti62  1  0.20329133  0.73263574  0.74084364  1
  Ti  Ti63  1  0.58906682  0.08162769  0.01587648  1
  Ti  Ti64  1  0.56927566  0.15196404  0.50224130  1
  Ti  Ti65  1  0.63334540  0.10055153  0.68893603  1
  Ti  Ti66  1  0.51928532  0.44199146  0.04203455  1
  Ti  Ti67  1  0.58787557  0.35347676  0.47103096  1
  Ti  Ti68  1  0.59039575  0.39743040  0.81000318  1
  Ti  Ti69  1  0.53592099  0.74141397  -0.03588167  1
  Ti  Ti70  1  0.63811069  0.74202664  0.42812146  1
  Ti  Ti71  1  0.57107921  0.75420025  0.74569147  1
  Ti  Ti72  1  0.93087622  0.11275105  0.12012772  1
  Ti  Ti73  1  0.90931810  0.11607139  0.35063822  1
  Ti  Ti74  1  0.94542489  0.03292789  0.82033417  1
  Ti  Ti75  1  0.91964965  0.43596166  0.03283052  1
  Ti  Ti76  1  0.87161406  0.47998391  0.41117228  1
  Ti  Ti77  1  0.87894808  0.44435941  0.68505589  1
  Ti  Ti78  1  0.97566399  0.70929493  0.04651528  1
  Ti  Ti79  1  0.97529149  0.73481977  0.43444815  1
  Ti  Ti80  1  0.84592659  0.78269996  0.78856619  1
  Ti  Ti81  1  0.32440637  0.29747943  0.24294224  1
  Ti  Ti82  1  0.25214078  0.32595481  0.58806878  1
  Ti  Ti83  1  0.30113665  0.25857331  0.93708115  1
  Ti  Ti84  1  0.21370605  0.62770386  0.24511634  1
  Ti  Ti85  1  0.15693129  0.64273555  0.56749020  1
  Ti  Ti86  1  0.31744160  0.66850950  0.93540105  1
  Ti  Ti87  1  0.30223514  0.93585765  0.25018861  1
  Ti  Ti88  1  0.21243435  0.99505229  0.58556678  1
  Ti  Ti89  1  0.22893539  0.85262939  0.89612681  1
  Ti  Ti90  1  0.62951909  0.20959542  0.20685663  1
  Ti  Ti91  1  0.54730196  0.29659866  0.64778420  1
  Ti  Ti92  1  0.60550336  0.26347147  0.95438685  1
  Ti  Ti93  1  0.59068868  0.59164055  0.29363791  1
  Ti  Ti94  1  0.55103850  0.58631106  0.56924502  1
  Ti  Ti95  1  0.61282801  0.58364992  0.86775771  1
  Ti  Ti96  1  0.50449653  0.95937480  0.27279205  1
  Ti  Ti97  1  0.57273479  0.91294110  0.55028803  1
  Ti  Ti98  1  0.53515407  0.92558827  0.89657203  1
  Ti  Ti99  1  0.96014770  0.27933104  0.21663908  1
  Ti  Ti100  1  0.93206148  0.22783217  0.51196776  1
  Ti  Ti101  1  0.92915784  0.31913152  0.85814277  1
  Ti  Ti102  1  0.92937886  0.46525676  0.23255364  1
  Ti  Ti103  1  0.94448993  0.58462424  0.56425795  1
  Ti  Ti104  1  0.89875028  0.53040912  0.85220025  1
  Ti  Ti105  1  0.88872150  0.85137120  0.27909721  1
  Ti  Ti106  1  0.87492309  0.90954086  0.57056696  1
  Ti  Ti107  1  1.00404883  0.85333857  0.89659802  1
  Co  Co108  1  0.67299590  0.83106611  0.85190850  1
  Co  Co109  1  0.24187458  0.48766015  0.54840602  1
  Co  Co110  1  0.48869896  0.83445239  0.39556275  1
  Co  Co111  1  0.45275118  0.33167085  0.93320806  1
  Co  Co112  1  0.48235331  0.12925631  0.65822096  1
  Co  Co113  1  0.28798861  0.47575552  0.24747555  1
  Co  Co114  1  0.58826275  0.92193073  0.72759859  1
  Co  Co115  1  0.17609958  0.83567056  0.60807286  1
  Co  Co116  1  0.07613842  0.08796259  0.47270189  1
  Co  Co117  1  0.74650545  0.47854651  0.82399481  1
  Co  Co118  1  0.92288360  0.05036728  0.50462082  1
  Co  Co119  1  0.23568563  0.54934771  0.39234955  1
  Co  Co120  1  0.42113083  0.72307924  0.07393608  1
  Co  Co121  1  0.92708348  0.68430052  0.88864655  1
  Co  Co122  1  0.38481927  0.59781556  0.30257785  1
  Co  Co123  1  0.87047290  0.29145906  0.36225125  1
  Co  Co124  1  0.19935816  0.81719765  0.28669430  1
  Co  Co125  1  0.82333390  0.78787862  0.41225522  1
  Co  Co126  1  0.62797894  0.48808722  0.16136064  1
  Co  Co127  1  0.72130730  0.84776473  0.51854591  1
  Co  Co128  1  0.26654379  0.92718418  0.75001923  1
  Co  Co129  1  0.54510626  0.07383471  0.16758550  1
  Co  Co130  1  0.85984754  0.06372622  0.67084226  1
  Co  Co131  1  0.84067916  -0.06091335  0.89802562  1
  Co  Co132  1  0.28988229  0.43839562  0.95498069  1
  Co  Co133  1  -0.04455684  0.30270412  0.66306286  1
  Co  Co134  1  0.16063671  0.37075032  0.45063734  1
  Co  Co135  1  0.04911972  0.93818531  0.56646861  1
  Co  Co136  1  0.20031612  0.56627244  0.02586820  1
  Co  Co137  1  0.22281289  0.11422718  -0.02737847  1
  Co  Co138  1  0.35229768  0.20034324  0.59443492  1
  Co  Co139  1  0.27384088  0.23326391  0.76207195  1
  Co  Co140  1  0.80615965  0.62750405  0.43403037  1
  Co  Co141  1  0.38640621  0.85894035  -0.02648611  1
  Co  Co142  1  0.11171874  0.84116176  0.01692097  1
  Co  Co143  1  0.65173879  0.33893836  0.09999524  1
  Co  Co144  1  0.75406628  0.53022542  0.28426242  1
  Co  Co145  1  0.69055240  0.24496404  0.58565010  1
  Co  Co146  1  0.62558074  0.59719883  0.02405429  1
  Co  Co147  1  0.05068411  0.38274432  0.12370468  1
  Co  Co148  1  0.78708980  0.45815375  0.12446268  1
  Co  Co149  1  -0.09661213  0.63772710  0.71366973  1
  Co  Co150  1  0.66962562  0.06722757  0.38339669  1
  Co  Co151  1  0.19526571  0.15434624  0.63234531  1
  Co  Co152  1  0.53994276  0.14178325  0.32279585  1
  Co  Co153  1  0.22763865  0.55314056  0.69515581  1
  Co  Co154  1  0.51243785  0.60541479  0.14455739  1
  Co  Co155  1  0.87462834  0.82096805  -0.00878732  1
  Co  Co156  1  0.03386280  0.74877233  0.77384501  1
  Co  Co157  1  -0.02556751  -0.07504211  0.40979760  1
  Co  Co158  1  0.08938713  0.25697161  0.54637756  1
  Co  Co159  1  0.16079313  0.26915475  0.21858632  1
  Co  Co160  1  0.45075851  0.13309366  -0.05738236  1
  Co  Co161  1  0.89229731  0.00477329  0.24024400  1
  Ni  Ni162  1  0.43028198  0.87294911  0.14191080  1
  Ni  Ni163  1  0.51242605  0.05783935  0.80665557  1
  Ni  Ni164  1  -0.03545891  0.27195134  0.02165407  1
  Ni  Ni165  1  0.22261466  0.13361522  0.29184001  1
  Ni  Ni166  1  0.76339735  0.31270036  0.87254779  1
  Ni  Ni167  1  0.63894672  0.71769231  0.59738346  1
  Ni  Ni168  1  0.74279288  0.11594920  0.07286023  1
  Ni  Ni169  1  0.72623650  0.70427595  0.29558065  1
  Ni  Ni170  1  0.72915589  0.35956160  0.70914404  1
  Ni  Ni171  1  0.50977077  0.00762229  0.42689919  1
  Ni  Ni172  1  0.51959168  0.52924155  0.72504478  1
  Ni  Ni173  1  0.00612459  0.38093036  0.37132989  1
  Ni  Ni174  1  0.72201848  0.82323005  0.68555715  1
  Ni  Ni175  1  0.89065369  0.58944763  0.11519921  1
  Ni  Ni176  1  0.51573700  0.32993100  0.18757711  1
  Ni  Ni177  1  0.33368801  0.80907722  0.65329720  1
  Ni  Ni178  1  0.45646095  0.64838590  0.83025636  1
  Ni  Ni179  1  0.48821894  0.49009831  0.41983568  1
  Ni  Ni180  1  0.88338815  0.13558488  -0.03933515  1
  Ni  Ni181  1  0.71648899  -0.02376359  0.61041145  1
  Ni  Ni182  1  0.03809067  0.55565111  -0.05445254  1
  Ni  Ni183  1  0.15066700  -0.09445904  0.16145428  1
  Ni  Ni184  1  0.05647855  0.13184588  0.22654907  1
  Ni  Ni185  1  0.32163783  0.03473055  0.38585553  1
  Ni  Ni186  1  0.20457450  0.55385429  0.86003887  1
  Ni  Ni187  1  0.80492749  0.18864873  0.22083365  1
  Ni  Ni188  1  -0.03178910  0.39892268  0.52937807  1
  Ni  Ni189  1  0.79478842  0.57821544  -0.02923556  1
  Ni  Ni190  1  0.14472408  0.70535731  0.10280286  1
  Ni  Ni191  1  0.49007037  0.66408450  0.41083470  1
  Ni  Ni192  1  0.37559263  0.36438160  0.08888336  1
  Ni  Ni193  1  -0.15081620  0.76426999  0.14308110  1
  Ni  Ni194  1  0.24841557  -0.04775295  0.02943806  1
  Ni  Ni195  1  0.61131104  0.41892266  0.31522193  1
  Ni  Ni196  1  0.77305086  0.53943404  0.58044137  1
  Ni  Ni197  1  0.32919947  0.08151384  0.71200334  1
  Ni  Ni198  1  0.46210790  0.58631456  -0.01796918  1
  Ni  Ni199  1  0.14459983  0.25752002  0.87710269  1
  Ni  Ni200  1  0.27538720  0.74229311  0.51594767  1
  Ni  Ni201  1  0.64552732  0.23357300  0.78552514  1
  Ni  Ni202  1  0.69199512  -0.02406893  -0.05451969  1
  Ni  Ni203  1  -0.02096214  0.18355893  0.78285359  1
  Ni  Ni204  1  0.03283733  0.58893797  0.30046187  1
  Ni  Ni205  1  0.47719333  0.32212494  0.34783499  1
  Ni  Ni206  1  0.63028267  0.44684317  0.61143845  1
  Ni  Ni207  1  0.28864976  0.20172351  0.10770132  1
  Ni  Ni208  1  0.13938734  0.69033565  0.38648355  1
  Ni  Ni209  1  0.12257589  -0.01651195  0.91531483  1
  Ni  Ni210  1  -0.06203855  -0.09646576  0.72044457  1
  Ni  Ni211  1  0.38770563  0.33561271  0.70367834  1
  Ni  Ni212  1  0.03802722  0.42013969  0.79045389  1
  Ni  Ni213  1  0.43002521  0.31484436  0.51423060  1
  Ni  Ni214  1  -0.03175400  -0.00578413  -0.00856913  1
