# generated using pymatgen
data_Ti108Co54Ni53
_symmetry_space_group_name_H-M   'P 1'
_cell_length_a   14.57289971
_cell_length_b   14.62330025
_cell_length_c   14.68883765
_cell_angle_alpha   90.14935823
_cell_angle_beta   90.11839329
_cell_angle_gamma   90.30559451
_symmetry_Int_Tables_number   1
_chemical_formula_structural   Ti108Co54Ni53
_chemical_formula_sum   'Ti108 Co54 Ni53'
_cell_volume   3130.18647967
_cell_formula_units_Z   1
loop_
 _symmetry_equiv_pos_site_id
 _symmetry_equiv_pos_as_xyz
  1  'x, y, z'
loop_
 _atom_site_type_symbol
 _atom_site_label
 _atom_site_symmetry_multiplicity
 _atom_site_fract_x
 _atom_site_fract_y
 _atom_site_fract_z
 _atom_site_occupancy
  Ti  Ti0  1  0.00720404  -0.01420203  0.22751037  1
  Ti  Ti1  1  0.00558907  0.08683876  0.56781760  1
  Ti  Ti2  1  0.07249808  0.06201032  0.97065620  1
  Ti  Ti3  1  0.05998729  0.46070853  0.25865771  1
  Ti  Ti4  1  0.05877241  0.37728543  0.62779563  1
  Ti  Ti5  1  0.09849003  0.40187262  0.82706687  1
  Ti  Ti6  1  0.11698270  0.67553642  0.20639296  1
  Ti  Ti7  1  0.11133145  0.75155228  0.52851267  1
  Ti  Ti8  1  0.18489374  0.76357472  0.86410162  1
  Ti  Ti9  1  0.43387814  0.06285587  0.32278035  1
  Ti  Ti10  1  0.45382507  0.11179726  0.62423852  1
  Ti  Ti11  1  0.42000253  0.04606468  0.96566794  1
  Ti  Ti12  1  0.36783106  0.39315114  0.17227312  1
  Ti  Ti13  1  0.46585994  0.45427667  0.63719286  1
  Ti  Ti14  1  0.36787700  0.41518135  0.98604011  1
  Ti  Ti15  1  0.37031153  0.68653672  0.22623731  1
  Ti  Ti16  1  0.40141783  0.74255001  0.62633192  1
  Ti  Ti17  1  0.40977804  0.74972127  0.87510299  1
  Ti  Ti18  1  0.83445404  0.04519440  0.27355322  1
  Ti  Ti19  1  0.76325215  0.05140718  0.59956927  1
  Ti  Ti20  1  0.75112745  0.00097511  0.91731488  1
  Ti  Ti21  1  0.66531829  0.45566929  0.27942176  1
  Ti  Ti22  1  0.76562489  0.39201208  0.56508494  1
  Ti  Ti23  1  0.75458297  0.43961920  0.89746743  1
  Ti  Ti24  1  0.77367734  0.75276900  0.18193677  1
  Ti  Ti25  1  0.75172672  0.79725117  0.64383918  1
  Ti  Ti26  1  0.73543911  0.75375998  0.97997882  1
  Ti  Ti27  1  0.14426350  0.20733818  0.14565452  1
  Ti  Ti28  1  0.12950749  0.27176313  0.37262777  1
  Ti  Ti29  1  0.07931135  0.20021552  0.71772604  1
  Ti  Ti30  1  0.09403267  0.59786402  0.00374455  1
  Ti  Ti31  1  0.08895350  0.52660825  0.42539688  1
  Ti  Ti32  1  0.06376965  0.65591822  0.71769798  1
  Ti  Ti33  1  0.12071994  0.88296516  0.09823595  1
  Ti  Ti34  1  0.09481859  0.95552858  0.40688703  1
  Ti  Ti35  1  0.07216121  0.83934889  0.72171394  1
  Ti  Ti36  1  0.37571557  0.19850116  0.09738095  1
  Ti  Ti37  1  0.40074526  0.21962671  0.44520618  1
  Ti  Ti38  1  0.39330219  0.30734055  0.76144646  1
  Ti  Ti39  1  0.48426734  0.58868777  -0.02505057  1
  Ti  Ti40  1  0.43750136  0.56288227  0.39021789  1
  Ti  Ti41  1  0.42152143  0.50763193  0.81803410  1
  Ti  Ti42  1  0.38914352  0.88617924  0.23652084  1
  Ti  Ti43  1  0.42428029  0.88054687  0.45407807  1
  Ti  Ti44  1  0.47703528  0.98752805  0.77930929  1
  Ti  Ti45  1  0.74222185  0.19482097  0.18583916  1
  Ti  Ti46  1  0.70428707  0.31855166  0.39657063  1
  Ti  Ti47  1  0.71053656  0.23420498  0.66827310  1
  Ti  Ti48  1  0.66012590  0.61062054  0.06777542  1
  Ti  Ti49  1  0.76379255  0.63661460  0.35956999  1
  Ti  Ti50  1  0.81654122  0.60110302  0.74185118  1
  Ti  Ti51  1  0.71556849  1.01166559  0.11065532  1
  Ti  Ti52  1  0.75257171  0.93326504  0.41455954  1
  Ti  Ti53  1  0.66121712  0.94218326  0.75468664  1
  Ti  Ti54  1  0.29396974  -0.00963622  0.09687796  1
  Ti  Ti55  1  0.24852902  0.11294106  0.39713560  1
  Ti  Ti56  1  0.29652693  0.06455870  0.74357418  1
  Ti  Ti57  1  0.20202824  0.49119375  0.11711638  1
  Ti  Ti58  1  0.31259059  0.44875532  0.48676483  1
  Ti  Ti59  1  0.26020172  0.39405941  0.65708737  1
  Ti  Ti60  1  0.28116703  0.80135627  0.02539045  1
  Ti  Ti61  1  0.23681078  0.79774083  0.35428789  1
  Ti  Ti62  1  0.27474386  0.63635172  0.76278454  1
  Ti  Ti63  1  0.57428459  0.14556111  0.07405214  1
  Ti  Ti64  1  0.66927894  0.10300848  0.38770689  1
  Ti  Ti65  1  0.60384423  0.16512830  0.81540777  1
  Ti  Ti66  1  0.55736539  0.44982874  0.10330353  1
  Ti  Ti67  1  0.58967949  0.49317918  0.46700931  1
  Ti  Ti68  1  0.59027382  0.36618482  0.78007467  1
  Ti  Ti69  1  0.53349980  0.77983399  0.12630085  1
  Ti  Ti70  1  0.56230160  0.72334369  0.46004622  1
  Ti  Ti71  1  0.63175269  0.74832902  0.78657067  1
  Ti  Ti72  1  0.89757949  0.08233973  0.06873878  1
  Ti  Ti73  1  0.98377080  0.14052957  0.38142855  1
  Ti  Ti74  1  1.02874427  0.01209910  0.77403142  1
  Ti  Ti75  1  0.78023665  0.44955045  0.09902961  1
  Ti  Ti76  1  0.87529099  0.45771400  0.38373289  1
  Ti  Ti77  1  0.86780691  0.40569362  0.72733964  1
  Ti  Ti78  1  0.93134551  0.71476342  0.02531410  1
  Ti  Ti79  1  0.84051257  0.76938855  0.46398489  1
  Ti  Ti80  1  0.90076386  0.78214910  0.74392778  1
  Ti  Ti81  1  0.30496192  0.25881957  0.28171912  1
  Ti  Ti82  1  0.21111851  0.21606287  0.57682612  1
  Ti  Ti83  1  0.30807909  0.23056602  0.90925613  1
  Ti  Ti84  1  0.26874298  0.53635915  0.28865508  1
  Ti  Ti85  1  0.19208135  0.58654134  0.57155447  1
  Ti  Ti86  1  0.28467606  0.59633762  0.95614394  1
  Ti  Ti87  1  0.21123830  0.96751673  0.26115728  1
  Ti  Ti88  1  0.24722942  0.91561604  0.59627649  1
  Ti  Ti89  1  0.23344136  0.97887519  0.92089947  1
  Ti  Ti90  1  0.52919642  0.28128643  0.22482432  1
  Ti  Ti91  1  0.58590300  0.23418974  0.52181248  1
  Ti  Ti92  1  0.64447087  0.28907332  0.96612086  1
  Ti  Ti93  1  0.58530789  0.64747193  0.27643338  1
  Ti  Ti94  1  0.63861626  0.58174709  0.63759628  1
  Ti  Ti95  1  0.67181954  0.59803379  0.87500340  1
  Ti  Ti96  1  0.58505626  0.94022431  0.25054425  1
  Ti  Ti97  1  0.56195979  0.92117039  0.59174532  1
  Ti  Ti98  1  0.55603122  0.88497448  0.93097088  1
  Ti  Ti99  1  0.94315151  0.30574806  0.26989449  1
  Ti  Ti100  1  0.89954421  0.24249832  0.61544598  1
  Ti  Ti101  1  0.83770639  0.19881960  0.86953701  1
  Ti  Ti102  1  0.93330734  0.63501743  0.27032727  1
  Ti  Ti103  1  0.94512352  0.61399479  0.52822731  1
  Ti  Ti104  1  0.94864309  0.55764171  0.87187322  1
  Ti  Ti105  1  0.90117598  0.83470176  0.30061518  1
  Ti  Ti106  1  0.89745243  0.92432137  0.57334229  1
  Ti  Ti107  1  0.93595995  0.87806194  0.89787862  1
  Co  Co108  1  0.57435165  -0.07477877  0.41185266  1
  Co  Co109  1  0.20997812  0.40922518  0.35808223  1
  Co  Co110  1  0.48740847  0.60753445  0.56762797  1
  Co  Co111  1  0.74239225  0.15068642  0.01146650  1
  Co  Co112  1  0.40709150  0.70575228  0.05536213  1
  Co  Co113  1  0.40255250  -0.05591337  0.62850594  1
  Co  Co114  1  0.09995183  0.75198595  0.01670124  1
  Co  Co115  1  0.74314677  0.30539653  0.80697294  1
  Co  Co116  1  0.67612903  0.83316391  0.51229942  1
  Co  Co117  1  0.74029178  0.50955496  0.45392858  1
  Co  Co118  1  0.02259490  0.37908561  0.41671676  1
  Co  Co119  1  0.49737165  0.30438109  0.05985348  1
  Co  Co120  1  0.15065991  0.05423700  0.67617470  1
  Co  Co121  1  0.54072767  0.19640504  0.36118515  1
  Co  Co122  1  0.48688120  0.19179681  -0.05653283  1
  Co  Co123  1  0.50583313  0.60481315  0.14890228  1
  Co  Co124  1  0.71715089  0.45925129  0.72159339  1
  Co  Co125  1  0.68543393  0.78362089  0.35317259  1
  Co  Co126  1  0.13408726  0.57501717  0.85521789  1
  Co  Co127  1  0.75761301  0.21021839  0.51127713  1
  Co  Co128  1  0.24214007  0.66077236  0.11039087  1
  Co  Co129  1  0.81538701  0.55023348  0.59613360  1
  Co  Co130  1  0.81153842  0.57406672  -0.03248483  1
  Co  Co131  1  0.86682252  -0.07173319  0.16088999  1
  Co  Co132  1  0.57695693  0.52893523  0.77640171  1
  Co  Co133  1  0.57121959  0.72405927  -0.04833968  1
  Co  Co134  1  0.85112743  0.61325764  0.11523087  1
  Co  Co135  1  -0.06589818  -0.02587737  0.39916465  1
  Co  Co136  1  0.34120792  0.55480758  0.65129286  1
  Co  Co137  1  0.36240463  0.54451095  0.11063636  1
  Co  Co138  1  0.31300945  0.08922435  0.56310897  1
  Co  Co139  1  0.37133842  -0.09249681  -0.11681265  1
  Co  Co140  1  0.01916948  0.71899580  0.86829272  1
  Co  Co141  1  0.49962381  0.83508989  0.74082147  1
  Co  Co142  1  0.87888935  0.48345862  0.22666796  1
  Co  Co143  1  0.24597160  0.81572553  0.18975577  1
  Co  Co144  1  0.44087614  0.04475020  0.15922885  1
  Co  Co145  1  0.20691924  0.75594698  0.67050866  1
  Co  Co146  1  0.34084579  0.61865680  0.50599980  1
  Co  Co147  1  0.60866780  0.38422303  0.60327065  1
  Co  Co148  1  0.52936750  0.25185433  0.67460655  1
  Co  Co149  1  0.11451621  0.04996188  0.12481369  1
  Co  Co150  1  0.38706044  0.72225704  0.38986733  1
  Co  Co151  1  0.04678273  0.24249937  0.52416215  1
  Co  Co152  1  0.16221372  0.38349068  0.51033713  1
  Co  Co153  1  0.90180143  0.04201328  0.88827512  1
  Co  Co154  1  0.57926396  0.74222767  0.62483427  1
  Co  Co155  1  0.09461128  0.89032779  -0.09072667  1
  Co  Co156  1  -0.02112798  -0.05899809  0.04351896  1
  Co  Co157  1  0.73805971  0.90008119  0.25061205  1
  Co  Co158  1  0.55231356  -0.02938362  0.07635244  1
  Co  Co159  1  0.42305962  0.87998217  0.04276974  1
  Co  Co160  1  0.47439661  0.33777734  0.89637071  1
  Co  Co161  1  0.66362575  0.32186098  0.12620383  1
  Ni  Ni162  1  0.54389829  0.36266570  0.36545642  1
  Ni  Ni163  1  0.59535837  0.10515025  0.23123230  1
  Ni  Ni164  1  0.78389956  0.34508997  0.24679531  1
  Ni  Ni165  1  0.59255959  0.05404984  0.93237568  1
  Ni  Ni166  1  0.83919844  0.95180953  0.73732850  1
  Ni  Ni167  1  -0.04110365  0.76873740  0.59480621  1
  Ni  Ni168  1  -0.01889197  0.15665245  0.19879893  1
  Ni  Ni169  1  0.05023747  0.69089182  0.37879765  1
  Ni  Ni170  1  0.15919250  0.50907007  0.71250148  1
  Ni  Ni171  1  0.90543845  0.10721940  0.71607176  1
  Ni  Ni172  1  0.82006878  0.89167057  0.01731785  1
  Ni  Ni173  1  -0.06898831  0.44089821  0.55176045  1
  Ni  Ni174  1  -0.01980585  0.79945190  0.15517509  1
  Ni  Ni175  1  0.00340394  0.55480586  0.13440538  1
  Ni  Ni176  1  0.51733201  0.07001051  0.47451249  1
  Ni  Ni177  1  0.38351087  0.39089781  0.34788880  1
  Ni  Ni178  1  0.28268491  -0.04668025  0.42064990  1
  Ni  Ni179  1  0.84266507  0.08467023  0.45893034  1
  Ni  Ni180  1  0.76706062  0.84177407  0.84022776  1
  Ni  Ni181  1  0.49117147  0.48023441  0.25648351  1
  Ni  Ni182  1  0.37297947  0.27135319  0.59992769  1
  Ni  Ni183  1  0.46475755  0.36651038  0.50161078  1
  Ni  Ni184  1  0.08724084  0.83205691  0.27978034  1
  Ni  Ni185  1  0.19146528  0.44852758  -0.04084361  1
  Ni  Ni186  1  0.84753214  0.70152525  0.87418022  1
  Ni  Ni187  1  0.61286621  0.08311488  0.66330148  1
  Ni  Ni188  1  -0.01314446  0.51550323  0.70225504  1
  Ni  Ni189  1  0.00492804  0.16409295  0.86191207  1
  Ni  Ni190  1  0.32970335  0.83988346  0.74405671  1
  Ni  Ni191  1  0.19657677  -0.07466377  0.77104294  1
  Ni  Ni192  1  0.27336907  0.43700328  0.82103190  1
  Ni  Ni193  1  0.73259322  0.58216562  0.20974963  1
  Ni  Ni194  1  0.22995427  0.13037836  0.01663685  1
  Ni  Ni195  1  0.27696622  0.76810545  0.51362497  1
  Ni  Ni196  1  0.75046792  0.09172099  0.76753736  1
  Ni  Ni197  1  0.81924458  0.20394372  0.34087591  1
  Ni  Ni198  1  0.12374655  0.11489747  0.28428390  1
  Ni  Ni199  1  0.24876649  0.31385280  0.05461715  1
  Ni  Ni200  1  0.51151407  0.79736578  0.30995885  1
  Ni  Ni201  1  0.48439066  0.65877494  0.74565176  1
  Ni  Ni202  1  0.21623702  0.27824766  0.77225298  1
  Ni  Ni203  1  -0.00398235  0.83181044  0.44476616  1
  Ni  Ni204  1  0.21473682  0.64322874  0.40444788  1
  Ni  Ni205  1  0.06616922  -0.07693446  0.58056987  1
  Ni  Ni206  1  0.16360507  0.04725888  0.52029294  1
  Ni  Ni207  1  0.43154210  0.15286218  0.79972899  1
  Ni  Ni208  1  0.58295803  0.45782021  -0.06357017  1
  Ni  Ni209  1  0.88992483  0.29764912  0.45592141  1
  Ni  Ni210  1  0.18769431  0.35592068  0.20803535  1
  Ni  Ni211  1  -0.03426717  0.30057964  0.78927000  1
  Ni  Ni212  1  0.67182964  0.85593231  0.09262539  1
  Ni  Ni213  1  0.28881067  0.10800559  0.21698067  1
  Ni  Ni214  1  0.71758399  0.66802015  0.52060324  1
