# generated using pymatgen
data_Ti108Co54Ni53
_symmetry_space_group_name_H-M   'P 1'
_cell_length_a   14.67380289
_cell_length_b   14.70752833
_cell_length_c   14.69273836
_cell_angle_alpha   90.07451758
_cell_angle_beta   89.88651135
_cell_angle_gamma   89.71214455
_symmetry_Int_Tables_number   1
_chemical_formula_structural   Ti108Co54Ni53
_chemical_formula_sum   'Ti108 Co54 Ni53'
_cell_volume   3170.86982905
_cell_formula_units_Z   1
loop_
 _symmetry_equiv_pos_site_id
 _symmetry_equiv_pos_as_xyz
  1  'x, y, z'
loop_
 _atom_site_type_symbol
 _atom_site_label
 _atom_site_symmetry_multiplicity
 _atom_site_fract_x
 _atom_site_fract_y
 _atom_site_fract_z
 _atom_site_occupancy
  Ti  Ti0  1  0.15834303  0.09155005  0.29959571  1
  Ti  Ti1  1  0.11632408  0.05663938  0.51569504  1
  Ti  Ti2  1  0.06134605  0.12203518  0.98237541  1
  Ti  Ti3  1  0.08304710  0.44396694  0.23799809  1
  Ti  Ti4  1  0.06918513  0.34784393  0.57770161  1
  Ti  Ti5  1  0.11025036  0.32501958  0.96728416  1
  Ti  Ti6  1  0.10730709  0.72390016  0.28384143  1
  Ti  Ti7  1  0.06995213  0.78995268  0.60834444  1
  Ti  Ti8  1  0.09747145  0.61716114  0.91795273  1
  Ti  Ti9  1  0.34939587  0.13659661  0.27149102  1
  Ti  Ti10  1  0.54258278  0.04175512  0.57390454  1
  Ti  Ti11  1  0.37706016  0.13622890  0.96343364  1
  Ti  Ti12  1  0.37635508  0.44039746  0.20486320  1
  Ti  Ti13  1  0.43313409  0.42769471  0.54183609  1
  Ti  Ti14  1  0.24870814  0.44449803  0.88554019  1
  Ti  Ti15  1  0.41333969  0.72608367  0.26108144  1
  Ti  Ti16  1  0.39064403  0.76014795  0.58694310  1
  Ti  Ti17  1  0.43324430  0.69200861  0.93146357  1
  Ti  Ti18  1  0.75873840  0.15823523  0.19035813  1
  Ti  Ti19  1  0.73111206  0.12966152  0.58197734  1
  Ti  Ti20  1  0.75667884  0.05681580  0.95921702  1
  Ti  Ti21  1  0.81497150  0.34093946  0.26578396  1
  Ti  Ti22  1  0.79978947  0.41978293  0.55554755  1
  Ti  Ti23  1  0.75122144  0.39077566  0.87861828  1
  Ti  Ti24  1  0.74080888  0.73298657  0.23115726  1
  Ti  Ti25  1  0.75873612  0.68379759  0.65046874  1
  Ti  Ti26  1  0.79079521  0.71326718  0.89066392  1
  Ti  Ti27  1  0.00046435  0.27119962  0.11854055  1
  Ti  Ti28  1  0.05390039  0.22317414  0.40944381  1
  Ti  Ti29  1  0.11591862  0.18322029  0.71483292  1
  Ti  Ti30  1  0.04005826  0.64024807  0.11891033  1
  Ti  Ti31  1  0.10167348  0.54314918  0.43931115  1
  Ti  Ti32  1  0.10686922  0.51340056  0.73889037  1
  Ti  Ti33  1  0.08189063  0.94267841  0.06384838  1
  Ti  Ti34  1  0.09410211  0.88440073  0.41668963  1
  Ti  Ti35  1  0.02364139  0.98281307  0.68723428  1
  Ti  Ti36  1  0.45257157  0.30356813  0.07545920  1
  Ti  Ti37  1  0.37711174  0.26332142  0.43931195  1
  Ti  Ti38  1  0.35947535  0.19024826  0.74559785  1
  Ti  Ti39  1  0.38600582  0.60123565  0.10534771  1
  Ti  Ti40  1  0.43122957  0.57503585  0.40831979  1
  Ti  Ti41  1  0.41936938  0.59519217  0.66468133  1
  Ti  Ti42  1  0.38277003  0.93957299  0.02294306  1
  Ti  Ti43  1  0.35220130  0.86536055  0.41425874  1
  Ti  Ti44  1  0.44053811  0.92316807  0.82688279  1
  Ti  Ti45  1  0.79449717  0.35612710  0.07248556  1
  Ti  Ti46  1  0.72146039  0.29513309  0.43960322  1
  Ti  Ti47  1  0.77157002  0.27411533  0.71815612  1
  Ti  Ti48  1  0.73198985  0.62087585  0.06380242  1
  Ti  Ti49  1  0.72519152  0.68490034  0.43789598  1
  Ti  Ti50  1  0.94616937  0.62567764  0.71023137  1
  Ti  Ti51  1  0.75388575  0.93455039  0.17286200  1
  Ti  Ti52  1  0.73760847  0.97913519  0.41695660  1
  Ti  Ti53  1  0.74766736  0.93037531  0.80870585  1
  Ti  Ti54  1  0.24573912  0.06696869  0.10852444  1
  Ti  Ti55  1  0.33789719  0.07144978  0.45069871  1
  Ti  Ti56  1  0.18849948  -0.01036257  0.78379940  1
  Ti  Ti57  1  0.22356042  0.35573491  0.10964245  1
  Ti  Ti58  1  0.24208776  0.39162261  0.47588163  1
  Ti  Ti59  1  0.26394831  0.37282071  0.67356859  1
  Ti  Ti60  1  0.22061986  0.72081992  0.04566073  1
  Ti  Ti61  1  0.27030797  0.67531081  0.40969916  1
  Ti  Ti62  1  0.24911886  0.81518313  0.72163962  1
  Ti  Ti63  1  0.52359390  0.11719413  0.20481653  1
  Ti  Ti64  1  0.52151802  0.00969482  0.36960823  1
  Ti  Ti65  1  0.63888110  0.10979364  0.77327383  1
  Ti  Ti66  1  0.62348539  0.38811114  0.15615512  1
  Ti  Ti67  1  0.60814721  0.49035284  0.43625303  1
  Ti  Ti68  1  0.66718437  0.44812747  0.69790143  1
  Ti  Ti69  1  0.54100148  0.70743646  0.09385632  1
  Ti  Ti70  1  0.61007521  0.83033394  0.37814204  1
  Ti  Ti71  1  0.58777239  0.75985100  0.76624473  1
  Ti  Ti72  1  0.90468984  0.05077625  0.10044394  1
  Ti  Ti73  1  0.90592312  0.08682153  0.46080072  1
  Ti  Ti74  1  0.85801896  0.13149959  0.78802586  1
  Ti  Ti75  1  0.94722450  0.48578084  0.08622991  1
  Ti  Ti76  1  0.94574411  0.41920245  0.41787515  1
  Ti  Ti77  1  0.92490633  0.40784111  0.71633790  1
  Ti  Ti78  1  0.88235361  0.78329194  0.09056981  1
  Ti  Ti79  1  0.92762936  0.77174241  0.42160046  1
  Ti  Ti80  1  0.90565584  0.81145730  0.73580779  1
  Ti  Ti81  1  0.25249309  0.30950399  0.28874505  1
  Ti  Ti82  1  0.23399474  0.21380895  0.56505873  1
  Ti  Ti83  1  0.20833089  0.16786144  0.88624716  1
  Ti  Ti84  1  0.21439994  0.55142218  0.14692607  1
  Ti  Ti85  1  0.21753941  0.65101844  0.60899139  1
  Ti  Ti86  1  0.27521451  0.65776300  0.82201676  1
  Ti  Ti87  1  0.25789141  0.87337203  0.17016107  1
  Ti  Ti88  1  0.34213557  0.94840068  0.60960003  1
  Ti  Ti89  1  0.15782210  0.82309506  0.90807110  1
  Ti  Ti90  1  0.61535476  0.24061878  0.30444947  1
  Ti  Ti91  1  0.54336665  0.23556195  0.52694314  1
  Ti  Ti92  1  0.58796525  0.17879739  0.96544748  1
  Ti  Ti93  1  0.60468304  0.57454336  0.22832160  1
  Ti  Ti94  1  0.56792284  0.66678826  0.55331481  1
  Ti  Ti95  1  0.62787613  0.54706782  0.89487195  1
  Ti  Ti96  1  0.55640513  0.91910250  0.14920647  1
  Ti  Ti97  1  0.62879459  0.84807987  0.57252430  1
  Ti  Ti98  1  0.57935439  0.98257126  0.95708208  1
  Ti  Ti99  1  0.94646402  0.14702503  0.26445400  1
  Ti  Ti100  1  0.88401758  0.25856539  0.55852454  1
  Ti  Ti101  1  0.88451441  0.21005570  0.96779288  1
  Ti  Ti102  1  0.85255740  0.59888241  0.32272849  1
  Ti  Ti103  1  0.88951729  0.59664027  0.51682183  1
  Ti  Ti104  1  0.92193328  0.53017350  0.87852545  1
  Ti  Ti105  1  0.95466053  0.91104044  0.24910726  1
  Ti  Ti106  1  0.83388049  0.94555720  0.59808770  1
  Ti  Ti107  1  0.93559180  0.86466048  0.91932308  1
  Co  Co108  1  0.88443886  0.25864968  0.39809928  1
  Co  Co109  1  0.06466600  0.09264055  0.15003094  1
  Co  Co110  1  0.40111485  0.13451157  0.58122090  1
  Co  Co111  1  0.23608127  0.80517074  0.53841215  1
  Co  Co112  1  0.11975612  0.24568639  0.22670980  1
  Co  Co113  1  0.90132190  -0.02749795  0.78821374  1
  Co  Co114  1  0.17601927  0.20347313  0.07006958  1
  Co  Co115  1  0.67054470  0.40538272  0.31183117  1
  Co  Co116  1  0.53266788  0.34410071  0.40061828  1
  Co  Co117  1  0.73695428  0.20534214  0.03891568  1
  Co  Co118  1  0.63245763  0.60381511  0.71086183  1
  Co  Co119  1  0.25590674  0.71112552  0.20529307  1
  Co  Co120  1  0.91496664  0.46652180  0.24430836  1
  Co  Co121  1  0.89822206  0.75774384  0.58299211  1
  Co  Co122  1  0.34253974  0.44363063  0.03792988  1
  Co  Co123  1  0.82197493  0.52858385  0.66861013  1
  Co  Co124  1  0.33090934  0.22126798  0.13544712  1
  Co  Co125  1  0.48104361  0.07391935  0.06194240  1
  Co  Co126  1  0.22271618  0.82431886  0.33132599  1
  Co  Co127  1  0.60366028  0.23203591  0.12565120  1
  Co  Co128  1  0.49070691  0.09321533  0.84692170  1
  Co  Co129  1  0.50391817  0.83222909  -0.01490608  1
  Co  Co130  1  0.44526576  0.04144225  0.70434860  1
  Co  Co131  1  0.88269940  0.30557234  0.83548949  1
  Co  Co132  1  0.84079761  0.01977505  0.28330873  1
  Co  Co133  1  0.51784372  0.45204262  0.27631712  1
  Co  Co134  1  0.55450496  0.51280357  0.59990471  1
  Co  Co135  1  0.16299494  0.93078967  0.61593181  1
  Co  Co136  1  0.97044342  0.70791361  0.85798014  1
  Co  Co137  1  0.48583893  0.16642549  0.37832635  1
  Co  Co138  1  0.39142386  0.28966761  0.61068000  1
  Co  Co139  1  0.79688305  0.84201520  0.32899889  1
  Co  Co140  1  0.03960868  0.75670965  0.00061098  1
  Co  Co141  1  0.03093667  0.24539627  0.85454301  1
  Co  Co142  1  -0.01727615  0.48286166  0.58450934  1
  Co  Co143  1  -0.03963723  0.24626365  0.70423710  1
  Co  Co144  1  0.05577137  0.62644938  0.59062032  1
  Co  Co145  1  0.73325564  0.21551433  0.87512068  1
  Co  Co146  1  0.79874419  0.50700571  -0.01990927  1
  Co  Co147  1  0.11067349  0.36964382  0.38389732  1
  Co  Co148  1  0.02179101  0.03071800  0.36076798  1
  Co  Co149  1  0.90257220  -0.06983095  0.41355143  1
  Co  Co150  1  0.21896537  0.20368566  0.40471069  1
  Co  Co151  1  0.74594314  0.83393209  0.68166778  1
  Co  Co152  1  0.30848932  0.54062354  0.52700457  1
  Co  Co153  1  0.33172460  0.58438861  0.27173791  1
  Co  Co154  1  0.58718032  0.77105014  0.23015718  1
  Co  Co155  1  0.22868208  -0.04487533  0.46275206  1
  Co  Co156  1  0.32931036  0.04879169  0.82411400  1
  Co  Co157  1  0.77363649  0.82723397  0.49435253  1
  Co  Co158  1  0.70793961  0.56045385  0.55090969  1
  Co  Co159  1  -0.01184430  0.92012797  0.54490118  1
  Co  Co160  1  -0.08796731  0.64168895  0.00064715  1
  Co  Co161  1  0.66348742  0.03867865  0.27419809  1
  Ni  Ni162  1  0.67143378  0.30305056  0.59880031  1
  Ni  Ni163  1  0.05734884  0.80765361  0.15080267  1
  Ni  Ni164  1  0.57785482  0.66026432  0.36289123  1
  Ni  Ni165  1  0.52140213  0.18979022  0.68895988  1
  Ni  Ni166  1  0.77730542  0.48231104  0.40377481  1
  Ni  Ni167  1  0.50424360  0.48419503  0.09610672  1
  Ni  Ni168  1  0.78285631  0.89036475  -0.01217299  1
  Ni  Ni169  1  -0.06534079  0.37207388  -0.02777660  1
  Ni  Ni170  1  0.27744343  0.58174164  -0.02699260  1
  Ni  Ni171  1  -0.07990944  0.03572613  -0.06330359  1
  Ni  Ni172  1  0.50056335  0.61882671  0.80355033  1
  Ni  Ni173  1  0.67714398  -0.01290373  0.66171441  1
  Ni  Ni174  1  0.11258631  0.71648020  0.45709468  1
  Ni  Ni175  1  0.63547372  0.33505356  -0.00963301  1
  Ni  Ni176  1  0.48711890  -0.09900356  0.50193328  1
  Ni  Ni177  1  0.03625441  0.18540423  0.56998025  1
  Ni  Ni178  1  0.61732222  0.69888779  -0.05239937  1
  Ni  Ni179  1  0.29580540  0.28976853  -0.03094608  1
  Ni  Ni180  1  0.22736539  0.48024723  0.32967505  1
  Ni  Ni181  1  0.13354565  0.48851696  0.01593332  1
  Ni  Ni182  1  0.75917942  0.49884835  0.19355350  1
  Ni  Ni183  1  0.46060489  0.74343505  0.43474871  1
  Ni  Ni184  1  0.76981856  0.56301721  0.81338498  1
  Ni  Ni185  1  0.12050230  -0.06029459  0.23874282  1
  Ni  Ni186  1  0.18019737  0.31402058  0.80269096  1
  Ni  Ni187  1  0.38065044  0.41536833  0.37073832  1
  Ni  Ni188  1  0.64552093  0.84464831  0.89983917  1
  Ni  Ni189  1  -0.12844981  0.62098998  0.16117110  1
  Ni  Ni190  1  0.49240425  0.87869806  0.67085425  1
  Ni  Ni191  1  0.46509138  0.87862730  0.28632353  1
  Ni  Ni192  1  0.11371858  0.68569748  0.75344629  1
  Ni  Ni193  1  0.27926998  0.52557078  0.71627387  1
  Ni  Ni194  1  0.23010532  -0.00775556  -0.04484579  1
  Ni  Ni195  1  0.77187362  0.14902705  0.36207298  1
  Ni  Ni196  1  0.63459325  0.11827665  0.43936817  1
  Ni  Ni197  1  0.65155289  0.06251783  0.09775437  1
  Ni  Ni198  1  0.16221902  0.48980587  0.58857389  1
  Ni  Ni199  1  0.01282020  0.58879267  0.29899344  1
  Ni  Ni200  1  0.40894984  0.75888966  0.76551953  1
  Ni  Ni201  1  0.06998977  0.84554684  0.77485194  1
  Ni  Ni202  1  0.44849785  0.28479207  0.25447576  1
  Ni  Ni203  1  0.91135083  0.09807431  0.63244579  1
  Ni  Ni204  1  0.39970600  -0.00689782  0.18650727  1
  Ni  Ni205  1  0.02063279  0.09409977  0.81347487  1
  Ni  Ni206  1  -0.01604793  0.31773417  0.28152641  1
  Ni  Ni207  1  0.68145065  0.80140569  0.08232662  1
  Ni  Ni208  1  0.32808650  0.82058202  0.90954122  1
  Ni  Ni209  1  0.28268295  -0.02169523  0.30131072  1
  Ni  Ni210  1  0.06952742  -0.03115917  0.89783396  1
  Ni  Ni211  1  0.25831653  0.07971203  0.66016329  1
  Ni  Ni212  1  0.04339074  0.41412645  0.84842497  1
  Ni  Ni213  1  0.93237291  0.74317392  0.25185050  1
  Ni  Ni214  1  0.37769450  0.77726207  0.08510772  1
