# generated using pymatgen
data_Ti108Co54Ni53
_symmetry_space_group_name_H-M   'P 1'
_cell_length_a   14.56910467
_cell_length_b   14.72231922
_cell_length_c   14.64991317
_cell_angle_alpha   89.92757992
_cell_angle_beta   89.93588940
_cell_angle_gamma   89.83796316
_symmetry_Int_Tables_number   1
_chemical_formula_structural   Ti108Co54Ni53
_chemical_formula_sum   'Ti108 Co54 Ni53'
_cell_volume   3142.25763724
_cell_formula_units_Z   1
loop_
 _symmetry_equiv_pos_site_id
 _symmetry_equiv_pos_as_xyz
  1  'x, y, z'
loop_
 _atom_site_type_symbol
 _atom_site_label
 _atom_site_symmetry_multiplicity
 _atom_site_fract_x
 _atom_site_fract_y
 _atom_site_fract_z
 _atom_site_occupancy
  Ti  Ti0  1  0.02638034  0.10156653  0.22715858  1
  Ti  Ti1  1  0.02906271  0.07272083  0.55465718  1
  Ti  Ti2  1  0.03913429  0.11075311  0.90599786  1
  Ti  Ti3  1  0.08457010  0.43559101  0.18668924  1
  Ti  Ti4  1  0.03360866  0.44204452  0.54834882  1
  Ti  Ti5  1  0.02820357  0.44205844  0.88148063  1
  Ti  Ti6  1  0.12290841  0.76059200  0.22283377  1
  Ti  Ti7  1  0.08538724  0.76076735  0.53397244  1
  Ti  Ti8  1  0.06500849  0.78671452  0.89445008  1
  Ti  Ti9  1  0.34216630  0.09396674  0.31400201  1
  Ti  Ti10  1  0.39688683  0.09087426  0.50360510  1
  Ti  Ti11  1  0.34684247  0.14560604  0.88283537  1
  Ti  Ti12  1  0.40949041  0.39962900  0.22246014  1
  Ti  Ti13  1  0.40278969  0.48715683  0.61245652  1
  Ti  Ti14  1  0.42745994  0.42479376  0.98963587  1
  Ti  Ti15  1  0.48697381  0.74457329  0.19328628  1
  Ti  Ti16  1  0.40674320  0.80523285  0.56543791  1
  Ti  Ti17  1  0.50673119  0.76283875  0.89449066  1
  Ti  Ti18  1  0.75203065  -0.01832884  0.24561469  1
  Ti  Ti19  1  0.74903962  0.11882739  0.54594423  1
  Ti  Ti20  1  0.70024698  0.08497923  0.92299895  1
  Ti  Ti21  1  0.75801715  0.41365805  0.26994751  1
  Ti  Ti22  1  0.76371474  0.47880184  0.59676531  1
  Ti  Ti23  1  0.74860974  0.38111179  0.93395307  1
  Ti  Ti24  1  0.82342387  0.71534431  0.30279631  1
  Ti  Ti25  1  0.77279358  0.76843348  0.60525118  1
  Ti  Ti26  1  0.73435533  0.72546052  0.97566612  1
  Ti  Ti27  1  0.14711955  0.17228751  0.04987454  1
  Ti  Ti28  1  0.06433804  0.21874705  0.42304234  1
  Ti  Ti29  1  0.09138066  0.25970308  0.80114469  1
  Ti  Ti30  1  0.13191820  0.61349367  0.08706537  1
  Ti  Ti31  1  0.01759844  0.59087955  0.41241916  1
  Ti  Ti32  1  0.07137221  0.56663865  0.75059280  1
  Ti  Ti33  1  0.06994363  0.90837667  0.11505672  1
  Ti  Ti34  1  0.12545637  0.88579295  0.39741375  1
  Ti  Ti35  1  0.12527425  0.86409553  0.71908691  1
  Ti  Ti36  1  0.34390771  0.27019053  0.08079033  1
  Ti  Ti37  1  0.41647897  0.27857088  0.43669153  1
  Ti  Ti38  1  0.44963012  0.23677148  0.75389307  1
  Ti  Ti39  1  0.44268854  0.56990542  0.11953064  1
  Ti  Ti40  1  0.40465564  0.62488562  0.45727652  1
  Ti  Ti41  1  0.49545153  0.58769081  0.76893184  1
  Ti  Ti42  1  0.42995590  0.89915583  0.06863009  1
  Ti  Ti43  1  0.46691010  0.94186656  0.36493952  1
  Ti  Ti44  1  0.46889873  1.02004303  0.74095574  1
  Ti  Ti45  1  0.69509815  0.23214351  0.06074998  1
  Ti  Ti46  1  0.79720732  0.27207811  0.41790080  1
  Ti  Ti47  1  0.78301326  0.28136524  0.64939797  1
  Ti  Ti48  1  0.76516761  0.55492832  0.15225720  1
  Ti  Ti49  1  0.70225386  0.52125519  0.40767331  1
  Ti  Ti50  1  0.70776092  0.53770041  0.78785560  1
  Ti  Ti51  1  0.75090905  0.90628180  0.03723572  1
  Ti  Ti52  1  0.76509921  0.93506296  0.49878523  1
  Ti  Ti53  1  0.69743217  0.93924567  0.72278689  1
  Ti  Ti54  1  0.33155906  0.08027037  0.09501396  1
  Ti  Ti55  1  0.20272878  0.06207187  0.48487873  1
  Ti  Ti56  1  0.17115954  0.07854445  0.73387426  1
  Ti  Ti57  1  0.26814060  0.46062401  0.07617888  1
  Ti  Ti58  1  0.24495111  0.36040192  0.38221260  1
  Ti  Ti59  1  0.19697347  0.37584739  0.66576435  1
  Ti  Ti60  1  0.29447136  0.75328634  0.14004719  1
  Ti  Ti61  1  0.21444399  0.68703827  0.39601852  1
  Ti  Ti62  1  0.26217787  0.59450229  0.70403596  1
  Ti  Ti63  1  0.60650697  0.11860638  0.20646640  1
  Ti  Ti64  1  0.59101857  0.04356073  0.45994760  1
  Ti  Ti65  1  0.66620679  0.13669579  0.72575724  1
  Ti  Ti66  1  0.63598132  0.42167013  0.10826399  1
  Ti  Ti67  1  0.52896697  0.44635782  0.42662177  1
  Ti  Ti68  1  0.51461804  0.40775940  0.81002602  1
  Ti  Ti69  1  0.67877230  0.74003857  0.16307944  1
  Ti  Ti70  1  0.54293137  0.76681980  0.37792198  1
  Ti  Ti71  1  0.61828680  0.73261697  0.71654567  1
  Ti  Ti72  1  0.82392562  0.09141682  0.10240547  1
  Ti  Ti73  1  0.88501669  0.07017207  0.38982346  1
  Ti  Ti74  1  0.86053432  0.03181895  0.76704874  1
  Ti  Ti75  1  0.93358599  0.48616922  0.04485364  1
  Ti  Ti76  1  0.94259930  0.40432058  0.37215505  1
  Ti  Ti77  1  0.89771907  0.43366454  0.70551172  1
  Ti  Ti78  1  0.96728431  0.76532764  0.04847910  1
  Ti  Ti79  1  0.90628423  0.77259073  0.45538698  1
  Ti  Ti80  1  0.95453288  0.73237348  0.74878390  1
  Ti  Ti81  1  0.17241659  0.24573690  0.22873993  1
  Ti  Ti82  1  0.32216321  0.25023831  0.59698793  1
  Ti  Ti83  1  0.21245827  0.30879354  0.93056018  1
  Ti  Ti84  1  0.27587647  0.55532969  0.25477180  1
  Ti  Ti85  1  0.23047570  0.50585394  0.51167708  1
  Ti  Ti86  1  0.22895439  0.56365709  0.90734864  1
  Ti  Ti87  1  0.21323234  0.97094033  0.24360047  1
  Ti  Ti88  1  0.28475409  0.94630897  0.62512008  1
  Ti  Ti89  1  0.20223867  0.91507678  0.95138879  1
  Ti  Ti90  1  0.53369195  0.27182029  0.29443851  1
  Ti  Ti91  1  0.59406081  0.23272896  0.51130773  1
  Ti  Ti92  1  0.61879971  0.25482273  0.85758044  1
  Ti  Ti93  1  0.59088266  0.57555276  0.23231167  1
  Ti  Ti94  1  0.58294664  0.56585987  0.57782547  1
  Ti  Ti95  1  0.58976789  0.52651262  0.95712560  1
  Ti  Ti96  1  0.58545318  0.91113491  0.19032107  1
  Ti  Ti97  1  0.59174925  0.87196973  0.55471738  1
  Ti  Ti98  1  0.57589737  0.94670181  0.91563784  1
  Ti  Ti99  1  0.87166797  0.26059842  0.20732877  1
  Ti  Ti100  1  1.00227606  0.25717484  0.62911061  1
  Ti  Ti101  1  0.89901886  0.25665593  0.99011366  1
  Ti  Ti102  1  0.96507914  0.60221803  0.20956432  1
  Ti  Ti103  1  0.93230717  0.62351548  0.59348826  1
  Ti  Ti104  1  0.90691161  0.63191851  0.91247609  1
  Ti  Ti105  1  0.96385440  0.91249074  0.28696144  1
  Ti  Ti106  1  0.94035723  0.87953790  0.62635344  1
  Ti  Ti107  1  0.94490236  0.94708187  0.95620154  1
  Co  Co108  1  0.58307614  0.82100783  0.03846717  1
  Co  Co109  1  0.14360516  0.77093748  0.04292257  1
  Co  Co110  1  0.58654847  0.64702815  0.06256069  1
  Co  Co111  1  0.90949673  0.33017270  0.82788987  1
  Co  Co112  1  0.39442291  0.87131465  0.23985814  1
  Co  Co113  1  0.78113895  -0.05820079  0.88344098  1
  Co  Co114  1  0.06790605  0.61889107  -0.06462952  1
  Co  Co115  1  0.74335159  0.62558811  0.65106356  1
  Co  Co116  1  0.25919824  0.20923944  0.44268866  1
  Co  Co117  1  0.68450853  0.27977172  0.21812466  1
  Co  Co118  1  0.46052476  0.25281335  0.93573670  1
  Co  Co119  1  0.62526121  0.65607048  0.87533577  1
  Co  Co120  1  0.19853285  0.42976803  0.81627140  1
  Co  Co121  1  0.27142883  0.66642201  0.55240440  1
  Co  Co122  1  0.09073137  -0.03083533  0.84848373  1
  Co  Co123  1  0.88688918  0.35184976  0.53869987  1
  Co  Co124  1  0.05074272  0.39848340  0.72450533  1
  Co  Co125  1  0.82005800  0.88621882  0.35655147  1
  Co  Co126  1  -0.04198708  0.89291035  0.79605129  1
  Co  Co127  1  0.57892239  0.35330051  -0.02585298  1
  Co  Co128  1  0.45276681  -0.03635479  0.57773567  1
  Co  Co129  1  0.30720725  0.61852400  0.04581865  1
  Co  Co130  1  0.04727995  0.30503960  -0.02586762  1
  Co  Co131  1  0.65989672  0.03663202  0.07693005  1
  Co  Co132  1  0.87393657  0.15022252  0.65747915  1
  Co  Co133  1  0.44484387  0.59746473  -0.06803476  1
  Co  Co134  1  0.87661869  0.02023047  0.57543944  1
  Co  Co135  1  0.72822795  0.37424843  0.76937646  1
  Co  Co136  1  0.25517837  0.23159312  0.76227506  1
  Co  Co137  1  0.34913228  0.34148182  -0.12382090  1
  Co  Co138  1  0.87731075  0.58767292  0.74424915  1
  Co  Co139  1  0.11098818  0.70348264  0.67754529  1
  Co  Co140  1  0.20209449  0.08899958  -0.08585020  1
  Co  Co141  1  0.54611083  0.87841712  0.74073803  1
  Co  Co142  1  0.81390481  0.83720989  0.75056859  1
  Co  Co143  1  0.59672275  0.45539564  0.68433459  1
  Co  Co144  1  0.11244607  0.46361653  0.01348318  1
  Co  Co145  1  0.57135844  0.42360456  0.25631149  1
  Co  Co146  1  0.16694118  0.19078102  0.61081660  1
  Co  Co147  1  0.25402234  0.82391063  0.29900962  1
  Co  Co148  1  0.05639768  0.03418698  0.37534294  1
  Co  Co149  1  0.87382978  0.79964438  -0.09429606  1
  Co  Co150  1  0.66885504  0.82275965  0.85651238  1
  Co  Co151  1  0.11235162  -0.06712047  0.57180952  1
  Co  Co152  1  0.01346783  0.02116557  0.70680914  1
  Co  Co153  1  0.01354536  0.24109673  0.12508517  1
  Co  Co154  1  0.24608369  0.38936165  0.22047778  1
  Co  Co155  1  0.03082062  0.73707069  0.35436085  1
  Co  Co156  1  0.36535476  0.68751791  0.28593750  1
  Co  Co157  1  0.43689237  0.72553089  0.03743643  1
  Co  Co158  1  0.17532791  0.69849679  0.81987297  1
  Co  Co159  1  0.77300083  0.69581259  0.80758789  1
  Co  Co160  1  0.16677718  0.32955974  0.08938346  1
  Co  Co161  1  -0.09398127  0.19080383  0.50369397  1
  Ni  Ni162  1  -0.08445202  0.43047950  0.20263229  1
  Ni  Ni163  1  0.66961135  0.67174434  0.32898164  1
  Ni  Ni164  1  -0.11963886  0.50544051  0.48509222  1
  Ni  Ni165  1  0.49574857  0.12599437  0.35575566  1
  Ni  Ni166  1  0.47926657  0.34401775  0.58766474  1
  Ni  Ni167  1  0.78089213  0.14366799  0.26898715  1
  Ni  Ni168  1  0.55051430  0.15809757  0.02888167  1
  Ni  Ni169  1  -0.03928534  0.93040394  0.46166886  1
  Ni  Ni170  1  -0.06136818  0.17986670  0.79690207  1
  Ni  Ni171  1  0.35480996  0.37117489  0.71937322  1
  Ni  Ni172  1  0.49685332  0.15588787  0.62125651  1
  Ni  Ni173  1  0.66151065  0.17227340  0.37023730  1
  Ni  Ni174  1  -0.14155502  0.47824082  0.87007071  1
  Ni  Ni175  1  0.26775788  0.77128497  0.67860969  1
  Ni  Ni176  1  -0.01050706  0.08120021  0.06517039  1
  Ni  Ni177  1  0.78364416  0.22224525  0.84756953  1
  Ni  Ni178  1  0.11746347  0.59564101  0.27472249  1
  Ni  Ni179  1  0.79420015  0.64211658  0.47962802  1
  Ni  Ni180  1  0.23834953  0.82716222  0.51356493  1
  Ni  Ni181  1  0.33490541  0.10400780  0.67946744  1
  Ni  Ni182  1  0.64581663  0.38452590  0.54150494  1
  Ni  Ni183  1  0.60379464  0.28843923  0.68043631  1
  Ni  Ni184  1  0.31219305  -0.05200531  0.42839678  1
  Ni  Ni185  1  0.65453366  0.34614115  0.38173050  1
  Ni  Ni186  1  0.02094305  0.29510694  0.28010541  1
  Ni  Ni187  1  0.44273595  0.17484010  0.18416692  1
  Ni  Ni188  1  0.86670886  0.09805145  -0.06577237  1
  Ni  Ni189  1  0.44363463  0.54408805  0.30536138  1
  Ni  Ni190  1  0.55902538  0.71549620  0.53444381  1
  Ni  Ni191  1  0.80791894  0.83631437  0.18481869  1
  Ni  Ni192  1  0.37305226  0.79443360  0.40247826  1
  Ni  Ni193  1  0.53173457  0.11090990  0.86495933  1
  Ni  Ni194  1  0.33544505  0.25482721  0.28152115  1
  Ni  Ni195  1  0.84622140  0.67988539  0.10792675  1
  Ni  Ni196  1  0.71059249  0.78115702  0.44438996  1
  Ni  Ni197  1  0.90694042  -0.05191667  0.12880211  1
  Ni  Ni198  1  0.76119296  0.55623923  -0.01708184  1
  Ni  Ni199  1  0.52086841  0.30196688  0.11933269  1
  Ni  Ni200  1  0.64221946  -0.08844036  0.36478214  1
  Ni  Ni201  1  0.36991491  0.45431771  0.43741103  1
  Ni  Ni202  1  0.42417458  0.65573585  0.63448937  1
  Ni  Ni203  1  0.36205357  0.49898928  0.82205607  1
  Ni  Ni204  1  0.10787073  0.59720708  0.56040164  1
  Ni  Ni205  1  0.45538759  0.01558180  0.19973122  1
  Ni  Ni206  1  0.14988051  0.32754610  0.51448915  1
  Ni  Ni207  1  0.80157101  0.37288946  0.09853933  1
  Ni  Ni208  1  -0.04635400  0.77181290  0.20891609  1
  Ni  Ni209  1  0.10685949  0.44309150  0.36088348  1
  Ni  Ni210  1  0.85436410  0.55074347  0.32717093  1
  Ni  Ni211  1  0.34695906  -0.00781885  -0.04571512  1
  Ni  Ni212  1  0.60121307  0.02677443  0.62296138  1
  Ni  Ni213  1  0.17783797  0.11893275  0.32432431  1
  Ni  Ni214  1  0.17750187  0.01932292  0.07846766  1
