# generated using pymatgen
data_Ti108Co54Ni53
_symmetry_space_group_name_H-M   'P 1'
_cell_length_a   14.58787306
_cell_length_b   14.67021037
_cell_length_c   14.66747597
_cell_angle_alpha   89.77714742
_cell_angle_beta   90.05574249
_cell_angle_gamma   89.58788074
_symmetry_Int_Tables_number   1
_chemical_formula_structural   Ti108Co54Ni53
_chemical_formula_sum   'Ti108 Co54 Ni53'
_cell_volume   3138.83846012
_cell_formula_units_Z   1
loop_
 _symmetry_equiv_pos_site_id
 _symmetry_equiv_pos_as_xyz
  1  'x, y, z'
loop_
 _atom_site_type_symbol
 _atom_site_label
 _atom_site_symmetry_multiplicity
 _atom_site_fract_x
 _atom_site_fract_y
 _atom_site_fract_z
 _atom_site_occupancy
  Ti  Ti0  1  0.14216335  0.05687543  0.28646526  1
  Ti  Ti1  1  0.10235591  0.14660837  0.61383471  1
  Ti  Ti2  1  0.13962438  0.06781767  0.91888729  1
  Ti  Ti3  1  0.00203276  0.45401379  0.27149230  1
  Ti  Ti4  1  0.14053355  0.48143424  0.55610616  1
  Ti  Ti5  1  0.09352718  0.50038937  0.93993005  1
  Ti  Ti6  1  0.03116504  0.76998827  0.14944286  1
  Ti  Ti7  1  0.06829074  0.79235042  0.56969915  1
  Ti  Ti8  1  0.15731150  0.70365406  1.00210202  1
  Ti  Ti9  1  0.36158447  0.16094481  0.25113617  1
  Ti  Ti10  1  0.41833779  0.04049210  0.57712187  1
  Ti  Ti11  1  0.46673943  0.05797089  0.89576077  1
  Ti  Ti12  1  0.45456463  0.44069864  0.27294203  1
  Ti  Ti13  1  0.43516120  0.46421592  0.61761663  1
  Ti  Ti14  1  0.40588997  0.42859144  0.97246579  1
  Ti  Ti15  1  0.45954787  0.68935910  0.23272428  1
  Ti  Ti16  1  0.44268091  0.74551174  0.51259655  1
  Ti  Ti17  1  0.39840523  0.74727983  0.85765991  1
  Ti  Ti18  1  0.71551565  0.00608243  0.22543258  1
  Ti  Ti19  1  0.76649983  0.08772949  0.59674381  1
  Ti  Ti20  1  0.75907389  0.04108308  0.82176003  1
  Ti  Ti21  1  0.81729648  0.40241176  0.35260670  1
  Ti  Ti22  1  0.74313999  0.34782660  0.53246289  1
  Ti  Ti23  1  0.66814791  0.32142618  0.87607346  1
  Ti  Ti24  1  0.70996838  0.83083402  0.31012611  1
  Ti  Ti25  1  0.66902875  0.72495856  0.56950223  1
  Ti  Ti26  1  0.72105263  0.71933672  0.90445227  1
  Ti  Ti27  1  0.02972752  0.19810743  0.05515957  1
  Ti  Ti28  1  0.09332150  0.21704233  0.39836700  1
  Ti  Ti29  1  0.14549567  0.31526315  0.69883011  1
  Ti  Ti30  1  0.12157669  0.55118043  0.12860424  1
  Ti  Ti31  1  0.07894869  0.62713043  0.31434245  1
  Ti  Ti32  1  -0.02826859  0.53831366  0.78214418  1
  Ti  Ti33  1  0.14350347  0.90836261  0.04796074  1
  Ti  Ti34  1  0.07329277  0.91147718  0.41034227  1
  Ti  Ti35  1  0.09317113  0.88545924  0.72935489  1
  Ti  Ti36  1  0.45979865  0.28332573  0.12042740  1
  Ti  Ti37  1  0.44065394  0.27068268  0.36601557  1
  Ti  Ti38  1  0.34585214  0.30420937  0.79982516  1
  Ti  Ti39  1  0.38314340  0.57956538  0.10672474  1
  Ti  Ti40  1  0.39885703  0.58210533  0.41795784  1
  Ti  Ti41  1  0.49484736  0.58955907  0.77941774  1
  Ti  Ti42  1  0.44419765  0.92224309  0.08186731  1
  Ti  Ti43  1  0.33302487  0.90697930  0.41322101  1
  Ti  Ti44  1  0.45036975  0.92358124  0.73810529  1
  Ti  Ti45  1  0.70205005  0.32482219  0.11420108  1
  Ti  Ti46  1  0.74622455  0.16587037  0.39953345  1
  Ti  Ti47  1  0.76361211  0.21486117  0.73537292  1
  Ti  Ti48  1  0.74576823  0.51802187  0.09238807  1
  Ti  Ti49  1  0.71305782  0.53998038  0.43661968  1
  Ti  Ti50  1  0.75548885  0.51064547  0.82807531  1
  Ti  Ti51  1  0.78934824  0.91689595  0.00703195  1
  Ti  Ti52  1  0.77337994  0.96971538  0.43475477  1
  Ti  Ti53  1  0.78729461  0.78010026  0.72366674  1
  Ti  Ti54  1  0.27330500  0.04072151  0.12663212  1
  Ti  Ti55  1  0.27245884  0.09268875  0.43063365  1
  Ti  Ti56  1  0.27138766  0.13154481  0.76009169  1
  Ti  Ti57  1  0.17891972  0.35954319  0.06215017  1
  Ti  Ti58  1  0.18418927  0.39704380  0.38622876  1
  Ti  Ti59  1  0.16328190  0.51627297  0.74044375  1
  Ti  Ti60  1  0.31000535  0.76900951  0.13186991  1
  Ti  Ti61  1  0.22073974  0.75044253  0.41321541  1
  Ti  Ti62  1  0.22519068  0.72530803  0.76367579  1
  Ti  Ti63  1  0.56382533  0.09981121  0.07846561  1
  Ti  Ti64  1  0.57027877  0.12376129  0.47708403  1
  Ti  Ti65  1  0.56921948  0.11303540  0.70079752  1
  Ti  Ti66  1  0.54878387  0.46629652  0.12350088  1
  Ti  Ti67  1  0.62109982  0.34168162  0.38487259  1
  Ti  Ti68  1  0.53584036  0.29737149  0.73972267  1
  Ti  Ti69  1  0.61006717  0.78460207  0.13431717  1
  Ti  Ti70  1  0.58243851  0.70560445  0.38131198  1
  Ti  Ti71  1  0.59376134  0.79915776  0.75905899  1
  Ti  Ti72  1  0.91226888  0.03004589  0.14225046  1
  Ti  Ti73  1  0.94323363  0.07066482  0.35543588  1
  Ti  Ti74  1  0.97529554  0.05662327  0.79298955  1
  Ti  Ti75  1  0.94803474  0.45014862  0.07961618  1
  Ti  Ti76  1  0.92890419  0.43568387  0.50388074  1
  Ti  Ti77  1  0.83513748  0.44543156  0.67145967  1
  Ti  Ti78  1  0.85734247  0.73033932  0.08153844  1
  Ti  Ti79  1  0.94251514  0.72297745  0.42863221  1
  Ti  Ti80  1  0.99026593  0.73721680  0.77684174  1
  Ti  Ti81  1  0.16540494  0.23174614  0.21579801  1
  Ti  Ti82  1  0.26949998  0.29138651  0.54063839  1
  Ti  Ti83  1  0.16939885  0.26812074  0.89542866  1
  Ti  Ti84  1  0.26938032  0.52879386  0.25958553  1
  Ti  Ti85  1  0.26884990  0.64233379  0.57297251  1
  Ti  Ti86  1  0.28748149  0.56349617  0.86922863  1
  Ti  Ti87  1  0.19944729  0.87108982  0.24778484  1
  Ti  Ti88  1  0.20162067  0.95666315  0.56154591  1
  Ti  Ti89  1  0.25943048  0.92364407  0.83534344  1
  Ti  Ti90  1  0.57370517  0.13709660  0.28397472  1
  Ti  Ti91  1  0.51531422  0.29450389  0.55402450  1
  Ti  Ti92  1  0.48170470  0.23788866  0.93143544  1
  Ti  Ti93  1  0.63337240  0.60252634  0.23219879  1
  Ti  Ti94  1  0.64639575  0.53716870  0.63405295  1
  Ti  Ti95  1  0.60656994  0.52468414  0.94491855  1
  Ti  Ti96  1  0.52183815  0.90218472  0.30064363  1
  Ti  Ti97  1  0.61914804  0.96359815  0.58061143  1
  Ti  Ti98  1  0.58238414  0.86619462  0.94882390  1
  Ti  Ti99  1  0.92135132  0.26766696  0.27107449  1
  Ti  Ti100  1  0.92822217  0.27380364  0.62820899  1
  Ti  Ti101  1  0.96171814  0.26824933  0.83035025  1
  Ti  Ti102  1  0.83192445  0.56523929  0.25350026  1
  Ti  Ti103  1  0.97088209  0.60488782  0.59205286  1
  Ti  Ti104  1  0.87643977  0.58543432  0.95943961  1
  Ti  Ti105  1  0.89935710  0.88337000  0.29789188  1
  Ti  Ti106  1  0.89082642  0.92407583  0.63982272  1
  Ti  Ti107  1  0.99998915  0.89488579  0.91503465  1
  Co  Co108  1  0.14335077  0.02980750  0.73281541  1
  Co  Co109  1  0.00963263  0.14276640  0.22497735  1
  Co  Co110  1  0.57556620  0.35767600  0.00865791  1
  Co  Co111  1  0.72067677  0.88175745  0.85958073  1
  Co  Co112  1  0.31984499  0.15391167  0.91090733  1
  Co  Co113  1  0.44413587  0.58584171  -0.05272550  1
  Co  Co114  1  0.41037835  0.77235571  0.36072878  1
  Co  Co115  1  0.09227812  0.17490105  0.78321837  1
  Co  Co116  1  0.59535424  0.43758963  0.51959951  1
  Co  Co117  1  0.27109897  0.12652515  0.59643555  1
  Co  Co118  1  0.05172454  0.51393638  0.42548058  1
  Co  Co119  1  0.83662855  0.39686815  0.18748626  1
  Co  Co120  1  0.19648515  0.17073631  0.03713244  1
  Co  Co121  1  0.50789172  0.39744140  0.86239166  1
  Co  Co122  1  0.55990975  0.59944012  0.50206323  1
  Co  Co123  1  0.31789128  0.29404108  -0.01980233  1
  Co  Co124  1  0.30206348  0.68299706  0.28704556  1
  Co  Co125  1  -0.04774833  0.89019894  0.07322038  1
  Co  Co126  1  0.07806664  0.31255115  0.54422345  1
  Co  Co127  1  0.40156097  0.12193995  0.05715122  1
  Co  Co128  1  0.22449147  0.80197388  0.61957278  1
  Co  Co129  1  0.74885579  0.71098900  0.20281179  1
  Co  Co130  1  0.00536723  0.35173588  0.39350997  1
  Co  Co131  1  0.62670996  0.00156840  0.38345736  1
  Co  Co132  1  0.89850018  0.56247452  0.39976825  1
  Co  Co133  1  0.37698491  0.87211569  0.23094770  1
  Co  Co134  1  0.79948193  -0.12950588  0.16322288  1
  Co  Co135  1  0.44276109  0.06523410  0.38357384  1
  Co  Co136  1  0.10336360  0.64051099  0.84988592  1
  Co  Co137  1  0.01434510  0.63385529  0.01553329  1
  Co  Co138  1  0.38176111  0.45570238  0.78500084  1
  Co  Co139  1  0.66028532  0.64842341  0.76315586  1
  Co  Co140  1  0.81866774  0.35171202  0.80112922  1
  Co  Co141  1  0.62656662  0.84345018  0.46184289  1
  Co  Co142  1  0.30215778  0.46449918  0.50486028  1
  Co  Co143  1  0.06479645  0.39296642  0.82043877  1
  Co  Co144  1  0.62343268  0.94095180  0.10501258  1
  Co  Co145  1  0.22176201  0.57229646  0.41164313  1
  Co  Co146  1  0.56235922  0.52109689  0.36006608  1
  Co  Co147  1  0.73835086  0.27519842  0.28038582  1
  Co  Co148  1  0.91248305  0.11825492  0.66448549  1
  Co  Co149  1  0.10420891  0.65233591  0.49487415  1
  Co  Co150  1  0.10810887  0.65632511  0.67238748  1
  Co  Co151  1  -0.01968500  0.17435645  0.50540942  1
  Co  Co152  1  0.03183869  0.33863423  -0.02308229  1
  Co  Co153  1  0.59287355  -0.02282166  0.79989324  1
  Co  Co154  1  0.30133582  0.24235716  0.12688955  1
  Co  Co155  1  0.26149287  0.24023511  0.37781682  1
  Co  Co156  1  -0.06145940  0.88148080  0.48571801  1
  Co  Co157  1  0.32860111  0.58802910  0.70934677  1
  Co  Co158  1  0.45764365  0.62143271  0.61626271  1
  Co  Co159  1  0.61066668  0.46984435  0.77384282  1
  Co  Co160  1  0.89903687  0.75789972  0.60394337  1
  Co  Co161  1  0.06196621  0.78915499  0.31127535  1
  Ni  Ni162  1  0.45825495  0.02944683  0.20575924  1
  Ni  Ni163  1  0.62003310  0.14979775  0.85425759  1
  Ni  Ni164  1  0.29690281  -0.02005172  0.68852462  1
  Ni  Ni165  1  0.87476519  0.78154697  -0.08446862  1
  Ni  Ni166  1  0.68199514  0.35755811  0.68418844  1
  Ni  Ni167  1  0.54648473  0.63001013  0.07442277  1
  Ni  Ni168  1  0.55607641  0.69897062  0.91236082  1
  Ni  Ni169  1  0.90480160  0.03906796  0.51262624  1
  Ni  Ni170  1  -0.03543692  0.60328383  0.16383345  1
  Ni  Ni171  1  0.33639978  0.41504269  0.12605512  1
  Ni  Ni172  1  0.79190802  0.80992357  0.47824384  1
  Ni  Ni173  1  0.68573450  0.16917908  0.16511425  1
  Ni  Ni174  1  0.28712672  0.83823772  -0.01839008  1
  Ni  Ni175  1  0.45306144  0.76187329  0.02422716  1
  Ni  Ni176  1  0.72544642  -0.06352097  0.69935445  1
  Ni  Ni177  1  -0.01885063  0.04158880  -0.01334254  1
  Ni  Ni178  1  -0.07812896  0.43232107  0.90288418  1
  Ni  Ni179  1  0.38863637  0.75138579  0.68917580  1
  Ni  Ni180  1  0.39653059  0.18490169  0.49843006  1
  Ni  Ni181  1  0.76669254  0.68443029  0.36460813  1
  Ni  Ni182  1  0.79742157  0.61093031  0.66617964  1
  Ni  Ni183  1  0.67913342  0.43908735  0.24865030  1
  Ni  Ni184  1  0.03709354  -0.01149623  0.59794342  1
  Ni  Ni185  1  0.09971346  0.06270372  0.46084942  1
  Ni  Ni186  1  0.30923448  0.34323395  0.26620901  1
  Ni  Ni187  1  0.41099465  0.19968808  0.66753080  1
  Ni  Ni188  1  0.31476913  0.67586626  -0.01223072  1
  Ni  Ni189  1  0.42189854  0.89952853  0.91088382  1
  Ni  Ni190  1  0.10151068  0.05529016  0.11439184  1
  Ni  Ni191  1  0.15270464  0.40604819  0.21815634  1
  Ni  Ni192  1  0.27757484  0.41840129  0.66323628  1
  Ni  Ni193  1  0.57533425  0.30033432  0.23230223  1
  Ni  Ni194  1  0.52772602  0.83601245  0.61123668  1
  Ni  Ni195  1  0.45226064  0.41835991  0.44603914  1
  Ni  Ni196  1  0.84575418  0.65239628  0.80979580  1
  Ni  Ni197  1  0.77364690  0.41468128  -0.02906838  1
  Ni  Ni198  1  0.30636570  0.00444410  -0.02661899  1
  Ni  Ni199  1  0.01247932  0.42542498  0.66041897  1
  Ni  Ni200  1  0.87443610  -0.09006895  0.80623128  1
  Ni  Ni201  1  0.30883688  0.00641771  0.28750065  1
  Ni  Ni202  1  0.17309129  0.70073279  0.19617316  1
  Ni  Ni203  1  0.81596516  0.64530874  0.51576378  1
  Ni  Ni204  1  0.48979216  -0.07015903  0.46886661  1
  Ni  Ni205  1  0.70166396  0.66599333  0.05149055  1
  Ni  Ni206  1  0.03801657  -0.05934485  0.22209120  1
  Ni  Ni207  1  0.86791543  0.27047778  0.44854523  1
  Ni  Ni208  1  0.24780009  0.51883223  0.02489839  1
  Ni  Ni209  1  0.64856031  0.01813828  -0.04564558  1
  Ni  Ni210  1  0.14270006  0.81403217  0.88296620  1
  Ni  Ni211  1  0.36571550  0.87813805  0.58075143  1
  Ni  Ni212  1  -0.09423329  0.72154771  0.26284976  1
  Ni  Ni213  1  0.66235345  0.21737747  0.59065729  1
  Ni  Ni214  1  0.82627423  0.13278343  0.24706107  1
