# generated using pymatgen
data_Ti108Co54Ni53
_symmetry_space_group_name_H-M   'P 1'
_cell_length_a   14.64568606
_cell_length_b   14.68686086
_cell_length_c   14.72732231
_cell_angle_alpha   89.79029064
_cell_angle_beta   90.11922160
_cell_angle_gamma   90.17488210
_symmetry_Int_Tables_number   1
_chemical_formula_structural   Ti108Co54Ni53
_chemical_formula_sum   'Ti108 Co54 Ni53'
_cell_volume   3167.79180020
_cell_formula_units_Z   1
loop_
 _symmetry_equiv_pos_site_id
 _symmetry_equiv_pos_as_xyz
  1  'x, y, z'
loop_
 _atom_site_type_symbol
 _atom_site_label
 _atom_site_symmetry_multiplicity
 _atom_site_fract_x
 _atom_site_fract_y
 _atom_site_fract_z
 _atom_site_occupancy
  Ti  Ti0  1  0.08345879  0.17003020  0.28798478  1
  Ti  Ti1  1  0.20441305  0.18382537  0.55904908  1
  Ti  Ti2  1  0.15983717  0.13753922  0.87898096  1
  Ti  Ti3  1  0.07371526  0.41483109  0.29193872  1
  Ti  Ti4  1  0.05061559  0.41930691  0.52368268  1
  Ti  Ti5  1  0.04940315  0.32917540  0.91031151  1
  Ti  Ti6  1  0.06838464  0.77566295  0.31012126  1
  Ti  Ti7  1  0.11345976  0.73185460  0.56743888  1
  Ti  Ti8  1  0.04497372  0.68291211  0.93887402  1
  Ti  Ti9  1  0.42838342  0.13687677  0.24047168  1
  Ti  Ti10  1  0.38779694  0.10009412  0.55573843  1
  Ti  Ti11  1  0.37764521  0.03498669  0.94794837  1
  Ti  Ti12  1  0.43272585  0.42515517  0.22050439  1
  Ti  Ti13  1  0.42657766  0.44132776  0.49787232  1
  Ti  Ti14  1  0.38391060  0.44779685  0.91417663  1
  Ti  Ti15  1  0.34758680  0.76519032  0.21985477  1
  Ti  Ti16  1  0.42919291  0.76421026  0.66730022  1
  Ti  Ti17  1  0.41383589  0.69145154  0.96779057  1
  Ti  Ti18  1  0.69170953  0.01606219  0.20944591  1
  Ti  Ti19  1  0.75494344  0.12676807  0.49746091  1
  Ti  Ti20  1  0.72884235  0.07726469  0.94551035  1
  Ti  Ti21  1  0.76611110  0.46273547  0.27176201  1
  Ti  Ti22  1  0.74191336  0.36064974  0.68281626  1
  Ti  Ti23  1  0.74832998  0.37418620  0.88045769  1
  Ti  Ti24  1  0.72652536  0.67466016  0.26050442  1
  Ti  Ti25  1  0.72202971  0.69707502  0.59305990  1
  Ti  Ti26  1  0.74051681  0.81520069  0.92641650  1
  Ti  Ti27  1  0.11406643  0.20077451  0.06422189  1
  Ti  Ti28  1  -0.04482453  0.23616938  0.43860976  1
  Ti  Ti29  1  0.04987193  0.21374034  0.74327655  1
  Ti  Ti30  1  0.08438736  0.54940004  0.10834136  1
  Ti  Ti31  1  0.02415765  0.59901126  0.43432873  1
  Ti  Ti32  1  0.12591151  0.64039386  0.73747196  1
  Ti  Ti33  1  0.10943905  0.89976787  0.16348773  1
  Ti  Ti34  1  0.10900907  0.94946889  0.39925035  1
  Ti  Ti35  1  0.13793700  0.86559981  0.75074074  1
  Ti  Ti36  1  0.33295726  0.26277538  0.13680913  1
  Ti  Ti37  1  0.48325518  0.28371097  0.34540886  1
  Ti  Ti38  1  0.42688612  0.19710056  0.73112630  1
  Ti  Ti39  1  0.41376772  0.56387876  0.09758828  1
  Ti  Ti40  1  0.45786494  0.62006683  0.40667912  1
  Ti  Ti41  1  0.42537827  0.58509855  0.79111612  1
  Ti  Ti42  1  0.43073939  0.89253238  0.07677710  1
  Ti  Ti43  1  0.37444142  0.93790277  0.43764240  1
  Ti  Ti44  1  0.44065403  0.88700556  0.82545226  1
  Ti  Ti45  1  0.71552928  0.30904741  0.06227183  1
  Ti  Ti46  1  0.76617495  0.28256769  0.36454654  1
  Ti  Ti47  1  0.58345228  0.29609834  0.76411166  1
  Ti  Ti48  1  0.77156195  0.62915292  0.01216967  1
  Ti  Ti49  1  0.77371420  0.56453550  0.42904160  1
  Ti  Ti50  1  0.74472287  0.55646899  0.73309399  1
  Ti  Ti51  1  0.78586195  0.93107108  0.06860568  1
  Ti  Ti52  1  0.76643942  0.85893508  0.35033271  1
  Ti  Ti53  1  0.73193687  0.96227251  0.78116536  1
  Ti  Ti54  1  0.21252529  0.02128339  0.06407259  1
  Ti  Ti55  1  0.26078671  0.11306046  0.37380733  1
  Ti  Ti56  1  0.28866710  0.03538509  0.71884288  1
  Ti  Ti57  1  0.19990412  0.38487503  0.04028353  1
  Ti  Ti58  1  0.23314319  0.41253004  0.48257077  1
  Ti  Ti59  1  0.19640481  0.35235070  0.73429888  1
  Ti  Ti60  1  0.22187873  0.70449718  0.04598666  1
  Ti  Ti61  1  0.25730910  0.72717517  0.39826288  1
  Ti  Ti62  1  0.30460557  0.71498953  0.81410945  1
  Ti  Ti63  1  0.56630512  0.11863350  0.09358241  1
  Ti  Ti64  1  0.61367056  -0.02996731  0.39123554  1
  Ti  Ti65  1  0.61239634  0.10163234  0.77367803  1
  Ti  Ti66  1  0.56295387  0.42956956  0.06753419  1
  Ti  Ti67  1  0.63090420  0.38119869  0.46754091  1
  Ti  Ti68  1  0.57776322  0.47651084  0.78016466  1
  Ti  Ti69  1  0.64756522  0.75311918  0.08991645  1
  Ti  Ti70  1  0.60975924  0.73384464  0.40958415  1
  Ti  Ti71  1  0.64359235  0.77371796  0.73476450  1
  Ti  Ti72  1  0.91310493  0.08046666  0.01975334  1
  Ti  Ti73  1  0.91832365  0.05550006  0.37365554  1
  Ti  Ti74  1  0.86832910  0.11486212  0.80969497  1
  Ti  Ti75  1  0.87562496  0.44925486  0.03251493  1
  Ti  Ti76  1  0.86514879  0.40914862  0.46957324  1
  Ti  Ti77  1  0.92644823  0.42331149  0.78678750  1
  Ti  Ti78  1  1.01264055  0.73739916  0.11760314  1
  Ti  Ti79  1  0.90048502  0.70295726  0.33414947  1
  Ti  Ti80  1  0.85123716  0.80059270  0.75436444  1
  Ti  Ti81  1  0.26734826  0.30879392  0.31421141  1
  Ti  Ti82  1  0.35418031  0.31820944  0.61486446  1
  Ti  Ti83  1  0.29367216  0.28702647  0.89705300  1
  Ti  Ti84  1  0.24592520  0.58502260  0.23958067  1
  Ti  Ti85  1  0.29574502  0.59060907  0.62741955  1
  Ti  Ti86  1  0.21281174  0.57237919  0.90420956  1
  Ti  Ti87  1  0.32024921  0.97444271  0.23273760  1
  Ti  Ti88  1  0.26604773  0.87500620  0.57641298  1
  Ti  Ti89  1  0.27924085  0.85905052  0.94110722  1
  Ti  Ti90  1  0.65931483  0.22161179  0.22931323  1
  Ti  Ti91  1  0.60957191  0.21044874  0.59568834  1
  Ti  Ti92  1  0.59350488  0.21841334  0.94111932  1
  Ti  Ti93  1  0.57314330  0.57714120  0.21983712  1
  Ti  Ti94  1  0.59069110  0.54402508  0.56155082  1
  Ti  Ti95  1  0.61473214  0.65493019  0.89166491  1
  Ti  Ti96  1  0.55165898  0.83680659  0.23731809  1
  Ti  Ti97  1  0.55239472  0.90881142  0.56808191  1
  Ti  Ti98  1  0.56651189  0.99315094  0.94236991  1
  Ti  Ti99  1  0.87827657  0.18808050  0.23689574  1
  Ti  Ti100  1  0.90255057  0.26393097  0.63833701  1
  Ti  Ti101  1  0.92901481  0.27005731  1.07745984  1
  Ti  Ti102  1  0.89807254  0.58756184  0.18075993  1
  Ti  Ti103  1  0.88716415  0.60978053  0.56832424  1
  Ti  Ti104  1  0.93574419  0.61513426  0.77811109  1
  Ti  Ti105  1  0.89608896  0.86651836  0.21689993  1
  Ti  Ti106  1  0.86375470  0.82784475  0.53395651  1
  Ti  Ti107  1  1.00595818  0.89281064  0.91094741  1
  Co  Co108  1  0.77621963  0.67896186  0.83325581  1
  Co  Co109  1  0.37696751  0.39630565  0.06262290  1
  Co  Co110  1  0.54278936  0.37025731  0.62039003  1
  Co  Co111  1  0.80599804  0.33525381  0.18597773  1
  Co  Co112  1  0.33214514  0.14015964  0.85173572  1
  Co  Co113  1  0.57751359  0.38251877  -0.08441584  1
  Co  Co114  1  -0.06972458  0.60988531  0.01692549  1
  Co  Co115  1  0.75470279  0.10379643  0.33450779  1
  Co  Co116  1  0.62368024  0.21750603  0.41140132  1
  Co  Co117  1  0.40798142  -0.06138013  0.64180924  1
  Co  Co118  1  0.05235888  0.60721019  0.26020183  1
  Co  Co119  1  0.41187451  0.61930489  0.25655440  1
  Co  Co120  1  0.37494817  0.07363448  0.10366635  1
  Co  Co121  1  0.45511221  0.28019336  0.87613202  1
  Co  Co122  1  0.08798732  0.11747606  0.44585917  1
  Co  Co123  1  0.93200569  0.89226593  0.37988085  1
  Co  Co124  1  0.23943389  0.15008146  0.19983831  1
  Co  Co125  1  0.57591473  0.10331172  0.30223904  1
  Co  Co126  1  -0.05739863  0.43422710  0.18524777  1
  Co  Co127  1  0.44186651  0.62584938  0.56681714  1
  Co  Co128  1  0.57398636  0.08460567  0.49321077  1
  Co  Co129  1  0.51168937  0.53884067  -0.06191245  1
  Co  Co130  1  0.62107470  -0.07691303  0.07527633  1
  Co  Co131  1  0.12623402  0.85400598  0.00573854  1
  Co  Co132  1  0.51574883  0.07252865  0.64245595  1
  Co  Co133  1  -0.00706359  0.17853986  0.91501704  1
  Co  Co134  1  0.03977640  0.37158050  0.68038156  1
  Co  Co135  1  0.00487022  -0.02239088  0.26287433  1
  Co  Co136  1  0.45593285  0.04423000  0.79193913  1
  Co  Co137  1  0.59351732  0.60202794  0.06188793  1
  Co  Co138  1  0.74654073  0.49145541  0.57560285  1
  Co  Co139  1  0.19198316  0.41695100  0.88388272  1
  Co  Co140  1  0.02321842  0.55639307  0.64012504  1
  Co  Co141  1  0.07452857  0.03008405  -0.01660756  1
  Co  Co142  1  0.89221148  0.27385529  0.81348548  1
  Co  Co143  1  0.17181767  0.72326098  0.19787801  1
  Co  Co144  1  0.50778176  -0.00426843  0.17122825  1
  Co  Co145  1  0.46924092  -0.03486236  0.31855945  1
  Co  Co146  1  0.71349902  0.84808118  0.20307582  1
  Co  Co147  1  0.22015011  0.85689266  0.29221155  1
  Co  Co148  1  0.77901207  0.71902688  0.44052222  1
  Co  Co149  1  0.27902641  0.50485058  0.76931463  1
  Co  Co150  1  0.68990401  0.84578229  0.49889352  1
  Co  Co151  1  0.56825751  0.94197888  0.72404497  1
  Co  Co152  1  0.73620150  0.87480795  0.64554915  1
  Co  Co153  1  0.49282581  0.73452365  0.82429227  1
  Co  Co154  1  0.04538794  0.38186911  0.07918686  1
  Co  Co155  1  0.29705901  0.87744402  0.75324181  1
  Co  Co156  1  0.56392906  0.73711373  0.56314278  1
  Co  Co157  1  0.60697123  0.86499359  0.85778159  1
  Co  Co158  1  0.16215416  0.02224164  0.25808907  1
  Co  Co159  1  0.67795112  0.50312041  0.95008655  1
  Co  Co160  1  0.86432742  0.03730925  0.18735158  1
  Co  Co161  1  0.16491574  0.75927099  0.87243034  1
  Ni  Ni162  1  -0.03148759  0.93319896  0.07870261  1
  Ni  Ni163  1  0.26109901  0.42818296  0.19036076  1
  Ni  Ni164  1  0.92063631  0.51610773  0.33633659  1
  Ni  Ni165  1  0.61736100  0.38312664  0.25970457  1
  Ni  Ni166  1  0.26203038  0.85664028  0.11138448  1
  Ni  Ni167  1  0.33229384  0.46842423  0.34400198  1
  Ni  Ni168  1  -0.03433870  0.73077797  0.64507405  1
  Ni  Ni169  1  0.32411008  0.25063226  0.45791324  1
  Ni  Ni170  1  -0.08152157  0.34645473  0.31755217  1
  Ni  Ni171  1  0.08309252  0.48944118  0.78779291  1
  Ni  Ni172  1  0.82168913  0.22288576  -0.04269122  1
  Ni  Ni173  1  0.50713663  0.45745690  0.36110286  1
  Ni  Ni174  1  0.26098248  0.53809780  0.05955310  1
  Ni  Ni175  1  0.20493945  -0.01858784  0.86726142  1
  Ni  Ni176  1  0.27269227  0.16798382  0.01173995  1
  Ni  Ni177  1  0.17009369  0.47539503  0.63866257  1
  Ni  Ni178  1  0.14970839  0.30166145  0.19074198  1
  Ni  Ni179  1  0.76681511  0.28728931  0.53636713  1
  Ni  Ni180  1  0.40667516  0.37838048  0.75977077  1
  Ni  Ni181  1  0.83397888  0.52944361  -0.11367190  1
  Ni  Ni182  1  0.89325907  0.79997306  0.00219201  1
  Ni  Ni183  1  0.44368474  0.49268500  0.65674126  1
  Ni  Ni184  1  0.15646960  0.58100373  0.52368856  1
  Ni  Ni185  1  0.79306880  -0.02656793  0.46258443  1
  Ni  Ni186  1  0.43604001  0.20480774  0.01730590  1
  Ni  Ni187  1  0.13391115  0.27913696  0.42043479  1
  Ni  Ni188  1  0.71874429  0.49431804  0.11529337  1
  Ni  Ni189  1  0.56102573  0.63157715  0.69860708  1
  Ni  Ni190  1  0.62728829  0.55756518  0.37304792  1
  Ni  Ni191  1  0.67781730  0.02936890  0.61842007  1
  Ni  Ni192  1  0.84751212  -0.04877834  0.90697997  1
  Ni  Ni193  1  0.03055405  0.08208026  0.14351178  1
  Ni  Ni194  1  0.89742451  0.44840195  0.62774757  1
  Ni  Ni195  1  0.16981934  0.52718795  0.37191884  1
  Ni  Ni196  1  0.51842803  0.28448807  0.15508261  1
  Ni  Ni197  1  0.01266506  0.76583747  0.79588102  1
  Ni  Ni198  1  0.04019494  0.49767699  -0.05198536  1
  Ni  Ni199  1  0.82371297  0.73655015  0.13827756  1
  Ni  Ni200  1  0.44299566  0.78723550  0.35254794  1
  Ni  Ni201  1  0.05697745  0.24907444  0.56848857  1
  Ni  Ni202  1  0.47995258  0.25646175  0.50929992  1
  Ni  Ni203  1  0.22240584  0.02059820  0.50932296  1
  Ni  Ni204  1  0.00370429  0.77435285  0.46295610  1
  Ni  Ni205  1  0.40198946  0.78223718  0.50669652  1
  Ni  Ni206  1  0.44239723  0.11971882  0.40391625  1
  Ni  Ni207  1  0.24204674  0.74667182  0.66992957  1
  Ni  Ni208  1  0.30792813  0.57618922  0.46043128  1
  Ni  Ni209  1  0.53371402  0.80547984  -0.01852419  1
  Ni  Ni210  1  0.48253668  0.71977235  0.12469589  1
  Ni  Ni211  1  0.72987782  0.21717394  0.82240099  1
  Ni  Ni212  1  0.24059740  0.19535556  0.72362253  1
  Ni  Ni213  1  0.75917391  0.14350331  0.09669315  1
  Ni  Ni214  1  0.76008087  0.17294493  0.67087611  1
