# generated using pymatgen
data_Ti108Co54Ni53
_symmetry_space_group_name_H-M   'P 1'
_cell_length_a   14.61249375
_cell_length_b   14.63278807
_cell_length_c   14.68807208
_cell_angle_alpha   89.97238207
_cell_angle_beta   90.39280564
_cell_angle_gamma   89.60492846
_symmetry_Int_Tables_number   1
_chemical_formula_structural   Ti108Co54Ni53
_chemical_formula_sum   'Ti108 Co54 Ni53'
_cell_volume   3140.47705432
_cell_formula_units_Z   1
loop_
 _symmetry_equiv_pos_site_id
 _symmetry_equiv_pos_as_xyz
  1  'x, y, z'
loop_
 _atom_site_type_symbol
 _atom_site_label
 _atom_site_symmetry_multiplicity
 _atom_site_fract_x
 _atom_site_fract_y
 _atom_site_fract_z
 _atom_site_occupancy
  Ti  Ti0  1  0.05680025  0.13008610  0.26406979  1
  Ti  Ti1  1  -0.02937846  0.06896697  0.57573788  1
  Ti  Ti2  1  0.06504308  0.06056425  0.94177987  1
  Ti  Ti3  1  0.06257281  0.47167628  0.29480033  1
  Ti  Ti4  1  -0.02792514  0.44587842  0.56551843  1
  Ti  Ti5  1  0.08268720  0.48230003  0.93622107  1
  Ti  Ti6  1  0.04031905  0.76974980  0.21844879  1
  Ti  Ti7  1  0.09148214  0.74974455  0.58344742  1
  Ti  Ti8  1  0.08913563  0.80643812  0.88549261  1
  Ti  Ti9  1  0.46346490  0.01622989  0.24620204  1
  Ti  Ti10  1  0.41547444  0.14438472  0.64559484  1
  Ti  Ti11  1  0.42946033  0.05762945  0.96540597  1
  Ti  Ti12  1  0.34048027  0.35844838  0.18169945  1
  Ti  Ti13  1  0.42467782  0.38293408  0.63831589  1
  Ti  Ti14  1  0.40073622  0.40841493  0.99842768  1
  Ti  Ti15  1  0.39594025  0.68923973  0.27410583  1
  Ti  Ti16  1  0.40600157  0.73579787  0.62519971  1
  Ti  Ti17  1  0.45262941  0.72407307  0.92787510  1
  Ti  Ti18  1  0.79189659  -0.01214363  0.22942819  1
  Ti  Ti19  1  0.77839562  0.02981974  0.57919988  1
  Ti  Ti20  1  0.76326627  0.11855089  0.89559544  1
  Ti  Ti21  1  0.74438014  0.32681801  0.32339763  1
  Ti  Ti22  1  0.75953386  0.39250305  0.63529743  1
  Ti  Ti23  1  0.71159630  0.54532870  0.93592352  1
  Ti  Ti24  1  0.83688610  0.74357374  0.24419434  1
  Ti  Ti25  1  0.75346578  0.70043317  0.56557959  1
  Ti  Ti26  1  0.70942480  0.74607670  1.01373616  1
  Ti  Ti27  1  0.13436424  0.30524450  0.07433625  1
  Ti  Ti28  1  0.08630900  0.22235823  0.54116174  1
  Ti  Ti29  1  0.03571386  0.22342375  0.75685199  1
  Ti  Ti30  1  0.09144144  0.60272274  0.12835208  1
  Ti  Ti31  1  0.09043468  0.56818999  0.46148701  1
  Ti  Ti32  1  0.10729205  0.55287047  0.69264657  1
  Ti  Ti33  1  0.12856545  0.96343903  0.12981743  1
  Ti  Ti34  1  0.17077229  0.90625677  0.45087935  1
  Ti  Ti35  1  0.11540769  0.90729785  0.68112542  1
  Ti  Ti36  1  0.31539831  0.21755817  0.03375644  1
  Ti  Ti37  1  0.43740677  0.27231931  0.34078196  1
  Ti  Ti38  1  0.49075884  0.27729201  0.78384808  1
  Ti  Ti39  1  0.34789671  0.62783591  0.06014377  1
  Ti  Ti40  1  0.42866576  0.55955496  0.44146037  1
  Ti  Ti41  1  0.43702657  0.60273904  0.75449002  1
  Ti  Ti42  1  0.34619102  0.89544791  0.04434360  1
  Ti  Ti43  1  0.35092295  0.96496649  0.39254942  1
  Ti  Ti44  1  0.43794044  0.95512833  0.72494343  1
  Ti  Ti45  1  0.75601698  0.20677736  0.06300872  1
  Ti  Ti46  1  0.78241202  0.23346510  0.48089473  1
  Ti  Ti47  1  0.80579105  0.26416909  0.77925081  1
  Ti  Ti48  1  0.68885991  0.57956774  0.14179290  1
  Ti  Ti49  1  0.77072936  0.52134492  0.37715259  1
  Ti  Ti50  1  0.81567973  0.56090676  0.71982258  1
  Ti  Ti51  1  0.79628748  0.98992405  0.03738574  1
  Ti  Ti52  1  0.72189650  0.93547647  0.41656870  1
  Ti  Ti53  1  0.75455405  0.87587023  0.72122918  1
  Ti  Ti54  1  0.30416738  0.06058139  0.13990892  1
  Ti  Ti55  1  0.23456977  0.11714789  0.45891438  1
  Ti  Ti56  1  0.24323396  0.06673181  0.73591738  1
  Ti  Ti57  1  0.23095546  0.46721217  0.06329381  1
  Ti  Ti58  1  0.25830933  0.43350791  0.40546672  1
  Ti  Ti59  1  0.22300082  0.38237747  0.76022400  1
  Ti  Ti60  1  0.18427910  0.76780371  0.07196341  1
  Ti  Ti61  1  0.32612932  0.77512054  0.42767120  1
  Ti  Ti62  1  0.24273182  0.71993859  0.74053628  1
  Ti  Ti63  1  0.62783096  0.05967524  0.13730000  1
  Ti  Ti64  1  0.50878102  0.09607029  0.43029518  1
  Ti  Ti65  1  0.55840347  0.09489089  0.81253360  1
  Ti  Ti66  1  0.63455729  0.40781361  0.05281562  1
  Ti  Ti67  1  0.56641194  0.40014562  0.37649125  1
  Ti  Ti68  1  0.65051753  0.39342724  0.81206480  1
  Ti  Ti69  1  0.53092443  0.80963085  0.08421390  1
  Ti  Ti70  1  0.51823133  0.87736819  0.41878797  1
  Ti  Ti71  1  0.55243805  0.78914670  0.75042336  1
  Ti  Ti72  1  0.95512379  0.05016825  0.12076414  1
  Ti  Ti73  1  0.91229395  0.03422068  0.37813551  1
  Ti  Ti74  1  0.88055401  0.04236274  0.75104969  1
  Ti  Ti75  1  0.92505485  0.35928789  0.12305830  1
  Ti  Ti76  1  0.97188593  0.32644650  0.39635429  1
  Ti  Ti77  1  0.95801376  0.42115940  0.76081067  1
  Ti  Ti78  1  0.95877956  0.73963101  0.05469746  1
  Ti  Ti79  1  0.97858179  0.78926033  0.42055461  1
  Ti  Ti80  1  0.89587753  0.72811740  0.76837829  1
  Ti  Ti81  1  0.22200716  0.21559498  0.24837260  1
  Ti  Ti82  1  0.25940067  0.30956814  0.56845362  1
  Ti  Ti83  1  0.20977943  0.20316492  0.87140942  1
  Ti  Ti84  1  0.25305550  0.54106939  0.23887806  1
  Ti  Ti85  1  0.25779576  0.62499300  0.56084419  1
  Ti  Ti86  1  0.29581772  0.54265846  0.88134981  1
  Ti  Ti87  1  0.27520977  0.87961257  0.23542037  1
  Ti  Ti88  1  0.29763639  0.96464640  0.57822558  1
  Ti  Ti89  1  0.30929733  0.91792825  0.86515805  1
  Ti  Ti90  1  0.59150030  0.26918304  0.18027169  1
  Ti  Ti91  1  0.56820056  0.25795107  0.54019338  1
  Ti  Ti92  1  0.52188848  0.25198089  0.98230903  1
  Ti  Ti93  1  0.53404229  0.54802383  0.26116012  1
  Ti  Ti94  1  0.57872742  0.60963710  0.62543356  1
  Ti  Ti95  1  0.52338847  0.52073730  0.89298434  1
  Ti  Ti96  1  0.62492353  0.87167112  0.25574140  1
  Ti  Ti97  1  0.59302456  0.94520311  0.59753780  1
  Ti  Ti98  1  0.61843382  0.94974139  0.95460352  1
  Ti  Ti99  1  0.88146588  0.20549016  0.25139272  1
  Ti  Ti100  1  0.91432862  0.26630746  0.60892288  1
  Ti  Ti101  1  0.91580424  0.32499902  0.93267753  1
  Ti  Ti102  1  0.90829622  0.55603442  0.19074437  1
  Ti  Ti103  1  0.94520586  0.63430300  0.59105533  1
  Ti  Ti104  1  0.89763635  0.56154839  0.94450592  1
  Ti  Ti105  1  1.05056499  0.93916941  0.30679290  1
  Ti  Ti106  1  0.92166110  0.84952175  0.62384714  1
  Ti  Ti107  1  0.86005520  0.84314602  0.91533455  1
  Co  Co108  1  0.60304891  -0.05608853  0.77689882  1
  Co  Co109  1  0.36822241  0.27622745  0.89398308  1
  Co  Co110  1  0.82592010  0.64515996  0.07773969  1
  Co  Co111  1  0.07956820  0.06399859  0.43022284  1
  Co  Co112  1  0.06004272  0.44858868  0.12275981  1
  Co  Co113  1  0.15942176  0.80935578  0.31474634  1
  Co  Co114  1  0.18295066  0.38291635  0.22114130  1
  Co  Co115  1  0.66349745  0.55182232  0.75962628  1
  Co  Co116  1  0.81796970  0.53351631  0.54350483  1
  Co  Co117  1  -0.00074879  0.21020910  0.11347821  1
  Co  Co118  1  0.48754989  0.13410456  0.09250367  1
  Co  Co119  1  0.84300551  0.39043100  0.47107507  1
  Co  Co120  1  0.26480074  0.27192747  0.40367285  1
  Co  Co121  1  0.89733969  0.15510209  0.00644156  1
  Co  Co122  1  0.23475217  0.36629111  -0.06556399  1
  Co  Co123  1  0.25426667  0.06064301  -0.02860425  1
  Co  Co124  1  -0.07268303  0.16289758  0.85106763  1
  Co  Co125  1  0.42451416  0.86279356  0.54561791  1
  Co  Co126  1  0.86267604  0.87420340  0.33243585  1
  Co  Co127  1  0.11087686  0.22598892  0.37985320  1
  Co  Co128  1  0.81059536  0.43408780  0.82602915  1
  Co  Co129  1  0.36666284  0.76893373  0.12956756  1
  Co  Co130  1  0.70252956  0.71190926  0.71722413  1
  Co  Co131  1  0.03491140  0.92554573  0.52463032  1
  Co  Co132  1  0.17952313  0.20451204  0.67943860  1
  Co  Co133  1  0.23668241  0.70532661  0.20944323  1
  Co  Co134  1  -0.05467457  0.17634618  0.44115102  1
  Co  Co135  1  0.66087247  0.44431337  0.23884652  1
  Co  Co136  1  0.60110648  0.66592223  0.84973798  1
  Co  Co137  1  0.62462368  0.23197187  0.38108916  1
  Co  Co138  1  0.67627384  0.89567762  0.11016178  1
  Co  Co139  1  0.41666919  0.36872962  0.47106078  1
  Co  Co140  1  0.08618944  0.34951244  0.84664269  1
  Co  Co141  1  0.28108849  -0.12155131  0.71137962  1
  Co  Co142  1  0.58896428  0.77678362  0.58786036  1
  Co  Co143  1  0.38946921  0.78279133  0.79298765  1
  Co  Co144  1  0.58566476  0.64614208  0.00810086  1
  Co  Co145  1  0.47547269  0.89224726  -0.09422354  1
  Co  Co146  1  0.53169440  0.15706304  0.26848516  1
  Co  Co147  1  0.75667557  -0.03771863  0.85995712  1
  Co  Co148  1  0.94218619  -0.09764001  0.19000291  1
  Co  Co149  1  0.73848643  0.85867921  0.56046051  1
  Co  Co150  1  0.61887433  0.11881530  -0.01444378  1
  Co  Co151  1  0.87590524  -0.07566427  0.49095772  1
  Co  Co152  1  0.57343359  0.10594884  0.63719192  1
  Co  Co153  1  0.45107031  0.01739407  0.54769765  1
  Co  Co154  1  0.33850833  0.48441480  0.55029135  1
  Co  Co155  1  0.39167895  0.51946894  0.16601099  1
  Co  Co156  1  -0.06174038  0.51391858  0.41866981  1
  Co  Co157  1  0.24745300  0.79952867  0.57226469  1
  Co  Co158  1  0.11651685  0.37417408  0.46440625  1
  Co  Co159  1  0.53456209  0.46567373  0.71872445  1
  Co  Co160  1  0.03733529  0.30664576  0.23927588  1
  Co  Co161  1  0.49255421  -0.03807572  0.09831196  1
  Ni  Ni162  1  0.68413932  0.38300233  0.48552056  1
  Ni  Ni163  1  0.76244885  0.34196934  0.15837713  1
  Ni  Ni164  1  0.38902081  0.19922743  0.19210773  1
  Ni  Ni165  1  0.14896429  0.13128915  0.08758150  1
  Ni  Ni166  1  0.63567715  0.26176197  0.69882996  1
  Ni  Ni167  1  0.50437207  0.40114963  0.18026891  1
  Ni  Ni168  1  0.63157578  0.03735413  0.31789169  1
  Ni  Ni169  1  0.51385573  0.51819183  0.06289913  1
  Ni  Ni170  1  0.40802830  0.44415186  0.31531383  1
  Ni  Ni171  1  0.77158715  0.11642915  0.36953671  1
  Ni  Ni172  1  0.39414037  0.42536315  0.80746449  1
  Ni  Ni173  1  0.05001709  0.05844870  0.74137152  1
  Ni  Ni174  1  0.77540138  0.68020674  0.86706814  1
  Ni  Ni175  1  0.27173648  0.74241025  -0.08332729  1
  Ni  Ni176  1  0.64531706  0.23435124  0.86642282  1
  Ni  Ni177  1  0.65035221  0.78186898  0.43602084  1
  Ni  Ni178  1  0.37910663  0.11691839  0.81911853  1
  Ni  Ni179  1  0.65940817  0.10738658  0.49355573  1
  Ni  Ni180  1  0.74831209  0.34284101  -0.04869910  1
  Ni  Ni181  1  0.44822134  0.85219845  0.25370430  1
  Ni  Ni182  1  0.71693452  0.17156457  0.23067044  1
  Ni  Ni183  1  0.82893777  0.83318576  0.09875115  1
  Ni  Ni184  1  0.20692533  0.03519176  0.30071282  1
  Ni  Ni185  1  -0.08810996  0.00628656  -0.08362994  1
  Ni  Ni186  1  0.70812594  0.06650858  0.73338757  1
  Ni  Ni187  1  0.88204693  0.41407042  0.28385618  1
  Ni  Ni188  1  0.03719246  0.65431014  -0.05595821  1
  Ni  Ni189  1  0.29050941  0.53123967  0.70611736  1
  Ni  Ni190  1  0.19012796  0.61773084  -0.00739146  1
  Ni  Ni191  1  0.76414578  0.18700710  0.63578067  1
  Ni  Ni192  1  -0.02634546  0.89523857  0.78983931  1
  Ni  Ni193  1  -0.03456351  0.64443151  0.31709971  1
  Ni  Ni194  1  0.80573730  0.47359973  0.05998977  1
  Ni  Ni195  1  0.38808069  0.20337432  0.49335939  1
  Ni  Ni196  1  0.50048708  0.65960615  0.14382557  1
  Ni  Ni197  1  0.08624656  0.35582059  0.65895189  1
  Ni  Ni198  1  0.27360663  0.61516257  0.38648870  1
  Ni  Ni199  1  0.32612656  0.25555700  0.73352215  1
  Ni  Ni200  1  0.18027436  0.90855169  -0.01618136  1
  Ni  Ni201  1  0.00122842  0.90325768  0.02544362  1
  Ni  Ni202  1  0.49104020  0.71155226  0.47468116  1
  Ni  Ni203  1  0.16191773  0.72213683  0.44459370  1
  Ni  Ni204  1  0.05782294  0.72724765  0.73855302  1
  Ni  Ni205  1  0.12576764  0.63625584  0.30458835  1
  Ni  Ni206  1  -0.01388502  0.58518558  0.79810445  1
  Ni  Ni207  1  0.86249349  0.66145862  0.44047175  1
  Ni  Ni208  1  0.05228068  0.22475662  -0.04861678  1
  Ni  Ni209  1  0.68050178  0.81580505  0.86224475  1
  Ni  Ni210  1  0.14118730  0.05459479  0.59245830  1
  Ni  Ni211  1  0.15327043  0.62395718  0.83590869  1
  Ni  Ni212  1  0.14972140  -0.03241493  0.83547048  1
  Ni  Ni213  1  0.18117844  0.46733845  0.57874373  1
  Ni  Ni214  1  0.35186022  0.12653423  0.33478906  1
