# generated using pymatgen
data_Ti108Co54Ni53
_symmetry_space_group_name_H-M   'P 1'
_cell_length_a   14.72752999
_cell_length_b   14.62353622
_cell_length_c   14.69370699
_cell_angle_alpha   89.90862899
_cell_angle_beta   89.58071990
_cell_angle_gamma   90.25375192
_symmetry_Int_Tables_number   1
_chemical_formula_structural   Ti108Co54Ni53
_chemical_formula_sum   'Ti108 Co54 Ni53'
_cell_volume   3164.44268059
_cell_formula_units_Z   1
loop_
 _symmetry_equiv_pos_site_id
 _symmetry_equiv_pos_as_xyz
  1  'x, y, z'
loop_
 _atom_site_type_symbol
 _atom_site_label
 _atom_site_symmetry_multiplicity
 _atom_site_fract_x
 _atom_site_fract_y
 _atom_site_fract_z
 _atom_site_occupancy
  Ti  Ti0  1  0.04296773  0.06946723  0.24943454  1
  Ti  Ti1  1  0.10109908  0.06372559  0.52572361  1
  Ti  Ti2  1  0.08651855  0.09070439  0.88678173  1
  Ti  Ti3  1  0.15779039  0.42774259  0.23030076  1
  Ti  Ti4  1  0.06406400  0.42117324  0.60593328  1
  Ti  Ti5  1  0.10113774  0.38536696  0.89048729  1
  Ti  Ti6  1  0.10042041  0.73952527  0.23420159  1
  Ti  Ti7  1  0.00776548  0.72245092  0.59340096  1
  Ti  Ti8  1  0.21022346  0.74290400  0.88785982  1
  Ti  Ti9  1  0.43066183  0.05704870  0.26839216  1
  Ti  Ti10  1  0.46974670  0.13054566  0.60509854  1
  Ti  Ti11  1  0.40561633  0.02800950  0.92275578  1
  Ti  Ti12  1  0.33361250  0.37189099  0.17635590  1
  Ti  Ti13  1  0.40658066  0.43551933  0.49011388  1
  Ti  Ti14  1  0.41907050  0.48169253  0.97776875  1
  Ti  Ti15  1  0.38992287  0.75260296  0.23732005  1
  Ti  Ti16  1  0.38723033  0.81454926  0.55369629  1
  Ti  Ti17  1  0.40656243  0.76060673  0.91319070  1
  Ti  Ti18  1  0.72072294  0.15086996  0.27850791  1
  Ti  Ti19  1  0.70915312  0.07487868  0.64069392  1
  Ti  Ti20  1  0.82191789  0.06991212  0.95495204  1
  Ti  Ti21  1  0.79559720  0.45647515  0.26821913  1
  Ti  Ti22  1  0.74522263  0.39563758  0.46550921  1
  Ti  Ti23  1  0.73781839  0.34699875  0.92098247  1
  Ti  Ti24  1  0.74055306  0.83579485  0.29396208  1
  Ti  Ti25  1  0.70991661  0.77711317  0.60864600  1
  Ti  Ti26  1  0.77691095  0.77828437  0.86814985  1
  Ti  Ti27  1  0.07695220  0.25122922  0.12556314  1
  Ti  Ti28  1  0.12350551  0.26198533  0.31955319  1
  Ti  Ti29  1  0.08042784  0.25925331  0.76376041  1
  Ti  Ti30  1  0.12604304  0.59753360  0.10974299  1
  Ti  Ti31  1  0.10699495  0.59659803  0.50642937  1
  Ti  Ti32  1  0.09060858  0.62485448  0.76241084  1
  Ti  Ti33  1  0.11810023  0.92398013  0.14129821  1
  Ti  Ti34  1  0.12227325  0.89160513  0.36744853  1
  Ti  Ti35  1  0.15010249  0.95756328  0.73684352  1
  Ti  Ti36  1  0.41236120  0.22688253  0.04591825  1
  Ti  Ti37  1  0.46334695  0.27857119  0.38698882  1
  Ti  Ti38  1  0.41584018  0.26816414  0.72930532  1
  Ti  Ti39  1  0.43805545  0.56148208  0.15790047  1
  Ti  Ti40  1  0.47998162  0.59524211  0.34726503  1
  Ti  Ti41  1  0.42359251  0.51707938  0.70685763  1
  Ti  Ti42  1  0.35406444  0.93231178  0.12037637  1
  Ti  Ti43  1  0.49198036  0.89669479  0.39459552  1
  Ti  Ti44  1  0.44595057  0.92958158  0.74203090  1
  Ti  Ti45  1  0.65803356  0.23549395  0.05415172  1
  Ti  Ti46  1  0.79690159  0.20521289  0.46868211  1
  Ti  Ti47  1  0.74618837  0.25236411  0.74395211  1
  Ti  Ti48  1  0.70929668  0.43946807  0.08666997  1
  Ti  Ti49  1  0.70824537  0.58591399  0.52812183  1
  Ti  Ti50  1  0.78653480  0.58897529  0.84091815  1
  Ti  Ti51  1  0.72107342  0.93820084  0.10995143  1
  Ti  Ti52  1  0.73605358  1.02017622  0.43083470  1
  Ti  Ti53  1  0.80340342  0.93269432  0.74381536  1
  Ti  Ti54  1  0.24201397  0.07327878  0.05110319  1
  Ti  Ti55  1  0.28723257  -0.01293339  0.44571069  1
  Ti  Ti56  1  0.31752905  0.07818343  0.73487467  1
  Ti  Ti57  1  0.16322870  0.40371023  0.05460325  1
  Ti  Ti58  1  0.15793995  0.42124009  0.43086201  1
  Ti  Ti59  1  0.28668635  0.39497671  0.81434311  1
  Ti  Ti60  1  0.24880616  0.77842580  0.07154697  1
  Ti  Ti61  1  0.27419879  0.67665493  0.47470656  1
  Ti  Ti62  1  0.27970967  0.78145659  0.71724608  1
  Ti  Ti63  1  0.58350966  0.09118571  0.15041231  1
  Ti  Ti64  1  0.53754674  0.07981140  0.41835995  1
  Ti  Ti65  1  0.61691517  0.06061836  0.81236747  1
  Ti  Ti66  1  0.52180300  0.38534438  0.12119772  1
  Ti  Ti67  1  0.59444796  0.43616187  0.37024296  1
  Ti  Ti68  1  0.63198389  0.43275985  0.78836694  1
  Ti  Ti69  1  0.57798692  0.77099916  0.01955397  1
  Ti  Ti70  1  0.56626714  0.72566698  0.46801534  1
  Ti  Ti71  1  0.57838115  0.78907288  0.80543319  1
  Ti  Ti72  1  0.91152746  -0.00555667  0.12149783  1
  Ti  Ti73  1  0.88924154  0.11410821  0.32147777  1
  Ti  Ti74  1  0.97620741  0.08578218  0.71217794  1
  Ti  Ti75  1  0.91855861  0.36693557  0.06433443  1
  Ti  Ti76  1  0.93772004  0.35594562  0.44142266  1
  Ti  Ti77  1  0.83570959  0.42188261  0.74927643  1
  Ti  Ti78  1  0.92910586  0.77473754  0.00554182  1
  Ti  Ti79  1  0.87919726  0.70549990  0.45107500  1
  Ti  Ti80  1  0.92085630  0.77407335  0.74283805  1
  Ti  Ti81  1  0.29926196  0.20390488  0.31322912  1
  Ti  Ti82  1  0.23342806  0.26283021  0.61881555  1
  Ti  Ti83  1  0.21253224  0.23349488  0.95055074  1
  Ti  Ti84  1  0.28759863  0.54756582  0.28523837  1
  Ti  Ti85  1  0.24392871  0.50717005  0.61762558  1
  Ti  Ti86  1  0.21438337  0.54926299  0.92820315  1
  Ti  Ti87  1  0.24218737  1.00576824  0.26202535  1
  Ti  Ti88  1  0.16007164  0.84730035  0.55962118  1
  Ti  Ti89  1  0.16543454  0.92141454  0.94355230  1
  Ti  Ti90  1  0.64672931  0.31552265  0.24284162  1
  Ti  Ti91  1  0.55776205  0.32872828  0.57099772  1
  Ti  Ti92  1  0.55027783  0.26630089  0.86012627  1
  Ti  Ti93  1  0.66290070  0.63184253  0.25392147  1
  Ti  Ti94  1  0.52301913  0.65935504  0.63237812  1
  Ti  Ti95  1  0.54312062  0.59130897  0.84844563  1
  Ti  Ti96  1  0.53399095  0.89150854  0.18598325  1
  Ti  Ti97  1  0.58022021  0.95066387  0.56330344  1
  Ti  Ti98  1  0.67856331  0.91840095  0.91822703  1
  Ti  Ti99  1  0.93621663  0.29416872  0.25217949  1
  Ti  Ti100  1  0.99810554  0.23584240  0.58349590  1
  Ti  Ti101  1  0.92015376  0.31071797  0.88353577  1
  Ti  Ti102  1  0.96269964  0.57810240  0.27949257  1
  Ti  Ti103  1  0.88424496  0.50783188  0.57153015  1
  Ti  Ti104  1  0.97111270  0.51545629  0.87452727  1
  Ti  Ti105  1  0.94029170  0.88625118  0.30800486  1
  Ti  Ti106  1  0.90389896  0.97913287  0.56791593  1
  Ti  Ti107  1  0.95489966  0.94521037  0.85311886  1
  Co  Co108  1  0.09424780  0.78136452  0.04616097  1
  Co  Co109  1  0.60711773  0.48739234  0.21540662  1
  Co  Co110  1  0.24560408  0.07062588  0.88031360  1
  Co  Co111  1  0.79023447  0.30229411  0.33160730  1
  Co  Co112  1  0.24449354  0.25919811  0.11355571  1
  Co  Co113  1  0.86834643  0.82157272  0.59140841  1
  Co  Co114  1  0.32287263  -0.11085379  -0.03540475  1
  Co  Co115  1  0.01024462  -0.07039173  0.00447673  1
  Co  Co116  1  0.92844000  0.11400263  0.50397421  1
  Co  Co117  1  0.83927473  0.46530465  -0.04767888  1
  Co  Co118  1  0.44870898  0.05333492  0.08022401  1
  Co  Co119  1  0.17990181  0.68388157  0.62476558  1
  Co  Co120  1  0.34294701  0.65160761  0.62972143  1
  Co  Co121  1  0.47398992  0.11482554  0.78000332  1
  Co  Co122  1  -0.00483083  0.41008903  0.74164949  1
  Co  Co123  1  0.00751477  0.45176159  0.16651613  1
  Co  Co124  1  -0.00051280  0.01046714  0.40329571  1
  Co  Co125  1  0.63203753  0.26792616  0.41378797  1
  Co  Co126  1  0.29660561  0.91624505  0.81039751  1
  Co  Co127  1  0.14648057  0.46809846  0.75930025  1
  Co  Co128  1  0.30813862  0.36593207  -0.01486632  1
  Co  Co129  1  0.42641373  0.61668818  0.50219543  1
  Co  Co130  1  0.57505628  0.77485474  0.30913942  1
  Co  Co131  1  0.28857644  0.36746180  0.34586293  1
  Co  Co132  1  0.35552713  0.38672780  0.64208389  1
  Co  Co133  1  0.81345688  0.54948419  0.39788055  1
  Co  Co134  1  -0.06086445  0.14688588  0.86156543  1
  Co  Co135  1  -0.00049106  -0.09486072  0.67337098  1
  Co  Co136  1  0.74447179  -0.06906389  0.57406145  1
  Co  Co137  1  0.46149982  0.41548150  0.82916156  1
  Co  Co138  1  0.38797456  0.26138742  0.54832486  1
  Co  Co139  1  0.28083674  0.50821154  0.09864402  1
  Co  Co140  1  0.00764234  0.19350408  0.39920931  1
  Co  Co141  1  0.65741768  0.67724402  -0.08113261  1
  Co  Co142  1  0.76576505  0.10991382  0.12631767  1
  Co  Co143  1  0.83766315  0.90448378  -0.02722329  1
  Co  Co144  1  0.68032992  0.51441953  0.93818965  1
  Co  Co145  1  0.23640821  0.83970464  0.23102141  1
  Co  Co146  1  0.27401331  0.65732322  0.16869867  1
  Co  Co147  1  0.28963849  -0.06967197  0.63616837  1
  Co  Co148  1  0.23316391  0.70494424  0.31849285  1
  Co  Co149  1  0.33996362  0.13409439  0.16357251  1
  Co  Co150  1  0.75924383  0.54777871  0.68656151  1
  Co  Co151  1  0.15184079  0.09083079  0.37393289  1
  Co  Co152  1  0.82536640  0.22586067  0.00570585  1
  Co  Co153  1  0.37178718  -0.09475327  0.29737816  1
  Co  Co154  1  0.91728343  0.25805523  0.73333026  1
  Co  Co155  1  0.27011971  0.83201562  0.41036063  1
  Co  Co156  1  0.83643107  0.66998217  0.62150483  1
  Co  Co157  1  0.03804983  0.49678365  0.01542132  1
  Co  Co158  1  0.28532380  0.51976059  0.44084659  1
  Co  Co159  1  0.41555202  0.74732718  0.39424757  1
  Co  Co160  1  -0.13746805  0.33791202  0.59472694  1
  Co  Co161  1  0.70935135  0.26082111  0.58706356  1
  Ni  Ni162  1  0.70919244  0.41122036  0.62650660  1
  Ni  Ni163  1  0.37361375  0.59453204  0.86267672  1
  Ni  Ni164  1  0.37328135  0.19875644  0.88466306  1
  Ni  Ni165  1  0.93424341  0.67695231  0.86898075  1
  Ni  Ni166  1  0.62651277  -0.02105949  0.29651789  1
  Ni  Ni167  1  0.55992293  0.17447205  0.29215585  1
  Ni  Ni168  1  0.66422557  0.86076283  0.43846474  1
  Ni  Ni169  1  0.84400654  0.16072264  0.63078946  1
  Ni  Ni170  1  0.67620617  0.67137071  0.74379800  1
  Ni  Ni171  1  0.25453953  0.60034563  0.76071702  1
  Ni  Ni172  1  0.04122158  0.71929706  0.39605167  1
  Ni  Ni173  1  -0.02103373  0.53188549  0.43797958  1
  Ni  Ni174  1  0.64208261  0.91875562  0.72183219  1
  Ni  Ni175  1  0.45395952  0.25656851  0.21047982  1
  Ni  Ni176  1  -0.00370240  0.85682636  0.48126322  1
  Ni  Ni177  1  0.03668252  0.23045570  -0.03093609  1
  Ni  Ni178  1  0.02350933  0.42686206  0.32312894  1
  Ni  Ni179  1  0.53033305  0.82026351  0.64378772  1
  Ni  Ni180  1  0.38003667  0.13160599  0.44565615  1
  Ni  Ni181  1  0.57214955  0.39705410  -0.03598207  1
  Ni  Ni182  1  0.12765891  0.26991564  0.49151844  1
  Ni  Ni183  1  0.69809868  0.17890758  0.89685593  1
  Ni  Ni184  1  0.58980183  0.20833455  0.69756125  1
  Ni  Ni185  1  0.83295785  0.88067556  0.43828248  1
  Ni  Ni186  1  0.55779060  0.52598690  0.50302827  1
  Ni  Ni187  1  0.42832313  0.71548371  0.75438599  1
  Ni  Ni188  1  0.79526692  -0.01007176  0.25485510  1
  Ni  Ni189  1  0.61929934  0.14695190  0.53232448  1
  Ni  Ni190  1  0.79409568  0.28154893  0.16134617  1
  Ni  Ni191  1  0.07653879  0.64831040  -0.05241717  1
  Ni  Ni192  1  -0.02236648  0.83419892  0.15333149  1
  Ni  Ni193  1  0.10335350  0.79156187  0.72556782  1
  Ni  Ni194  1  0.43930840  0.43329995  0.29625035  1
  Ni  Ni195  1  0.71809659  0.69866938  0.39827060  1
  Ni  Ni196  1  0.53101806  0.69750465  0.16464736  1
  Ni  Ni197  1  0.14602245  0.12249584  0.68675577  1
  Ni  Ni198  1  0.66895862  0.78009451  0.15959585  1
  Ni  Ni199  1  0.41740829  -0.01051755  0.54413100  1
  Ni  Ni200  1  0.27948342  0.09631632  0.57674910  1
  Ni  Ni201  1  -0.07346856  0.16700641  0.12555581  1
  Ni  Ni202  1  0.57703229  0.56429044  0.05735550  1
  Ni  Ni203  1  0.52759323  0.13912487  -0.04395620  1
  Ni  Ni204  1  0.06974884  0.08061734  0.06777709  1
  Ni  Ni205  1  0.12237796  0.57718525  0.33838400  1
  Ni  Ni206  1  0.65542361  0.05914724  0.00488186  1
  Ni  Ni207  1  0.59621250  0.52227237  0.66363744  1
  Ni  Ni208  1  0.17968302  0.14380867  0.20458942  1
  Ni  Ni209  1  0.34262777  0.64001440  0.01820035  1
  Ni  Ni210  1  0.50836704  0.89904773  -0.07970833  1
  Ni  Ni211  1  0.24205233  0.21945215  0.78670353  1
  Ni  Ni212  1  -0.06567006  0.58129891  0.71661128  1
  Ni  Ni213  1  0.05027570  0.80452881  0.88371519  1
  Ni  Ni214  1  0.80705017  0.09626814  0.78541563  1
