# generated using pymatgen
data_Ti108Co54Ni53
_symmetry_space_group_name_H-M   'P 1'
_cell_length_a   14.62858718
_cell_length_b   14.63457108
_cell_length_c   14.56336531
_cell_angle_alpha   89.74178358
_cell_angle_beta   90.09032175
_cell_angle_gamma   90.14393482
_symmetry_Int_Tables_number   1
_chemical_formula_structural   Ti108Co54Ni53
_chemical_formula_sum   'Ti108 Co54 Ni53'
_cell_volume   3117.72505652
_cell_formula_units_Z   1
loop_
 _symmetry_equiv_pos_site_id
 _symmetry_equiv_pos_as_xyz
  1  'x, y, z'
loop_
 _atom_site_type_symbol
 _atom_site_label
 _atom_site_symmetry_multiplicity
 _atom_site_fract_x
 _atom_site_fract_y
 _atom_site_fract_z
 _atom_site_occupancy
  Ti  Ti0  1  0.07800825  0.13186940  0.26308870  1
  Ti  Ti1  1  0.02697709  0.02781944  0.60981557  1
  Ti  Ti2  1  0.06194784  0.09565928  0.92790532  1
  Ti  Ti3  1  0.13006707  0.40993455  0.14687406  1
  Ti  Ti4  1  0.01985715  0.49823479  0.59551806  1
  Ti  Ti5  1  0.05616839  0.43888054  0.95831528  1
  Ti  Ti6  1  0.02596638  0.80721888  0.22540620  1
  Ti  Ti7  1  0.05984149  0.82939907  0.64476709  1
  Ti  Ti8  1  0.06569350  0.79312332  0.97242545  1
  Ti  Ti9  1  0.38600529  0.03044493  0.24157608  1
  Ti  Ti10  1  0.38997762  0.15988987  0.55078821  1
  Ti  Ti11  1  0.37147202  0.05353426  0.91364289  1
  Ti  Ti12  1  0.43822176  0.47161066  0.22878992  1
  Ti  Ti13  1  0.41092618  0.35849153  0.60097888  1
  Ti  Ti14  1  0.35072992  0.43240044  0.85161309  1
  Ti  Ti15  1  0.49179797  0.74194397  0.19948919  1
  Ti  Ti16  1  0.42351694  0.81976129  0.59551413  1
  Ti  Ti17  1  0.38593868  0.77186431  0.81821643  1
  Ti  Ti18  1  0.73981890  0.06047817  0.28921772  1
  Ti  Ti19  1  0.83500373  0.11297092  0.59383856  1
  Ti  Ti20  1  0.70631567  0.08657070  0.92926910  1
  Ti  Ti21  1  0.75802726  0.36083522  0.27425657  1
  Ti  Ti22  1  0.75150744  0.42040181  0.49456347  1
  Ti  Ti23  1  0.80234528  0.41394541  0.94547598  1
  Ti  Ti24  1  0.70125641  0.71092764  0.22906421  1
  Ti  Ti25  1  0.73758555  0.81548052  0.63276800  1
  Ti  Ti26  1  0.72970084  0.73298074  0.93373572  1
  Ti  Ti27  1  0.06381010  0.25863848  0.03202907  1
  Ti  Ti28  1  0.09985569  0.34273654  0.44839845  1
  Ti  Ti29  1  0.11813110  0.27484591  0.67414919  1
  Ti  Ti30  1  0.08701079  0.60692843  0.10937850  1
  Ti  Ti31  1  0.04359628  0.53487938  0.39631509  1
  Ti  Ti32  1  0.07716693  0.59287429  0.77364895  1
  Ti  Ti33  1  0.05033915  0.97987936  0.10981696  1
  Ti  Ti34  1  0.12497020  0.88429653  0.42432112  1
  Ti  Ti35  1  0.05152674  0.94283690  0.79801022  1
  Ti  Ti36  1  0.38346471  0.26867901  0.14103203  1
  Ti  Ti37  1  0.47748103  0.27711592  0.44216882  1
  Ti  Ti38  1  0.43355722  0.19254770  0.77035047  1
  Ti  Ti39  1  0.42874193  0.58100780  0.05720913  1
  Ti  Ti40  1  0.45479174  0.60027337  0.38464864  1
  Ti  Ti41  1  0.45094651  0.59362056  0.83316201  1
  Ti  Ti42  1  0.45840143  0.91048679  0.09676401  1
  Ti  Ti43  1  0.43902562  0.98017814  0.43436531  1
  Ti  Ti44  1  0.42106302  0.98854868  0.73824660  1
  Ti  Ti45  1  0.71450332  0.23599951  0.07765854  1
  Ti  Ti46  1  0.76920056  0.20660025  0.42383025  1
  Ti  Ti47  1  0.85560281  0.28549318  0.74707156  1
  Ti  Ti48  1  0.73846082  0.58150661  0.06232035  1
  Ti  Ti49  1  0.78289262  0.59111289  0.38040422  1
  Ti  Ti50  1  0.81514168  0.48290522  0.75404161  1
  Ti  Ti51  1  0.76089536  0.92107835  0.04787964  1
  Ti  Ti52  1  0.75540677  0.86648937  0.38385149  1
  Ti  Ti53  1  0.73324379  0.95722761  0.78219976  1
  Ti  Ti54  1  0.30942631  0.10786645  0.08227968  1
  Ti  Ti55  1  0.25465789  0.07013238  0.42757282  1
  Ti  Ti56  1  0.25039361  0.10802802  0.66566132  1
  Ti  Ti57  1  0.26347072  0.39676395  0.02689276  1
  Ti  Ti58  1  0.31245587  0.42632397  0.41541452  1
  Ti  Ti59  1  0.18377654  0.30813447  0.85764112  1
  Ti  Ti60  1  0.28365731  0.76714094  0.03217004  1
  Ti  Ti61  1  0.35316022  0.76882199  0.35769216  1
  Ti  Ti62  1  0.22262474  0.71963624  0.72561474  1
  Ti  Ti63  1  0.54308327  0.10586866  0.10901860  1
  Ti  Ti64  1  0.58796347  0.12626031  0.41859328  1
  Ti  Ti65  1  0.60544266  0.08570723  0.72763600  1
  Ti  Ti66  1  0.59605231  0.44832253  0.11376156  1
  Ti  Ti67  1  0.56879474  0.42833512  0.52711753  1
  Ti  Ti68  1  0.51672579  0.38721317  0.75612669  1
  Ti  Ti69  1  0.60314817  0.79851758  0.04608246  1
  Ti  Ti70  1  0.54945419  0.79946216  0.40595677  1
  Ti  Ti71  1  0.55462458  0.73437904  0.72236354  1
  Ti  Ti72  1  0.87258580  0.07003938  0.05213573  1
  Ti  Ti73  1  0.91806882  0.02210923  0.42052157  1
  Ti  Ti74  1  0.90600864  0.07053114  0.77365048  1
  Ti  Ti75  1  0.93281322  0.41144987  0.12440034  1
  Ti  Ti76  1  0.91293793  0.34583688  0.42787905  1
  Ti  Ti77  1  1.00374660  0.40102661  0.76138078  1
  Ti  Ti78  1  0.91608887  0.70814682  0.08064365  1
  Ti  Ti79  1  0.94359892  0.70504055  0.43950210  1
  Ti  Ti80  1  0.75632804  0.66968827  0.75110345  1
  Ti  Ti81  1  0.21951013  0.29581772  0.27113373  1
  Ti  Ti82  1  0.24708395  0.28653002  0.54367966  1
  Ti  Ti83  1  0.35591019  0.26016138  0.94171377  1
  Ti  Ti84  1  0.21829676  0.59378389  0.28086369  1
  Ti  Ti85  1  0.24116982  0.45888700  0.65201541  1
  Ti  Ti86  1  0.20066173  0.54554046  0.92531536  1
  Ti  Ti87  1  0.20533532  0.97080958  0.22555858  1
  Ti  Ti88  1  0.25106374  0.90317466  0.68916543  1
  Ti  Ti89  1  0.18328365  0.95887038  0.96802887  1
  Ti  Ti90  1  0.54623561  0.29492916  0.24875631  1
  Ti  Ti91  1  0.68361045  0.31189896  0.66832911  1
  Ti  Ti92  1  0.59637057  0.23106283  0.87980826  1
  Ti  Ti93  1  0.61835285  0.48864326  0.33317158  1
  Ti  Ti94  1  0.53454196  0.56042877  0.64910077  1
  Ti  Ti95  1  0.63724850  0.55255284  0.85028319  1
  Ti  Ti96  1  0.63289724  0.91027580  0.20507683  1
  Ti  Ti97  1  0.61237551  0.95464180  0.53883158  1
  Ti  Ti98  1  0.53835604  0.89671982  0.87882949  1
  Ti  Ti99  1  0.88021943  0.23240972  0.21407912  1
  Ti  Ti100  1  0.99417946  0.19078081  0.50595475  1
  Ti  Ti101  1  0.89001564  0.18402587  0.91677365  1
  Ti  Ti102  1  0.89934845  0.60429758  0.22899142  1
  Ti  Ti103  1  0.82242354  0.60635585  0.57822794  1
  Ti  Ti104  1  0.91618280  0.67209705  0.88348460  1
  Ti  Ti105  1  0.90417565  1.00551240  0.22838126  1
  Ti  Ti106  1  0.88453345  0.87289716  0.52484557  1
  Ti  Ti107  1  0.88061836  0.82826788  0.79324585  1
  Co  Co108  1  0.16023325  0.44917669  0.78769084  1
  Co  Co109  1  0.22166179  0.25637212  0.10627002  1
  Co  Co110  1  0.07782278  0.04949862  0.43618141  1
  Co  Co111  1  0.41305675  0.51326114  0.52779455  1
  Co  Co112  1  0.69039083  0.49467208  0.64711297  1
  Co  Co113  1  0.54099987  0.49933139  -0.03747812  1
  Co  Co114  1  0.27621795  0.58203116  0.77847428  1
  Co  Co115  1  0.49272871  0.66992050  0.53140385  1
  Co  Co116  1  0.05650670  -0.03156298  0.29600428  1
  Co  Co117  1  0.39501249  0.66992275  0.67935170  1
  Co  Co118  1  0.14459777  0.10668867  0.09954960  1
  Co  Co119  1  0.59054673  0.79508569  0.55950058  1
  Co  Co120  1  0.17423486  0.84870466  0.82622580  1
  Co  Co121  1  0.79647533  0.88247056  0.22574894  1
  Co  Co122  1  0.82471127  0.27212296  0.56933246  1
  Co  Co123  1  0.65135630  0.36987293  -0.01776637  1
  Co  Co124  1  -0.01305861  0.33616161  0.58997723  1
  Co  Co125  1  0.42615584  0.40919266  0.06180182  1
  Co  Co126  1  0.17873936  0.70271153  0.88972750  1
  Co  Co127  1  0.56643922  0.71447796  0.88654303  1
  Co  Co128  1  0.67750185  0.81251044  0.80257184  1
  Co  Co129  1  0.74366748  0.72956149  0.46829507  1
  Co  Co130  1  0.04847326  0.61903878  -0.04779913  1
  Co  Co131  1  0.47697539  0.42854481  0.38686498  1
  Co  Co132  1  0.19660289  0.70802269  0.16859461  1
  Co  Co133  1  -0.05907256  0.51078510  0.86363846  1
  Co  Co134  1  0.26571588  0.14376048  0.25134731  1
  Co  Co135  1  0.14856311  0.19648777  0.39269478  1
  Co  Co136  1  0.96839814  0.19779365  0.67616554  1
  Co  Co137  1  0.30298263  -0.08128897  0.34369888  1
  Co  Co138  1  0.76835240  0.76654547  0.09748890  1
  Co  Co139  1  0.66244357  0.19195987  0.23461020  1
  Co  Co140  1  -0.09705052  0.51426620  0.46854313  1
  Co  Co141  1  0.39413919  0.49461154  0.69990570  1
  Co  Co142  1  0.14383030  0.15058980  0.55313123  1
  Co  Co143  1  0.87264362  0.26994318  0.05373664  1
  Co  Co144  1  -0.06442995  0.34361068  -0.08867229  1
  Co  Co145  1  0.67327374  0.13006887  0.58368871  1
  Co  Co146  1  -0.07666667  0.61133764  0.72322692  1
  Co  Co147  1  0.65227923  0.56475714  0.48755340  1
  Co  Co148  1  0.42425674  0.13772083  0.36410875  1
  Co  Co149  1  0.32642352  0.83031502  0.19921796  1
  Co  Co150  1  0.05914601  0.66440642  0.28090410  1
  Co  Co151  1  -0.01503378  0.14926476  0.11612599  1
  Co  Co152  1  0.64021853  0.26763346  0.52119090  1
  Co  Co153  1  0.85241263  0.74130030  0.31023242  1
  Co  Co154  1  0.30544757  0.23686164  0.41052767  1
  Co  Co155  1  0.75474435  0.26270231  0.89387364  1
  Co  Co156  1  0.58582691  0.63907325  0.04683842  1
  Co  Co157  1  0.86156412  0.42982278  0.61494172  1
  Co  Co158  1  0.53806428  0.06227998  0.87689203  1
  Co  Co159  1  0.78993910  0.57469156  0.90468724  1
  Co  Co160  1  0.04118493  0.75245713  0.79045394  1
  Co  Co161  1  0.47022487  0.16809832  -0.01984392  1
  Ni  Ni162  1  0.84589436  -0.01425035  0.90401911  1
  Ni  Ni163  1  0.35110446  -0.00404654  0.58197626  1
  Ni  Ni164  1  0.17407376  -0.02211203  0.55728064  1
  Ni  Ni165  1  0.89419225  0.45116686  0.30314428  1
  Ni  Ni166  1  -0.09859303  -0.06687495  0.67450032  1
  Ni  Ni167  1  0.03070476  0.23898224  0.83156617  1
  Ni  Ni168  1  0.54665777  0.05916294  0.26805722  1
  Ni  Ni169  1  -0.01086992  -0.05510010  -0.04306140  1
  Ni  Ni170  1  0.32112478  0.90620024  0.87284309  1
  Ni  Ni171  1  0.92704624  0.16965044  0.35323210  1
  Ni  Ni172  1  0.09126548  0.11245115  0.75056467  1
  Ni  Ni173  1  0.16662090  0.44173689  0.32053167  1
  Ni  Ni174  1  0.29240847  0.86953295  0.49783941  1
  Ni  Ni175  1  0.36130499  0.64256041  0.20995662  1
  Ni  Ni176  1  0.30602933  0.29963397  0.72238840  1
  Ni  Ni177  1  0.75216505  -0.01986458  0.61866412  1
  Ni  Ni178  1  0.17643329  0.48007933  0.49742195  1
  Ni  Ni179  1  -0.05757572  0.86511681  0.36175206  1
  Ni  Ni180  1  0.38586309  0.31708828  0.29835613  1
  Ni  Ni181  1  0.02841057  0.33277584  0.28016504  1
  Ni  Ni182  1  0.56276278  0.90159322  0.69674173  1
  Ni  Ni183  1  0.75098810  0.15271510  0.76954114  1
  Ni  Ni184  1  0.50497754  0.06087320  0.59961776  1
  Ni  Ni185  1  0.91550535  0.54656586  0.02867459  1
  Ni  Ni186  1  0.66517526  0.66185346  0.60942748  1
  Ni  Ni187  1  0.54428591  0.28036001  0.07539754  1
  Ni  Ni188  1  0.63987519  0.32350067  0.37815630  1
  Ni  Ni189  1  0.60236220  -0.02337375  0.01876155  1
  Ni  Ni190  1  0.33133316  0.64321110  -0.06977522  1
  Ni  Ni191  1  0.55865656  0.59281776  0.20896365  1
  Ni  Ni192  1  0.67352988  0.39183555  0.81827676  1
  Ni  Ni193  1  0.44915123  0.75090874  -0.00350950  1
  Ni  Ni194  1  0.30475360  -0.05698641  0.07406578  1
  Ni  Ni195  1  0.61340816  0.65995408  0.35918256  1
  Ni  Ni196  1  0.28842013  0.45688343  0.18451121  1
  Ni  Ni197  1  0.16457848  0.85289245  0.11389282  1
  Ni  Ni198  1  0.20697708  0.16963883  -0.03666200  1
  Ni  Ni199  1  0.90741414  0.74892801  0.63713274  1
  Ni  Ni200  1  0.21069280  0.01515740  0.81164423  1
  Ni  Ni201  1  0.47161887  0.89086364  0.28138645  1
  Ni  Ni202  1  -0.08262514  0.87849444  0.10574574  1
  Ni  Ni203  1  0.87339854  0.82445195  -0.03998202  1
  Ni  Ni204  1  0.25707466  0.58616651  0.08138845  1
  Ni  Ni205  1  0.61095868  -0.04407190  0.37058601  1
  Ni  Ni206  1  0.49438162  0.35206900  0.92239298  1
  Ni  Ni207  1  0.76475414  0.39661415  0.11145524  1
  Ni  Ni208  1  0.71369648  0.06772882  0.12117187  1
  Ni  Ni209  1  0.19285190  0.78851900  0.30475992  1
  Ni  Ni210  1  0.27053499  0.16709018  0.81582165  1
  Ni  Ni211  1  0.53332233  0.23206309  0.64181350  1
  Ni  Ni212  1  0.03552825  0.50413194  0.23515040  1
  Ni  Ni213  1  0.73712112  0.52443985  0.21909581  1
  Ni  Ni214  1  0.74474396  0.03429285  0.45844844  1
