# generated using pymatgen
data_Ti108Co54Ni53
_symmetry_space_group_name_H-M   'P 1'
_cell_length_a   14.67840796
_cell_length_b   14.58609292
_cell_length_c   14.68568462
_cell_angle_alpha   90.01066910
_cell_angle_beta   89.96667261
_cell_angle_gamma   90.15706651
_symmetry_Int_Tables_number   1
_chemical_formula_structural   Ti108Co54Ni53
_chemical_formula_sum   'Ti108 Co54 Ni53'
_cell_volume   3144.20181798
_cell_formula_units_Z   1
loop_
 _symmetry_equiv_pos_site_id
 _symmetry_equiv_pos_as_xyz
  1  'x, y, z'
loop_
 _atom_site_type_symbol
 _atom_site_label
 _atom_site_symmetry_multiplicity
 _atom_site_fract_x
 _atom_site_fract_y
 _atom_site_fract_z
 _atom_site_occupancy
  Ti  Ti0  1  0.02209472  0.08824735  0.26563173  1
  Ti  Ti1  1  0.07964342  0.05705084  0.53610061  1
  Ti  Ti2  1  0.09507723  0.09172319  0.98956556  1
  Ti  Ti3  1  0.05159065  0.45367937  0.32548535  1
  Ti  Ti4  1  0.09970878  0.40709440  0.61345746  1
  Ti  Ti5  1  0.04968355  0.42466136  1.00934972  1
  Ti  Ti6  1  0.07669380  0.69462745  0.15248692  1
  Ti  Ti7  1  0.14463366  0.73501806  0.50292564  1
  Ti  Ti8  1  0.06253285  0.71014826  0.91723505  1
  Ti  Ti9  1  0.42904847  0.03259004  0.19939930  1
  Ti  Ti10  1  0.41403679  -0.02488984  0.54733835  1
  Ti  Ti11  1  0.43471932  0.10695383  0.86767628  1
  Ti  Ti12  1  0.37188476  0.35179932  0.27883226  1
  Ti  Ti13  1  0.32982935  0.44218984  0.66278184  1
  Ti  Ti14  1  0.39615609  0.38823058  0.84051708  1
  Ti  Ti15  1  0.41373769  0.82265959  0.19196265  1
  Ti  Ti16  1  0.38834370  0.72596608  0.60804945  1
  Ti  Ti17  1  0.46413943  0.73846582  0.94229051  1
  Ti  Ti18  1  0.70760303  0.18931538  0.29169295  1
  Ti  Ti19  1  0.80942576  0.02980503  0.57382993  1
  Ti  Ti20  1  0.80519927  0.14539025  0.92933638  1
  Ti  Ti21  1  0.69926232  0.41100715  0.19664060  1
  Ti  Ti22  1  0.74231679  0.44243023  0.66242242  1
  Ti  Ti23  1  0.70360817  0.39366692  0.92802561  1
  Ti  Ti24  1  0.76513405  0.75297917  0.21601856  1
  Ti  Ti25  1  0.75245728  0.65781081  0.57894799  1
  Ti  Ti26  1  0.77865741  0.82953254  0.90312754  1
  Ti  Ti27  1  0.09319126  0.34298241  0.17428939  1
  Ti  Ti28  1  0.05151252  0.26773340  0.48021928  1
  Ti  Ti29  1  0.03772838  0.25296045  0.74848664  1
  Ti  Ti30  1  0.15155407  0.58042746  0.03324997  1
  Ti  Ti31  1  0.05930285  0.56779934  0.47546865  1
  Ti  Ti32  1  0.08346707  0.61427372  0.70512902  1
  Ti  Ti33  1  0.06256034  0.87631352  0.06189541  1
  Ti  Ti34  1  0.04911292  0.84860146  0.34136756  1
  Ti  Ti35  1  0.01415783  0.86702317  0.72909268  1
  Ti  Ti36  1  0.38247080  0.25072466  0.10811277  1
  Ti  Ti37  1  0.42965962  0.25547660  0.43698909  1
  Ti  Ti38  1  0.46931799  0.27153498  0.73161113  1
  Ti  Ti39  1  0.46009653  0.62691496  0.09576330  1
  Ti  Ti40  1  0.44420952  0.63508768  0.42111691  1
  Ti  Ti41  1  0.43989371  0.58427203  0.76051973  1
  Ti  Ti42  1  0.58218615  0.95074584  0.09648948  1
  Ti  Ti43  1  0.35356518  0.92156864  0.35656221  1
  Ti  Ti44  1  0.44407191  0.90829553  0.83500810  1
  Ti  Ti45  1  0.77608095  0.28604035  0.04708884  1
  Ti  Ti46  1  0.77758648  0.19768194  0.47071605  1
  Ti  Ti47  1  0.83710423  0.26238860  0.76449101  1
  Ti  Ti48  1  0.74999155  0.55009261  0.04055527  1
  Ti  Ti49  1  0.76401309  0.56993990  0.36582860  1
  Ti  Ti50  1  0.73498403  0.68596591  0.76298304  1
  Ti  Ti51  1  0.77637099  0.98263965  0.03573181  1
  Ti  Ti52  1  0.73302864  0.87431384  0.35753419  1
  Ti  Ti53  1  0.78263941  0.87342475  0.70733802  1
  Ti  Ti54  1  0.27932245  0.08543156  0.07797650  1
  Ti  Ti55  1  0.28345454  0.10495200  0.41743198  1
  Ti  Ti56  1  0.33604657  0.13698373  0.67358287  1
  Ti  Ti57  1  0.25086136  0.39939329  0.11802034  1
  Ti  Ti58  1  0.32098156  0.44151198  0.44967131  1
  Ti  Ti59  1  0.22562370  0.30282992  0.73718369  1
  Ti  Ti60  1  0.26959532  0.68724481  0.15717878  1
  Ti  Ti61  1  0.17504646  0.67508291  0.32012375  1
  Ti  Ti62  1  0.22622468  0.77134021  0.78954160  1
  Ti  Ti63  1  0.52408566  0.14224969  0.05302442  1
  Ti  Ti64  1  0.58062005  0.12281716  0.43127272  1
  Ti  Ti65  1  0.57854200  0.13807396  0.69850940  1
  Ti  Ti66  1  0.46494484  0.44005783  0.12913463  1
  Ti  Ti67  1  0.58742126  0.42449075  0.40339425  1
  Ti  Ti68  1  0.58471275  0.43327599  0.78387401  1
  Ti  Ti69  1  0.59163372  0.75402116  0.12903482  1
  Ti  Ti70  1  0.59765043  0.77125207  0.47607214  1
  Ti  Ti71  1  0.56421516  0.74570957  0.79005136  1
  Ti  Ti72  1  0.81794781  0.11469936  0.15183155  1
  Ti  Ti73  1  0.82667818  0.04424686  0.35976582  1
  Ti  Ti74  1  0.87248085  0.06195003  0.75635442  1
  Ti  Ti75  1  0.88885181  0.44237941  0.12993875  1
  Ti  Ti76  1  0.88006406  0.32443353  0.36447450  1
  Ti  Ti77  1  0.98192887  0.44698837  0.76405158  1
  Ti  Ti78  1  0.87682338  0.71680882  0.04837277  1
  Ti  Ti79  1  0.91624685  0.70984063  0.47557420  1
  Ti  Ti80  1  0.91682051  0.70936355  0.73725995  1
  Ti  Ti81  1  0.20635418  0.20030446  0.24343478  1
  Ti  Ti82  1  0.23432320  0.25714816  0.54713368  1
  Ti  Ti83  1  0.23977712  0.29036618  0.93988739  1
  Ti  Ti84  1  0.33861619  0.55418889  0.26843854  1
  Ti  Ti85  1  0.22035485  0.56335011  0.57359582  1
  Ti  Ti86  1  0.30118817  0.65486456  0.93404237  1
  Ti  Ti87  1  0.20213809  0.86217974  0.21427476  1
  Ti  Ti88  1  0.22696622  0.90287301  0.54595634  1
  Ti  Ti89  1  0.28608810  0.88313437  0.95879979  1
  Ti  Ti90  1  0.51792321  0.20972982  0.25600408  1
  Ti  Ti91  1  0.59906886  0.30832682  0.57149715  1
  Ti  Ti92  1  0.59538904  0.23662733  0.89436209  1
  Ti  Ti93  1  0.59900283  0.56818304  0.23360335  1
  Ti  Ti94  1  0.56373828  0.56515194  0.57414052  1
  Ti  Ti95  1  0.58994238  0.58124075  0.91819229  1
  Ti  Ti96  1  0.56931848  0.89521223  0.27582876  1
  Ti  Ti97  1  0.60801568  0.93740077  0.60131487  1
  Ti  Ti98  1  0.60481800  0.90322494  0.92867419  1
  Ti  Ti99  1  0.94203785  0.25596759  0.13899987  1
  Ti  Ti100  1  0.93095702  0.18104687  0.60327905  1
  Ti  Ti101  1  0.93502014  0.30058000  0.92256898  1
  Ti  Ti102  1  0.91840504  0.62204751  0.23362093  1
  Ti  Ti103  1  0.90877550  0.53058356  0.58061640  1
  Ti  Ti104  1  0.89781101  0.57903906  0.88463751  1
  Ti  Ti105  1  0.89309064  0.93366854  0.21634167  1
  Ti  Ti106  1  0.89110489  0.89833925  0.46551859  1
  Ti  Ti107  1  0.93642699  0.97771460  0.92341949  1
  Co  Co108  1  0.46081909  0.86814706  0.03384258  1
  Co  Co109  1  0.04890168  0.87511569  0.52916990  1
  Co  Co110  1  0.21501366  0.39327197  0.28478774  1
  Co  Co111  1  0.72559337  0.83414546  0.07251987  1
  Co  Co112  1  0.76856801  0.57844337  0.19335017  1
  Co  Co113  1  0.34875150  0.80144701  0.47873294  1
  Co  Co114  1  0.93439557  0.14797615  0.02050204  1
  Co  Co115  1  0.62782371  0.72784932  0.30649731  1
  Co  Co116  1  0.24679990  0.06371451  0.56539988  1
  Co  Co117  1  0.70951850  0.32601262  0.37849008  1
  Co  Co118  1  0.59904615  0.49329460  0.05870291  1
  Co  Co119  1  0.84907326  0.56049441  0.72051712  1
  Co  Co120  1  0.70984176  0.03002414  0.70317887  1
  Co  Co121  1  0.28984306  0.64508228  0.45684509  1
  Co  Co122  1  0.07156765  0.25639660  -0.00514960  1
  Co  Co123  1  0.74634738  0.83665642  0.54797014  1
  Co  Co124  1  0.28312675  0.62631131  0.71179152  1
  Co  Co125  1  0.15260810  0.40328525  0.46530000  1
  Co  Co126  1  0.55634618  0.36402867  0.24306982  1
  Co  Co127  1  0.18006515  0.76442011  0.02827594  1
  Co  Co128  1  0.71122435  0.15212543  0.80317893  1
  Co  Co129  1  0.33134182  0.73450183  0.31252044  1
  Co  Co130  1  0.01368188  0.70925601  0.60131719  1
  Co  Co131  1  0.47660983  0.67186169  0.25552744  1
  Co  Co132  1  0.17533411  -0.01770778  0.40116229  1
  Co  Co133  1  0.88482421  0.79208387  0.33122138  1
  Co  Co134  1  0.65184367  0.02700114  0.33131727  1
  Co  Co135  1  0.49599925  0.43119536  0.65788487  1
  Co  Co136  1  0.07498997  0.16338954  0.13323932  1
  Co  Co137  1  0.21656448  0.46368033  -0.05524139  1
  Co  Co138  1  -0.02599131  0.01983262  0.10211563  1
  Co  Co139  1  0.89718510  0.87370309  0.04712086  1
  Co  Co140  1  0.12494171  0.14361603  0.39483507  1
  Co  Co141  1  0.60773041  0.58959365  0.72153392  1
  Co  Co142  1  0.05517768  0.53072444  0.88526987  1
  Co  Co143  1  0.30526466  0.92441836  0.11162881  1
  Co  Co144  1  0.34579362  0.76510932  0.05314851  1
  Co  Co145  1  0.52789681  0.40783239  0.93784938  1
  Co  Co146  1  0.47222468  0.49371842  0.31657698  1
  Co  Co147  1  0.70247006  -0.02009068  0.47082043  1
  Co  Co148  1  0.20697358  0.23131284  0.08087715  1
  Co  Co149  1  0.80355762  0.30035595  0.21762710  1
  Co  Co150  1  0.44020213  0.25848757  -0.05113301  1
  Co  Co151  1  0.33679881  0.22581407  0.82347200  1
  Co  Co152  1  0.88351498  0.17781250  0.29347566  1
  Co  Co153  1  0.30768803  0.51542085  0.82892851  1
  Co  Co154  1  0.46474029  0.41058323  0.50553854  1
  Co  Co155  1  0.61217040  0.60171236  0.41389420  1
  Co  Co156  1  0.39762440  0.56137960  0.57900324  1
  Co  Co157  1  0.90125867  0.82539586  0.60996063  1
  Co  Co158  1  0.36182833  0.17622435  0.27805541  1
  Co  Co159  1  0.86763626  0.44111603  -0.02815367  1
  Co  Co160  1  0.62821563  0.89160564  0.76306108  1
  Co  Co161  1  -0.05416626  0.14657724  0.44198944  1
  Ni  Ni162  1  0.25663525  0.27637909  0.38866364  1
  Ni  Ni163  1  0.65622582  0.10919929  0.56467830  1
  Ni  Ni164  1  0.17856868  0.61384454  0.84157864  1
  Ni  Ni165  1  0.03478235  0.25623164  0.30753270  1
  Ni  Ni166  1  0.71076244  0.49602808  0.50711206  1
  Ni  Ni167  1  0.14249586  0.79772864  0.65601515  1
  Ni  Ni168  1  0.72741682  -0.04311539  0.20169293  1
  Ni  Ni169  1  0.03509350  0.51321986  0.16408380  1
  Ni  Ni170  1  0.36566355  0.39919793  0.00037304  1
  Ni  Ni171  1  -0.06308077  0.34885000  0.62874832  1
  Ni  Ni172  1  0.53888516  -0.06108024  0.43751747  1
  Ni  Ni173  1  0.38875454  0.74807233  0.78280319  1
  Ni  Ni174  1  0.18582342  0.53846680  0.20303591  1
  Ni  Ni175  1  0.17173180  0.47369372  0.75105145  1
  Ni  Ni176  1  0.46009150  0.01748162  0.70710460  1
  Ni  Ni177  1  0.66093650  0.29575323  0.73783048  1
  Ni  Ni178  1  0.10487696  0.36306782  0.85964312  1
  Ni  Ni179  1  0.42952993  0.54391504  -0.05498676  1
  Ni  Ni180  1  0.44066010  0.06567270  0.37514346  1
  Ni  Ni181  1  0.41831982  0.01559348  0.00770442  1
  Ni  Ni182  1  0.86674421  0.46675340  0.28758616  1
  Ni  Ni183  1  0.65257801  0.08132979  -0.03030106  1
  Ni  Ni184  1  0.26577746  0.03032694  0.24832174  1
  Ni  Ni185  1  0.80019045  0.35685942  0.52340542  1
  Ni  Ni186  1  0.13878417  0.00659596  0.14266213  1
  Ni  Ni187  1  0.01524771  0.68360474  0.34489273  1
  Ni  Ni188  1  -0.05961974  0.81102783  0.88875923  1
  Ni  Ni189  1  0.31631767  0.54397821  0.07536714  1
  Ni  Ni190  1  0.46595531  0.14535559  0.56571628  1
  Ni  Ni191  1  0.47840753  0.85249947  0.67520582  1
  Ni  Ni192  1  0.47209086  0.79796692  0.36906005  1
  Ni  Ni193  1  -0.04143865  -0.01317983  0.62925060  1
  Ni  Ni194  1  0.75405740  0.72391761  0.42017789  1
  Ni  Ni195  1  -0.02470314  0.58635681  0.03272962  1
  Ni  Ni196  1  0.76265255  0.66650564  0.92514302  1
  Ni  Ni197  1  0.56356767  0.31786484  0.06491815  1
  Ni  Ni198  1  0.01088058  -0.00303087  0.39874754  1
  Ni  Ni199  1  0.75713088  0.20788129  0.63616254  1
  Ni  Ni200  1  0.14037263  0.17045446  0.65004364  1
  Ni  Ni201  1  0.74883095  -0.00994527  0.85871823  1
  Ni  Ni202  1  0.62497767  0.75603325  0.63948789  1
  Ni  Ni203  1  0.39295789  0.30147645  0.59198659  1
  Ni  Ni204  1  0.66156804  0.22160117  0.13988937  1
  Ni  Ni205  1  0.58328001  0.03829602  0.82762883  1
  Ni  Ni206  1  -0.02238841  0.14119871  0.86040313  1
  Ni  Ni207  1  -0.02714041  0.41925651  0.47630455  1
  Ni  Ni208  1  0.21750326  0.82765002  0.38475357  1
  Ni  Ni209  1  0.63124757  0.74098853  -0.03143200  1
  Ni  Ni210  1  -0.04440041  0.78913663  0.18565260  1
  Ni  Ni211  1  0.82966886  0.41635955  0.81195139  1
  Ni  Ni212  1  0.19998242  0.52843232  0.37756950  1
  Ni  Ni213  1  0.72264634  0.53197046  0.82838840  1
  Ni  Ni214  1  0.60567939  0.07721748  0.19112089  1
