# generated using pymatgen
data_Ti108Co54Ni53
_symmetry_space_group_name_H-M   'P 1'
_cell_length_a   14.74937228
_cell_length_b   14.70873667
_cell_length_c   14.66944055
_cell_angle_alpha   90.10854149
_cell_angle_beta   90.07085395
_cell_angle_gamma   89.74660496
_symmetry_Int_Tables_number   1
_chemical_formula_structural   Ti108Co54Ni53
_chemical_formula_sum   'Ti108 Co54 Ni53'
_cell_volume   3182.41716108
_cell_formula_units_Z   1
loop_
 _symmetry_equiv_pos_site_id
 _symmetry_equiv_pos_as_xyz
  1  'x, y, z'
loop_
 _atom_site_type_symbol
 _atom_site_label
 _atom_site_symmetry_multiplicity
 _atom_site_fract_x
 _atom_site_fract_y
 _atom_site_fract_z
 _atom_site_occupancy
  Ti  Ti0  1  0.05668508  0.16813390  0.22479541  1
  Ti  Ti1  1  0.17911834  0.07319585  0.63383990  1
  Ti  Ti2  1  0.13927195  0.10461726  0.81638651  1
  Ti  Ti3  1  0.07630864  0.45805084  0.32068373  1
  Ti  Ti4  1  0.07034441  0.34647395  0.61204295  1
  Ti  Ti5  1  0.05697408  0.51594217  0.92193283  1
  Ti  Ti6  1  0.02505975  0.76946624  0.26693946  1
  Ti  Ti7  1  0.05281375  0.75313070  0.58977990  1
  Ti  Ti8  1  0.12355073  0.74692653  0.88238102  1
  Ti  Ti9  1  0.45911578  0.06282553  0.19976070  1
  Ti  Ti10  1  0.37764295  0.09694811  0.58553228  1
  Ti  Ti11  1  0.42185826  0.03729449  0.86750718  1
  Ti  Ti12  1  0.41641385  0.36894428  0.26316763  1
  Ti  Ti13  1  0.36527033  0.38036346  0.58011138  1
  Ti  Ti14  1  0.46179636  0.47694390  0.87916730  1
  Ti  Ti15  1  0.41896706  0.75804220  0.32172325  1
  Ti  Ti16  1  0.39587247  0.70190725  0.57766715  1
  Ti  Ti17  1  0.38849252  0.63596502  0.96114879  1
  Ti  Ti18  1  0.74746472  0.02757876  0.19258245  1
  Ti  Ti19  1  0.77466717  0.10162856  0.54975952  1
  Ti  Ti20  1  0.71658774  -0.01176965  0.86511741  1
  Ti  Ti21  1  0.80133873  0.45298006  0.26352467  1
  Ti  Ti22  1  0.73694352  0.47977958  0.64992217  1
  Ti  Ti23  1  0.73942696  0.34239113  0.95022934  1
  Ti  Ti24  1  0.72445136  0.77491126  0.25171316  1
  Ti  Ti25  1  0.72877282  0.75072195  0.57151130  1
  Ti  Ti26  1  0.79676124  0.78297622  0.89661285  1
  Ti  Ti27  1  -0.04746098  0.24499525  0.02253710  1
  Ti  Ti28  1  0.05193217  0.27498630  0.39549362  1
  Ti  Ti29  1  0.06281742  0.30802074  0.82828341  1
  Ti  Ti30  1  0.02606582  0.60721046  0.09659278  1
  Ti  Ti31  1  0.02751201  0.62375148  0.43515409  1
  Ti  Ti32  1  0.14651605  0.53002765  0.70298581  1
  Ti  Ti33  1  0.11529396  0.95340178  0.07299671  1
  Ti  Ti34  1  0.11568147  0.97759651  0.30066294  1
  Ti  Ti35  1  0.09951345  0.89013741  0.74347765  1
  Ti  Ti36  1  0.43959172  0.24229394  0.09680727  1
  Ti  Ti37  1  0.47757455  0.25601585  0.47427481  1
  Ti  Ti38  1  0.40643589  0.31780300  0.78642377  1
  Ti  Ti39  1  0.46117109  0.65966680  0.14769294  1
  Ti  Ti40  1  0.47344393  0.59111857  0.40419165  1
  Ti  Ti41  1  0.44115790  0.64845757  0.76954770  1
  Ti  Ti42  1  0.43208496  0.86319255  0.12413446  1
  Ti  Ti43  1  0.37792498  0.93463649  0.41571422  1
  Ti  Ti44  1  0.44150180  0.84638758  0.82593732  1
  Ti  Ti45  1  0.76381887  0.16265124  0.02250415  1
  Ti  Ti46  1  0.74852069  0.28482808  0.41443779  1
  Ti  Ti47  1  0.71959996  0.16366772  0.79326687  1
  Ti  Ti48  1  0.71940847  0.59613082  0.12498971  1
  Ti  Ti49  1  0.69918946  0.57673822  0.45159345  1
  Ti  Ti50  1  0.67044073  0.58603820  0.81589341  1
  Ti  Ti51  1  0.73084818  0.90428213  0.04265316  1
  Ti  Ti52  1  0.80130642  0.97011658  0.38947360  1
  Ti  Ti53  1  0.77280914  0.87940418  0.72220119  1
  Ti  Ti54  1  0.29827217  0.08854678  0.01551804  1
  Ti  Ti55  1  0.22889186  0.03463398  0.45251605  1
  Ti  Ti56  1  0.31625533  0.14347253  0.77006711  1
  Ti  Ti57  1  0.27345070  0.47961202  -0.01230315  1
  Ti  Ti58  1  0.28685655  0.48147273  0.39408349  1
  Ti  Ti59  1  0.23228251  0.36219874  0.71641779  1
  Ti  Ti60  1  0.25006771  0.77961201  0.05473968  1
  Ti  Ti61  1  0.19783059  0.77083185  0.35936290  1
  Ti  Ti62  1  0.27249411  0.78540223  0.73606497  1
  Ti  Ti63  1  0.60332430  0.14106046  0.14106017  1
  Ti  Ti64  1  0.50390045  0.06985375  0.41339963  1
  Ti  Ti65  1  0.55924577  0.08603659  0.67386061  1
  Ti  Ti66  1  0.55181759  0.40963034  0.04920350  1
  Ti  Ti67  1  0.58689631  0.40518592  0.38231245  1
  Ti  Ti68  1  0.57596803  0.39680945  0.73080720  1
  Ti  Ti69  1  0.60677113  0.76657657  0.05614400  1
  Ti  Ti70  1  0.60022504  0.74367421  0.40917708  1
  Ti  Ti71  1  0.60680505  0.76526066  0.73846618  1
  Ti  Ti72  1  0.89882627  0.00842463  0.05761323  1
  Ti  Ti73  1  0.94803442  0.10090482  0.42799528  1
  Ti  Ti74  1  0.89354128  0.06621875  0.74998198  1
  Ti  Ti75  1  0.87187160  0.45705707  0.06592327  1
  Ti  Ti76  1  0.86181856  0.46170264  0.48943792  1
  Ti  Ti77  1  0.89303075  0.38314494  0.69984238  1
  Ti  Ti78  1  0.92681542  0.81291488  0.05020752  1
  Ti  Ti79  1  0.85459569  0.70382174  0.42621497  1
  Ti  Ti80  1  0.94409235  0.73703582  0.77568586  1
  Ti  Ti81  1  0.24061448  0.20291829  0.30811614  1
  Ti  Ti82  1  0.21225328  0.23330250  0.51717319  1
  Ti  Ti83  1  0.23948058  0.27258735  0.90266955  1
  Ti  Ti84  1  0.29952950  0.59932997  0.24753676  1
  Ti  Ti85  1  0.19634541  0.61535857  0.52349687  1
  Ti  Ti86  1  0.23699377  0.61277865  0.84803650  1
  Ti  Ti87  1  0.28317384  0.95301421  0.20293873  1
  Ti  Ti88  1  0.31526893  0.90857942  0.60253168  1
  Ti  Ti89  1  0.21425351  0.93361595  0.90158568  1
  Ti  Ti90  1  0.58592392  0.21762238  0.31752615  1
  Ti  Ti91  1  0.64590240  0.25959544  0.59738056  1
  Ti  Ti92  1  0.54791307  0.25261688  0.92605213  1
  Ti  Ti93  1  0.60370537  0.49394921  0.22569521  1
  Ti  Ti94  1  0.54714774  0.54710539  0.57267795  1
  Ti  Ti95  1  0.57320100  0.58214753  0.99798352  1
  Ti  Ti96  1  0.61344644  0.92237825  0.33090797  1
  Ti  Ti97  1  0.61989878  0.90690075  0.57715064  1
  Ti  Ti98  1  0.54543666  0.94023078  0.96763671  1
  Ti  Ti99  1  0.88439469  0.25460094  0.27421050  1
  Ti  Ti100  1  0.91824030  0.26820448  0.51903450  1
  Ti  Ti101  1  0.87503517  0.25880453  0.83571478  1
  Ti  Ti102  1  0.87668989  0.65166587  0.21030561  1
  Ti  Ti103  1  0.98154690  0.56255819  0.62368629  1
  Ti  Ti104  1  0.86558596  0.57588097  0.89332591  1
  Ti  Ti105  1  0.92915654  1.03105351  0.24853860  1
  Ti  Ti106  1  0.94023119  0.91241118  0.54570398  1
  Ti  Ti107  1  1.01946568  1.00656143  0.91048577  1
  Co  Co108  1  0.02870765  0.60888842  0.79437191  1
  Co  Co109  1  0.65280535  0.04809689  0.02004655  1
  Co  Co110  1  0.71515251  0.02796287  0.68381531  1
  Co  Co111  1  0.64245931  0.83588877  0.88274174  1
  Co  Co112  1  0.42476017  -0.01134383  0.71499195  1
  Co  Co113  1  0.14693164  0.13303971  -0.02170074  1
  Co  Co114  1  0.73161160  0.83198864  0.42913820  1
  Co  Co115  1  0.78141343  0.70547347  0.74437132  1
  Co  Co116  1  0.74200621  0.18958798  0.21613768  1
  Co  Co117  1  0.13810882  0.69389525  0.71218382  1
  Co  Co118  1  0.68090094  0.42308710  0.50508986  1
  Co  Co119  1  0.48827012  0.10311206  0.01735234  1
  Co  Co120  1  -0.01964503  -0.06608711  0.37222747  1
  Co  Co121  1  0.69987245  0.33346238  0.26035614  1
  Co  Co122  1  0.66765822  0.62201571  0.65040618  1
  Co  Co123  1  0.72809618  0.50368623  -0.02376607  1
  Co  Co124  1  0.16937881  0.60953148  0.34796947  1
  Co  Co125  1  0.42388405  0.20660435  0.29367204  1
  Co  Co126  1  0.29174988  0.62157016  0.08986897  1
  Co  Co127  1  0.02872409  0.09919526  0.08092410  1
  Co  Co128  1  0.70766647  0.42193238  0.11570162  1
  Co  Co129  1  0.00325600  0.90131917  0.17985966  1
  Co  Co130  1  0.16072424  0.67674000  0.18176011  1
  Co  Co131  1  -0.11400999  0.15326327  0.14318045  1
  Co  Co132  1  0.57897849  -0.06049174  0.76168360  1
  Co  Co133  1  0.00189698  0.16595142  0.88296016  1
  Co  Co134  1  0.74047548  0.61374840  0.30137628  1
  Co  Co135  1  0.44813669  0.52556928  0.26511376  1
  Co  Co136  1  0.63761999  0.15191914  0.47133243  1
  Co  Co137  1  0.01034915  0.84878472  0.91198519  1
  Co  Co138  1  0.72986220  0.31544025  0.74133918  1
  Co  Co139  1  -0.05016635  0.47910613  0.20428774  1
  Co  Co140  1  0.78707466  0.33072075  0.57988310  1
  Co  Co141  1  0.61681530  0.43279234  0.88335829  1
  Co  Co142  1  0.79870791  0.13473784  0.36666935  1
  Co  Co143  1  0.31123791  0.76254603  0.20362618  1
  Co  Co144  1  -0.07030534  0.38440949  0.36431325  1
  Co  Co145  1  0.01879606  0.45071870  0.76523183  1
  Co  Co146  1  0.16301289  0.22183566  0.70538162  1
  Co  Co147  1  0.65603679  0.07409517  0.31890049  1
  Co  Co148  1  0.78048885  -0.07009617  0.56130344  1
  Co  Co149  1  0.57855568  0.23514678  0.76894670  1
  Co  Co150  1  0.81585273  0.30284391  0.11864644  1
  Co  Co151  1  0.55432426  0.32355429  0.19775455  1
  Co  Co152  1  0.31685209  0.64708834  0.41341460  1
  Co  Co153  1  0.15976378  0.63444001  0.00368014  1
  Co  Co154  1  0.31448926  0.23452847  0.64119018  1
  Co  Co155  1  0.86227919  0.56321819  0.73386285  1
  Co  Co156  1  0.22157914  0.75956386  0.58561332  1
  Co  Co157  1  0.55173677  0.69600010  0.88348858  1
  Co  Co158  1  0.64643121  0.27454212  0.07247622  1
  Co  Co159  1  0.10862710  0.12537305  0.38654923  1
  Co  Co160  1  0.53381125  0.38511603  0.57199458  1
  Co  Co161  1  0.01785460  0.78933644  0.43180200  1
  Ni  Ni162  1  0.85848260  0.09835496  -0.08944368  1
  Ni  Ni163  1  0.47546785  0.24275340  0.64536402  1
  Ni  Ni164  1  0.32243832  0.15055886  0.17118389  1
  Ni  Ni165  1  0.08263644  0.77536523  0.06426121  1
  Ni  Ni166  1  0.32891748  0.31327264  0.40175342  1
  Ni  Ni167  1  0.58808964  -0.05540047  0.14278840  1
  Ni  Ni168  1  0.34864441  0.15686249  0.43786371  1
  Ni  Ni169  1  0.82836606  0.61462036  0.57634182  1
  Ni  Ni170  1  0.33687643  0.06023678  0.31236547  1
  Ni  Ni171  1  0.43742961  0.49801419  0.68615863  1
  Ni  Ni172  1  0.03494238  0.45057950  0.48746996  1
  Ni  Ni173  1  0.45972663  0.92200278  0.27831398  1
  Ni  Ni174  1  0.93850945  -0.09356677  0.75451572  1
  Ni  Ni175  1  0.83866441  -0.11482502  0.17873547  1
  Ni  Ni176  1  0.43892108  0.43016280  0.43600013  1
  Ni  Ni177  1  0.17672350  0.36793767  0.43113831  1
  Ni  Ni178  1  0.35596441  -0.07851632  -0.01720167  1
  Ni  Ni179  1  0.84065228  0.20692866  0.66872794  1
  Ni  Ni180  1  0.47380850  -0.03242482  0.55179391  1
  Ni  Ni181  1  0.77667504  0.44690937  0.82108680  1
  Ni  Ni182  1  0.55826121  0.79919828  0.22202085  1
  Ni  Ni183  1  0.78014737  0.74903570  0.09293369  1
  Ni  Ni184  1  0.26176619  -0.02274050  0.75038208  1
  Ni  Ni185  1  0.88318413  0.77390685  0.62377130  1
  Ni  Ni186  1  0.87416072  0.82630752  0.32465711  1
  Ni  Ni187  1  0.38815834  0.20340857  0.92131889  1
  Ni  Ni188  1  0.29254802  0.61478031  0.67977749  1
  Ni  Ni189  1  0.30366738  0.77095654  0.89706812  1
  Ni  Ni190  1  0.35822015  0.54229966  0.53986830  1
  Ni  Ni191  1  0.39494137  0.36112193  -0.02096446  1
  Ni  Ni192  1  0.58047346  0.08966845  0.86788307  1
  Ni  Ni193  1  0.05881193  0.16847128  0.54943109  1
  Ni  Ni194  1  0.86749502  0.93136532  -0.09273656  1
  Ni  Ni195  1  0.14466250  0.90507916  0.58968222  1
  Ni  Ni196  1  0.02267389  0.01956402  0.65228596  1
  Ni  Ni197  1  0.32196015  0.79644106  0.46655964  1
  Ni  Ni198  1  0.55882184  0.72257948  0.56957666  1
  Ni  Ni199  1  -0.01373621  0.68250718  -0.04988124  1
  Ni  Ni200  1  0.20557010  0.45284975  0.56510611  1
  Ni  Ni201  1  0.16218639  0.84052107  0.19713796  1
  Ni  Ni202  1  0.46918242  0.83417421  0.66105921  1
  Ni  Ni203  1  0.71774709  0.66509116  -0.03536074  1
  Ni  Ni204  1  0.45090582  0.78229508  -0.01580641  1
  Ni  Ni205  1  0.07161512  0.00683951  0.49048663  1
  Ni  Ni206  1  0.03382836  0.60442376  0.26238847  1
  Ni  Ni207  1  0.57699221  0.64833504  0.27342698  1
  Ni  Ni208  1  0.32219397  0.48535934  0.79652335  1
  Ni  Ni209  1  0.41765987  0.50719788  0.08566778  1
  Ni  Ni210  1  0.17995772  0.08578534  0.15129220  1
  Ni  Ni211  1  -0.07725112  0.40268231  -0.09146613  1
  Ni  Ni212  1  0.00196128  0.19862874  0.70786644  1
  Ni  Ni213  1  0.17859594  0.43295477  0.85557976  1
  Ni  Ni214  1  0.90088904  0.55350662  0.35035088  1
