# generated using pymatgen
data_Ti108Co54Ni53
_symmetry_space_group_name_H-M   'P 1'
_cell_length_a   14.63834747
_cell_length_b   14.69678224
_cell_length_c   14.62559038
_cell_angle_alpha   90.32003732
_cell_angle_beta   89.68357118
_cell_angle_gamma   90.04505333
_symmetry_Int_Tables_number   1
_chemical_formula_structural   Ti108Co54Ni53
_chemical_formula_sum   'Ti108 Co54 Ni53'
_cell_volume   3146.40189563
_cell_formula_units_Z   1
loop_
 _symmetry_equiv_pos_site_id
 _symmetry_equiv_pos_as_xyz
  1  'x, y, z'
loop_
 _atom_site_type_symbol
 _atom_site_label
 _atom_site_symmetry_multiplicity
 _atom_site_fract_x
 _atom_site_fract_y
 _atom_site_fract_z
 _atom_site_occupancy
  Ti  Ti0  1  0.06266159  0.08829654  0.23161974  1
  Ti  Ti1  1  0.08758614  0.15116186  0.54156927  1
  Ti  Ti2  1  0.09965820  0.05303826  1.00685008  1
  Ti  Ti3  1  0.01808150  0.42930523  0.27157553  1
  Ti  Ti4  1  0.01537235  0.47801241  0.50499514  1
  Ti  Ti5  1  0.09949795  0.47286046  0.96445746  1
  Ti  Ti6  1  0.12318495  0.76255617  0.24908467  1
  Ti  Ti7  1  0.04948608  0.73297838  0.60114591  1
  Ti  Ti8  1  0.06916385  0.79651084  0.92176165  1
  Ti  Ti9  1  0.45432721  0.02839018  0.25009439  1
  Ti  Ti10  1  0.41671898  0.13452229  0.60075792  1
  Ti  Ti11  1  0.39257830  0.11320469  0.88338957  1
  Ti  Ti12  1  0.36797847  0.37593064  0.22671514  1
  Ti  Ti13  1  0.47446763  0.44987315  0.62522475  1
  Ti  Ti14  1  0.37996736  0.32760658  0.89799056  1
  Ti  Ti15  1  0.41311740  0.75227701  0.26864676  1
  Ti  Ti16  1  0.43762710  0.70964027  0.63202953  1
  Ti  Ti17  1  0.47456076  0.81993139  0.97657553  1
  Ti  Ti18  1  0.86668959  0.08019491  0.24545040  1
  Ti  Ti19  1  0.68464452  0.05312254  0.54843012  1
  Ti  Ti20  1  0.75554264  0.01222525  0.95823722  1
  Ti  Ti21  1  0.79865288  0.41577189  0.21491187  1
  Ti  Ti22  1  0.78171466  0.45620031  0.50863469  1
  Ti  Ti23  1  0.73211150  0.40264765  0.89867251  1
  Ti  Ti24  1  0.75964779  0.73216906  0.20925236  1
  Ti  Ti25  1  0.64056542  0.75601618  0.60071680  1
  Ti  Ti26  1  0.70878618  0.70157132  0.83603517  1
  Ti  Ti27  1  0.08767862  0.32068841  0.09518651  1
  Ti  Ti28  1  0.10998039  0.31204388  0.41510642  1
  Ti  Ti29  1  0.17235786  0.30095477  0.75148794  1
  Ti  Ti30  1  0.05486832  0.65323969  0.09160012  1
  Ti  Ti31  1  0.13372621  0.63332539  0.42074441  1
  Ti  Ti32  1  0.13002159  0.58718238  0.66027001  1
  Ti  Ti33  1  0.06340887  0.89333331  0.13631365  1
  Ti  Ti34  1  0.11447138  0.93302741  0.48704532  1
  Ti  Ti35  1  0.03927971  0.95930766  0.77476800  1
  Ti  Ti36  1  0.46299232  0.23802094  0.05109273  1
  Ti  Ti37  1  0.41620402  0.24874765  0.37920761  1
  Ti  Ti38  1  0.37993593  0.28935782  0.69853250  1
  Ti  Ti39  1  0.45450479  0.55618191  0.04519657  1
  Ti  Ti40  1  0.38624437  0.57457670  0.36774967  1
  Ti  Ti41  1  0.44220073  0.58830073  0.80892091  1
  Ti  Ti42  1  0.45413838  1.01055795  0.03623702  1
  Ti  Ti43  1  0.39354257  0.91464309  0.43096396  1
  Ti  Ti44  1  0.38749167  0.88390615  0.71671540  1
  Ti  Ti45  1  0.73644407  0.23543045  0.21019066  1
  Ti  Ti46  1  0.68429933  0.19918887  0.40866087  1
  Ti  Ti47  1  0.74406231  0.29501700  0.73347210  1
  Ti  Ti48  1  0.74359280  0.56291291  0.11434742  1
  Ti  Ti49  1  0.72417403  0.59674229  0.36351307  1
  Ti  Ti50  1  0.81405003  0.55180101  0.78044745  1
  Ti  Ti51  1  0.72184807  0.86798983  0.08197943  1
  Ti  Ti52  1  0.76106148  0.89928442  0.44094027  1
  Ti  Ti53  1  0.70776135  0.89864632  0.77855051  1
  Ti  Ti54  1  0.31682479  0.10677498  0.11079582  1
  Ti  Ti55  1  0.26014037  0.06736742  0.47090456  1
  Ti  Ti56  1  0.25803547  0.02289786  0.75228657  1
  Ti  Ti57  1  0.27435340  0.45276500  0.07101381  1
  Ti  Ti58  1  0.22043376  0.46707887  0.51327170  1
  Ti  Ti59  1  0.22882324  0.47769910  0.79382968  1
  Ti  Ti60  1  0.28586405  0.76250630  0.09589662  1
  Ti  Ti61  1  0.24459005  0.78932159  0.39475189  1
  Ti  Ti62  1  0.19724747  0.80922152  0.76584419  1
  Ti  Ti63  1  0.63432162  0.13067686  0.07648974  1
  Ti  Ti64  1  0.58051206  0.02078847  0.39280307  1
  Ti  Ti65  1  0.63359984  0.09583287  0.75486618  1
  Ti  Ti66  1  0.61263890  0.41418896  0.08547250  1
  Ti  Ti67  1  0.59498512  0.38050092  0.43773644  1
  Ti  Ti68  1  0.63458818  0.48073067  0.74247436  1
  Ti  Ti69  1  0.61811624  0.69798014  0.05308840  1
  Ti  Ti70  1  0.53990790  0.71498626  0.42735295  1
  Ti  Ti71  1  0.54475337  0.78376660  0.78267476  1
  Ti  Ti72  1  0.91009489  -0.00147155  0.08480556  1
  Ti  Ti73  1  0.90083461  0.04650894  0.44346487  1
  Ti  Ti74  1  0.91214242  0.11647899  0.72734350  1
  Ti  Ti75  1  0.94722072  0.47085019  0.10279063  1
  Ti  Ti76  1  0.90420409  0.33055967  0.42757261  1
  Ti  Ti77  1  0.95630278  0.42968352  0.69672398  1
  Ti  Ti78  1  0.91471579  0.79875818  0.05033147  1
  Ti  Ti79  1  0.85640409  0.75331585  0.37860140  1
  Ti  Ti80  1  0.84529423  0.75703207  0.70437630  1
  Ti  Ti81  1  0.24565510  0.22798603  0.25080205  1
  Ti  Ti82  1  0.29156434  0.27376834  0.51169849  1
  Ti  Ti83  1  0.23030405  0.20565599  0.95269323  1
  Ti  Ti84  1  0.24084972  0.52383574  0.25804147  1
  Ti  Ti85  1  0.32531472  0.56553362  0.63727151  1
  Ti  Ti86  1  0.20210269  0.63691090  0.93619110  1
  Ti  Ti87  1  0.28716654  0.90956065  0.23802146  1
  Ti  Ti88  1  0.25781983  0.84168425  0.57944521  1
  Ti  Ti89  1  0.31853581  0.89346780  0.91186742  1
  Ti  Ti90  1  0.56244658  0.31330564  0.24376886  1
  Ti  Ti91  1  0.59845352  0.23781155  0.61694590  1
  Ti  Ti92  1  0.59282740  0.26688472  0.89653574  1
  Ti  Ti93  1  0.56536258  0.60466542  0.22328644  1
  Ti  Ti94  1  0.62219215  0.56172267  0.54417450  1
  Ti  Ti95  1  0.61866779  0.55081945  0.92659738  1
  Ti  Ti96  1  0.66390211  0.90814498  0.26459948  1
  Ti  Ti97  1  0.57244900  0.93181219  0.65141764  1
  Ti  Ti98  1  0.52229362  0.96182048  0.84959946  1
  Ti  Ti99  1  0.92456585  0.26753672  0.24486956  1
  Ti  Ti100  1  0.88517388  0.19654094  0.55337558  1
  Ti  Ti101  1  0.85397062  0.23902275  0.93307839  1
  Ti  Ti102  1  0.90760232  0.60328070  0.24609543  1
  Ti  Ti103  1  0.89359241  0.59693438  0.60031849  1
  Ti  Ti104  1  0.91738286  0.50941032  0.91696049  1
  Ti  Ti105  1  0.97692122  0.88760879  0.33025075  1
  Ti  Ti106  1  0.92764654  0.87361319  0.55511240  1
  Ti  Ti107  1  0.86688697  0.86378330  0.87895668  1
  Co  Co108  1  0.74867063  0.29097619  0.53570086  1
  Co  Co109  1  0.75696487  0.03391841  0.35555819  1
  Co  Co110  1  0.11209701  0.48675239  0.12850373  1
  Co  Co111  1  0.24513266  0.15910904  0.62708753  1
  Co  Co112  1  0.26432971  0.68805972  0.26600793  1
  Co  Co113  1  0.07186054  0.79111638  0.44846671  1
  Co  Co114  1  0.79708752  0.42744474  0.03537021  1
  Co  Co115  1  0.09452560  0.87846824  0.64772560  1
  Co  Co116  1  0.52698972  0.68208705  0.91224824  1
  Co  Co117  1  0.86758370  0.36753654  0.81660444  1
  Co  Co118  1  0.29552344  0.28463769  0.08604956  1
  Co  Co119  1  0.02550724  0.63168879  -0.06685297  1
  Co  Co120  1  0.11414343  0.67702701  0.79933394  1
  Co  Co121  1  0.53583573  0.16504332  0.30950439  1
  Co  Co122  1  0.15969902  0.29698140  0.58910864  1
  Co  Co123  1  0.78660997  0.44206297  0.66609697  1
  Co  Co124  1  0.27049413  0.03406320  -0.02459700  1
  Co  Co125  1  0.74556277  0.01558876  0.14207560  1
  Co  Co126  1  0.38029651  0.58706656  0.18730374  1
  Co  Co127  1  0.44564683  0.03549130  0.72471122  1
  Co  Co128  1  -0.00453977  0.79918654  0.76099137  1
  Co  Co129  1  0.57882641  -0.00450333  0.15419112  1
  Co  Co130  1  -0.00563212  0.18977145  0.39075990  1
  Co  Co131  1  0.60660442  0.88056444  0.49059540  1
  Co  Co132  1  0.44025650  0.39372202  0.07362495  1
  Co  Co133  1  0.68414501  0.76424345  0.37345185  1
  Co  Co134  1  0.59540976  0.75565117  0.23360071  1
  Co  Co135  1  0.77212450  0.57801302  -0.05080016  1
  Co  Co136  1  0.08027477  0.24946719  0.25057141  1
  Co  Co137  1  0.49087219  0.46784838  0.23026141  1
  Co  Co138  1  0.49973055  0.01129781  0.53769833  1
  Co  Co139  1  0.17032873  0.01599594  0.61898103  1
  Co  Co140  1  0.56124785  0.84753911  0.11062003  1
  Co  Co141  1  0.28499258  0.40703742  0.64972542  1
  Co  Co142  1  0.45740936  0.84754493  0.56249403  1
  Co  Co143  1  0.63625670  0.39436104  0.60310666  1
  Co  Co144  1  0.18501446  0.37509048  0.22481369  1
  Co  Co145  1  0.66127158  0.10088052  0.24778836  1
  Co  Co146  1  0.00569945  0.32345912  0.56521135  1
  Co  Co147  1  0.75776266  0.15687601  0.65295450  1
  Co  Co148  1  0.00375196  0.69896934  0.34128007  1
  Co  Co149  1  0.34202743  -0.01375621  0.58991381  1
  Co  Co150  1  0.11542228  0.43051718  0.65863275  1
  Co  Co151  1  0.87224833  0.29991448  0.09773264  1
  Co  Co152  1  0.39375560  0.43891096  0.77964485  1
  Co  Co153  1  0.60691861  -0.03660125  -0.00480029  1
  Co  Co154  1  0.74428462  0.34458830  0.36108873  1
  Co  Co155  1  0.41393696  0.08326682  0.41340431  1
  Co  Co156  1  0.83318712  0.18772911  0.36972962  1
  Co  Co157  1  0.45826462  0.71588271  0.11118906  1
  Co  Co158  1  0.88565881  0.70112964  0.87859204  1
  Co  Co159  1  0.64351972  0.82498350  0.92262591  1
  Co  Co160  1  0.37537748  0.72753069  0.46792821  1
  Co  Co161  1  -0.00115957  -0.06602778  -0.03702283  1
  Ni  Ni162  1  0.71618644  0.15930378  0.89826211  1
  Ni  Ni163  1  0.06217269  0.51262541  0.80577372  1
  Ni  Ni164  1  0.83911772  0.02297981  0.59705834  1
  Ni  Ni165  1  0.40451970  0.88310473  0.12817375  1
  Ni  Ni166  1  0.53745773  0.16788835  0.47818849  1
  Ni  Ni167  1  0.88908843  0.63452685  0.05815969  1
  Ni  Ni168  1  0.08769381  0.59157678  0.25082129  1
  Ni  Ni169  1  0.75424604  -0.11959957  0.61046132  1
  Ni  Ni170  1  0.38432382  0.75821423  0.82451758  1
  Ni  Ni171  1  -0.03348557  0.63166720  0.74731839  1
  Ni  Ni172  1  0.36406732  0.67792560  -0.03321284  1
  Ni  Ni173  1  0.27726002  0.64574748  0.78113779  1
  Ni  Ni174  1  0.13790596  0.92895017  0.30264076  1
  Ni  Ni175  1  0.52609175  0.41602421  -0.07536180  1
  Ni  Ni176  1  0.55326138  0.53591636  0.38469263  1
  Ni  Ni177  1  0.13345399  0.47295997  0.37277979  1
  Ni  Ni178  1  0.16163240  -0.05410017  0.88316223  1
  Ni  Ni179  1  0.83355955  0.89875123  0.23336238  1
  Ni  Ni180  1  -0.03885962  0.35844934  -0.02843717  1
  Ni  Ni181  1  0.19243331  0.89249934  0.03606509  1
  Ni  Ni182  1  -0.10971236  0.60452961  0.43901728  1
  Ni  Ni183  1  0.18755201  0.01442698  0.15566502  1
  Ni  Ni184  1  0.38698062  0.43737787  0.48135260  1
  Ni  Ni185  1  0.46422763  0.30327822  0.53723130  1
  Ni  Ni186  1  0.77134663  0.73470188  -0.00527193  1
  Ni  Ni187  1  -0.01984589  0.16442080  0.10122527  1
  Ni  Ni188  1  0.88251851  0.92639145  0.71951206  1
  Ni  Ni189  1  0.73493084  0.61934458  0.65112700  1
  Ni  Ni190  1  -0.06342789  0.76882959  0.20823605  1
  Ni  Ni191  1  0.15527149  0.17524320  0.11007441  1
  Ni  Ni192  1  0.53757891  0.34741539  0.76032537  1
  Ni  Ni193  1  0.16070736  0.15818212  0.37642731  1
  Ni  Ni194  1  0.81348572  0.14619003  0.07263384  1
  Ni  Ni195  1  0.05051986  0.03885806  0.38723546  1
  Ni  Ni196  1  0.65140053  0.45972434  0.26889109  1
  Ni  Ni197  1  0.52361547  0.86093225  0.34343014  1
  Ni  Ni198  1  0.41452422  0.20724246  0.20782060  1
  Ni  Ni199  1  0.29465156  0.07299761  0.29601543  1
  Ni  Ni200  1  0.28607864  0.18667070  0.78766391  1
  Ni  Ni201  1  0.57807145  0.63287289  0.71126958  1
  Ni  Ni202  1  0.21966594  0.36694811  0.93347854  1
  Ni  Ni203  1  0.45788415  0.58529167  0.51832859  1
  Ni  Ni204  1  0.78783939  0.04296996  0.79553251  1
  Ni  Ni205  1  0.79462554  0.72858467  0.53418524  1
  Ni  Ni206  1  0.49739752  0.18778457  0.77198053  1
  Ni  Ni207  1  0.23386363  0.67562698  0.54556291  1
  Ni  Ni208  1  0.86621023  0.47280726  0.35346671  1
  Ni  Ni209  1  0.00119011  0.02186584  0.61376465  1
  Ni  Ni210  1  0.71150318  0.27889884  0.03493054  1
  Ni  Ni211  1  0.33020209  0.51139993  0.92129018  1
  Ni  Ni212  1  0.27389897  0.37428887  0.37247666  1
  Ni  Ni213  1  0.21564428  0.61652711  0.11796110  1
  Ni  Ni214  1  0.55433038  0.10874829  -0.07192859  1
