# generated using pymatgen
data_Ti108Co54Ni53
_symmetry_space_group_name_H-M   'P 1'
_cell_length_a   14.67596323
_cell_length_b   14.57849178
_cell_length_c   14.63792631
_cell_angle_alpha   90.33885913
_cell_angle_beta   90.25754879
_cell_angle_gamma   90.11528799
_symmetry_Int_Tables_number   1
_chemical_formula_structural   Ti108Co54Ni53
_chemical_formula_sum   'Ti108 Co54 Ni53'
_cell_volume   3131.74131818
_cell_formula_units_Z   1
loop_
 _symmetry_equiv_pos_site_id
 _symmetry_equiv_pos_as_xyz
  1  'x, y, z'
loop_
 _atom_site_type_symbol
 _atom_site_label
 _atom_site_symmetry_multiplicity
 _atom_site_fract_x
 _atom_site_fract_y
 _atom_site_fract_z
 _atom_site_occupancy
  Ti  Ti0  1  0.03965346  0.09338648  0.25589658  1
  Ti  Ti1  1  0.02360938  0.10328781  0.51536189  1
  Ti  Ti2  1  0.05647268  0.18173585  0.91686423  1
  Ti  Ti3  1  0.11010928  0.37903554  0.22723892  1
  Ti  Ti4  1  0.14116996  0.42657549  0.67187903  1
  Ti  Ti5  1  0.03152628  0.38496661  0.90441573  1
  Ti  Ti6  1  0.14023141  0.77391255  0.26753190  1
  Ti  Ti7  1  0.02412356  0.76366113  0.57643251  1
  Ti  Ti8  1  0.00348568  0.71796741  1.00679735  1
  Ti  Ti9  1  0.39662714  0.12178262  0.25913564  1
  Ti  Ti10  1  0.44831378  0.10606052  0.58526585  1
  Ti  Ti11  1  0.38883589  0.07961439  0.91911918  1
  Ti  Ti12  1  0.43869529  0.39290623  0.18267008  1
  Ti  Ti13  1  0.32372752  0.44070646  0.61936218  1
  Ti  Ti14  1  0.40891971  0.42349179  0.87723901  1
  Ti  Ti15  1  0.44296018  0.78939061  0.30612865  1
  Ti  Ti16  1  0.45918222  0.77462797  0.65891483  1
  Ti  Ti17  1  0.36848202  0.74997731  0.98658518  1
  Ti  Ti18  1  0.75743340  0.05606835  0.21587826  1
  Ti  Ti19  1  0.77120351  0.02208253  0.64674362  1
  Ti  Ti20  1  0.68776085  0.08542368  0.88731859  1
  Ti  Ti21  1  0.64588088  0.40130640  0.18896485  1
  Ti  Ti22  1  0.76807869  0.43590401  0.52931872  1
  Ti  Ti23  1  0.69962231  0.38754151  0.96368265  1
  Ti  Ti24  1  0.70553663  0.69413636  0.20302321  1
  Ti  Ti25  1  0.81838545  0.77012113  0.62786825  1
  Ti  Ti26  1  0.71967330  0.74803449  0.92477606  1
  Ti  Ti27  1  0.12976405  0.20253255  0.12550002  1
  Ti  Ti28  1  0.11525906  0.24039964  0.38869969  1
  Ti  Ti29  1  0.09632545  0.18629229  0.68224955  1
  Ti  Ti30  1  0.09648463  0.52785537  0.03621649  1
  Ti  Ti31  1  0.07642434  0.58391355  0.47792256  1
  Ti  Ti32  1  0.13482452  0.57266687  0.82377391  1
  Ti  Ti33  1  0.07116264  0.98111742  0.05097487  1
  Ti  Ti34  1  0.18994695  0.92481796  0.36224328  1
  Ti  Ti35  1  0.07119759  0.85393315  0.74605966  1
  Ti  Ti36  1  0.43310650  0.21031835  0.06275889  1
  Ti  Ti37  1  0.42601082  0.23159440  0.44187389  1
  Ti  Ti38  1  0.46822846  0.31896070  0.71818056  1
  Ti  Ti39  1  0.37909393  0.57008877  0.11960453  1
  Ti  Ti40  1  0.49674314  0.61244244  0.43091921  1
  Ti  Ti41  1  0.37976375  0.63546592  0.79003924  1
  Ti  Ti42  1  0.47399616  0.87536511  0.10445360  1
  Ti  Ti43  1  0.37262205  0.89750735  0.48896247  1
  Ti  Ti44  1  0.40009666  0.96569197  0.73548328  1
  Ti  Ti45  1  0.70556513  0.19952196  0.03697189  1
  Ti  Ti46  1  0.77699216  0.22611606  0.43336220  1
  Ti  Ti47  1  0.78246405  0.31873806  0.72071502  1
  Ti  Ti48  1  0.77962420  0.54589935  0.10455120  1
  Ti  Ti49  1  0.70231642  0.60373921  0.42094338  1
  Ti  Ti50  1  0.77499597  0.61935712  0.77260222  1
  Ti  Ti51  1  0.70780570  0.85913595  0.09720480  1
  Ti  Ti52  1  0.76387058  0.88444421  0.43682252  1
  Ti  Ti53  1  0.66700753  0.93657992  0.78189841  1
  Ti  Ti54  1  0.26237531  0.05736092  0.09017574  1
  Ti  Ti55  1  0.27772945  0.09662411  0.44369733  1
  Ti  Ti56  1  0.24404055  0.09142000  0.76906488  1
  Ti  Ti57  1  0.25465012  0.41074042  0.09834979  1
  Ti  Ti58  1  0.28005238  0.41334623  0.42113498  1
  Ti  Ti59  1  0.28119013  0.29159590  0.75051554  1
  Ti  Ti60  1  0.18264186  0.80812356  0.07385888  1
  Ti  Ti61  1  0.25054649  0.62596298  0.37960882  1
  Ti  Ti62  1  0.21833943  0.74434527  0.75781996  1
  Ti  Ti63  1  0.57196581  0.11460962  0.15484807  1
  Ti  Ti64  1  0.63656540  0.08381354  0.51842891  1
  Ti  Ti65  1  0.60937027  0.14660694  0.71675177  1
  Ti  Ti66  1  0.53259091  0.46227100  0.01887955  1
  Ti  Ti67  1  0.56571613  0.42658448  0.37072280  1
  Ti  Ti68  1  0.64228855  0.48324435  0.68739641  1
  Ti  Ti69  1  0.56803204  0.70567639  0.02838619  1
  Ti  Ti70  1  0.54296003  0.78594322  0.48224807  1
  Ti  Ti71  1  0.63172102  0.73381163  0.73719175  1
  Ti  Ti72  1  0.83752083  0.04353240  0.02446283  1
  Ti  Ti73  1  0.91290370  0.00426853  0.36837446  1
  Ti  Ti74  1  0.94790708  0.07435443  0.76131859  1
  Ti  Ti75  1  0.94677270  0.41253564  0.12102160  1
  Ti  Ti76  1  0.98670605  0.38391868  0.41361073  1
  Ti  Ti77  1  0.97370137  0.35235668  0.69728193  1
  Ti  Ti78  1  0.88827963  0.85968387  0.04376916  1
  Ti  Ti79  1  0.96405352  0.77706122  0.39093957  1
  Ti  Ti80  1  0.90126808  0.74267568  0.83236770  1
  Ti  Ti81  1  0.26811534  0.27035739  0.27830963  1
  Ti  Ti82  1  0.22077483  0.26727874  0.54812636  1
  Ti  Ti83  1  0.24129263  0.25262076  0.95731114  1
  Ti  Ti84  1  0.19636635  0.57306532  0.21192039  1
  Ti  Ti85  1  0.23271231  0.70031309  0.56289383  1
  Ti  Ti86  1  0.27807335  0.56343384  0.94406946  1
  Ti  Ti87  1  0.30908289  0.90745291  0.20345658  1
  Ti  Ti88  1  0.17159946  0.90711091  0.56496882  1
  Ti  Ti89  1  0.25472160  0.91885767  0.89552147  1
  Ti  Ti90  1  0.59958031  0.15576667  0.34386092  1
  Ti  Ti91  1  0.59015945  0.30902732  0.53807111  1
  Ti  Ti92  1  0.54465794  0.24105587  0.89440503  1
  Ti  Ti93  1  0.54074242  0.59431539  0.25403094  1
  Ti  Ti94  1  0.46448190  0.57602131  0.61139368  1
  Ti  Ti95  1  0.57471283  0.58249151  0.84561656  1
  Ti  Ti96  1  0.58162940  0.94211831  0.35942686  1
  Ti  Ti97  1  0.64869744  0.87727049  0.60093115  1
  Ti  Ti98  1  0.58277142  0.91112238  0.94813287  1
  Ti  Ti99  1  0.86648250  0.21619280  0.16262570  1
  Ti  Ti100  1  0.89118452  0.18761277  0.61666769  1
  Ti  Ti101  1  0.87097008  0.28363510  0.95926809  1
  Ti  Ti102  1  0.92576719  0.66902256  0.22293965  1
  Ti  Ti103  1  0.91810767  0.59954488  0.60728941  1
  Ti  Ti104  1  0.94108172  0.55729587  0.87151992  1
  Ti  Ti105  1  0.84913131  0.85601887  0.23791030  1
  Ti  Ti106  1  0.91927932  0.93458073  0.55445726  1
  Ti  Ti107  1  0.94998332  0.90854227  0.88102485  1
  Co  Co108  1  0.52344805  0.86765251  0.77952239  1
  Co  Co109  1  0.50856347  0.74020327  0.87411810  1
  Co  Co110  1  0.72162237  0.21260620  0.59354579  1
  Co  Co111  1  0.29117887  0.78835821  0.35555481  1
  Co  Co112  1  0.88004795  0.39806438  0.83240183  1
  Co  Co113  1  0.87699236  0.32905210  0.54540716  1
  Co  Co114  1  0.75628357  0.91050737  -0.06058859  1
  Co  Co115  1  0.15075193  -0.05544300  0.18907127  1
  Co  Co116  1  0.52604323  0.03771272  0.83180234  1
  Co  Co117  1  -0.05292542  0.23711842  0.80087262  1
  Co  Co118  1  0.70492211  0.25675009  0.85794962  1
  Co  Co119  1  0.77969430  0.14997945  0.74664589  1
  Co  Co120  1  0.07002523  0.64076199  0.32552856  1
  Co  Co121  1  0.69720744  0.22956560  0.19980146  1
  Co  Co122  1  0.83823925  0.63889557  0.96061836  1
  Co  Co123  1  0.38171365  0.25523237  0.88100465  1
  Co  Co124  1  0.28732169  0.44652497  0.25828696  1
  Co  Co125  1  0.30288034  0.16009579  0.63210729  1
  Co  Co126  1  0.00187372  0.68441391  0.71994252  1
  Co  Co127  1  -0.00298097  0.27206262  0.06643700  1
  Co  Co128  1  0.84088693  0.14679185  -0.10410287  1
  Co  Co129  1  0.83027814  0.72121440  0.10069553  1
  Co  Co130  1  0.22562145  0.73274468  0.91887243  1
  Co  Co131  1  0.77512286  0.82271818  0.77791989  1
  Co  Co132  1  0.04366624  0.28261472  0.55343828  1
  Co  Co133  1  0.36171740  0.80795261  0.80394045  1
  Co  Co134  1  0.47040600  0.97652081  0.24476014  1
  Co  Co135  1  0.22240650  0.64400372  0.06606776  1
  Co  Co136  1  0.35100930  -0.03366830  0.34684942  1
  Co  Co137  1  0.17625965  0.08047819  0.57491457  1
  Co  Co138  1  0.29021958  0.22538908  0.12808540  1
  Co  Co139  1  0.52102620  -0.04901602  0.52099730  1
  Co  Co140  1  -0.03066572  0.05232706  -0.06798956  1
  Co  Co141  1  0.38862304  0.29084474  0.58289005  1
  Co  Co142  1  0.11878529  0.35669117  0.04080402  1
  Co  Co143  1  0.22391372  0.92853000  0.73077054  1
  Co  Co144  1  0.55891147  0.00059218  0.66779920  1
  Co  Co145  1  -0.05397618  0.21924638  0.43014058  1
  Co  Co146  1  0.11770100  0.06275520  0.39886642  1
  Co  Co147  1  -0.05552239  0.57934955  0.07315380  1
  Co  Co148  1  0.86611076  0.14732888  0.31113023  1
  Co  Co149  1  0.54453088  0.10237574  -0.01473657  1
  Co  Co150  1  0.74241700  0.47648664  0.83189667  1
  Co  Co151  1  0.62493819  0.30728050  0.70604419  1
  Co  Co152  1  0.13422360  0.75757725  0.44137589  1
  Co  Co153  1  0.70927335  0.74616087  0.49803986  1
  Co  Co154  1  0.31217894  0.82861574  0.63553725  1
  Co  Co155  1  0.46504174  0.70511015  0.14920541  1
  Co  Co156  1  0.37339685  0.63754499  0.27523052  1
  Co  Co157  1  0.13446690  0.48510012  0.35135491  1
  Co  Co158  1  0.46523348  0.48769260  0.74081591  1
  Co  Co159  1  0.03022521  0.52585071  0.21369422  1
  Co  Co160  1  0.30961321  -0.00201142  0.60269839  1
  Co  Co161  1  0.82283524  -0.00544462  0.81941832  1
  Ni  Ni162  1  0.09878687  0.00933924  0.82567619  1
  Ni  Ni163  1  0.85565230  0.46090246  -0.01755104  1
  Ni  Ni164  1  0.83593409  0.47873185  0.68673028  1
  Ni  Ni165  1  0.22474541  0.08616308  0.25950810  1
  Ni  Ni166  1  0.28454314  0.46983484  0.77995512  1
  Ni  Ni167  1  0.02124809  0.83391128  0.14481467  1
  Ni  Ni168  1  0.67430781  0.02164629  0.04989871  1
  Ni  Ni169  1  -0.01220086  0.45451915  0.56618299  1
  Ni  Ni170  1  0.68953581  0.57023781  -0.03951364  1
  Ni  Ni171  1  0.05820349  -0.00087331  0.65954619  1
  Ni  Ni172  1  0.10719709  0.86452976  -0.06942904  1
  Ni  Ni173  1  0.73138847  0.04747245  0.37807787  1
  Ni  Ni174  1  0.85948395  0.68281756  0.47962935  1
  Ni  Ni175  1  0.41314986  0.34050271  0.33250076  1
  Ni  Ni176  1  0.12528354  0.29563239  0.80284718  1
  Ni  Ni177  1  0.78429951  0.35779129  0.11002093  1
  Ni  Ni178  1  0.67163832  0.31212558  0.34347537  1
  Ni  Ni179  1  0.30348384  0.74249375  0.17719278  1
  Ni  Ni180  1  -0.00803484  0.26744087  0.26816772  1
  Ni  Ni181  1  0.02371788  -0.08907204  0.28949223  1
  Ni  Ni182  1  0.83648996  0.07791296  0.49961404  1
  Ni  Ni183  1  0.57650323  0.29665901  0.07756776  1
  Ni  Ni184  1  0.62163507  -0.03819845  0.19629054  1
  Ni  Ni185  1  0.74602601  0.59956445  0.59632055  1
  Ni  Ni186  1  0.45059788  0.42268402  0.49506312  1
  Ni  Ni187  1  0.91840711  -0.00471825  0.17973349  1
  Ni  Ni188  1  0.38629709  0.35974997  0.02338402  1
  Ni  Ni189  1  -0.01825171  0.11584566  0.08538231  1
  Ni  Ni190  1  0.53681936  0.26998438  0.24151786  1
  Ni  Ni191  1  0.58365431  0.80594335  0.20890597  1
  Ni  Ni192  1  0.79134962  0.73818334  0.34343691  1
  Ni  Ni193  1  0.13488418  0.41128869  0.50109951  1
  Ni  Ni194  1  0.04624139  0.91210022  0.45453988  1
  Ni  Ni195  1  0.91224760  0.89019843  0.70851492  1
  Ni  Ni196  1  0.42591500  0.03556628  0.09147870  1
  Ni  Ni197  1  0.46865517  0.06612861  0.41141810  1
  Ni  Ni198  1  0.41194428  0.50161500  0.34682193  1
  Ni  Ni199  1  0.33787067  0.55707063  0.50060459  1
  Ni  Ni200  1  0.07029538  0.72229015  0.85992448  1
  Ni  Ni201  1  0.44324180  0.59636740  -0.05405931  1
  Ni  Ni202  1  0.62023827  0.73511928  0.34974406  1
  Ni  Ni203  1  0.42283158  0.90946776  -0.07792168  1
  Ni  Ni204  1  0.61165972  0.56847028  0.11206827  1
  Ni  Ni205  1  0.41733396  0.15042982  0.75841251  1
  Ni  Ni206  1  0.59849365  0.66515378  0.58758432  1
  Ni  Ni207  1  0.19552327  0.08380986  -0.05888879  1
  Ni  Ni208  1  0.00766787  0.51534638  0.72679404  1
  Ni  Ni209  1  0.20059994  0.41539597  -0.09034165  1
  Ni  Ni210  1  0.60505148  0.49867520  0.52264735  1
  Ni  Ni211  1  0.07656478  0.67136108  0.14692155  1
  Ni  Ni212  1  0.38237522  0.72223284  0.49167031  1
  Ni  Ni213  1  0.23107233  0.58429248  0.68143045  1
  Ni  Ni214  1  0.58484734  0.40720540  0.83737934  1
