# generated using pymatgen
data_Ti108Co54Ni53
_symmetry_space_group_name_H-M   'P 1'
_cell_length_a   14.69413468
_cell_length_b   14.63930013
_cell_length_c   14.69579346
_cell_angle_alpha   89.91754501
_cell_angle_beta   90.07172164
_cell_angle_gamma   89.96618561
_symmetry_Int_Tables_number   1
_chemical_formula_structural   Ti108Co54Ni53
_chemical_formula_sum   'Ti108 Co54 Ni53'
_cell_volume   3161.23298165
_cell_formula_units_Z   1
loop_
 _symmetry_equiv_pos_site_id
 _symmetry_equiv_pos_as_xyz
  1  'x, y, z'
loop_
 _atom_site_type_symbol
 _atom_site_label
 _atom_site_symmetry_multiplicity
 _atom_site_fract_x
 _atom_site_fract_y
 _atom_site_fract_z
 _atom_site_occupancy
  Ti  Ti0  1  0.01347416  0.06386747  0.23563570  1
  Ti  Ti1  1  0.07451523  0.15059768  0.57699907  1
  Ti  Ti2  1  0.11276542  0.07494881  0.94184629  1
  Ti  Ti3  1  0.13716282  0.42157831  0.25242132  1
  Ti  Ti4  1  0.10777255  0.36897094  0.66631579  1
  Ti  Ti5  1  0.14519659  0.43857081  0.89199416  1
  Ti  Ti6  1  0.02941256  0.81449455  0.23630643  1
  Ti  Ti7  1  0.04616773  0.78098064  0.62396122  1
  Ti  Ti8  1  0.09613229  0.77116719  0.87228226  1
  Ti  Ti9  1  0.39826588  0.08403232  0.28532324  1
  Ti  Ti10  1  0.46164325  0.10707956  0.58550167  1
  Ti  Ti11  1  0.43308559  0.16185784  0.93998832  1
  Ti  Ti12  1  0.37777165  0.45695409  0.28513583  1
  Ti  Ti13  1  0.37669926  0.31395560  0.55016519  1
  Ti  Ti14  1  0.48744339  0.38034774  0.93365230  1
  Ti  Ti15  1  0.38487767  0.79026066  0.23342643  1
  Ti  Ti16  1  0.36160999  0.72293791  0.58552335  1
  Ti  Ti17  1  0.40232427  0.70603756  0.94574860  1
  Ti  Ti18  1  0.69917861  0.05128943  0.21626595  1
  Ti  Ti19  1  0.76539635  0.11507895  0.55037331  1
  Ti  Ti20  1  0.77978529  0.11148633  0.86708414  1
  Ti  Ti21  1  0.74690478  0.46007311  0.15748228  1
  Ti  Ti22  1  0.68921200  0.43756195  0.59042708  1
  Ti  Ti23  1  0.79399926  0.45431538  0.88713052  1
  Ti  Ti24  1  0.81854713  0.77431921  0.24835329  1
  Ti  Ti25  1  0.72315040  0.76867125  0.58945413  1
  Ti  Ti26  1  0.67002135  0.72433946  0.92193537  1
  Ti  Ti27  1  0.14803926  0.27766344  0.05549946  1
  Ti  Ti28  1  0.08439038  0.28172924  0.38528538  1
  Ti  Ti29  1  0.07974214  0.23956090  0.81897818  1
  Ti  Ti30  1  0.05995232  0.57747429  0.11287405  1
  Ti  Ti31  1  0.16712534  0.63717242  0.42365948  1
  Ti  Ti32  1  0.09895205  0.59302838  0.81199923  1
  Ti  Ti33  1  0.11207439  0.95058477  0.10966397  1
  Ti  Ti34  1  0.10833791  0.84677079  0.45993257  1
  Ti  Ti35  1  0.05032781  0.92388988  0.77582779  1
  Ti  Ti36  1  0.43040728  0.26921467  0.12876282  1
  Ti  Ti37  1  0.45082543  0.31277108  0.38054489  1
  Ti  Ti38  1  0.35632819  0.21402329  0.73157160  1
  Ti  Ti39  1  0.43628284  0.60666408  0.15915051  1
  Ti  Ti40  1  0.42091662  0.64217289  0.36677105  1
  Ti  Ti41  1  0.37383083  0.63301502  0.75437499  1
  Ti  Ti42  1  0.41776164  0.89347934  0.06433234  1
  Ti  Ti43  1  0.46988122  0.86293600  0.46954059  1
  Ti  Ti44  1  0.44445301  0.91729297  0.74467484  1
  Ti  Ti45  1  0.71718622  0.26197342  0.11769279  1
  Ti  Ti46  1  0.69549897  0.18646197  0.37746369  1
  Ti  Ti47  1  0.80782310  0.28495190  0.65209295  1
  Ti  Ti48  1  0.75974806  0.59723868  0.02490728  1
  Ti  Ti49  1  0.77005582  0.61160392  0.41686863  1
  Ti  Ti50  1  0.68178042  0.57503999  0.76988470  1
  Ti  Ti51  1  0.74783302  0.88224466  0.07323317  1
  Ti  Ti52  1  0.76358903  0.94077416  0.48484897  1
  Ti  Ti53  1  0.72632029  0.89135709  0.83571353  1
  Ti  Ti54  1  0.25985468  0.10603795  0.07969512  1
  Ti  Ti55  1  0.19086005  0.12368334  0.37886235  1
  Ti  Ti56  1  0.18936804  0.04783862  0.72011130  1
  Ti  Ti57  1  0.30376818  0.42774170  -0.00362027  1
  Ti  Ti58  1  0.18970308  0.42658555  0.47898541  1
  Ti  Ti59  1  0.35331511  0.42541821  0.78629967  1
  Ti  Ti60  1  0.18350618  0.74124521  0.15877795  1
  Ti  Ti61  1  0.29866824  0.78500332  0.41976561  1
  Ti  Ti62  1  0.25414469  0.83943054  0.74100475  1
  Ti  Ti63  1  0.56830509  0.08734958  0.07228954  1
  Ti  Ti64  1  0.59269129  -0.00511648  0.36870201  1
  Ti  Ti65  1  0.63057138  0.13139670  0.71363442  1
  Ti  Ti66  1  0.56653246  0.42489555  0.10847150  1
  Ti  Ti67  1  0.64400473  0.39163556  0.39992590  1
  Ti  Ti68  1  0.53944341  0.40054139  0.71001756  1
  Ti  Ti69  1  0.55234916  0.74218767  0.07008328  1
  Ti  Ti70  1  0.58232688  0.69116162  0.46089341  1
  Ti  Ti71  1  0.59624592  0.78084607  0.74591716  1
  Ti  Ti72  1  0.82724472  0.08722715  0.07591975  1
  Ti  Ti73  1  0.85842658  0.08291815  0.36143578  1
  Ti  Ti74  1  0.98196977  0.09430574  0.72530784  1
  Ti  Ti75  1  0.88351030  0.39515129  0.03643805  1
  Ti  Ti76  1  0.84134798  0.32943590  0.36232617  1
  Ti  Ti77  1  0.94954259  0.38357486  0.79914195  1
  Ti  Ti78  1  0.91143770  0.72937046  0.07471849  1
  Ti  Ti79  1  0.97679447  0.70289733  0.39466662  1
  Ti  Ti80  1  0.90260876  0.80739736  0.80582184  1
  Ti  Ti81  1  0.27002009  0.23546049  0.24594515  1
  Ti  Ti82  1  0.27021854  0.14053371  0.56127066  1
  Ti  Ti83  1  0.25068416  0.16674771  0.87801707  1
  Ti  Ti84  1  0.25198187  0.55133637  0.16108275  1
  Ti  Ti85  1  0.26862626  0.56032758  0.58244391  1
  Ti  Ti86  1  0.20478832  0.62348090  0.98627113  1
  Ti  Ti87  1  0.21106113  0.92596421  0.30468344  1
  Ti  Ti88  1  0.30030861  0.97254254  0.47941243  1
  Ti  Ti89  1  0.23319599  0.84617127  0.99397190  1
  Ti  Ti90  1  0.56844639  0.20280414  0.24017853  1
  Ti  Ti91  1  0.60011031  0.25488310  0.54083661  1
  Ti  Ti92  1  0.66580682  0.28286695  0.89560377  1
  Ti  Ti93  1  0.61883577  0.55669633  0.28823725  1
  Ti  Ti94  1  0.54452906  0.59292933  0.63880432  1
  Ti  Ti95  1  0.60395255  0.53509507  0.94037140  1
  Ti  Ti96  1  0.62015195  0.85571601  0.22316596  1
  Ti  Ti97  1  0.58677070  0.93802472  0.60422073  1
  Ti  Ti98  1  0.49385576  0.99003454  0.91371398  1
  Ti  Ti99  1  0.95098807  0.22943172  0.14313888  1
  Ti  Ti100  1  0.91995708  0.21624416  0.50255150  1
  Ti  Ti101  1  0.94979354  0.20434585  0.94704221  1
  Ti  Ti102  1  0.93467796  0.50604472  0.25047056  1
  Ti  Ti103  1  0.85423905  0.60298459  0.67778900  1
  Ti  Ti104  1  0.89120668  0.63135172  0.88084224  1
  Ti  Ti105  1  0.91146850  0.90137504  0.35233438  1
  Ti  Ti106  1  0.87938980  0.94022473  0.63804855  1
  Ti  Ti107  1  0.89003530  0.92510743  0.95819714  1
  Co  Co108  1  0.15016036  0.45125151  0.06182379  1
  Co  Co109  1  0.10832550  0.60923471  0.26864249  1
  Co  Co110  1  0.43798910  0.58780396  0.51886956  1
  Co  Co111  1  -0.04734899  0.21775217  0.30723713  1
  Co  Co112  1  0.73901102  -0.08895823  0.32398930  1
  Co  Co113  1  0.27699056  0.34335782  0.36801563  1
  Co  Co114  1  0.09364003  0.13057534  0.10126294  1
  Co  Co115  1  0.61712249  0.53765900  0.48210276  1
  Co  Co116  1  0.50141720  0.49071682  0.38642268  1
  Co  Co117  1  0.61421613  0.07040298  0.51648282  1
  Co  Co118  1  0.81422592  0.76886820  -0.05180437  1
  Co  Co119  1  0.28650622  0.65757111  0.27701676  1
  Co  Co120  1  0.82252718  0.28018061  0.81712352  1
  Co  Co121  1  0.87398781  0.77561857  0.65023338  1
  Co  Co122  1  0.32205704  0.00162385  -0.01825201  1
  Co  Co123  1  0.30697345  0.25332273  0.03344986  1
  Co  Co124  1  0.92661452  0.03790884  0.51171796  1
  Co  Co125  1  0.51626085  0.41174293  0.53437666  1
  Co  Co126  1  0.86260316  0.35249398  0.20702774  1
  Co  Co127  1  0.51250321  0.26011189  0.82309941  1
  Co  Co128  1  0.67747666  0.72996947  0.32935736  1
  Co  Co129  1  0.26802246  0.37472110  0.63886138  1
  Co  Co130  1  0.03270155  0.64531219  -0.03223704  1
  Co  Co131  1  0.75519452  0.28894773  0.49725264  1
  Co  Co132  1  0.56592431  0.25976669  0.03480617  1
  Co  Co133  1  -0.02327568  0.04517386  0.04933594  1
  Co  Co134  1  0.80859512  0.25949766  -0.01955003  1
  Co  Co135  1  0.51307559  0.80591723  0.33190346  1
  Co  Co136  1  0.47548250  0.09535110  0.76003593  1
  Co  Co137  1  0.33967953  0.02860560  0.66706034  1
  Co  Co138  1  0.80308861  0.78165215  0.42030749  1
  Co  Co139  1  0.35485780  0.29663336  -0.11194532  1
  Co  Co140  1  0.87750608  0.68043917  0.52381338  1
  Co  Co141  1  0.35754193  0.45909008  0.46380581  1
  Co  Co142  1  0.69475218  0.14808579  0.00416458  1
  Co  Co143  1  0.34255042  0.03798587  0.82821718  1
  Co  Co144  1  0.78053178  0.47798766  0.31470160  1
  Co  Co145  1  0.59734231  0.96977019  0.78245674  1
  Co  Co146  1  0.71457769  0.60699635  0.58934664  1
  Co  Co147  1  0.02694899  0.12435369  0.41372636  1
  Co  Co148  1  0.69897352  0.33265084  0.26099145  1
  Co  Co149  1  0.31349774  0.55572442  0.88411919  1
  Co  Co150  1  0.69242114  0.40475104  0.00424254  1
  Co  Co151  1  0.79757391  0.19046626  0.24087602  1
  Co  Co152  1  0.18785072  0.21155745  0.69314120  1
  Co  Co153  1  0.75741059  0.72171449  0.76722717  1
  Co  Co154  1  0.71575465  0.72994933  0.11380392  1
  Co  Co155  1  0.64045443  0.84491459  0.44531210  1
  Co  Co156  1  0.59510919  0.12155936  0.87715107  1
  Co  Co157  1  0.50474720  0.24675712  0.66629364  1
  Co  Co158  1  0.55125702  0.69330490  0.23175967  1
  Co  Co159  1  -0.04321358  0.66617682  0.23152776  1
  Co  Co160  1  0.90566445  0.55395746  0.06925596  1
  Co  Co161  1  0.10753767  0.23371660  0.22718824  1
  Ni  Ni162  1  0.66590864  0.30176626  0.72936227  1
  Ni  Ni163  1  0.53141052  0.82999027  -0.09730695  1
  Ni  Ni164  1  0.20098103  0.89569732  0.59842877  1
  Ni  Ni165  1  0.78930446  0.43659827  0.72750810  1
  Ni  Ni166  1  -0.02846953  0.25552264  0.67836384  1
  Ni  Ni167  1  0.21184519  0.50101461  0.73198948  1
  Ni  Ni168  1  0.40550523  0.44311330  0.12103450  1
  Ni  Ni169  1  0.22044990  0.33022602  0.79582004  1
  Ni  Ni170  1  -0.02183424  0.49648730  0.92166566  1
  Ni  Ni171  1  0.82319180  0.12515206  0.70496992  1
  Ni  Ni172  1  -0.06270419  0.84810342  0.50716927  1
  Ni  Ni173  1  0.84080034  -0.03387660  0.20810746  1
  Ni  Ni174  1  0.35183565  0.17907314  0.41928224  1
  Ni  Ni175  1  0.80305714  0.61303051  0.19951407  1
  Ni  Ni176  1  0.04467861  -0.04021396  0.61145656  1
  Ni  Ni177  1  0.06810503  0.78657774  0.04699318  1
  Ni  Ni178  1  0.20517085  -0.05061885  0.86637203  1
  Ni  Ni179  1  0.02909998  0.34760001  -0.03055814  1
  Ni  Ni180  1  -0.03661536  0.05399246  0.88456968  1
  Ni  Ni181  1  0.16291378  0.76356071  0.31972519  1
  Ni  Ni182  1  0.52136411  -0.00932069  0.20779098  1
  Ni  Ni183  1  0.26505971  0.36960175  0.15730103  1
  Ni  Ni184  1  0.49169151  0.52027179  0.81253607  1
  Ni  Ni185  1  0.52046159  0.77182492  0.60452749  1
  Ni  Ni186  1  0.40360274  0.48037745  0.63639101  1
  Ni  Ni187  1  0.01597364  0.38934901  0.14271211  1
  Ni  Ni188  1  0.17905905  0.27537160  0.53446677  1
  Ni  Ni189  1  0.05728722  0.91775594  0.94946451  1
  Ni  Ni190  1  0.19234295  0.06645024  0.22250564  1
  Ni  Ni191  1  0.45066570  0.54755328  -0.00168316  1
  Ni  Ni192  1  0.72498217  -0.01092966  0.67560324  1
  Ni  Ni193  1  0.33072403  0.72829284  0.09115058  1
  Ni  Ni194  1  0.05650784  -0.02596651  0.36800748  1
  Ni  Ni195  1  0.52944560  0.66935762  0.84612115  1
  Ni  Ni196  1  0.38669254  -0.07611327  0.33078845  1
  Ni  Ni197  1  0.37100142  0.88403431  0.60337935  1
  Ni  Ni198  1  0.27679842  0.92733509  0.14841954  1
  Ni  Ni199  1  0.26201461  0.71794729  0.86076179  1
  Ni  Ni200  1  0.53697865  0.37942075  0.25922575  1
  Ni  Ni201  1  0.21223163  0.67494343  0.71041387  1
  Ni  Ni202  1  0.14281327  0.01830595  0.49861330  1
  Ni  Ni203  1  0.61644994  0.59015881  0.11795635  1
  Ni  Ni204  1  0.68059708  -0.00466496  -0.04485546  1
  Ni  Ni205  1  0.85962415  -0.02074449  0.79177394  1
  Ni  Ni206  1  0.35982588  0.86808744  0.88396869  1
  Ni  Ni207  1  0.23850830  0.51379167  0.34407438  1
  Ni  Ni208  1  -0.05207777  0.89464864  0.11502057  1
  Ni  Ni209  1  0.58243247  0.91488583  0.05767050  1
  Ni  Ni210  1  0.52659032  0.16718829  0.40325356  1
  Ni  Ni211  1  0.19435184  0.72940775  0.55979046  1
  Ni  Ni212  1  -0.01082192  0.68340775  0.73920925  1
  Ni  Ni213  1  0.45116476  0.03151825  0.44467708  1
  Ni  Ni214  1  0.41200518  0.07520972  0.11622676  1
