# generated using pymatgen
data_Ti108Co54Ni53
_symmetry_space_group_name_H-M   'P 1'
_cell_length_a   14.64772001
_cell_length_b   14.67771812
_cell_length_c   14.61285522
_cell_angle_alpha   89.99377502
_cell_angle_beta   89.84523623
_cell_angle_gamma   89.90827697
_symmetry_Int_Tables_number   1
_chemical_formula_structural   Ti108Co54Ni53
_chemical_formula_sum   'Ti108 Co54 Ni53'
_cell_volume   3141.67684475
_cell_formula_units_Z   1
loop_
 _symmetry_equiv_pos_site_id
 _symmetry_equiv_pos_as_xyz
  1  'x, y, z'
loop_
 _atom_site_type_symbol
 _atom_site_label
 _atom_site_symmetry_multiplicity
 _atom_site_fract_x
 _atom_site_fract_y
 _atom_site_fract_z
 _atom_site_occupancy
  Ti  Ti0  1  0.07313278  0.04831392  0.20532852  1
  Ti  Ti1  1  0.10722078  0.08813184  0.51634616  1
  Ti  Ti2  1  0.06110845  0.08017382  0.87711466  1
  Ti  Ti3  1  0.10734393  0.36908267  0.21526529  1
  Ti  Ti4  1  0.07556499  0.42610042  0.62947546  1
  Ti  Ti5  1  0.00049192  0.37216731  0.92911863  1
  Ti  Ti6  1  0.06193068  0.72777060  0.33019188  1
  Ti  Ti7  1  0.06821421  0.72770289  0.59382333  1
  Ti  Ti8  1  0.10396785  0.73950010  0.91042217  1
  Ti  Ti9  1  0.46444080  0.06309651  0.22685271  1
  Ti  Ti10  1  0.44387848  0.14947341  0.53704514  1
  Ti  Ti11  1  0.39769916  0.03035188  0.83961444  1
  Ti  Ti12  1  0.38241205  0.44877003  0.37788186  1
  Ti  Ti13  1  0.36512431  0.36824877  0.56921125  1
  Ti  Ti14  1  0.46159464  0.41597464  0.97600798  1
  Ti  Ti15  1  0.41805450  0.71673284  0.26868215  1
  Ti  Ti16  1  0.36664054  0.79003364  0.55398159  1
  Ti  Ti17  1  0.43354598  0.76014454  0.97806875  1
  Ti  Ti18  1  0.77014816  0.01885169  0.33721084  1
  Ti  Ti19  1  0.65900946  0.11208075  0.57091290  1
  Ti  Ti20  1  0.72561238  0.12099076  0.88105906  1
  Ti  Ti21  1  0.78734465  0.46849036  0.23996883  1
  Ti  Ti22  1  0.73097631  0.43219426  0.57831021  1
  Ti  Ti23  1  0.78757400  0.34901627  0.94233297  1
  Ti  Ti24  1  0.74418088  0.75654467  0.19579334  1
  Ti  Ti25  1  0.72573283  0.75263728  0.56949653  1
  Ti  Ti26  1  0.78207553  0.74323137  0.85246348  1
  Ti  Ti27  1  0.07939745  0.21797145  0.06695560  1
  Ti  Ti28  1  0.14311314  0.22275941  0.36801851  1
  Ti  Ti29  1  0.09350894  0.19434627  0.69281710  1
  Ti  Ti30  1  0.07927986  0.54925101  0.10635781  1
  Ti  Ti31  1  0.07751424  0.54147791  0.34081699  1
  Ti  Ti32  1  0.19069195  0.53912195  0.78493891  1
  Ti  Ti33  1  0.08152089  0.88240534  0.05502642  1
  Ti  Ti34  1  0.15134991  0.89683239  0.36670569  1
  Ti  Ti35  1  0.10893512  0.90046830  0.73833631  1
  Ti  Ti36  1  0.42104183  0.21747844  0.04667743  1
  Ti  Ti37  1  0.31981282  0.25426643  0.40690651  1
  Ti  Ti38  1  0.44298650  0.27101940  0.83562338  1
  Ti  Ti39  1  0.35625023  0.57196780  0.09016246  1
  Ti  Ti40  1  0.43472486  0.65076819  0.45845648  1
  Ti  Ti41  1  0.38276166  0.51917800  0.72354009  1
  Ti  Ti42  1  0.35987706  0.91959921  0.06856755  1
  Ti  Ti43  1  0.48062749  0.85774911  0.40487767  1
  Ti  Ti44  1  0.34512096  0.92088631  0.69778781  1
  Ti  Ti45  1  0.76060229  0.30351540  0.12433631  1
  Ti  Ti46  1  0.74977245  0.26977816  0.48431506  1
  Ti  Ti47  1  0.78515671  0.29188117  0.68174553  1
  Ti  Ti48  1  0.81507655  0.65895558  0.02579982  1
  Ti  Ti49  1  0.78649708  0.57222911  0.46354980  1
  Ti  Ti50  1  0.72677083  0.47549658  0.78867883  1
  Ti  Ti51  1  0.76228709  0.98406033  0.13993758  1
  Ti  Ti52  1  0.76111692  0.95030810  0.53079589  1
  Ti  Ti53  1  0.76794761  0.93466475  0.82786515  1
  Ti  Ti54  1  0.20251819  0.02503165  0.02067135  1
  Ti  Ti55  1  0.26198998  0.06328416  0.33269698  1
  Ti  Ti56  1  0.21780180  0.07254658  0.78327825  1
  Ti  Ti57  1  0.21417450  0.45615328  -0.01196216  1
  Ti  Ti58  1  0.17940525  0.40563073  0.44992842  1
  Ti  Ti59  1  0.28013030  0.34311707  0.76213121  1
  Ti  Ti60  1  0.21087578  0.80267075  0.19010572  1
  Ti  Ti61  1  0.25256854  0.65732948  0.39351984  1
  Ti  Ti62  1  0.31052646  0.73948826  0.76529252  1
  Ti  Ti63  1  0.61658318  0.15452581  0.07495258  1
  Ti  Ti64  1  0.56954782  0.03819367  0.40957982  1
  Ti  Ti65  1  0.53250417  0.10582713  0.74212819  1
  Ti  Ti66  1  0.60915221  0.50490812  0.06942734  1
  Ti  Ti67  1  0.65081788  0.43082856  0.38099941  1
  Ti  Ti68  1  0.57360035  0.49550657  0.67923784  1
  Ti  Ti69  1  0.62048314  0.70493701  0.03746917  1
  Ti  Ti70  1  0.62889418  0.70529711  0.39686421  1
  Ti  Ti71  1  0.63142831  0.81154731  0.74048459  1
  Ti  Ti72  1  0.90567054  0.13911992  0.14347541  1
  Ti  Ti73  1  0.90665588  0.07372953  0.48396605  1
  Ti  Ti74  1  0.90670132  0.12533340  0.74692469  1
  Ti  Ti75  1  0.90029414  0.47138507  0.08159313  1
  Ti  Ti76  1  0.87684142  0.40194999  0.40256165  1
  Ti  Ti77  1  0.89827258  0.44921904  0.74404732  1
  Ti  Ti78  1  0.91313753  0.81128313  0.08503001  1
  Ti  Ti79  1  0.85722501  0.73296862  0.39293506  1
  Ti  Ti80  1  0.94433826  0.76905082  0.75728879  1
  Ti  Ti81  1  0.22032328  0.19272751  0.19693625  1
  Ti  Ti82  1  0.24339368  0.21878112  0.59326160  1
  Ti  Ti83  1  0.17288391  0.26635323  0.90689287  1
  Ti  Ti84  1  0.21633601  0.62387753  0.21220659  1
  Ti  Ti85  1  0.24090047  0.63902571  0.61057518  1
  Ti  Ti86  1  0.32056174  0.61645559  0.90678646  1
  Ti  Ti87  1  0.36142947  0.90318150  0.25943791  1
  Ti  Ti88  1  0.27217494  0.93778777  0.50152939  1
  Ti  Ti89  1  0.25429227  0.89048093  0.88048242  1
  Ti  Ti90  1  0.58751394  0.23805736  0.28798240  1
  Ti  Ti91  1  0.55167273  0.37015689  0.53725529  1
  Ti  Ti92  1  0.62146059  0.28251033  0.87412358  1
  Ti  Ti93  1  0.59412616  0.59018855  0.24168837  1
  Ti  Ti94  1  0.55982625  0.66443511  0.62549405  1
  Ti  Ti95  1  0.55566064  0.58829425  0.85170782  1
  Ti  Ti96  1  0.61015887  0.90578713  0.25673035  1
  Ti  Ti97  1  0.56560893  0.93403564  0.59616412  1
  Ti  Ti98  1  0.53268859  0.95391046  0.95841693  1
  Ti  Ti99  1  0.86487387  0.22101591  0.32518197  1
  Ti  Ti100  1  0.94182289  0.25926254  0.55119540  1
  Ti  Ti101  1  0.90453656  0.18098487  0.95785365  1
  Ti  Ti102  1  0.91288817  0.63857222  0.20762727  1
  Ti  Ti103  1  0.93183654  0.58172796  0.60735284  1
  Ti  Ti104  1  0.91251223  0.55699887  0.90123166  1
  Ti  Ti105  1  0.94542582  0.92009803  0.35808157  1
  Ti  Ti106  1  0.94004893  0.90146342  0.59596208  1
  Ti  Ti107  1  0.89644100  0.98007380  0.96766319  1
  Co  Co108  1  0.38610248  0.56620081  0.26342858  1
  Co  Co109  1  0.84605840  0.61642037  0.76610343  1
  Co  Co110  1  0.02439687  0.35286801  0.35875357  1
  Co  Co111  1  0.10259938  0.27776705  0.52255894  1
  Co  Co112  1  0.62865148  0.44310833  0.91419389  1
  Co  Co113  1  0.08142482  -0.07042838  0.90127281  1
  Co  Co114  1  0.19765993  0.02601472  0.63298687  1
  Co  Co115  1  0.58130421  0.75449865  0.22732704  1
  Co  Co116  1  0.23295638  0.81787702  0.01446045  1
  Co  Co117  1  -0.07605451  0.07311702  0.29364852  1
  Co  Co118  1  0.54336507  -0.05774432  0.78658026  1
  Co  Co119  1  0.62680669  0.06979973  0.24698202  1
  Co  Co120  1  0.91035610  0.80264928  0.24689519  1
  Co  Co121  1  0.25682074  0.34011395  0.28348057  1
  Co  Co122  1  0.62087177  0.33525769  0.03968544  1
  Co  Co123  1  0.47076270  0.82184190  0.67944216  1
  Co  Co124  1  0.75087768  0.61563446  0.30827750  1
  Co  Co125  1  0.48129390  0.59016854  -0.01456139  1
  Co  Co126  1  -0.02005454  0.64591086  0.46200383  1
  Co  Co127  1  0.50326841  0.42189717  0.81007187  1
  Co  Co128  1  0.63037565  0.34820925  0.71775573  1
  Co  Co129  1  0.29306046  0.09773468  0.49420115  1
  Co  Co130  1  0.32322382  0.31821539  -0.04448531  1
  Co  Co131  1  0.00832456  0.81143462  0.46136746  1
  Co  Co132  1  0.49158738  0.65894969  0.12859285  1
  Co  Co133  1  0.55347171  0.78603418  0.53228129  1
  Co  Co134  1  0.48507866  0.83745988  0.12632924  1
  Co  Co135  1  0.80272471  0.84200271  0.68641221  1
  Co  Co136  1  0.77413770  0.12943473  0.04177307  1
  Co  Co137  1  0.76008244  0.48492290  0.01404424  1
  Co  Co138  1  0.03134559  0.21736817  0.24068185  1
  Co  Co139  1  0.40277721  0.00482477  0.39025000  1
  Co  Co140  1  -0.00765801  0.19635843  0.41294087  1
  Co  Co141  1  0.64535819  0.85395928  0.08522439  1
  Co  Co142  1  0.34188277  0.45454858  0.86984050  1
  Co  Co143  1  0.07012375  0.05676041  0.36506655  1
  Co  Co144  1  0.88883541  0.41252119  0.57850329  1
  Co  Co145  1  0.13205013  0.58311955  0.50340836  1
  Co  Co146  1  0.34138844  0.74066082  0.12186105  1
  Co  Co147  1  0.17867030  0.77126116  0.48098505  1
  Co  Co148  1  0.40644956  0.65716342  0.64679689  1
  Co  Co149  1  0.90352000  0.55965521  0.35225849  1
  Co  Co150  1  0.90410631  0.33443823  0.22297544  1
  Co  Co151  1  0.67463371  0.65007275  0.75070750  1
  Co  Co152  1  0.73995377  0.58848205  0.14405823  1
  Co  Co153  1  0.12122574  0.34743614  0.76795852  1
  Co  Co154  1  -0.05900940  0.82621509  0.91739324  1
  Co  Co155  1  0.23627899  0.49940670  0.32518058  1
  Co  Co156  1  0.73709208  0.31776943  0.29885305  1
  Co  Co157  1  0.31674432  0.80739265  0.38514483  1
  Co  Co158  1  0.92970634  -0.03764582  0.15263991  1
  Co  Co159  1  0.42676080  -0.02121842  0.54800517  1
  Co  Co160  1  0.81310380  0.14506795  0.59697203  1
  Co  Co161  1  0.42022660  0.85930557  0.84765247  1
  Ni  Ni162  1  0.70254221  0.15651624  0.37708243  1
  Ni  Ni163  1  0.38074902  0.06834290  -0.00635628  1
  Ni  Ni164  1  0.55418428  0.23545658  0.63698973  1
  Ni  Ni165  1  0.14435239  0.72137874  0.74980020  1
  Ni  Ni166  1  0.85443884  0.26974827  0.82376448  1
  Ni  Ni167  1  0.67194687  0.00479641  0.70828749  1
  Ni  Ni168  1  0.39081813  0.23302006  0.68382814  1
  Ni  Ni169  1  0.31328028  0.17608259  0.87186687  1
  Ni  Ni170  1  0.21770258  0.82186809  0.63593087  1
  Ni  Ni171  1  0.94547609  -0.05093137  0.79139215  1
  Ni  Ni172  1  0.01699763  0.61792939  0.75263784  1
  Ni  Ni173  1  0.75153804  0.58470302  0.62977358  1
  Ni  Ni174  1  0.04581376  0.47567605  0.81647209  1
  Ni  Ni175  1  0.35236442  0.07895041  0.66204120  1
  Ni  Ni176  1  0.03050797  0.03313338  0.66794052  1
  Ni  Ni177  1  0.47113572  0.70931621  0.79726506  1
  Ni  Ni178  1  0.45225971  0.51448748  0.55297851  1
  Ni  Ni179  1  -0.01494506  0.66400182  0.01870609  1
  Ni  Ni180  1  0.52049873  0.54162284  0.37697281  1
  Ni  Ni181  1  0.56777710  -0.00590573  0.11401636  1
  Ni  Ni182  1  0.77883281  0.84334947  -0.01240692  1
  Ni  Ni183  1  0.77312650  0.85891788  0.32516670  1
  Ni  Ni184  1  0.32496275  0.07781137  0.14743229  1
  Ni  Ni185  1  0.05642479  0.87358259  0.22603764  1
  Ni  Ni186  1  0.89000994  0.74366826  0.56933143  1
  Ni  Ni187  1  0.24640595  0.46788637  0.16696440  1
  Ni  Ni188  1  0.68866635  0.17394023  0.72915190  1
  Ni  Ni189  1  0.44871453  0.15931677  0.36032169  1
  Ni  Ni190  1  -0.06655689  0.30705268  0.06743873  1
  Ni  Ni191  1  0.06380519  0.71896739  0.15417693  1
  Ni  Ni192  1  0.10260624  -0.08554000  0.55105061  1
  Ni  Ni193  1  0.71723709  0.59527713  -0.09479325  1
  Ni  Ni194  1  0.23416472  0.45838311  0.63452502  1
  Ni  Ni195  1  -0.02698433  0.47621575  0.23195337  1
  Ni  Ni196  1  0.47597209  0.31659846  0.39792175  1
  Ni  Ni197  1  0.01638230  0.23455241  0.84032105  1
  Ni  Ni198  1  0.29122410  0.52603974  0.49534516  1
  Ni  Ni199  1  0.20307635  0.65708727  0.04121547  1
  Ni  Ni200  1  0.25445459  0.17854148  0.02776697  1
  Ni  Ni201  1  0.83108597  0.00329725  0.67628037  1
  Ni  Ni202  1  0.69876276  -0.01011200  -0.01430915  1
  Ni  Ni203  1  0.09802811  0.57196372  -0.06525916  1
  Ni  Ni204  1  0.61785321  0.54831482  0.51243406  1
  Ni  Ni205  1  0.65128202  0.87692221  0.43306807  1
  Ni  Ni206  1  0.23457259  0.32389318  0.09703842  1
  Ni  Ni207  1  0.74748187  0.16144125  0.20907088  1
  Ni  Ni208  1  0.61714183  0.82241310  0.90783350  1
  Ni  Ni209  1  0.02711347  0.05402213  0.03986333  1
  Ni  Ni210  1  0.52532695  0.13969192  -0.07550037  1
  Ni  Ni211  1  0.21234279  -0.03402640  0.19028873  1
  Ni  Ni212  1  0.00830931  0.47693835  0.48013032  1
  Ni  Ni213  1  -0.03267460  0.30815353  0.70455794  1
  Ni  Ni214  1  0.58200878  0.21826736  0.46427817  1
