# generated using pymatgen
data_Ti108Co54Ni53
_symmetry_space_group_name_H-M   'P 1'
_cell_length_a   14.64066742
_cell_length_b   14.69634791
_cell_length_c   14.62332392
_cell_angle_alpha   89.85615614
_cell_angle_beta   90.18372036
_cell_angle_gamma   89.92643900
_symmetry_Int_Tables_number   1
_chemical_formula_structural   Ti108Co54Ni53
_chemical_formula_sum   'Ti108 Co54 Ni53'
_cell_volume   3146.38915186
_cell_formula_units_Z   1
loop_
 _symmetry_equiv_pos_site_id
 _symmetry_equiv_pos_as_xyz
  1  'x, y, z'
loop_
 _atom_site_type_symbol
 _atom_site_label
 _atom_site_symmetry_multiplicity
 _atom_site_fract_x
 _atom_site_fract_y
 _atom_site_fract_z
 _atom_site_occupancy
  Ti  Ti0  1  0.10215224  0.09759850  0.33202682  1
  Ti  Ti1  1  0.10027145  0.05384878  0.60903004  1
  Ti  Ti2  1  0.06271718  0.15267025  0.95297637  1
  Ti  Ti3  1  0.03021629  0.39309162  0.26889872  1
  Ti  Ti4  1  0.10419126  0.38341235  0.61656509  1
  Ti  Ti5  1  0.13016028  0.46903441  0.87210692  1
  Ti  Ti6  1  0.10406422  0.67354719  0.28402090  1
  Ti  Ti7  1  0.04040490  0.74167445  0.54069071  1
  Ti  Ti8  1  0.07389349  0.74431214  0.86718500  1
  Ti  Ti9  1  0.36794130  0.04290947  0.22351512  1
  Ti  Ti10  1  0.42423860  0.09775416  0.52033274  1
  Ti  Ti11  1  0.47254703  0.07240831  0.94750031  1
  Ti  Ti12  1  0.42796502  0.41752442  0.25835601  1
  Ti  Ti13  1  0.45078983  0.43888495  0.55025404  1
  Ti  Ti14  1  0.36057391  0.45379169  0.83499670  1
  Ti  Ti15  1  0.37944928  0.73016421  0.20981204  1
  Ti  Ti16  1  0.39905673  0.76803929  0.54942542  1
  Ti  Ti17  1  0.41698246  0.72204048  0.94564409  1
  Ti  Ti18  1  0.80188926  0.06317338  0.23829362  1
  Ti  Ti19  1  0.70917241  0.02142966  0.55946647  1
  Ti  Ti20  1  0.75386000  -0.01432296  0.95361607  1
  Ti  Ti21  1  0.80807459  0.40689451  0.32146959  1
  Ti  Ti22  1  0.77940204  0.42906270  0.51664900  1
  Ti  Ti23  1  0.73861155  0.42328723  0.96181505  1
  Ti  Ti24  1  0.72274179  0.78608710  0.27560948  1
  Ti  Ti25  1  0.69262878  0.66693975  0.55737630  1
  Ti  Ti26  1  0.74228841  0.81854038  0.85491450  1
  Ti  Ti27  1  -0.00342062  0.28653618  0.08901945  1
  Ti  Ti28  1  0.11979100  0.20658235  0.49923988  1
  Ti  Ti29  1  0.02055557  0.30778545  0.79388432  1
  Ti  Ti30  1  0.13234685  0.64742101  0.06049273  1
  Ti  Ti31  1  0.11625033  0.51255004  0.41586470  1
  Ti  Ti32  1  0.11530748  0.61104866  0.72208922  1
  Ti  Ti33  1  0.04051715  0.96445634  0.05418566  1
  Ti  Ti34  1  0.00599305  0.95236732  0.43873211  1
  Ti  Ti35  1  0.05348532  0.95284977  0.75258368  1
  Ti  Ti36  1  0.36042893  0.18208008  0.09372330  1
  Ti  Ti37  1  0.49232245  0.28181398  0.41423928  1
  Ti  Ti38  1  0.44755703  0.27108435  0.81901812  1
  Ti  Ti39  1  0.42619049  0.55527763  0.11708254  1
  Ti  Ti40  1  0.32548345  0.58231819  0.49113225  1
  Ti  Ti41  1  0.32141921  0.56597850  0.68297815  1
  Ti  Ti42  1  0.46795870  0.87355576  0.10635130  1
  Ti  Ti43  1  0.38510507  0.84529538  0.35868391  1
  Ti  Ti44  1  0.39236440  0.91836650  0.78618179  1
  Ti  Ti45  1  0.78850382  0.26004447  0.11920342  1
  Ti  Ti46  1  0.74785504  0.14278860  0.39624268  1
  Ti  Ti47  1  0.73426650  0.19033433  0.70055159  1
  Ti  Ti48  1  0.83316898  0.60193683  0.04126613  1
  Ti  Ti49  1  0.81326089  0.60638717  0.40829485  1
  Ti  Ti50  1  0.78284932  0.64306973  0.75152146  1
  Ti  Ti51  1  0.76381115  0.77829264  0.07643859  1
  Ti  Ti52  1  0.70150770  0.94394984  0.38077612  1
  Ti  Ti53  1  0.79685309  0.94745616  0.71293016  1
  Ti  Ti54  1  0.21314886  0.04283078  0.07622847  1
  Ti  Ti55  1  0.28291520  0.12392915  0.39674015  1
  Ti  Ti56  1  0.23357314  0.08690247  0.75886074  1
  Ti  Ti57  1  0.26226830  0.36226754  -0.00171124  1
  Ti  Ti58  1  0.31165196  0.38217463  0.40756616  1
  Ti  Ti59  1  0.25203893  0.29826606  0.75321333  1
  Ti  Ti60  1  0.16137863  0.82347338  0.16068861  1
  Ti  Ti61  1  0.21204865  0.84461388  0.45801153  1
  Ti  Ti62  1  0.27440838  0.74853239  0.78697820  1
  Ti  Ti63  1  0.65404002  0.12277635  0.07895426  1
  Ti  Ti64  1  0.57647353  0.10171329  0.37752039  1
  Ti  Ti65  1  0.51490298  0.13646728  0.69921657  1
  Ti  Ti66  1  0.55025862  0.38954886  0.06127781  1
  Ti  Ti67  1  0.61851508  0.52020490  0.43657114  1
  Ti  Ti68  1  0.59289610  0.34408731  0.70030467  1
  Ti  Ti69  1  0.59426000  0.79295187  -0.00994878  1
  Ti  Ti70  1  0.56467648  0.79235663  0.43593546  1
  Ti  Ti71  1  0.55110717  0.75119649  0.79671234  1
  Ti  Ti72  1  0.89012030  0.08685754  0.05879031  1
  Ti  Ti73  1  0.92843368  0.16116543  0.40891731  1
  Ti  Ti74  1  0.91723153  0.09306406  0.71321353  1
  Ti  Ti75  1  0.99716666  0.49084189  0.07548927  1
  Ti  Ti76  1  0.97302038  0.35402875  0.46017023  1
  Ti  Ti77  1  0.84636119  0.42758375  0.77601500  1
  Ti  Ti78  1  0.97074241  0.73046628  0.14741885  1
  Ti  Ti79  1  0.91987372  0.75455107  0.34475066  1
  Ti  Ti80  1  0.92229921  0.81505839  0.76622192  1
  Ti  Ti81  1  0.24232013  0.29506497  0.18974589  1
  Ti  Ti82  1  0.31346195  0.26530633  0.56357361  1
  Ti  Ti83  1  0.29061169  0.17296128  0.92318674  1
  Ti  Ti84  1  0.28973570  0.56128999  0.30178262  1
  Ti  Ti85  1  0.22745518  0.72384077  0.60555952  1
  Ti  Ti86  1  0.30194203  0.56728417  0.98187443  1
  Ti  Ti87  1  0.21749799  0.94772790  0.30107149  1
  Ti  Ti88  1  0.25175280  0.91831809  0.63713438  1
  Ti  Ti89  1  0.23215030  0.88043840  0.96805769  1
  Ti  Ti90  1  0.51840876  0.22010521  0.20849428  1
  Ti  Ti91  1  0.67193326  0.24190964  0.53312459  1
  Ti  Ti92  1  0.62367876  0.17180577  0.86889221  1
  Ti  Ti93  1  0.51452897  0.61779297  0.29733225  1
  Ti  Ti94  1  0.49390152  0.60665272  0.63732779  1
  Ti  Ti95  1  0.59825061  0.56742579  0.88207068  1
  Ti  Ti96  1  0.52627049  0.93903811  0.28275483  1
  Ti  Ti97  1  0.51982149  0.93317732  0.63021848  1
  Ti  Ti98  1  0.58990846  0.95241961  0.84661567  1
  Ti  Ti99  1  0.95271129  0.18046411  0.22757515  1
  Ti  Ti100  1  0.92368664  0.25398294  0.61419033  1
  Ti  Ti101  1  0.87833511  0.28550818  0.93194618  1
  Ti  Ti102  1  0.93656082  0.56405076  0.25129808  1
  Ti  Ti103  1  0.97269556  0.55113787  0.56597372  1
  Ti  Ti104  1  0.95504462  0.58399391  0.84616219  1
  Ti  Ti105  1  0.89572891  0.89611485  0.18074358  1
  Ti  Ti106  1  0.83498366  0.84696587  0.51009681  1
  Ti  Ti107  1  0.91295032  0.84404758  0.97755913  1
  Co  Co108  1  0.15363972  0.36177895  0.45801928  1
  Co  Co109  1  0.39647773  -0.00149076  0.38756304  1
  Co  Co110  1  0.79071198  0.55276003  0.88724382  1
  Co  Co111  1  0.20799103  0.45580614  0.72585048  1
  Co  Co112  1  0.00333246  0.63872123  0.41901082  1
  Co  Co113  1  0.20109163  0.41832873  0.29149966  1
  Co  Co114  1  0.39402376  0.11225366  0.80244774  1
  Co  Co115  1  0.40491353  0.33556345  0.12180143  1
  Co  Co116  1  0.68663230  0.46855737  0.77886856  1
  Co  Co117  1  0.81658688  0.14515330  0.55907214  1
  Co  Co118  1  0.41026183  0.74725927  0.70875738  1
  Co  Co119  1  0.80211384  0.54563761  0.62707058  1
  Co  Co120  1  0.15981364  0.26456727  0.87354113  1
  Co  Co121  1  0.58127760  0.11469812  0.55301284  1
  Co  Co122  1  0.02842020  0.47161561  0.73719558  1
  Co  Co123  1  0.36804624  0.26445965  0.28030938  1
  Co  Co124  1  0.75374401  0.35820851  0.66172367  1
  Co  Co125  1  0.51622371  0.64166813  0.48163779  1
  Co  Co126  1  0.65620219  0.67259242  0.37899777  1
  Co  Co127  1  0.45882309  0.89008525  -0.06522623  1
  Co  Co128  1  0.37411563  0.92368466  0.52694354  1
  Co  Co129  1  -0.04810644  0.01498389  0.28757657  1
  Co  Co130  1  0.37571677  0.02840291  0.66176161  1
  Co  Co131  1  0.15249861  0.03056876  0.90194832  1
  Co  Co132  1  0.93385498  0.49321379  0.40098428  1
  Co  Co133  1  0.85110928  0.89936001  0.33933743  1
  Co  Co134  1  0.70204985  0.68220155  -0.06264828  1
  Co  Co135  1  -0.02916694  0.09913781  0.54359226  1
  Co  Co136  1  0.21966623  0.12486096  0.21871199  1
  Co  Co137  1  0.07898719  0.80205759  0.02368845  1
  Co  Co138  1  0.42790522  0.61362240  0.81977882  1
  Co  Co139  1  0.82824426  0.68034050  0.20910625  1
  Co  Co140  1  0.84924150  0.01293332  0.45253358  1
  Co  Co141  1  0.09229458  -0.01125772  0.20717283  1
  Co  Co142  1  0.38880145  0.68506331  0.38289834  1
  Co  Co143  1  0.04977764  0.25856296  0.35039590  1
  Co  Co144  1  0.82453536  0.25376306  0.28737606  1
  Co  Co145  1  0.12297179  0.37905288  0.13004197  1
  Co  Co146  1  0.31275617  0.00589104  0.89875729  1
  Co  Co147  1  0.16353215  0.49178688  0.03315289  1
  Co  Co148  1  0.53736234  0.77743356  0.26820224  1
  Co  Co149  1  0.28621425  0.46187858  0.14983298  1
  Co  Co150  1  0.18011907  0.22662646  0.04532915  1
  Co  Co151  1  0.44218347  0.50465990  0.40016076  1
  Co  Co152  1  0.17486030  0.00797053  0.46790033  1
  Co  Co153  1  0.49862387  0.07039574  0.12483611  1
  Co  Co154  1  0.06503868  0.35203978  -0.03511743  1
  Co  Co155  1  0.62845540  0.61716825  0.72263989  1
  Co  Co156  1  0.62699864  0.85298801  0.15420864  1
  Co  Co157  1  0.10028314  0.88776791  0.57369251  1
  Co  Co158  1  0.05070733  0.90291673  0.89925824  1
  Co  Co159  1  0.24823704  0.59125355  0.82864619  1
  Co  Co160  1  0.82025288  0.28369751  0.45405483  1
  Co  Co161  1  0.43653583  0.14071324  0.33719726  1
  Ni  Ni162  1  0.06715123  0.13355135  0.78528227  1
  Ni  Ni163  1  0.67947713  0.19479920  0.24131632  1
  Ni  Ni164  1  0.42185800  0.34218855  -0.03987220  1
  Ni  Ni165  1  0.12096625  0.53142992  0.19816784  1
  Ni  Ni166  1  0.25883312  0.62599739  0.15727894  1
  Ni  Ni167  1  0.36755435  -0.00411833  0.04996837  1
  Ni  Ni168  1  0.38995665  0.37640667  0.68922404  1
  Ni  Ni169  1  -0.06542927  -0.05011762  0.60267641  1
  Ni  Ni170  1  0.57357154  0.37790836  0.88302849  1
  Ni  Ni171  1  0.31055925  0.75512318  0.06579901  1
  Ni  Ni172  1  -0.08429935  0.41497325  0.62892497  1
  Ni  Ni173  1  0.25562006  0.11136248  0.57979663  1
  Ni  Ni174  1  0.22355089  0.71456681  0.93861764  1
  Ni  Ni175  1  0.31337003  0.88922131  0.17232343  1
  Ni  Ni176  1  0.64410953  0.03949682  0.71588870  1
  Ni  Ni177  1  0.66931693  0.30152102  0.37011599  1
  Ni  Ni178  1  0.10576723  0.78824316  0.70686894  1
  Ni  Ni179  1  0.88368839  0.39246330  0.16917249  1
  Ni  Ni180  1  0.87019344  0.68678737  0.54739642  1
  Ni  Ni181  1  0.18023710  0.67159137  0.44040681  1
  Ni  Ni182  1  0.59549290  0.37575471  0.51100869  1
  Ni  Ni183  1  0.52140188  0.70410387  0.11775912  1
  Ni  Ni184  1  0.78401363  0.78377342  0.66168975  1
  Ni  Ni185  1  0.77199793  0.16175174  -0.03910666  1
  Ni  Ni186  1  0.20539289  0.90378485  0.80099088  1
  Ni  Ni187  1  -0.01531103  0.66421071  -0.00519684  1
  Ni  Ni188  1  0.64060359  0.49184696  0.61478788  1
  Ni  Ni189  1  0.48012340  0.26379789  0.58578522  1
  Ni  Ni190  1  -0.03459536  0.67927518  0.68738835  1
  Ni  Ni191  1  0.59414756  -0.03267614  0.02542157  1
  Ni  Ni192  1  0.64910241  0.86512364  0.71346492  1
  Ni  Ni193  1  0.51339459  0.48037252  0.75124908  1
  Ni  Ni194  1  0.13680249  0.22064001  0.66511757  1
  Ni  Ni195  1  0.85842898  0.70868560  -0.09733940  1
  Ni  Ni196  1  0.16712963  0.56394639  0.57230846  1
  Ni  Ni197  1  0.75195184  -0.04600486  0.11422247  1
  Ni  Ni198  1  0.92293987  0.44553665  -0.06528723  1
  Ni  Ni199  1  0.04605755  0.85133084  0.28472649  1
  Ni  Ni200  1  0.89437748  -0.03637335  0.85746875  1
  Ni  Ni201  1  0.20936470  0.25701441  0.34753136  1
  Ni  Ni202  1  0.06800580  0.12707096  0.12136301  1
  Ni  Ni203  1  0.46477875  0.50165751  -0.04170472  1
  Ni  Ni204  1  0.67284503  0.85897890  0.54641390  1
  Ni  Ni205  1  0.63917918  0.02972716  0.21746736  1
  Ni  Ni206  1  0.54580077  -0.03913141  0.46941231  1
  Ni  Ni207  1  0.77013130  0.07901966  0.81648633  1
  Ni  Ni208  1  0.66434789  0.27950857  -0.00603598  1
  Ni  Ni209  1  0.26756514  0.42831921  0.56987787  1
  Ni  Ni210  1  -0.08543726  0.13268165  -0.12229239  1
  Ni  Ni211  1  0.51343350  0.21910890  0.02857606  1
  Ni  Ni212  1  0.72306212  0.30864798  0.83347108  1
  Ni  Ni213  1  0.24243904  0.76002755  0.30843802  1
  Ni  Ni214  1  0.56117301  0.75896731  0.61941621  1
