# generated using pymatgen
data_Ti108Co54Ni53
_symmetry_space_group_name_H-M   'P 1'
_cell_length_a   14.67757082
_cell_length_b   14.64692911
_cell_length_c   14.68673750
_cell_angle_alpha   90.11530108
_cell_angle_beta   90.25012508
_cell_angle_gamma   90.29552989
_symmetry_Int_Tables_number   1
_chemical_formula_structural   Ti108Co54Ni53
_chemical_formula_sum   'Ti108 Co54 Ni53'
_cell_volume   3157.29587558
_cell_formula_units_Z   1
loop_
 _symmetry_equiv_pos_site_id
 _symmetry_equiv_pos_as_xyz
  1  'x, y, z'
loop_
 _atom_site_type_symbol
 _atom_site_label
 _atom_site_symmetry_multiplicity
 _atom_site_fract_x
 _atom_site_fract_y
 _atom_site_fract_z
 _atom_site_occupancy
  Ti  Ti0  1  0.11381724  0.02983759  0.23964856  1
  Ti  Ti1  1  0.07480212  0.13972431  0.63165589  1
  Ti  Ti2  1  0.06424439  0.02592768  0.86830198  1
  Ti  Ti3  1  0.05897441  0.49434787  0.31853908  1
  Ti  Ti4  1  0.07798843  0.45087070  0.54122425  1
  Ti  Ti5  1  0.12183211  0.43355544  0.95860714  1
  Ti  Ti6  1  0.10193513  0.68436300  0.24704968  1
  Ti  Ti7  1  0.12768841  0.78527590  0.60991211  1
  Ti  Ti8  1  0.11770658  0.83573319  0.91938621  1
  Ti  Ti9  1  0.47205392  0.02880586  0.33120975  1
  Ti  Ti10  1  0.42346322  0.10119906  0.49444657  1
  Ti  Ti11  1  0.35694814  0.07930894  0.91032565  1
  Ti  Ti12  1  0.47005148  0.38392466  0.27238830  1
  Ti  Ti13  1  0.35720996  0.44379969  0.59619157  1
  Ti  Ti14  1  0.45265205  0.40409624  0.85564109  1
  Ti  Ti15  1  0.38068282  0.69406666  0.21009171  1
  Ti  Ti16  1  0.40445181  0.71750651  0.52877050  1
  Ti  Ti17  1  0.42191688  0.78715435  0.90141014  1
  Ti  Ti18  1  0.73400513  0.16226774  0.19460987  1
  Ti  Ti19  1  0.79389735  0.05535589  0.60048435  1
  Ti  Ti20  1  0.77662856  0.03599045  0.86708993  1
  Ti  Ti21  1  0.71781044  0.45341719  0.24501929  1
  Ti  Ti22  1  0.72643892  0.52240349  0.58850280  1
  Ti  Ti23  1  0.83034306  0.40136318  0.96612771  1
  Ti  Ti24  1  0.73661582  0.76486570  0.33320341  1
  Ti  Ti25  1  0.70546660  0.71285250  0.54815229  1
  Ti  Ti26  1  0.73216359  0.70056396  0.88367401  1
  Ti  Ti27  1  0.05412963  0.17261500  0.03401347  1
  Ti  Ti28  1  0.06660032  0.22836448  0.43917383  1
  Ti  Ti29  1  0.06054673  0.22524165  0.82106660  1
  Ti  Ti30  1  0.08620005  0.59715932  0.06640124  1
  Ti  Ti31  1  0.04803333  0.67030311  0.47212254  1
  Ti  Ti32  1  0.08161786  0.50300733  0.74530846  1
  Ti  Ti33  1  0.10166566  0.97158660  0.05192255  1
  Ti  Ti34  1  0.07075947  0.98902308  0.43349414  1
  Ti  Ti35  1  0.05233335  0.93560522  0.71159129  1
  Ti  Ti36  1  0.40757524  0.19327168  0.07688852  1
  Ti  Ti37  1  0.43921712  0.30476818  0.47429960  1
  Ti  Ti38  1  0.49054819  0.31402324  0.67987318  1
  Ti  Ti39  1  0.45407928  0.64078106  0.03014580  1
  Ti  Ti40  1  0.45699346  0.50786502  0.42997864  1
  Ti  Ti41  1  0.44683480  0.62549763  0.78912940  1
  Ti  Ti42  1  0.38351028  0.91083586  0.19181958  1
  Ti  Ti43  1  0.47912181  0.90427524  0.48256832  1
  Ti  Ti44  1  0.37360526  0.92656618  0.78282631  1
  Ti  Ti45  1  0.71487819  0.24364155  -0.02040101  1
  Ti  Ti46  1  0.72562745  0.20174003  0.39550326  1
  Ti  Ti47  1  0.72321656  0.21609519  0.71912111  1
  Ti  Ti48  1  0.87439996  0.58968529  0.02285000  1
  Ti  Ti49  1  0.81271493  0.59771333  0.42632659  1
  Ti  Ti50  1  0.78673803  0.52683134  0.77879049  1
  Ti  Ti51  1  0.73101075  0.90748014  0.02342165  1
  Ti  Ti52  1  0.77698990  0.95731289  0.31027379  1
  Ti  Ti53  1  0.75617221  0.85760216  0.76410306  1
  Ti  Ti54  1  0.25193167  0.08052148  0.09831008  1
  Ti  Ti55  1  0.22964929  0.08871165  0.52237372  1
  Ti  Ti56  1  0.23124873  0.05807869  0.72808175  1
  Ti  Ti57  1  0.34600352  0.47479958  0.10465136  1
  Ti  Ti58  1  0.23117630  0.39742369  0.45932753  1
  Ti  Ti59  1  0.28175661  0.50854935  0.78641754  1
  Ti  Ti60  1  0.26086856  0.71545396  0.03817056  1
  Ti  Ti61  1  0.24072773  0.71578305  0.36825602  1
  Ti  Ti62  1  0.28638441  0.73011044  0.72405552  1
  Ti  Ti63  1  0.55854130  0.05366206  0.13898345  1
  Ti  Ti64  1  0.64609599  0.02374371  0.45687226  1
  Ti  Ti65  1  0.51902551  0.09588393  0.78048796  1
  Ti  Ti66  1  0.54369122  0.47072312  0.05356365  1
  Ti  Ti67  1  0.62045135  0.37167071  0.42110265  1
  Ti  Ti68  1  0.63176941  0.42629537  0.71806313  1
  Ti  Ti69  1  0.60403901  0.77384588  0.04354515  1
  Ti  Ti70  1  0.55919694  0.69604288  0.39380423  1
  Ti  Ti71  1  0.57310405  0.77339517  0.73383101  1
  Ti  Ti72  1  0.83707506  0.10534830  0.05080438  1
  Ti  Ti73  1  0.88710060  0.06729381  0.42791316  1
  Ti  Ti74  1  0.92149978  0.08789171  0.74206914  1
  Ti  Ti75  1  0.92291313  0.43022493  0.13256506  1
  Ti  Ti76  1  0.81211449  0.39651762  0.45894873  1
  Ti  Ti77  1  0.93969992  0.39432664  0.78829985  1
  Ti  Ti78  1  0.95629159  0.73682954  0.12289194  1
  Ti  Ti79  1  0.97211816  0.81815664  0.34283910  1
  Ti  Ti80  1  0.94417557  0.75418881  0.68150248  1
  Ti  Ti81  1  0.26971896  0.21281133  0.26600675  1
  Ti  Ti82  1  0.30794682  0.24664870  0.60716764  1
  Ti  Ti83  1  0.27374026  0.25589037  0.89712679  1
  Ti  Ti84  1  0.29135583  0.52315737  0.30960616  1
  Ti  Ti85  1  0.19905255  0.57650053  0.60634955  1
  Ti  Ti86  1  0.14152339  0.62997394  0.88473541  1
  Ti  Ti87  1  0.26041176  0.93122068  0.34365402  1
  Ti  Ti88  1  0.28772119  0.90002402  0.59372840  1
  Ti  Ti89  1  0.29185750  0.90466102  1.01088567  1
  Ti  Ti90  1  0.53248311  0.20171527  0.25222028  1
  Ti  Ti91  1  0.61310578  0.18642394  0.56942064  1
  Ti  Ti92  1  0.53198072  0.26938137  0.95456313  1
  Ti  Ti93  1  0.60534980  0.62499393  0.19057913  1
  Ti  Ti94  1  0.54362086  0.60103971  0.60891605  1
  Ti  Ti95  1  0.58750002  0.54138647  0.87377137  1
  Ti  Ti96  1  0.59093745  0.89948952  0.29131734  1
  Ti  Ti97  1  0.65173065  0.90553240  0.60800277  1
  Ti  Ti98  1  0.53224048  0.95128947  0.94113212  1
  Ti  Ti99  1  0.86087992  0.31309313  0.28567776  1
  Ti  Ti100  1  0.94907454  0.32554320  0.56506239  1
  Ti  Ti101  1  0.84625257  0.23494097  0.85639463  1
  Ti  Ti102  1  0.81851239  0.61460856  0.21596115  1
  Ti  Ti103  1  0.91187685  0.53237032  0.62812318  1
  Ti  Ti104  1  0.92306367  0.65795383  0.83617737  1
  Ti  Ti105  1  0.88027603  0.93964675  0.14176552  1
  Ti  Ti106  1  0.96017307  0.85233489  0.52498737  1
  Ti  Ti107  1  0.89491657  0.88499761  0.90780772  1
  Co  Co108  1  0.16303837  0.56742726  0.42060227  1
  Co  Co109  1  0.05698382  0.33095268  0.68784905  1
  Co  Co110  1  -0.06309043  0.15308353  0.55803030  1
  Co  Co111  1  0.20421869  0.40724820  0.65044590  1
  Co  Co112  1  0.60016984  0.20515935  0.09497850  1
  Co  Co113  1  -0.01373672  0.37098412  0.39802681  1
  Co  Co114  1  0.57409874  0.50424012  0.31825036  1
  Co  Co115  1  0.26518409  0.23046662  0.44141500  1
  Co  Co116  1  0.64045850  0.07028002  0.30178934  1
  Co  Co117  1  0.14669138  0.83981020  0.46010042  1
  Co  Co118  1  0.40955482  0.21087404  0.35064182  1
  Co  Co119  1  0.20195200  0.87664224  0.73821705  1
  Co  Co120  1  -0.04723391  -0.00258287  0.57888616  1
  Co  Co121  1  0.26251296  0.80118710  0.86834662  1
  Co  Co122  1  0.64938402  0.85260548  0.44108900  1
  Co  Co123  1  0.55584433  0.77363396  0.55844793  1
  Co  Co124  1  0.24064757  0.71159964  0.53159642  1
  Co  Co125  1  0.12829221  0.84936852  0.30332260  1
  Co  Co126  1  0.64964995  0.35827526  0.08010608  1
  Co  Co127  1  0.71572228  -0.00047346  0.16260299  1
  Co  Co128  1  0.87460104  0.67476307  0.55482554  1
  Co  Co129  1  0.31481052  0.56697769  0.47576028  1
  Co  Co130  1  0.62415925  0.54860265  0.47000944  1
  Co  Co131  1  0.04184570  0.62423497  0.63653470  1
  Co  Co132  1  0.75622791  0.36300295  0.81658522  1
  Co  Co133  1  0.12161808  0.78332987  0.08166580  1
  Co  Co134  1  0.24310448  0.77387550  0.20605156  1
  Co  Co135  1  0.65309977  0.85083307  0.88874665  1
  Co  Co136  1  0.88724314  -0.06621547  0.72360413  1
  Co  Co137  1  0.24673891  0.55351787  0.00469923  1
  Co  Co138  1  0.33111054  0.35534225  0.34349977  1
  Co  Co139  1  0.56439218  -0.06916289  0.77259443  1
  Co  Co140  1  0.74458111  0.49467192  0.08899813  1
  Co  Co141  1  0.52061635  0.11093912  -0.03042281  1
  Co  Co142  1  0.74992363  0.53752382  -0.07245072  1
  Co  Co143  1  0.64040880  0.61528825  0.73604310  1
  Co  Co144  1  0.69391968  0.83935724  0.18116720  1
  Co  Co145  1  -0.00653768  0.82453105  0.81701621  1
  Co  Co146  1  0.66656869  0.33895870  0.57472150  1
  Co  Co147  1  0.14959516  0.27316572  0.56359472  1
  Co  Co148  1  -0.02272420  0.57163886  0.18362538  1
  Co  Co149  1  0.32077496  0.83455793  0.45425295  1
  Co  Co150  1  0.37125926  0.03158232  0.64548069  1
  Co  Co151  1  0.46107767  0.48127020  0.71468683  1
  Co  Co152  1  0.40429334  0.65478243  0.36594798  1
  Co  Co153  1  0.65647163  0.14136281  0.86141473  1
  Co  Co154  1  0.13265404  -0.03495474  0.58066680  1
  Co  Co155  1  0.20646781  -0.08172500  0.16330504  1
  Co  Co156  1  0.39984189  0.51937780  -0.05269777  1
  Co  Co157  1  0.75527455  0.71285279  0.10836262  1
  Co  Co158  1  0.27604057  0.41633339  0.91640016  1
  Co  Co159  1  0.68788526  0.60892033  0.33254930  1
  Co  Co160  1  0.64620463  0.40017329  0.92208464  1
  Co  Co161  1  0.54843750  -0.09505017  0.11528190  1
  Ni  Ni162  1  0.16225070  0.36548714  0.81064333  1
  Ni  Ni163  1  0.53777785  0.43638592  0.56305931  1
  Ni  Ni164  1  0.03038538  0.87826359  0.18247134  1
  Ni  Ni165  1  -0.05458341  0.13351555  0.91653567  1
  Ni  Ni166  1  0.42399160  0.80565091  0.06835866  1
  Ni  Ni167  1  0.55928101  0.17420150  0.41433441  1
  Ni  Ni168  1  0.45973964  0.87729619  0.64765992  1
  Ni  Ni169  1  -0.00704712  0.32793260  -0.06457337  1
  Ni  Ni170  1  -0.01800557  0.07816835  0.15324518  1
  Ni  Ni171  1  0.49630557  0.32786755  0.12576867  1
  Ni  Ni172  1  0.41221960  0.01588840  0.05974666  1
  Ni  Ni173  1  0.19839379  0.22926314  0.72607631  1
  Ni  Ni174  1  0.88569926  0.47911400  0.30965415  1
  Ni  Ni175  1  0.89739501  0.25581504  0.03861921  1
  Ni  Ni176  1  0.45310586  0.54569644  0.22029608  1
  Ni  Ni177  1  0.31174763  0.64784354  -0.11624055  1
  Ni  Ni178  1  0.85316637  0.80258741  0.22805415  1
  Ni  Ni179  1  0.67590535  0.07137875  0.01318490  1
  Ni  Ni180  1  0.64024594  0.61411890  0.02298802  1
  Ni  Ni181  1  -0.04999038  0.64207397  0.32981834  1
  Ni  Ni182  1  0.10757230  0.72511047  0.76224781  1
  Ni  Ni183  1  0.23347820  0.60394885  0.16722730  1
  Ni  Ni184  1  0.84805990  0.75620092  -0.01229908  1
  Ni  Ni185  1  0.31374542  0.08200147  0.36727898  1
  Ni  Ni186  1  0.80939091  0.38436825  0.65461655  1
  Ni  Ni187  1  0.90360562  0.24499289  0.69845847  1
  Ni  Ni188  1  0.42621091  0.83083493  0.33295189  1
  Ni  Ni189  1  -0.01221321  0.52225956  0.91464650  1
  Ni  Ni190  1  -0.04804141  0.52160090  0.45962322  1
  Ni  Ni191  1  0.36558698  0.60392433  0.64051176  1
  Ni  Ni192  1  0.54453110  0.02819052  0.62053390  1
  Ni  Ni193  1  0.89019068  0.23677229  0.42571392  1
  Ni  Ni194  1  0.18608394  0.11493177  -0.05656850  1
  Ni  Ni195  1  0.52832504  0.77057524  0.20641164  1
  Ni  Ni196  1  0.79451714  -0.07015388  0.47852566  1
  Ni  Ni197  1  0.00929272  0.71736398  -0.03516718  1
  Ni  Ni198  1  0.38261220  0.09458622  0.21062252  1
  Ni  Ni199  1  0.35761584  0.17435000  0.76781363  1
  Ni  Ni200  1  0.79019205  0.32408633  0.13468560  1
  Ni  Ni201  1  -0.04750322  0.00160140  0.00174420  1
  Ni  Ni202  1  0.78953565  0.23232931  0.55925603  1
  Ni  Ni203  1  -0.04389646  -0.01681545  0.29431972  1
  Ni  Ni204  1  0.38750289  0.34731702  0.00589083  1
  Ni  Ni205  1  0.22371995  -0.03101062  0.87594302  1
  Ni  Ni206  1  0.32802641  0.34496661  0.75344967  1
  Ni  Ni207  1  0.81235751  0.82996019  0.60509697  1
  Ni  Ni208  1  0.45742617  0.16751144  0.63687833  1
  Ni  Ni209  1  0.65808864  0.30509539  0.24651980  1
  Ni  Ni210  1  0.68320757  0.04009402  0.72511943  1
  Ni  Ni211  1  0.15961345  0.12066825  0.36565615  1
  Ni  Ni212  1  0.56449597  0.70246502  0.89174919  1
  Ni  Ni213  1  0.78765345  0.68523849  0.70572847  1
  Ni  Ni214  1  0.59917527  0.28673855  0.80594863  1
