# generated using pymatgen
data_Ti108Co54Ni53
_symmetry_space_group_name_H-M   'P 1'
_cell_length_a   14.63764591
_cell_length_b   14.62654696
_cell_length_c   14.64578690
_cell_angle_alpha   89.89673773
_cell_angle_beta   89.69599994
_cell_angle_gamma   90.12869171
_symmetry_Int_Tables_number   1
_chemical_formula_structural   Ti108Co54Ni53
_chemical_formula_sum   'Ti108 Co54 Ni53'
_cell_volume   3135.57962916
_cell_formula_units_Z   1
loop_
 _symmetry_equiv_pos_site_id
 _symmetry_equiv_pos_as_xyz
  1  'x, y, z'
loop_
 _atom_site_type_symbol
 _atom_site_label
 _atom_site_symmetry_multiplicity
 _atom_site_fract_x
 _atom_site_fract_y
 _atom_site_fract_z
 _atom_site_occupancy
  Ti  Ti0  1  0.08006607  0.12028456  0.20123413  1
  Ti  Ti1  1  0.04986911  0.08332663  0.68538099  1
  Ti  Ti2  1  0.09339283  0.11260708  0.88972337  1
  Ti  Ti3  1  0.10592973  0.55043012  0.20042837  1
  Ti  Ti4  1  0.10912140  0.46743270  0.56705346  1
  Ti  Ti5  1  0.14096194  0.41843691  0.91243959  1
  Ti  Ti6  1  0.11421682  0.76487670  0.15255298  1
  Ti  Ti7  1  0.02652775  0.74857137  0.61579023  1
  Ti  Ti8  1  0.07245880  0.76581695  0.95841916  1
  Ti  Ti9  1  0.42416913  0.11357170  0.26736925  1
  Ti  Ti10  1  0.35795824  0.08665904  0.47548962  1
  Ti  Ti11  1  0.41082964  0.11292912  0.95331346  1
  Ti  Ti12  1  0.34103039  0.42882192  0.25405610  1
  Ti  Ti13  1  0.37079934  0.43818951  0.58365257  1
  Ti  Ti14  1  0.45323675  0.45834118  0.90700537  1
  Ti  Ti15  1  0.48872088  0.73636308  0.24163210  1
  Ti  Ti16  1  0.40078198  0.78211820  0.54563127  1
  Ti  Ti17  1  0.46487436  0.79933753  0.88149764  1
  Ti  Ti18  1  0.70435932  -0.02679867  0.25334666  1
  Ti  Ti19  1  0.68450501  0.13723055  0.61480582  1
  Ti  Ti20  1  0.82187591  0.18089371  0.90435705  1
  Ti  Ti21  1  0.77465707  0.46586669  0.24488762  1
  Ti  Ti22  1  0.68332727  0.35585144  0.60981495  1
  Ti  Ti23  1  0.72344654  0.34553021  0.84851559  1
  Ti  Ti24  1  0.84169053  0.77560027  0.28121787  1
  Ti  Ti25  1  0.70325161  0.69896941  0.56085262  1
  Ti  Ti26  1  0.75408743  0.66820978  0.86746162  1
  Ti  Ti27  1  0.07695697  0.33138391  0.13962648  1
  Ti  Ti28  1  0.07807437  0.20295943  0.48651502  1
  Ti  Ti29  1  0.05682333  0.31067365  0.74538824  1
  Ti  Ti30  1  0.02127896  0.57726762  0.01236832  1
  Ti  Ti31  1  0.10789401  0.60749858  0.39486913  1
  Ti  Ti32  1  0.06496625  0.58116488  0.70646992  1
  Ti  Ti33  1  0.10828468  0.94109543  0.22388534  1
  Ti  Ti34  1  0.12111360  0.90615913  0.44578720  1
  Ti  Ti35  1  0.09846836  0.89325397  0.70882833  1
  Ti  Ti36  1  0.47328481  0.29701346  0.02750460  1
  Ti  Ti37  1  0.36666508  0.26911351  0.36419623  1
  Ti  Ti38  1  0.34125442  0.21997393  0.77495944  1
  Ti  Ti39  1  0.41131269  0.63311375  0.07557607  1
  Ti  Ti40  1  0.38793237  0.61440511  0.36764516  1
  Ti  Ti41  1  0.41603009  0.55451515  0.74348592  1
  Ti  Ti42  1  0.40212303  0.95687250  0.13010299  1
  Ti  Ti43  1  0.48339624  0.93289794  0.45189723  1
  Ti  Ti44  1  0.46942204  0.88447972  0.71213393  1
  Ti  Ti45  1  0.67624005  0.25501290  0.03245018  1
  Ti  Ti46  1  0.71677599  0.26200748  0.36244962  1
  Ti  Ti47  1  0.82649037  0.27061562  0.70963592  1
  Ti  Ti48  1  0.77153105  0.57289510  0.05082205  1
  Ti  Ti49  1  0.73885012  0.62088723  0.38888841  1
  Ti  Ti50  1  0.70572472  0.55142168  0.71543897  1
  Ti  Ti51  1  0.82340706  0.89633118  0.10213223  1
  Ti  Ti52  1  0.81920240  0.92078119  0.40136623  1
  Ti  Ti53  1  0.77076871  0.93370010  0.68843616  1
  Ti  Ti54  1  0.22137085  0.05302869  0.04810780  1
  Ti  Ti55  1  0.21762791  0.07342312  0.34328776  1
  Ti  Ti56  1  0.34785727  0.01177614  0.78913872  1
  Ti  Ti57  1  0.32012948  0.44361789  0.03340603  1
  Ti  Ti58  1  0.23696092  0.39158487  0.44641688  1
  Ti  Ti59  1  0.23456891  0.39631937  0.71275771  1
  Ti  Ti60  1  0.29450906  0.77566559  -0.00252915  1
  Ti  Ti61  1  0.24717030  0.73770268  0.43990415  1
  Ti  Ti62  1  0.20127413  0.73616717  0.75381527  1
  Ti  Ti63  1  0.68339235  0.06362555  0.06130145  1
  Ti  Ti64  1  0.58087069  0.11177756  0.39043654  1
  Ti  Ti65  1  0.51495394  0.08673835  0.72548927  1
  Ti  Ti66  1  0.63178555  0.41958853  0.11559000  1
  Ti  Ti67  1  0.58314417  0.40368654  0.45419100  1
  Ti  Ti68  1  0.57196942  0.43019934  0.77387221  1
  Ti  Ti69  1  0.62619968  0.70674832  0.09416653  1
  Ti  Ti70  1  0.63555143  0.81688436  0.37896706  1
  Ti  Ti71  1  0.61823276  0.76135111  0.73937635  1
  Ti  Ti72  1  0.97481564  0.04839853  0.04740788  1
  Ti  Ti73  1  0.89835969  0.11465390  0.41971668  1
  Ti  Ti74  1  0.92188968  0.02788044  0.83855648  1
  Ti  Ti75  1  0.87439177  0.35187066  0.10251261  1
  Ti  Ti76  1  0.86992779  0.37092572  0.48545848  1
  Ti  Ti77  1  0.91534684  0.44205943  0.69469458  1
  Ti  Ti78  1  0.90371896  0.70534127  0.11005964  1
  Ti  Ti79  1  0.90301312  0.72725801  0.45139052  1
  Ti  Ti80  1  0.88550535  0.77455322  0.76151909  1
  Ti  Ti81  1  0.24866920  0.22084156  0.21270254  1
  Ti  Ti82  1  0.31345468  0.24971971  0.57702302  1
  Ti  Ti83  1  0.24284303  0.25652392  1.01644814  1
  Ti  Ti84  1  0.26990479  0.67563920  0.24032278  1
  Ti  Ti85  1  0.29359224  0.63497427  0.61897497  1
  Ti  Ti86  1  0.25166740  0.59704072  0.92260734  1
  Ti  Ti87  1  0.27313158  0.86848344  0.27353756  1
  Ti  Ti88  1  0.25520414  0.96234556  0.62228650  1
  Ti  Ti89  1  0.20118718  0.91874123  0.90110446  1
  Ti  Ti90  1  0.56870422  0.23840098  0.20334170  1
  Ti  Ti91  1  0.50011788  0.27070863  0.65660679  1
  Ti  Ti92  1  0.59710752  0.14553063  0.89121183  1
  Ti  Ti93  1  0.57268393  0.54124825  0.32255845  1
  Ti  Ti94  1  0.47127350  0.58554815  0.52909841  1
  Ti  Ti95  1  0.57946330  0.57028230  0.97358826  1
  Ti  Ti96  1  0.58986981  0.88821151  0.13489106  1
  Ti  Ti97  1  0.60346773  0.95839451  0.59058824  1
  Ti  Ti98  1  0.64442255  0.91240995  0.94020476  1
  Ti  Ti99  1  0.86463052  0.19784818  0.24298626  1
  Ti  Ti100  1  0.91300508  0.16961731  0.59271397  1
  Ti  Ti101  1  1.00408177  0.26812538  0.95185793  1
  Ti  Ti102  1  0.92038956  0.57671055  0.30353577  1
  Ti  Ti103  1  0.87316182  0.62086612  0.62374265  1
  Ti  Ti104  1  0.86844964  0.50467560  0.88994133  1
  Ti  Ti105  1  0.92536126  0.99329507  0.26402602  1
  Ti  Ti106  1  0.92919689  0.91790794  0.54668098  1
  Ti  Ti107  1  0.87640826  0.86018231  0.93002525  1
  Co  Co108  1  0.73809121  0.45436987  0.41216393  1
  Co  Co109  1  0.86583600  0.54923531  0.46100671  1
  Co  Co110  1  0.50759383  0.27871816  0.85014573  1
  Co  Co111  1  0.47778004  0.46941054  0.08260246  1
  Co  Co112  1  0.23242220  0.21391121  0.43222797  1
  Co  Co113  1  -0.09285547  0.68817910  -0.06003696  1
  Co  Co114  1  0.72505715  0.80112430  0.17759505  1
  Co  Co115  1  0.69363382  0.51227682  0.87655485  1
  Co  Co116  1  0.43991890  0.56295163  0.21773474  1
  Co  Co117  1  0.37170095  0.11372239  0.65105834  1
  Co  Co118  1  0.11160638  0.17876095  0.04935710  1
  Co  Co119  1  0.78757406  0.03408665  0.53416121  1
  Co  Co120  1  0.75924883  -0.00465180  0.85511138  1
  Co  Co121  1  0.77749560  0.62693924  0.20426160  1
  Co  Co122  1  0.64551203  0.38521852  0.29111197  1
  Co  Co123  1  0.10458122  0.21388906  0.32487427  1
  Co  Co124  1  0.73224555  0.83220837  0.83142590  1
  Co  Co125  1  0.40916995  0.37956501  0.74222132  1
  Co  Co126  1  0.69896172  0.14589109  0.20855240  1
  Co  Co127  1  0.41614188  -0.03047554  0.59454059  1
  Co  Co128  1  0.60862680  0.24362209  0.50220486  1
  Co  Co129  1  0.27471073  0.03785743  0.19786065  1
  Co  Co130  1  0.53584654  0.14822031  0.05574627  1
  Co  Co131  1  0.06201998  0.75263367  0.45890285  1
  Co  Co132  1  0.64637990  0.69721848  0.27223775  1
  Co  Co133  1  0.19965382  0.80334970  0.58421730  1
  Co  Co134  1  0.85140698  0.07610111  0.70056575  1
  Co  Co135  1  0.00457733  0.70780832  0.27796975  1
  Co  Co136  1  0.81618414  0.18671761  0.06669571  1
  Co  Co137  1  0.74083270  0.30057971  0.18419782  1
  Co  Co138  1  -0.02080469  0.42309666  -0.00096724  1
  Co  Co139  1  0.01506367  0.46490764  0.82910228  1
  Co  Co140  1  0.90004817  0.34246267  0.84615047  1
  Co  Co141  1  -0.05884359  -0.07953307  0.71109371  1
  Co  Co142  1  0.76503974  0.76107885  0.00724666  1
  Co  Co143  1  0.15094367  0.64388490  0.55834579  1
  Co  Co144  1  0.84829430  0.78854817  0.60420339  1
  Co  Co145  1  0.60000848  0.39151219  -0.04589187  1
  Co  Co146  1  0.82722841  0.02325261  -0.01019044  1
  Co  Co147  1  0.92573610  0.61423956  0.78542453  1
  Co  Co148  1  0.22577079  0.52136510  0.31832201  1
  Co  Co149  1  0.55931518  0.62015219  0.81984471  1
  Co  Co150  1  0.60840766  0.56548501  0.16616716  1
  Co  Co151  1  -0.03414205  0.20301461  0.11451152  1
  Co  Co152  1  0.27626396  0.54194812  0.15381426  1
  Co  Co153  1  0.14091180  0.78031224  0.31785316  1
  Co  Co154  1  0.00294965  0.59096492  0.53117351  1
  Co  Co155  1  0.53352239  0.45276401  0.62216545  1
  Co  Co156  1  0.14834846  0.47872130  0.05873995  1
  Co  Co157  1  0.22968376  0.37546183  0.14721253  1
  Co  Co158  1  0.98628314  0.86410097  0.35191853  1
  Co  Co159  1  0.35598394  0.78760347  0.15213088  1
  Co  Co160  1  0.04044519  0.75401679  0.79996424  1
  Co  Co161  1  0.75917711  0.08966137  0.35105184  1
  Ni  Ni162  1  0.41222568  0.64305206  -0.09649092  1
  Ni  Ni163  1  0.62287525  -0.04045272  0.76756959  1
  Ni  Ni164  1  0.27660571  0.55113025  0.47605742  1
  Ni  Ni165  1  0.77853177  0.22733013  0.51209156  1
  Ni  Ni166  1  0.36118001  -0.06432277  -0.03903349  1
  Ni  Ni167  1  0.37466998  -0.02377430  0.33239500  1
  Ni  Ni168  1  0.45182732  0.30736598  0.50206322  1
  Ni  Ni169  1  0.17990914  0.02765778  0.77365379  1
  Ni  Ni170  1  -0.02843651  0.85090020  0.17462639  1
  Ni  Ni171  1  -0.00597251  0.32774591  0.58903032  1
  Ni  Ni172  1  0.49952675  0.39968161  0.23707482  1
  Ni  Ni173  1  0.18176749  0.64465040  0.06591684  1
  Ni  Ni174  1  0.22453803  0.56063099  0.75671623  1
  Ni  Ni175  1  0.42828191  0.71861083  0.72403826  1
  Ni  Ni176  1  0.65979016  -0.02377613  0.42642249  1
  Ni  Ni177  1  0.35407378  0.31057089  -0.09222258  1
  Ni  Ni178  1  0.37560447  0.15239340  0.11215817  1
  Ni  Ni179  1  0.64419424  0.54324879  0.53214927  1
  Ni  Ni180  1  0.03533631  0.91076998  0.86708770  1
  Ni  Ni181  1  0.56441915  0.67690806  0.42816408  1
  Ni  Ni182  1  0.48069041  0.80072249  0.04697079  1
  Ni  Ni183  1  0.23541825  0.89400982  0.10254936  1
  Ni  Ni184  1  0.29834400  0.90884655  0.46738860  1
  Ni  Ni185  1  0.56164152  0.62248119  0.65762598  1
  Ni  Ni186  1  0.63689090  0.25545160  0.74146856  1
  Ni  Ni187  1  0.41464622  0.44582265  0.41151356  1
  Ni  Ni188  1  0.71956133  0.12778375  0.78003283  1
  Ni  Ni189  1  0.61537871  0.74570930  -0.07231454  1
  Ni  Ni190  1  0.02113593  0.04577008  0.52684472  1
  Ni  Ni191  1  0.55905388  0.05079425  0.18561766  1
  Ni  Ni192  1  0.15887847  0.30308192  0.59215704  1
  Ni  Ni193  1  0.18248212  0.06124806  0.50672315  1
  Ni  Ni194  1  0.76547417  0.41072891  -0.00403300  1
  Ni  Ni195  1  0.18950925  0.26993636  0.84762766  1
  Ni  Ni196  1  0.25799522  0.11733965  0.88679018  1
  Ni  Ni197  1  0.29734529  0.45084032  0.85247516  1
  Ni  Ni198  1  0.53187439  0.27079393  0.35957796  1
  Ni  Ni199  1  0.72628483  0.86487741  0.52970499  1
  Ni  Ni200  1  0.53013941  0.92798323  0.29023246  1
  Ni  Ni201  1  0.32129991  0.83990050  0.80599238  1
  Ni  Ni202  1  -0.08276759  0.52709142  0.14322131  1
  Ni  Ni203  1  0.18019209  0.35142662  0.30015296  1
  Ni  Ni204  1  0.08423754  -0.08022180  0.03497896  1
  Ni  Ni205  1  0.05061642  0.04800260  0.36555534  1
  Ni  Ni206  1  0.49749876  -0.01339161  0.87208932  1
  Ni  Ni207  1  0.09496822  0.61419530  0.86590736  1
  Ni  Ni208  1  -0.04450472  0.18871313  0.79005101  1
  Ni  Ni209  1  0.40430132  0.80215027  0.37013477  1
  Ni  Ni210  1  0.50913801  0.11286895  0.55194804  1
  Ni  Ni211  1  0.56469175  0.79087072  0.56505528  1
  Ni  Ni212  1  0.82846832  0.05591350  0.15462633  1
  Ni  Ni213  1  0.78806512  0.47804656  0.58471514  1
  Ni  Ni214  1  0.20610760  0.14403513  0.65475359  1
