# generated using pymatgen
data_Ti108Co54Ni53
_symmetry_space_group_name_H-M   'P 1'
_cell_length_a   14.63967779
_cell_length_b   14.65004633
_cell_length_c   14.64452540
_cell_angle_alpha   90.07959190
_cell_angle_beta   90.21301114
_cell_angle_gamma   89.60819201
_symmetry_Int_Tables_number   1
_chemical_formula_structural   Ti108Co54Ni53
_chemical_formula_sum   'Ti108 Co54 Ni53'
_cell_volume   3140.74197247
_cell_formula_units_Z   1
loop_
 _symmetry_equiv_pos_site_id
 _symmetry_equiv_pos_as_xyz
  1  'x, y, z'
loop_
 _atom_site_type_symbol
 _atom_site_label
 _atom_site_symmetry_multiplicity
 _atom_site_fract_x
 _atom_site_fract_y
 _atom_site_fract_z
 _atom_site_occupancy
  Ti  Ti0  1  0.03537421  0.06818590  0.28506202  1
  Ti  Ti1  1  0.05180985  0.06700533  0.60737796  1
  Ti  Ti2  1  0.14004710  0.08924129  0.96716240  1
  Ti  Ti3  1  0.03349228  0.48957260  0.26817756  1
  Ti  Ti4  1  0.17316888  0.37530999  0.57765690  1
  Ti  Ti5  1  0.13574182  0.52447445  0.93792146  1
  Ti  Ti6  1  0.08582555  0.71974862  0.24175300  1
  Ti  Ti7  1  0.11808504  0.71684496  0.59623986  1
  Ti  Ti8  1  0.18851986  0.72311294  0.93159535  1
  Ti  Ti9  1  0.39650228  0.02749749  0.26158488  1
  Ti  Ti10  1  0.46590002  0.01218790  0.64720801  1
  Ti  Ti11  1  0.48346219  0.10725972  0.93731052  1
  Ti  Ti12  1  0.39565814  0.35830879  0.25351532  1
  Ti  Ti13  1  0.46350666  0.37682044  0.61742212  1
  Ti  Ti14  1  0.39430834  0.40497379  0.85453581  1
  Ti  Ti15  1  0.41227671  0.80043234  0.33196399  1
  Ti  Ti16  1  0.46700583  0.81611559  0.56263048  1
  Ti  Ti17  1  0.37668341  0.76569373  0.90024648  1
  Ti  Ti18  1  0.69072874  0.18491882  0.17439396  1
  Ti  Ti19  1  0.72165191  0.03079499  0.58563231  1
  Ti  Ti20  1  0.76305341  0.05057515  0.89327253  1
  Ti  Ti21  1  0.84570034  0.40342299  0.26008174  1
  Ti  Ti22  1  0.78189891  0.36730002  0.57562680  1
  Ti  Ti23  1  0.74596090  0.42688991  0.92936096  1
  Ti  Ti24  1  0.75312352  0.78571756  0.24818928  1
  Ti  Ti25  1  0.76562575  0.71235296  0.62687189  1
  Ti  Ti26  1  0.80662274  0.68483775  0.92549926  1
  Ti  Ti27  1  0.01744205  0.23241165  0.06313399  1
  Ti  Ti28  1  0.14115303  0.23889380  0.39877687  1
  Ti  Ti29  1  0.15136056  0.23155731  0.72078200  1
  Ti  Ti30  1  0.03212380  0.56867094  0.08497737  1
  Ti  Ti31  1  0.01652592  0.64262443  0.43679354  1
  Ti  Ti32  1  0.06210187  0.50096559  0.66740259  1
  Ti  Ti33  1  0.03073447  0.97067343  0.09846907  1
  Ti  Ti34  1  0.14652319  0.88432108  0.44014370  1
  Ti  Ti35  1  0.05706721  0.90504067  0.72782095  1
  Ti  Ti36  1  0.35968444  0.27110910  0.06269217  1
  Ti  Ti37  1  0.39157988  0.19240469  0.35410024  1
  Ti  Ti38  1  0.37853646  0.24645835  0.74394548  1
  Ti  Ti39  1  0.40659672  0.51711320  0.03377628  1
  Ti  Ti40  1  0.41741992  0.45522347  0.41700405  1
  Ti  Ti41  1  0.37653755  0.53724752  0.72018421  1
  Ti  Ti42  1  0.39135330  0.92613680  0.03639503  1
  Ti  Ti43  1  0.43929835  0.96401228  0.43331659  1
  Ti  Ti44  1  0.40299250  0.95847627  0.84378768  1
  Ti  Ti45  1  0.79738565  0.21296552  0.01730013  1
  Ti  Ti46  1  0.74885848  0.25277207  0.36030984  1
  Ti  Ti47  1  0.71906583  0.28681383  0.78971448  1
  Ti  Ti48  1  0.80159906  0.55410550  0.05182474  1
  Ti  Ti49  1  0.73726165  0.55591943  0.48530201  1
  Ti  Ti50  1  0.70218257  0.63233038  0.78185495  1
  Ti  Ti51  1  0.80788764  0.99952104  0.07416639  1
  Ti  Ti52  1  0.76187768  0.99842085  0.40502047  1
  Ti  Ti53  1  0.74334343  0.84101592  0.83797042  1
  Ti  Ti54  1  0.25479266  0.05173820  0.12140800  1
  Ti  Ti55  1  0.26368725  0.07516831  0.40242990  1
  Ti  Ti56  1  0.27281282  0.11595891  0.82030951  1
  Ti  Ti57  1  0.15191081  0.39915970  0.09387977  1
  Ti  Ti58  1  0.19177283  0.44279151  0.39330833  1
  Ti  Ti59  1  0.20793123  0.42099635  0.79661162  1
  Ti  Ti60  1  0.23079952  0.81919378  0.09043306  1
  Ti  Ti61  1  0.22758006  0.71205444  0.39511354  1
  Ti  Ti62  1  0.30612189  0.72705455  0.67449858  1
  Ti  Ti63  1  0.60011487  0.02732015  0.07600418  1
  Ti  Ti64  1  0.57074955  0.11185229  0.45230293  1
  Ti  Ti65  1  0.61537066  0.12848946  0.74574814  1
  Ti  Ti66  1  0.56007999  0.37216345  0.12887143  1
  Ti  Ti67  1  0.60473229  0.39886555  0.45701303  1
  Ti  Ti68  1  0.55811786  0.46847963  0.79703118  1
  Ti  Ti69  1  0.62642995  0.83271911  0.09768760  1
  Ti  Ti70  1  0.60050684  0.69415531  0.49860817  1
  Ti  Ti71  1  0.53839671  0.72810007  0.82098443  1
  Ti  Ti72  1  0.94241625  0.08397159  -0.04491091  1
  Ti  Ti73  1  0.96762303  -0.00629491  0.43323616  1
  Ti  Ti74  1  0.91792200  0.11302085  0.74758385  1
  Ti  Ti75  1  0.91562184  0.40194369  0.07693189  1
  Ti  Ti76  1  0.90603996  0.46357535  0.44427342  1
  Ti  Ti77  1  0.88030613  0.44452293  0.74921513  1
  Ti  Ti78  1  0.88397710  0.71133272  0.11516068  1
  Ti  Ti79  1  0.82775944  0.71905967  0.45312710  1
  Ti  Ti80  1  0.91205528  0.77871456  0.76236878  1
  Ti  Ti81  1  0.21706732  0.30832409  0.24189213  1
  Ti  Ti82  1  0.30424047  0.23699338  0.55668590  1
  Ti  Ti83  1  0.17432870  0.27416730  0.92931056  1
  Ti  Ti84  1  0.23048641  0.55489194  0.21057213  1
  Ti  Ti85  1  0.31721357  0.61172724  0.53122452  1
  Ti  Ti86  1  0.17748854  0.61637641  0.77795272  1
  Ti  Ti87  1  0.17434761  0.94306449  0.25048464  1
  Ti  Ti88  1  0.29187901  0.96402552  0.55494734  1
  Ti  Ti89  1  0.21093518  0.92974637  0.87903722  1
  Ti  Ti90  1  0.56013498  0.25679505  0.31862171  1
  Ti  Ti91  1  0.62769340  0.24548698  0.58492674  1
  Ti  Ti92  1  0.52713253  0.28662708  0.91421027  1
  Ti  Ti93  1  0.66651735  0.52852295  0.29909946  1
  Ti  Ti94  1  0.60620060  0.54522193  0.62437768  1
  Ti  Ti95  1  0.62332391  0.59227470  0.95195021  1
  Ti  Ti96  1  0.59112969  0.95119077  0.30444767  1
  Ti  Ti97  1  0.62606666  0.88590768  0.66787136  1
  Ti  Ti98  1  0.58257473  0.95792847  0.83926517  1
  Ti  Ti99  1  0.95060203  0.22723133  0.28484736  1
  Ti  Ti100  1  0.91887259  0.22623263  0.56175233  1
  Ti  Ti101  1  0.92685447  0.32513957  0.89610407  1
  Ti  Ti102  1  0.85436804  0.60074158  0.31907675  1
  Ti  Ti103  1  0.91847460  0.59622482  0.59864428  1
  Ti  Ti104  1  0.98842928  0.65274210  0.90735207  1
  Ti  Ti105  1  0.88596324  0.93846816  0.23541272  1
  Ti  Ti106  1  0.87728920  0.88002913  0.54348251  1
  Ti  Ti107  1  0.92807498  0.86707535  0.95852862  1
  Co  Co108  1  0.88578255  0.30219756  0.42436662  1
  Co  Co109  1  0.15533368  0.57517676  0.51246448  1
  Co  Co110  1  0.68958321  0.68308188  0.36038552  1
  Co  Co111  1  0.48101077  0.23314171  0.17935462  1
  Co  Co112  1  0.45774907  0.10819164  0.77954378  1
  Co  Co113  1  0.24442584  0.53938397  0.04910464  1
  Co  Co114  1  0.74050126  0.16779090  0.49682580  1
  Co  Co115  1  0.03142864  -0.10881292  0.30521215  1
  Co  Co116  1  0.35720341  0.23264154  0.90554480  1
  Co  Co117  1  0.84027151  0.19749740  -0.13853997  1
  Co  Co118  1  0.86120554  0.12924608  0.39726617  1
  Co  Co119  1  0.19398353  0.22170967  0.10145145  1
  Co  Co120  1  0.22936017  0.10509360  0.61039813  1
  Co  Co121  1  0.75782391  0.41850388  0.39904628  1
  Co  Co122  1  0.67807716  0.10979997  0.32609000  1
  Co  Co123  1  0.90781830  0.50423113  -0.06748479  1
  Co  Co124  1  0.77860375  0.53084691  0.64375213  1
  Co  Co125  1  0.00637111  0.16441431  0.43992131  1
  Co  Co126  1  0.05310628  0.81660027  0.87238247  1
  Co  Co127  1  0.54294476  0.28756968  0.75164719  1
  Co  Co128  1  0.69955944  0.68953287  0.06891939  1
  Co  Co129  1  0.09038454  0.10901740  0.13794075  1
  Co  Co130  1  0.88578000  -0.05301211  0.82300846  1
  Co  Co131  1  0.51984219  0.87326962  -0.03730519  1
  Co  Co132  1  0.11914957  0.89305921  0.00075322  1
  Co  Co133  1  0.31393465  0.44504574  0.53983426  1
  Co  Co134  1  0.64043335  0.39021447  0.65388757  1
  Co  Co135  1  0.04197240  -0.01247060  -0.12038554  1
  Co  Co136  1  0.15617020  0.77425032  0.76393596  1
  Co  Co137  1  0.87377165  0.07287625  0.54868446  1
  Co  Co138  1  0.02273763  0.51413769  0.81996217  1
  Co  Co139  1  0.29750095  -0.00143683  0.71587105  1
  Co  Co140  1  0.33274153  0.18119965  0.19924281  1
  Co  Co141  1  0.55965461  0.55344860  0.42924028  1
  Co  Co142  1  0.04506739  0.40237561  -0.02822265  1
  Co  Co143  1  0.22790014  0.53333358  0.65101236  1
  Co  Co144  1  0.31577970  0.42388051  0.13567993  1
  Co  Co145  1  0.30310989  0.37340189  0.68287514  1
  Co  Co146  1  0.54742714  0.09821481  0.23271352  1
  Co  Co147  1  0.74790698  0.61955257  0.19949036  1
  Co  Co148  1  0.56990424  0.18861377  0.06029489  1
  Co  Co149  1  0.05060304  0.17732493  0.85742312  1
  Co  Co150  1  -0.09943130  0.54146715  0.17907378  1
  Co  Co151  1  0.13787666  0.58777798  0.34670076  1
  Co  Co152  1  0.95665369  0.75004321  0.59629050  1
  Co  Co153  1  0.71580839  0.46924163  0.77618990  1
  Co  Co154  1  0.23216331  0.78826478  0.26029273  1
  Co  Co155  1  0.02567056  0.66786932  0.73188450  1
  Co  Co156  1  0.76908530  0.17694134  0.66162465  1
  Co  Co157  1  0.02922631  0.35658441  0.36411139  1
  Co  Co158  1  0.46289738  0.53041341  0.55824483  1
  Co  Co159  1  0.29463357  -0.09473424  0.36888007  1
  Co  Co160  1  0.64447587  0.76459370  0.93601523  1
  Co  Co161  1  -0.07576648  0.11048495  0.12477078  1
  Ni  Ni162  1  0.28088151  0.39978826  -0.03079223  1
  Ni  Ni163  1  0.82805227  0.09989518  0.24647635  1
  Ni  Ni164  1  0.47859575  0.27206681  0.47823907  1
  Ni  Ni165  1  0.33098607  0.67430770  0.02589957  1
  Ni  Ni166  1  0.05932873  0.34872694  0.80514000  1
  Ni  Ni167  1  0.58371394  -0.04343432  0.51574011  1
  Ni  Ni168  1  0.49629988  -0.07133186  0.16997858  1
  Ni  Ni169  1  -0.07104373  0.74686064  0.29735874  1
  Ni  Ni170  1  -0.00053827  0.80638125  0.44372719  1
  Ni  Ni171  1  0.30901798  0.56793683  0.35921022  1
  Ni  Ni172  1  0.03850612  0.33764711  0.19952689  1
  Ni  Ni173  1  0.12502614  0.05434295  0.46531579  1
  Ni  Ni174  1  0.71820395  0.97838179  0.21110537  1
  Ni  Ni175  1  0.43538351  0.67354832  0.43639773  1
  Ni  Ni176  1  0.30119640  0.84937926  0.77006325  1
  Ni  Ni177  1  0.19648677  0.86299266  0.63330088  1
  Ni  Ni178  1  0.29945339  0.55813969  0.89009398  1
  Ni  Ni179  1  -0.01254619  0.82720404  0.15964647  1
  Ni  Ni180  1  0.84728614  0.26785145  0.16142913  1
  Ni  Ni181  1  0.66699345  0.36600899  0.26333185  1
  Ni  Ni182  1  0.87947166  0.28488467  0.71936504  1
  Ni  Ni183  1  0.73277099  0.42461658  0.12650234  1
  Ni  Ni184  1  0.84948401  0.86338778  0.37544509  1
  Ni  Ni185  1  0.56257016  0.82749338  0.41160041  1
  Ni  Ni186  1  0.04917241  0.45832324  0.50170210  1
  Ni  Ni187  1  0.70879255  0.84817811  0.51657501  1
  Ni  Ni188  1  0.32039206  0.07063060  -0.02767997  1
  Ni  Ni189  1  0.12942958  0.05989166  0.75849794  1
  Ni  Ni190  1  0.60493470  0.72659295  0.66692566  1
  Ni  Ni191  1  0.39637184  0.10522763  0.51524556  1
  Ni  Ni192  1  0.68106098  -0.07160989  -0.02960597  1
  Ni  Ni193  1  0.43556462  0.08684947  0.10182228  1
  Ni  Ni194  1  0.19387590  0.13469318  0.26422065  1
  Ni  Ni195  1  0.17325653  0.66809611  0.10114428  1
  Ni  Ni196  1  0.30360593  0.32199598  0.41417462  1
  Ni  Ni197  1  0.52111621  0.45853424  0.28249035  1
  Ni  Ni198  1  0.04606207  0.74742616  0.03337161  1
  Ni  Ni199  1  0.54590306  0.44453410  -0.03446399  1
  Ni  Ni200  1  0.11275757  0.21419811  0.55833956  1
  Ni  Ni201  1  0.48317914  0.18360327  0.62719783  1
  Ni  Ni202  1  0.66505697  0.31253184  0.01360538  1
  Ni  Ni203  1  0.45998425  0.58668303  0.88429180  1
  Ni  Ni204  1  0.65445029  0.17267754  0.91508425  1
  Ni  Ni205  1  -0.08693170  -0.02685154  0.66743192  1
  Ni  Ni206  1  0.74493125  0.00865982  0.74299002  1
  Ni  Ni207  1  0.02323461  0.33134954  0.64685034  1
  Ni  Ni208  1  0.78568984  0.82114552  0.03066334  1
  Ni  Ni209  1  0.46242155  0.84045580  0.72878664  1
  Ni  Ni210  1  0.79129258  0.86793988  0.67997025  1
  Ni  Ni211  1  0.46101398  0.66629589  0.65047402  1
  Ni  Ni212  1  0.87152729  0.60945230  0.77473099  1
  Ni  Ni213  1  0.33881895  0.88934272  0.19863029  1
  Ni  Ni214  1  0.31669988  0.80026107  0.50153092  1
