# generated using pymatgen
data_Ti108Co54Ni53
_symmetry_space_group_name_H-M   'P 1'
_cell_length_a   14.70043737
_cell_length_b   14.66098921
_cell_length_c   14.65699404
_cell_angle_alpha   90.10239058
_cell_angle_beta   90.09561324
_cell_angle_gamma   90.01668464
_symmetry_Int_Tables_number   1
_chemical_formula_structural   Ti108Co54Ni53
_chemical_formula_sum   'Ti108 Co54 Ni53'
_cell_volume   3158.90906615
_cell_formula_units_Z   1
loop_
 _symmetry_equiv_pos_site_id
 _symmetry_equiv_pos_as_xyz
  1  'x, y, z'
loop_
 _atom_site_type_symbol
 _atom_site_label
 _atom_site_symmetry_multiplicity
 _atom_site_fract_x
 _atom_site_fract_y
 _atom_site_fract_z
 _atom_site_occupancy
  Ti  Ti0  1  0.12512868  0.08336091  0.23529222  1
  Ti  Ti1  1  0.01988904  0.05301288  0.54779985  1
  Ti  Ti2  1  0.05592077  0.00621483  0.87324182  1
  Ti  Ti3  1  0.19333550  0.39267903  0.23677623  1
  Ti  Ti4  1  0.11618425  0.35697055  0.63442142  1
  Ti  Ti5  1  0.08535579  0.46419981  0.86520616  1
  Ti  Ti6  1  0.02053258  0.77569076  0.24005100  1
  Ti  Ti7  1  0.02887810  0.74281281  0.58447898  1
  Ti  Ti8  1  0.05028978  0.80636313  0.88558263  1
  Ti  Ti9  1  0.45143188  0.09680992  0.28010879  1
  Ti  Ti10  1  0.35778832  0.09619393  0.61541943  1
  Ti  Ti11  1  0.41929798  -0.02278480  0.91110291  1
  Ti  Ti12  1  0.39639799  0.38928696  0.22608464  1
  Ti  Ti13  1  0.34286369  0.41848322  0.56563975  1
  Ti  Ti14  1  0.46905090  0.37666295  0.88030387  1
  Ti  Ti15  1  0.38615730  0.79475563  0.28653355  1
  Ti  Ti16  1  0.42650590  0.74115103  0.63871984  1
  Ti  Ti17  1  0.40219313  0.78379400  0.85281829  1
  Ti  Ti18  1  0.74784828  -0.00721883  0.25480344  1
  Ti  Ti19  1  0.73113344  0.18885942  0.60690664  1
  Ti  Ti20  1  0.65522496  0.06303485  0.87725063  1
  Ti  Ti21  1  0.72966586  0.42898870  0.19618702  1
  Ti  Ti22  1  0.78007354  0.35866491  0.65210060  1
  Ti  Ti23  1  0.75871870  0.44582920  0.98039330  1
  Ti  Ti24  1  0.81935346  0.79819044  0.22409113  1
  Ti  Ti25  1  0.83063173  0.70234761  0.57739687  1
  Ti  Ti26  1  0.82086816  0.74379794  0.90345528  1
  Ti  Ti27  1  0.07252532  0.25958497  0.09398898  1
  Ti  Ti28  1  0.05657250  0.23612755  0.48505934  1
  Ti  Ti29  1  0.04203393  0.19507792  0.82154142  1
  Ti  Ti30  1  0.08551378  0.56821740  0.17356985  1
  Ti  Ti31  1  0.04071582  0.61732553  0.36064085  1
  Ti  Ti32  1  0.11677810  0.62010425  0.77856600  1
  Ti  Ti33  1  0.06799277  1.04584849  0.05889688  1
  Ti  Ti34  1  0.04043952  0.94773358  0.36969700  1
  Ti  Ti35  1  -0.00090205  0.89484833  0.70529496  1
  Ti  Ti36  1  0.40502523  0.32905546  0.05186053  1
  Ti  Ti37  1  0.44720099  0.29397119  0.41849870  1
  Ti  Ti38  1  0.44078204  0.27298379  0.69304715  1
  Ti  Ti39  1  0.41809062  0.62472392  -0.00246621  1
  Ti  Ti40  1  0.40350209  0.60197529  0.50579892  1
  Ti  Ti41  1  0.46930530  0.59589190  0.77595906  1
  Ti  Ti42  1  0.39444225  0.88774329  0.08629992  1
  Ti  Ti43  1  0.33303558  0.97787017  0.42001094  1
  Ti  Ti44  1  0.44498867  0.92562011  0.70042557  1
  Ti  Ti45  1  0.74936992  0.24239894  0.11238222  1
  Ti  Ti46  1  0.74584844  0.19429390  0.39682081  1
  Ti  Ti47  1  0.73692942  0.24845432  0.82634385  1
  Ti  Ti48  1  0.80797015  0.60317651  0.09283659  1
  Ti  Ti49  1  0.80958156  0.50167861  0.49254952  1
  Ti  Ti50  1  0.79098351  0.54011395  0.69194835  1
  Ti  Ti51  1  0.76593710  0.92524011  -0.02811841  1
  Ti  Ti52  1  0.72109522  0.94234208  0.44541965  1
  Ti  Ti53  1  0.72366383  0.90189017  0.77171692  1
  Ti  Ti54  1  0.32618789  0.07384167  0.09670824  1
  Ti  Ti55  1  0.18285018  0.09194493  0.42709118  1
  Ti  Ti56  1  0.20800702  0.10089510  0.75515787  1
  Ti  Ti57  1  0.25419394  0.42462553  -0.03814189  1
  Ti  Ti58  1  0.33232899  0.48632838  0.36816993  1
  Ti  Ti59  1  0.25958010  0.46630027  0.74893528  1
  Ti  Ti60  1  0.23429825  0.81195329  0.14735488  1
  Ti  Ti61  1  0.25429609  0.67764447  0.39832760  1
  Ti  Ti62  1  0.27062099  0.82890247  0.72350500  1
  Ti  Ti63  1  0.67101277  0.06337239  0.08673791  1
  Ti  Ti64  1  0.48947068  0.06471699  0.46967210  1
  Ti  Ti65  1  0.50461055  0.09590222  0.77174002  1
  Ti  Ti66  1  0.59604294  0.36115948  0.05574824  1
  Ti  Ti67  1  0.63016707  0.39075757  0.38201036  1
  Ti  Ti68  1  0.60213826  0.39333687  0.73276678  1
  Ti  Ti69  1  0.60910503  0.71836533  0.07205130  1
  Ti  Ti70  1  0.55852340  0.85073381  0.51476909  1
  Ti  Ti71  1  0.68406323  0.70207909  0.76270657  1
  Ti  Ti72  1  0.87097515  0.08348680  0.06746891  1
  Ti  Ti73  1  0.88382552  0.07147012  0.40625786  1
  Ti  Ti74  1  0.89545326  0.06623293  0.71563840  1
  Ti  Ti75  1  0.96910399  0.47015055  0.04965587  1
  Ti  Ti76  1  1.04038587  0.39978105  0.35613970  1
  Ti  Ti77  1  0.95615324  0.35315890  0.76506671  1
  Ti  Ti78  1  1.11670597  0.71384443  0.04492047  1
  Ti  Ti79  1  0.93025774  0.77479970  0.41339386  1
  Ti  Ti80  1  0.93298202  0.69628987  0.76145740  1
  Ti  Ti81  1  0.27162739  0.21651147  0.24802340  1
  Ti  Ti82  1  0.26202717  0.24990616  0.51989431  1
  Ti  Ti83  1  0.20692812  0.23653428  0.93715788  1
  Ti  Ti84  1  0.29130643  0.61687668  0.19388986  1
  Ti  Ti85  1  0.22707642  0.66189434  0.62071018  1
  Ti  Ti86  1  0.24550342  0.62000790  0.91895988  1
  Ti  Ti87  1  0.20828084  0.88179512  0.31749784  1
  Ti  Ti88  1  0.28137244  0.82043323  0.51846548  1
  Ti  Ti89  1  0.23266612  0.90920787  0.94737215  1
  Ti  Ti90  1  0.54603626  0.27480977  0.23315812  1
  Ti  Ti91  1  0.58328792  0.30137725  0.55647200  1
  Ti  Ti92  1  0.40159046  0.17704961  0.95360687  1
  Ti  Ti93  1  0.49333543  0.57859395  0.18665012  1
  Ti  Ti94  1  0.54582901  0.53997153  0.62398584  1
  Ti  Ti95  1  0.57535288  0.52695981  0.94627728  1
  Ti  Ti96  1  0.55464470  0.92831172  0.22019811  1
  Ti  Ti97  1  0.62276570  0.99384387  0.63206390  1
  Ti  Ti98  1  0.57564263  0.91861843  1.00957575  1
  Ti  Ti99  1  0.89367948  0.28511632  0.26082010  1
  Ti  Ti100  1  0.89944675  0.32920662  0.47500623  1
  Ti  Ti101  1  0.88845760  0.27404247  0.96209164  1
  Ti  Ti102  1  0.89988373  0.50200888  0.25549675  1
  Ti  Ti103  1  0.99150958  0.56805744  0.62514734  1
  Ti  Ti104  1  0.96812323  0.62223258  0.94200800  1
  Ti  Ti105  1  0.93819269  0.98638911  0.22312895  1
  Ti  Ti106  1  0.86754958  0.89945700  0.55938937  1
  Ti  Ti107  1  0.94059573  0.80635790  1.05671574  1
  Co  Co108  1  0.21182380  0.76758834  0.86568463  1
  Co  Co109  1  0.66699324  0.45615461  0.56371750  1
  Co  Co110  1  0.10372527  0.62890528  0.50494824  1
  Co  Co111  1  0.53213105  0.08717437  -0.03447682  1
  Co  Co112  1  0.61335997  0.22238999  0.72062639  1
  Co  Co113  1  0.30413500  0.32951870  0.37131751  1
  Co  Co114  1  0.27858669  0.05725618  0.28420403  1
  Co  Co115  1  0.77578349  0.13705568  -0.04012964  1
  Co  Co116  1  0.41788133  -0.08125784  0.54504316  1
  Co  Co117  1  0.73919644  0.32726030  0.49216357  1
  Co  Co118  1  -0.06917982  0.12078072  0.90675471  1
  Co  Co119  1  0.02408003  0.12695324  0.35746513  1
  Co  Co120  1  0.83151492  -0.07759455  0.11533761  1
  Co  Co121  1  0.77737348  0.41480431  0.80918710  1
  Co  Co122  1  0.32131425  0.98660692  0.78541750  1
  Co  Co123  1  0.16613798  0.25378678  0.37231977  1
  Co  Co124  1  0.86991955  0.22028897  0.73677681  1
  Co  Co125  1  0.15718147  -0.07243436  0.77343037  1
  Co  Co126  1  0.92872780  0.61196092  0.47439712  1
  Co  Co127  1  0.80117655  0.39541992  0.35272073  1
  Co  Co128  1  0.10861221  0.77991154  0.40859404  1
  Co  Co129  1  0.16896451  -0.06253573  0.47715777  1
  Co  Co130  1  0.64033883  0.37194393  0.88863221  1
  Co  Co131  1  0.19278113  0.14673282  0.07530216  1
  Co  Co132  1  0.22202639  -0.03051336  0.13670008  1
  Co  Co133  1  0.65300491  0.22782207  -0.02789274  1
  Co  Co134  1  0.46461006  0.47790459  0.06019744  1
  Co  Co135  1  0.11727149  0.55946995  -0.00541432  1
  Co  Co136  1  0.14877941  0.85147802  0.61059713  1
  Co  Co137  1  0.69972006  0.63750265  -0.04166677  1
  Co  Co138  1  0.53676914  0.23027604  0.86290493  1
  Co  Co139  1  0.09598393  0.88696538  0.02818372  1
  Co  Co140  1  0.95422133  0.65617780  0.13301007  1
  Co  Co141  1  0.40407436  0.20794229  0.15621646  1
  Co  Co142  1  0.81337605  0.13718039  0.23390727  1
  Co  Co143  1  0.67832977  0.87678399  0.13376013  1
  Co  Co144  1  0.47886664  0.78990299  -0.01003927  1
  Co  Co145  1  0.56666670  0.43412835  0.20099655  1
  Co  Co146  1  0.85925449  0.37354857  0.11346101  1
  Co  Co147  1  0.10671170  0.76578827  0.73571367  1
  Co  Co148  1  0.82334705  0.02062755  0.85549410  1
  Co  Co149  1  0.64260555  0.54403544  0.09456371  1
  Co  Co150  1  0.06203577  0.05046388  0.70695396  1
  Co  Co151  1  0.41858536  0.43231820  0.71925937  1
  Co  Co152  1  0.25583845  0.30066694  0.09878104  1
  Co  Co153  1  0.14990837  0.51632410  0.63212957  1
  Co  Co154  1  0.70882456  0.27961398  0.26840189  1
  Co  Co155  1  0.15005360  0.32976742  0.80213996  1
  Co  Co156  1  0.86306281  0.90911535  0.35886933  1
  Co  Co157  1  0.37528774  0.94532396  0.23331323  1
  Co  Co158  1  0.77179522  0.76290115  0.05856879  1
  Co  Co159  1  0.02087733  0.88946945  0.51713313  1
  Co  Co160  1  0.34360737  0.15354858  0.41183120  1
  Co  Co161  1  0.26687173  -0.02858655  0.61841661  1
  Ni  Ni162  1  0.35347668  0.16522886  0.79558616  1
  Ni  Ni163  1  0.71135678  0.83392325  0.59732003  1
  Ni  Ni164  1  0.04070795  0.46916881  0.50119164  1
  Ni  Ni165  1  0.16704887  0.13318687  0.59621954  1
  Ni  Ni166  1  0.55099728  0.68269903  0.88799704  1
  Ni  Ni167  1  0.48795167  0.04094841  0.11681479  1
  Ni  Ni168  1  0.23897642  0.54038167  0.49943476  1
  Ni  Ni169  1  0.65607004  0.54192625  0.80237110  1
  Ni  Ni170  1  0.93056257  0.42084088  0.61471266  1
  Ni  Ni171  1  0.30500122  0.75456052  0.00679544  1
  Ni  Ni172  1  0.57558431  0.80964561  0.68792357  1
  Ni  Ni173  1  0.53050044  0.14388435  0.60686298  1
  Ni  Ni174  1  0.72519637  0.07985539  0.73075391  1
  Ni  Ni175  1  0.79585294  0.04362731  0.56483860  1
  Ni  Ni176  1  0.42221077  0.76614069  0.44766327  1
  Ni  Ni177  1  0.49494494  0.48598035  0.33473408  1
  Ni  Ni178  1  0.17632341  0.53259734  0.32934394  1
  Ni  Ni179  1  0.90905478  0.43791243  -0.09519290  1
  Ni  Ni180  1  0.31246160  0.65602173  0.76601557  1
  Ni  Ni181  1  0.25641856  0.07447882  -0.07760270  1
  Ni  Ni182  1  0.49752396  0.44372981  0.49157728  1
  Ni  Ni183  1  0.41144189  0.63570250  0.33301352  1
  Ni  Ni184  1  0.37218361  0.50983284  0.87297473  1
  Ni  Ni185  1  0.16578849  0.70130208  0.26334919  1
  Ni  Ni186  1  0.08299770  0.91699393  0.19247676  1
  Ni  Ni187  1  -0.11306992  0.66121427  0.29096679  1
  Ni  Ni188  1  0.81572912  0.57629312  0.86326362  1
  Ni  Ni189  1  0.57901879  0.19779176  0.38197538  1
  Ni  Ni190  1  0.65957531  0.79981623  0.91659984  1
  Ni  Ni191  1  -0.03286469  0.15055204  0.18642184  1
  Ni  Ni192  1  0.55980113  -0.09177858  0.82442056  1
  Ni  Ni193  1  -0.05905431  -0.04532327  -0.01955052  1
  Ni  Ni194  1  0.30109139  0.47225058  0.11715815  1
  Ni  Ni195  1  0.26986671  0.29326295  0.68692439  1
  Ni  Ni196  1  0.41208778  0.72515387  0.13489364  1
  Ni  Ni197  1  0.32101440  0.32222527  -0.15784631  1
  Ni  Ni198  1  0.54413450  0.68902600  0.53727446  1
  Ni  Ni199  1  0.65120142  0.09346477  0.49490438  1
  Ni  Ni200  1  0.01720615  0.39760067  0.18969422  1
  Ni  Ni201  1  -0.09967866  0.87734891  0.84135864  1
  Ni  Ni202  1  0.04769819  0.32643992  -0.06086914  1
  Ni  Ni203  1  -0.05111095  0.52995304  0.78024715  1
  Ni  Ni204  1  0.48095939  0.91497360  0.37360838  1
  Ni  Ni205  1  0.18109394  0.39216398  0.46254397  1
  Ni  Ni206  1  0.83779486  0.80952287  0.70401959  1
  Ni  Ni207  1  -0.10837926  0.17977045  0.55426285  1
  Ni  Ni208  1  0.13650342  0.42033022  0.07717165  1
  Ni  Ni209  1  0.64226082  0.13122848  0.23422526  1
  Ni  Ni210  1  0.02136444  0.20673154  0.65418907  1
  Ni  Ni211  1  0.60603131  0.02564219  0.35140607  1
  Ni  Ni212  1  0.06659725  0.25779209  0.25811666  1
  Ni  Ni213  1  0.55132681  0.19416206  0.09104476  1
  Ni  Ni214  1  0.68338107  0.63844703  0.59815515  1
