# generated using pymatgen
data_Ti108Co54Ni53
_symmetry_space_group_name_H-M   'P 1'
_cell_length_a   14.57302497
_cell_length_b   14.62849751
_cell_length_c   14.63597654
_cell_angle_alpha   89.70545973
_cell_angle_beta   89.83615721
_cell_angle_gamma   89.93885705
_symmetry_Int_Tables_number   1
_chemical_formula_structural   Ti108Co54Ni53
_chemical_formula_sum   'Ti108 Co54 Ni53'
_cell_volume   3120.06312763
_cell_formula_units_Z   1
loop_
 _symmetry_equiv_pos_site_id
 _symmetry_equiv_pos_as_xyz
  1  'x, y, z'
loop_
 _atom_site_type_symbol
 _atom_site_label
 _atom_site_symmetry_multiplicity
 _atom_site_fract_x
 _atom_site_fract_y
 _atom_site_fract_z
 _atom_site_occupancy
  Ti  Ti0  1  0.10790378  0.12183430  0.20605262  1
  Ti  Ti1  1  0.06705377  0.12442217  0.64775710  1
  Ti  Ti2  1  0.13119822  0.07103593  0.97154102  1
  Ti  Ti3  1  0.06738361  0.48319399  0.28192727  1
  Ti  Ti4  1  0.03849488  0.46898700  0.62618465  1
  Ti  Ti5  1  0.10494423  0.39560562  0.86346557  1
  Ti  Ti6  1  0.08923476  0.80201453  0.25383161  1
  Ti  Ti7  1  0.08853620  0.80120116  0.54711547  1
  Ti  Ti8  1  0.14467829  0.78065257  0.93497513  1
  Ti  Ti9  1  0.48591574  0.06927476  0.32941665  1
  Ti  Ti10  1  0.42819093  0.03676109  0.53722619  1
  Ti  Ti11  1  0.36497240  0.03465247  0.86559423  1
  Ti  Ti12  1  0.38508204  0.37984742  0.26013492  1
  Ti  Ti13  1  0.37464724  0.35463108  0.48951380  1
  Ti  Ti14  1  0.46835348  0.48084460  0.88487610  1
  Ti  Ti15  1  0.41142380  0.69176328  0.21034066  1
  Ti  Ti16  1  0.42316760  0.67173251  0.52148596  1
  Ti  Ti17  1  0.44554164  0.79286967  0.86669238  1
  Ti  Ti18  1  0.77111913  0.05210225  0.23335761  1
  Ti  Ti19  1  0.78517556  0.05038634  0.64184910  1
  Ti  Ti20  1  0.73696528  0.18590699  0.94110778  1
  Ti  Ti21  1  0.75613507  0.39198227  0.28120664  1
  Ti  Ti22  1  0.74583460  0.41917818  0.56519170  1
  Ti  Ti23  1  0.68301669  0.38493134  0.88727180  1
  Ti  Ti24  1  0.74480170  0.78000135  0.30307836  1
  Ti  Ti25  1  0.62629925  0.71014451  0.55860321  1
  Ti  Ti26  1  0.74468537  0.68890556  0.95169014  1
  Ti  Ti27  1  0.03503674  0.21270610  0.04520420  1
  Ti  Ti28  1  0.08317894  0.23363661  0.38441430  1
  Ti  Ti29  1  -0.00353365  0.28047933  0.75492756  1
  Ti  Ti30  1  0.10785533  0.54948095  0.10397409  1
  Ti  Ti31  1  0.03502726  0.66353146  0.36866770  1
  Ti  Ti32  1  0.16178394  0.55044183  0.74567635  1
  Ti  Ti33  1  0.03829416  0.85017027  0.08473075  1
  Ti  Ti34  1  0.19175953  0.95130921  0.35341041  1
  Ti  Ti35  1  0.06582987  0.85520517  0.77513105  1
  Ti  Ti36  1  0.43068186  0.26921812  0.08222651  1
  Ti  Ti37  1  0.36055356  0.19548462  0.40265924  1
  Ti  Ti38  1  0.45585463  0.29885605  0.77281175  1
  Ti  Ti39  1  0.36517515  0.57615423  0.02466982  1
  Ti  Ti40  1  0.40187984  0.52719288  0.37700223  1
  Ti  Ti41  1  0.42699489  0.56326388  0.70432760  1
  Ti  Ti42  1  0.50087353  0.94479841  0.13959293  1
  Ti  Ti43  1  0.38297538  0.87234698  0.46447554  1
  Ti  Ti44  1  0.44294243  0.89665107  0.71527781  1
  Ti  Ti45  1  0.71072095  0.31975075  0.10436798  1
  Ti  Ti46  1  0.82555423  0.28167825  0.41538885  1
  Ti  Ti47  1  0.66556633  0.22115285  0.73453389  1
  Ti  Ti48  1  0.77831167  0.52856793  0.07651503  1
  Ti  Ti49  1  0.67078809  0.51928234  0.38570292  1
  Ti  Ti50  1  0.74957477  0.57681975  0.73144676  1
  Ti  Ti51  1  0.70659036  0.98011565  0.05898745  1
  Ti  Ti52  1  0.74381810  0.98953076  0.45418091  1
  Ti  Ti53  1  0.68136250  0.92653623  0.79891031  1
  Ti  Ti54  1  0.28043752  0.05792867  0.12940659  1
  Ti  Ti55  1  0.19738040  0.09789122  0.48563139  1
  Ti  Ti56  1  0.18746332  0.05790407  0.76885328  1
  Ti  Ti57  1  0.26206718  0.40495116  0.09559945  1
  Ti  Ti58  1  0.20586065  0.46488640  0.44108739  1
  Ti  Ti59  1  0.28912892  0.39580309  0.76542209  1
  Ti  Ti60  1  0.24089204  0.75282427  0.09550049  1
  Ti  Ti61  1  0.22553485  0.76900914  0.40812943  1
  Ti  Ti62  1  0.27241646  0.70457944  0.80139332  1
  Ti  Ti63  1  0.54942020  0.11533769  0.05663154  1
  Ti  Ti64  1  0.62020113  0.12577323  0.52889459  1
  Ti  Ti65  1  0.47870431  0.12467889  0.69146699  1
  Ti  Ti66  1  0.58915359  0.45939382  0.04110345  1
  Ti  Ti67  1  0.54021254  0.37398859  0.36708709  1
  Ti  Ti68  1  0.58419503  0.43564872  0.73037801  1
  Ti  Ti69  1  0.62932174  0.79784025  0.09118934  1
  Ti  Ti70  1  0.54686693  0.79114043  0.39784587  1
  Ti  Ti71  1  0.57010269  0.71650493  0.75588289  1
  Ti  Ti72  1  0.87615357  0.07867010  0.05444485  1
  Ti  Ti73  1  0.89698821  0.11403075  0.35671575  1
  Ti  Ti74  1  0.93795954  0.03039767  0.76089849  1
  Ti  Ti75  1  0.99449031  0.38668740  0.09672596  1
  Ti  Ti76  1  0.86486991  0.50665327  0.42031561  1
  Ti  Ti77  1  0.90163242  0.45710392  0.78745500  1
  Ti  Ti78  1  0.90636817  0.71247916  0.07501806  1
  Ti  Ti79  1  0.90056365  0.79916756  0.41551116  1
  Ti  Ti80  1  0.90840775  0.66141524  0.84134677  1
  Ti  Ti81  1  0.27988383  0.23704153  0.21784521  1
  Ti  Ti82  1  0.19592533  0.27192782  0.56443852  1
  Ti  Ti83  1  0.24240584  0.24399158  0.90395871  1
  Ti  Ti84  1  0.24981915  0.60242094  0.31375541  1
  Ti  Ti85  1  0.25530329  0.61498420  0.60672399  1
  Ti  Ti86  1  0.18219694  0.57819216  0.94086349  1
  Ti  Ti87  1  0.39065000  0.89327308  0.28280348  1
  Ti  Ti88  1  0.24375856  0.93196922  0.59491988  1
  Ti  Ti89  1  0.31335850  0.88193300  0.95258882  1
  Ti  Ti90  1  0.63842438  0.22109541  0.27546421  1
  Ti  Ti91  1  0.57821510  0.30491159  0.57906165  1
  Ti  Ti92  1  0.53335674  0.15628764  0.87474059  1
  Ti  Ti93  1  0.61072004  0.64642088  0.24314022  1
  Ti  Ti94  1  0.54965011  0.49960318  0.52985942  1
  Ti  Ti95  1  0.54771280  0.65611383  0.96795278  1
  Ti  Ti96  1  0.63062352  0.92817862  0.29350712  1
  Ti  Ti97  1  0.61354272  0.91122610  0.59445687  1
  Ti  Ti98  1  0.52480652  0.92818651  0.95563815  1
  Ti  Ti99  1  0.95543054  0.28464535  0.24294228  1
  Ti  Ti100  1  0.95177269  0.25276592  0.56593817  1
  Ti  Ti101  1  0.91782167  0.15827328  0.88643231  1
  Ti  Ti102  1  0.83219824  0.61445532  0.25735105  1
  Ti  Ti103  1  0.96201735  0.63517901  0.54313938  1
  Ti  Ti104  1  0.93601751  0.50605837  0.97150998  1
  Ti  Ti105  1  0.97798897  0.95828838  0.25908115  1
  Ti  Ti106  1  0.94115244  0.97123277  0.49559405  1
  Ti  Ti107  1  0.96501466  0.95201916  0.93920970  1
  Co  Co108  1  0.50298505  0.58096511  0.11836760  1
  Co  Co109  1  0.83369508  0.65843690  0.42637457  1
  Co  Co110  1  0.87300388  0.24552428  0.06606556  1
  Co  Co111  1  0.22000064  0.12842995  0.32425747  1
  Co  Co112  1  -0.09455409  0.79942470  0.23515688  1
  Co  Co113  1  0.56058145  -0.04785838  0.45037686  1
  Co  Co114  1  0.10025150  -0.02715624  0.50264379  1
  Co  Co115  1  0.76300732  0.88386396  0.17680718  1
  Co  Co116  1  0.51384587  0.50866863  0.26106885  1
  Co  Co117  1  0.03845891  0.01989944  0.09700226  1
  Co  Co118  1  0.46452694  0.23362678  0.26427292  1
  Co  Co119  1  0.65307224  0.62600522  0.08720518  1
  Co  Co120  1  0.68144506  0.67685117  0.40834146  1
  Co  Co121  1  -0.12422354  0.35342409  0.66863817  1
  Co  Co122  1  0.04429081  0.51378869  0.45187481  1
  Co  Co123  1  0.22820975  0.43473308  0.25927548  1
  Co  Co124  1  -0.02901224  0.32266174  -0.07032832  1
  Co  Co125  1  0.33403019  0.29050672  0.65017486  1
  Co  Co126  1  0.61018067  0.56503495  0.83677535  1
  Co  Co127  1  0.62097459  0.04658280  0.68056278  1
  Co  Co128  1  0.43296531  0.43269430  0.07595199  1
  Co  Co129  1  0.05309830  0.85686100  0.40073545  1
  Co  Co130  1  0.53509192  0.80566561  0.22676005  1
  Co  Co131  1  0.64486730  0.08587944  0.36733206  1
  Co  Co132  1  0.84426239  0.39170026  0.14329764  1
  Co  Co133  1  -0.06271128  0.54126671  0.12924942  1
  Co  Co134  1  0.81198961  0.00502416  0.90861884  1
  Co  Co135  1  0.89719182  -0.06780157  0.11611783  1
  Co  Co136  1  0.86222477  0.17926360  0.71383844  1
  Co  Co137  1  0.38394822  0.72143303  0.36557697  1
  Co  Co138  1  0.42794036  0.11021738  0.17445399  1
  Co  Co139  1  0.60641107  0.26123732  0.00938526  1
  Co  Co140  1  0.53428541  0.21800015  0.41855848  1
  Co  Co141  1  0.72808492  0.57835041  0.54054937  1
  Co  Co142  1  0.67505171  0.33521383  0.44113516  1
  Co  Co143  1  0.90812310  0.46471032  0.26650402  1
  Co  Co144  1  0.30559611  0.53519871  0.84954435  1
  Co  Co145  1  0.08272099  0.69487876  0.81607562  1
  Co  Co146  1  0.43383869  0.63520283  0.84732798  1
  Co  Co147  1  0.86544833  0.52686262  0.62606644  1
  Co  Co148  1  0.60377611  0.06826658  0.20307752  1
  Co  Co149  1  0.31898362  0.70946955  -0.04456644  1
  Co  Co150  1  0.66460282  0.48930840  0.19563351  1
  Co  Co151  1  0.74055480  0.09264872  0.79552873  1
  Co  Co152  1  0.38986044  0.18938411  -0.05291528  1
  Co  Co153  1  0.06408081  0.05862011  0.35750129  1
  Co  Co154  1  0.80671041  0.22659011  0.23497590  1
  Co  Co155  1  0.13105296  0.36712563  0.69925395  1
  Co  Co156  1  0.08969915  0.36440838  0.50417757  1
  Co  Co157  1  0.76568892  0.72118982  0.14258679  1
  Co  Co158  1  0.52816651  -0.00295689  0.80433456  1
  Co  Co159  1  0.70643548  0.83391346  0.45873970  1
  Co  Co160  1  0.27014121  0.78847445  0.25358890  1
  Co  Co161  1  0.39409783  0.72622748  0.69897992  1
  Ni  Ni162  1  -0.01334068  0.61035327  0.70645344  1
  Ni  Ni163  1  0.64548371  0.03945072  -0.08044649  1
  Ni  Ni164  1  0.18179048  0.92660437  0.04143143  1
  Ni  Ni165  1  0.33973945  0.37862586  -0.05636198  1
  Ni  Ni166  1  0.08346717  0.19724183  0.86649177  1
  Ni  Ni167  1  0.44343153  0.20931160  0.55402977  1
  Ni  Ni168  1  0.13415843  0.35534313  0.01485915  1
  Ni  Ni169  1  -0.03101330  0.79178611  0.92094311  1
  Ni  Ni170  1  0.15442956  0.63394194  0.48088214  1
  Ni  Ni171  1  0.08725344  -0.03748557  0.65852211  1
  Ni  Ni172  1  0.29413447  0.13827198  0.61263442  1
  Ni  Ni173  1  0.12438718  0.31046905  0.18473298  1
  Ni  Ni174  1  0.17616568  -0.07068503  0.19643993  1
  Ni  Ni175  1  0.15702753  0.66159033  0.20782797  1
  Ni  Ni176  1  0.83149672  0.92727839  0.33429824  1
  Ni  Ni177  1  0.80451686  0.84712918  0.00414343  1
  Ni  Ni178  1  0.75327550  0.24798017  0.59238528  1
  Ni  Ni179  1  0.23934735  0.43851818  0.60376538  1
  Ni  Ni180  1  0.44261527  0.77793902  0.05857148  1
  Ni  Ni181  1  0.28470523  0.77430005  0.56982008  1
  Ni  Ni182  1  0.03565729  0.54672570  0.85164165  1
  Ni  Ni183  1  0.44371586  0.40484893  0.63793885  1
  Ni  Ni184  1  -0.05859956  0.12530739  0.19298962  1
  Ni  Ni185  1  0.23273019  0.30503022  0.37490604  1
  Ni  Ni186  1  0.33874220  0.17423189  0.77736588  1
  Ni  Ni187  1  0.37049245  0.51320272  0.53969441  1
  Ni  Ni188  1  0.77844639  0.53342374  0.89534222  1
  Ni  Ni189  1  0.33285276  0.02273978  0.39599523  1
  Ni  Ni190  1  0.73336145  0.37564879  0.72596685  1
  Ni  Ni191  1  0.82159857  0.38198449  -0.02374745  1
  Ni  Ni192  1  0.48202424  0.81043872  0.58316973  1
  Ni  Ni193  1  0.26572144  0.87380364  0.76138219  1
  Ni  Ni194  1  0.33189900  0.89615280  0.12483640  1
  Ni  Ni195  1  0.03454795  0.65506940  -0.01808997  1
  Ni  Ni196  1  0.63004151  0.80268631  0.90695071  1
  Ni  Ni197  1  0.33869202  0.01815981  0.70115115  1
  Ni  Ni198  1  0.16653510  -0.05958774  0.88010325  1
  Ni  Ni199  1  0.01078945  0.12084001  0.49341051  1
  Ni  Ni200  1  0.60077907  0.58293445  0.66369490  1
  Ni  Ni201  1  0.21233746  0.20814908  0.06663750  1
  Ni  Ni202  1  0.49930676  0.32957077  0.92646088  1
  Ni  Ni203  1  0.55249655  0.36011863  0.18802347  1
  Ni  Ni204  1  -0.01995522  0.36975284  0.38264893  1
  Ni  Ni205  1  0.83214507  0.29677178  0.83151167  1
  Ni  Ni206  1  0.71705360  0.15379781  0.10903007  1
  Ni  Ni207  1  -0.00250614  0.65998789  0.20967853  1
  Ni  Ni208  1  0.53082386  0.62150902  0.39636863  1
  Ni  Ni209  1  0.92498158  0.40859929  0.52649270  1
  Ni  Ni210  1  0.83588362  0.13265112  0.50903944  1
  Ni  Ni211  1  0.35155139  0.53057850  0.19079347  1
  Ni  Ni212  1  0.40337932  0.03037864  0.02493739  1
  Ni  Ni213  1  0.16581319  0.74923537  0.68524887  1
  Ni  Ni214  1  0.18844046  0.22342948  0.73389326  1
