# generated using pymatgen
data_Ti108Co54Ni53
_symmetry_space_group_name_H-M   'P 1'
_cell_length_a   14.61270859
_cell_length_b   14.67590778
_cell_length_c   14.63948286
_cell_angle_alpha   89.86270583
_cell_angle_beta   90.14646702
_cell_angle_gamma   89.90713729
_symmetry_Int_Tables_number   1
_chemical_formula_structural   Ti108Co54Ni53
_chemical_formula_sum   'Ti108 Co54 Ni53'
_cell_volume   3139.48341158
_cell_formula_units_Z   1
loop_
 _symmetry_equiv_pos_site_id
 _symmetry_equiv_pos_as_xyz
  1  'x, y, z'
loop_
 _atom_site_type_symbol
 _atom_site_label
 _atom_site_symmetry_multiplicity
 _atom_site_fract_x
 _atom_site_fract_y
 _atom_site_fract_z
 _atom_site_occupancy
  Ti  Ti0  1  0.05489559  0.05595529  0.18787094  1
  Ti  Ti1  1  0.07321159  0.11037597  0.52835751  1
  Ti  Ti2  1  0.10512455  0.13943808  0.88683111  1
  Ti  Ti3  1  0.07350473  0.42722347  0.28806166  1
  Ti  Ti4  1  0.06968309  0.41797566  0.67612118  1
  Ti  Ti5  1  0.01795918  0.42122514  0.89588889  1
  Ti  Ti6  1  0.05854291  0.79278948  0.31670565  1
  Ti  Ti7  1  0.06961870  0.76274650  0.53650869  1
  Ti  Ti8  1  0.01340675  0.76824609  0.89523601  1
  Ti  Ti9  1  0.41583314  0.13161189  0.35979741  1
  Ti  Ti10  1  0.43143993  0.01044474  0.63248637  1
  Ti  Ti11  1  0.41496298  0.14037025  0.88426376  1
  Ti  Ti12  1  0.44945628  0.41333501  0.27320028  1
  Ti  Ti13  1  0.43632356  0.51837702  0.60220455  1
  Ti  Ti14  1  0.38658962  0.44725909  0.93509107  1
  Ti  Ti15  1  0.35978449  0.78443792  0.28328801  1
  Ti  Ti16  1  0.43190450  0.79417183  0.61613140  1
  Ti  Ti17  1  0.43084756  0.79076321  0.94786182  1
  Ti  Ti18  1  0.82410391  0.09090872  0.20274234  1
  Ti  Ti19  1  0.74708823  0.06074984  0.56480806  1
  Ti  Ti20  1  0.76180881  0.03128704  0.85896463  1
  Ti  Ti21  1  0.76717111  0.42621978  0.16255268  1
  Ti  Ti22  1  0.76455796  0.36668740  0.56493873  1
  Ti  Ti23  1  0.72400400  0.45095866  0.89244755  1
  Ti  Ti24  1  0.80350445  0.70089906  0.29541598  1
  Ti  Ti25  1  0.76175084  0.72194919  0.63419216  1
  Ti  Ti26  1  0.75058045  0.71435069  0.94729265  1
  Ti  Ti27  1  0.08807001  0.26670766  0.13432271  1
  Ti  Ti28  1  0.19532595  0.26934798  0.44878030  1
  Ti  Ti29  1  0.05308548  0.20788827  0.70322677  1
  Ti  Ti30  1  0.05520144  0.59332065  0.16482438  1
  Ti  Ti31  1  0.09472918  0.60006590  0.37464050  1
  Ti  Ti32  1  0.03052000  0.59179135  0.78723949  1
  Ti  Ti33  1  0.04690757  0.85645450  0.12891850  1
  Ti  Ti34  1  0.08566418  0.98569261  0.36145288  1
  Ti  Ti35  1  0.06299408  0.94727424  0.81510700  1
  Ti  Ti36  1  0.44909688  0.14753230  0.08834268  1
  Ti  Ti37  1  0.39010240  0.30541990  0.43229847  1
  Ti  Ti38  1  0.42885110  0.19146313  0.69240870  1
  Ti  Ti39  1  0.41186199  0.63659527  0.04912234  1
  Ti  Ti40  1  0.42435402  0.52612781  0.41370258  1
  Ti  Ti41  1  0.56593486  0.58206879  0.71343492  1
  Ti  Ti42  1  0.34493894  0.94550421  -0.01397565  1
  Ti  Ti43  1  0.43544081  0.93107883  0.39281773  1
  Ti  Ti44  1  0.41876126  0.92924563  0.80787626  1
  Ti  Ti45  1  0.72388997  0.17051772  0.01703737  1
  Ti  Ti46  1  0.72157556  0.25018922  0.31585022  1
  Ti  Ti47  1  0.79039090  0.28849772  0.74948185  1
  Ti  Ti48  1  0.73993874  0.61772622  0.11748643  1
  Ti  Ti49  1  0.70860457  0.54566831  0.31335517  1
  Ti  Ti50  1  0.74841924  0.59118457  0.77115253  1
  Ti  Ti51  1  0.74202963  0.93384911  0.12752670  1
  Ti  Ti52  1  0.78699838  0.93816131  0.42749491  1
  Ti  Ti53  1  0.78429753  0.83492648  0.79169536  1
  Ti  Ti54  1  0.30481288  0.04896999  0.12477447  1
  Ti  Ti55  1  0.25403829  0.07031514  0.44501532  1
  Ti  Ti56  1  0.25493815  0.04599741  0.78235592  1
  Ti  Ti57  1  0.26256589  0.39431986  0.17531112  1
  Ti  Ti58  1  0.24109429  0.45075193  0.37707687  1
  Ti  Ti59  1  0.27471574  0.36447095  0.74421368  1
  Ti  Ti60  1  0.26705318  0.78126209  0.09917250  1
  Ti  Ti61  1  0.21092194  0.76558182  0.41714660  1
  Ti  Ti62  1  0.23700186  0.73187547  0.64229350  1
  Ti  Ti63  1  0.62312193  0.08905866  0.17185285  1
  Ti  Ti64  1  0.61514314  0.09191868  0.38432794  1
  Ti  Ti65  1  0.58008093  0.08012057  0.78797070  1
  Ti  Ti66  1  0.56384710  0.39405968  0.10253599  1
  Ti  Ti67  1  0.60489468  0.38107314  0.42992863  1
  Ti  Ti68  1  0.49621031  0.38357675  0.71767784  1
  Ti  Ti69  1  0.57919524  0.83234445  0.05221091  1
  Ti  Ti70  1  0.55309103  0.74783912  0.38764399  1
  Ti  Ti71  1  0.50240626  0.74273895  0.77957373  1
  Ti  Ti72  1  0.96520246  0.12080745  0.03603257  1
  Ti  Ti73  1  0.94149105  0.15733746  0.35209482  1
  Ti  Ti74  1  0.89510816  0.08451313  0.71379974  1
  Ti  Ti75  1  0.90151305  0.31893236  0.05519593  1
  Ti  Ti76  1  0.94652608  0.40774697  0.48370835  1
  Ti  Ti77  1  0.88455383  0.45758978  0.72066162  1
  Ti  Ti78  1  0.87230258  0.76789249  0.09426382  1
  Ti  Ti79  1  0.87271345  0.78725061  0.49874745  1
  Ti  Ti80  1  0.95965984  0.76334055  0.69394627  1
  Ti  Ti81  1  0.22573808  0.14000133  0.25690352  1
  Ti  Ti82  1  0.23007174  0.19578375  0.63468425  1
  Ti  Ti83  1  0.24365462  0.28137314  0.95253289  1
  Ti  Ti84  1  0.35470288  0.59286870  0.22516725  1
  Ti  Ti85  1  0.23003252  0.52722126  0.63947690  1
  Ti  Ti86  1  0.25234189  0.61920867  0.81434894  1
  Ti  Ti87  1  0.21165822  0.90311526  0.23801536  1
  Ti  Ti88  1  0.29085426  0.89565510  0.54473828  1
  Ti  Ti89  1  0.21954184  0.83809400  0.84762879  1
  Ti  Ti90  1  0.52985277  0.24388032  0.25885425  1
  Ti  Ti91  1  0.61660426  0.26570111  0.63243529  1
  Ti  Ti92  1  0.57752134  0.31656129  0.90993128  1
  Ti  Ti93  1  0.54821423  0.56429477  0.19182348  1
  Ti  Ti94  1  0.63953426  0.61229255  0.52393824  1
  Ti  Ti95  1  0.58531598  0.63648861  0.91371875  1
  Ti  Ti96  1  0.56328775  0.88730840  0.23464568  1
  Ti  Ti97  1  0.61588876  0.90807211  0.56641169  1
  Ti  Ti98  1  0.61648744  0.88443371  0.86973151  1
  Ti  Ti99  1  0.91187597  0.33396532  0.26484587  1
  Ti  Ti100  1  0.88566791  0.19690886  0.55040279  1
  Ti  Ti101  1  0.87765747  0.19544414  0.88942847  1
  Ti  Ti102  1  0.90996804  0.53462098  0.31909692  1
  Ti  Ti103  1  0.95372505  0.59281991  0.54861980  1
  Ti  Ti104  1  0.92780714  0.60891079  0.99049141  1
  Ti  Ti105  1  0.87674091  0.86742281  0.26717360  1
  Ti  Ti106  1  0.98317212  0.93809506  0.60155143  1
  Ti  Ti107  1  0.90566792  0.90589151  0.95462179  1
  Co  Co108  1  0.71062198  0.77844866  0.14112728  1
  Co  Co109  1  0.71926070  -0.00175950  0.28896037  1
  Co  Co110  1  0.86110829  0.36340358  0.90008291  1
  Co  Co111  1  0.50013033  0.03913302  0.48956622  1
  Co  Co112  1  0.25937853  0.91490002  0.39030844  1
  Co  Co113  1  0.62063621  0.40237908  0.27035030  1
  Co  Co114  1  0.58994883  0.74972477  0.61310571  1
  Co  Co115  1  0.59062623  0.67058951  0.06921737  1
  Co  Co116  1  0.48147663  0.04598143  0.23839429  1
  Co  Co117  1  0.58983111  0.24099843  0.09188922  1
  Co  Co118  1  0.09495271  0.47642117  0.50511804  1
  Co  Co119  1  0.14268872  0.12862794  0.05851358  1
  Co  Co120  1  0.15038460  0.82963503  -0.00853956  1
  Co  Co121  1  0.61616603  0.46348287  0.59231566  1
  Co  Co122  1  0.84605508  0.27692909  0.42517387  1
  Co  Co123  1  0.04640063  0.26860271  -0.03693703  1
  Co  Co124  1  0.04176179  -0.01695080  0.00021902  1
  Co  Co125  1  0.84070784  0.47488836  0.02283181  1
  Co  Co126  1  -0.03309792  0.29804965  0.80040056  1
  Co  Co127  1  -0.03952134  0.70981811  0.22131683  1
  Co  Co128  1  0.72611404  0.34072411  0.01758021  1
  Co  Co129  1  0.88198811  0.57658313  0.16599704  1
  Co  Co130  1  0.04128067  0.71794982  0.05128672  1
  Co  Co131  1  0.25374681  0.03926620  0.60815326  1
  Co  Co132  1  0.73207599  0.48864650  0.46927178  1
  Co  Co133  1  0.06285404  0.28172142  0.55442771  1
  Co  Co134  1  0.17051029  0.29933396  0.28485314  1
  Co  Co135  1  0.66292781  0.72695953  0.77551046  1
  Co  Co136  1  0.44637734  0.27772087  -0.01347538  1
  Co  Co137  1  -0.03538841  0.44103806  0.15101338  1
  Co  Co138  1  0.93989149  0.04642762  0.87474920  1
  Co  Co139  1  -0.12586189  0.52705249  0.86395274  1
  Co  Co140  1  0.56495760  0.14468937  -0.03630955  1
  Co  Co141  1  0.51560496  0.98617863  0.09322748  1
  Co  Co142  1  0.08617312  0.61406746  0.63870282  1
  Co  Co143  1  0.33218801  0.00639652  0.28491695  1
  Co  Co144  1  0.82003814  0.03993513  0.01274745  1
  Co  Co145  1  0.78903818  0.11011244  0.39805556  1
  Co  Co146  1  -0.02265755  0.88685123  0.43406617  1
  Co  Co147  1  0.56786485  0.57405279  0.37723706  1
  Co  Co148  1  0.19466501  0.36378771  0.58644713  1
  Co  Co149  1  -0.06252197  0.20140659  0.18036032  1
  Co  Co150  1  0.40195555  0.47561641  0.11930437  1
  Co  Co151  1  -0.08526635  0.00258487  0.32224944  1
  Co  Co152  1  0.74759127  0.87149946  -0.02568005  1
  Co  Co153  1  0.13223865  0.30518630  0.82164164  1
  Co  Co154  1  0.26894276  0.20207555  0.80445285  1
  Co  Co155  1  0.28215932  0.12303514  -0.03210260  1
  Co  Co156  1  0.66796064  0.50542126  0.03333383  1
  Co  Co157  1  0.42260827  0.61577546  0.87483547  1
  Co  Co158  1  0.51360357  0.51828825  0.00451578  1
  Co  Co159  1  0.62540280  0.69450239  0.25190902  1
  Co  Co160  1  0.38187487  0.49436554  0.77075052  1
  Co  Co161  1  0.34578668  0.76138456  0.79411663  1
  Ni  Ni162  1  0.50212978  -0.00700922  0.93366714  1
  Ni  Ni163  1  0.81421576  0.89670528  0.62097257  1
  Ni  Ni164  1  0.33521503  0.27140235  0.27773287  1
  Ni  Ni165  1  -0.07229437  0.32218919  0.64072605  1
  Ni  Ni166  1  0.60904979  0.92098988  0.40530164  1
  Ni  Ni167  1  0.67819635  0.41734838  0.73038892  1
  Ni  Ni168  1  0.28647700  0.70757541  -0.05164572  1
  Ni  Ni169  1  0.40406584  0.30431245  0.83348452  1
  Ni  Ni170  1  0.37743776  0.64134200  0.69256191  1
  Ni  Ni171  1  0.37897672  0.77711225  0.45096344  1
  Ni  Ni172  1  0.58526240  0.10015260  0.61653411  1
  Ni  Ni173  1  0.87926394  0.68681172  0.82420320  1
  Ni  Ni174  1  0.28664742  0.62583861  0.37131491  1
  Ni  Ni175  1  0.41387397  0.30920542  0.13968273  1
  Ni  Ni176  1  -0.04772877  0.68889318  0.39386414  1
  Ni  Ni177  1  0.72556282  0.14044007  0.70743891  1
  Ni  Ni178  1  0.20169216  0.71256359  0.24823267  1
  Ni  Ni179  1  0.76669621  0.25316908  0.15703844  1
  Ni  Ni180  1  0.17589864  -0.04153257  0.08870385  1
  Ni  Ni181  1  0.48976724  0.36979900  0.54755669  1
  Ni  Ni182  1  0.70024310  0.78068147  0.47758049  1
  Ni  Ni183  1  0.16269613  0.47292600  0.81192676  1
  Ni  Ni184  1  0.52730542  0.21112231  0.48800979  1
  Ni  Ni185  1  0.19733250  0.54551815  0.24676288  1
  Ni  Ni186  1  0.10636828  0.15318127  0.36124695  1
  Ni  Ni187  1  0.02948182  0.29588036  0.39269258  1
  Ni  Ni188  1  0.18638678  0.62280588  0.50913317  1
  Ni  Ni189  1  0.78494003  0.40320183  0.34687209  1
  Ni  Ni190  1  0.68880620  0.20090899  0.85489121  1
  Ni  Ni191  1  0.69714576  -0.02489922  0.71132697  1
  Ni  Ni192  1  0.35052583  0.30538771  0.60019111  1
  Ni  Ni193  1  0.80460622  0.63421116  0.45957028  1
  Ni  Ni194  1  -0.09047610  0.92670550  0.76036216  1
  Ni  Ni195  1  0.91162866  0.04055407  0.49241313  1
  Ni  Ni196  1  0.11568563  0.73399190  0.75627782  1
  Ni  Ni197  1  0.13250308  -0.06206908  0.51232135  1
  Ni  Ni198  1  0.39375658  0.89572872  0.15581859  1
  Ni  Ni199  1  0.13339543  0.87433297  0.66663474  1
  Ni  Ni200  1  0.47283270  0.73907581  0.17290260  1
  Ni  Ni201  1  0.70833803  0.83407141  0.30794780  1
  Ni  Ni202  1  0.10589199  0.04500460  0.68425555  1
  Ni  Ni203  1  0.54437787  0.48201384  0.84741166  1
  Ni  Ni204  1  0.78748889  0.54765150  0.61073798  1
  Ni  Ni205  1  0.29653062  -0.10158058  0.70532196  1
  Ni  Ni206  1  0.37439836  0.15010838  0.53358683  1
  Ni  Ni207  1  0.91743154  -0.03661006  0.12736665  1
  Ni  Ni208  1  0.47713280  0.66174045  0.51843462  1
  Ni  Ni209  1  0.26938965  0.22660210  0.11540412  1
  Ni  Ni210  1  0.69681005  0.21742621  0.48926133  1
  Ni  Ni211  1  0.18852229  -0.00998994  0.93058210  1
  Ni  Ni212  1  0.31799019  0.43962891  0.51806091  1
  Ni  Ni213  1  0.65283094  0.00597155  -0.00008897  1
  Ni  Ni214  1  0.55095643  0.89429171  0.71491264  1
