# generated using pymatgen
data_Ti108Co54Ni53
_symmetry_space_group_name_H-M   'P 1'
_cell_length_a   14.67842575
_cell_length_b   14.64299013
_cell_length_c   14.64122042
_cell_angle_alpha   89.39448715
_cell_angle_beta   89.73298224
_cell_angle_gamma   89.91236046
_symmetry_Int_Tables_number   1
_chemical_formula_structural   Ti108Co54Ni53
_chemical_formula_sum   'Ti108 Co54 Ni53'
_cell_volume   3146.71263347
_cell_formula_units_Z   1
loop_
 _symmetry_equiv_pos_site_id
 _symmetry_equiv_pos_as_xyz
  1  'x, y, z'
loop_
 _atom_site_type_symbol
 _atom_site_label
 _atom_site_symmetry_multiplicity
 _atom_site_fract_x
 _atom_site_fract_y
 _atom_site_fract_z
 _atom_site_occupancy
  Ti  Ti0  1  0.08218351  0.10802611  0.16324363  1
  Ti  Ti1  1  0.08783786  0.09194228  0.59003325  1
  Ti  Ti2  1  0.09806233  0.03766485  0.87917696  1
  Ti  Ti3  1  0.07361015  0.43897340  0.15200389  1
  Ti  Ti4  1  0.06611363  0.46666058  0.50317309  1
  Ti  Ti5  1  0.16400587  0.45049823  0.95163402  1
  Ti  Ti6  1  0.04813879  0.77323872  0.26123310  1
  Ti  Ti7  1  0.05513268  0.91274442  0.60971269  1
  Ti  Ti8  1  0.15887999  0.69101627  0.94190753  1
  Ti  Ti9  1  0.39984357  0.03101901  0.29448226  1
  Ti  Ti10  1  0.41398618  0.15900459  0.57530127  1
  Ti  Ti11  1  0.39896363  0.12514691  0.98072436  1
  Ti  Ti12  1  0.48185826  0.44147001  0.19813959  1
  Ti  Ti13  1  0.50079316  0.37878954  0.62885440  1
  Ti  Ti14  1  0.35912533  0.39150067  0.82009152  1
  Ti  Ti15  1  0.40396761  0.75148943  0.17867263  1
  Ti  Ti16  1  0.41886234  0.74083518  0.59400928  1
  Ti  Ti17  1  0.45448546  0.70384282  0.92661326  1
  Ti  Ti18  1  0.71957280  0.01712606  0.23047562  1
  Ti  Ti19  1  0.73280691  0.06628126  0.60246492  1
  Ti  Ti20  1  0.74976288  0.07729294  0.95810707  1
  Ti  Ti21  1  0.78400778  0.34406601  0.26121421  1
  Ti  Ti22  1  0.72823074  0.40751255  0.62985850  1
  Ti  Ti23  1  0.73111330  0.37586073  0.88405131  1
  Ti  Ti24  1  0.73547437  0.79487198  0.24460378  1
  Ti  Ti25  1  0.75726715  0.71318565  0.56708718  1
  Ti  Ti26  1  0.69533146  0.72713130  0.84938760  1
  Ti  Ti27  1  0.20196964  0.26931311  0.08693097  1
  Ti  Ti28  1  0.04040940  0.18302139  0.43299458  1
  Ti  Ti29  1  0.02756971  0.22361897  0.86205727  1
  Ti  Ti30  1  0.01270255  0.59446471  0.01051209  1
  Ti  Ti31  1  0.02247436  0.62556360  0.38333903  1
  Ti  Ti32  1  0.02679511  0.64695754  0.77969540  1
  Ti  Ti33  1  0.11613627  0.92509828  0.18187765  1
  Ti  Ti34  1  0.11728932  0.90810203  0.40549511  1
  Ti  Ti35  1  0.12278145  0.81175236  0.77302344  1
  Ti  Ti36  1  0.41705111  0.26694279  0.11587531  1
  Ti  Ti37  1  0.47710349  0.28325657  0.31415381  1
  Ti  Ti38  1  0.40643591  0.19319271  0.80320771  1
  Ti  Ti39  1  0.45976003  0.58833187  0.08903299  1
  Ti  Ti40  1  0.45749807  0.63143046  0.40140994  1
  Ti  Ti41  1  0.36252251  0.61386757  0.77051640  1
  Ti  Ti42  1  0.44804367  0.94247385  0.05457556  1
  Ti  Ti43  1  0.42935674  0.83629940  0.39447298  1
  Ti  Ti44  1  0.41903225  0.99126274  0.81604052  1
  Ti  Ti45  1  0.73434964  0.29124458  0.05818540  1
  Ti  Ti46  1  0.81528068  0.20311445  0.43934383  1
  Ti  Ti47  1  0.78814309  0.19377306  0.80019597  1
  Ti  Ti48  1  0.75654453  0.64082045  0.03677721  1
  Ti  Ti49  1  0.77539554  0.62683367  0.37776425  1
  Ti  Ti50  1  0.83312857  0.51368359  0.76488461  1
  Ti  Ti51  1  0.80081298  0.94057342  0.07972334  1
  Ti  Ti52  1  0.71104375  0.93899867  0.40322792  1
  Ti  Ti53  1  0.64525380  0.92070242  0.71936054  1
  Ti  Ti54  1  0.23340982  0.04780880  0.04718850  1
  Ti  Ti55  1  0.22589722  0.09417833  0.41942108  1
  Ti  Ti56  1  0.28009382  0.07815431  0.70487602  1
  Ti  Ti57  1  0.29190032  0.44743029  0.13421665  1
  Ti  Ti58  1  0.23812803  0.30388804  0.40567332  1
  Ti  Ti59  1  0.19815832  0.38410689  0.67279245  1
  Ti  Ti60  1  0.19464132  0.73796397  0.13897129  1
  Ti  Ti61  1  0.25633123  0.78746141  0.48439678  1
  Ti  Ti62  1  0.31507494  0.79409672  0.83305769  1
  Ti  Ti63  1  0.58321196  0.16708731  0.05120600  1
  Ti  Ti64  1  0.54966721  0.12571472  0.42256246  1
  Ti  Ti65  1  0.56185458  0.09643404  0.72526229  1
  Ti  Ti66  1  0.63040339  0.48452651  0.04791537  1
  Ti  Ti67  1  0.61449278  0.42033195  0.45748047  1
  Ti  Ti68  1  0.62553972  0.47132864  0.77253749  1
  Ti  Ti69  1  0.60870759  0.68616359  0.15018391  1
  Ti  Ti70  1  0.63044031  0.76793176  0.41423558  1
  Ti  Ti71  1  0.59075482  0.74695650  0.68714846  1
  Ti  Ti72  1  0.94394130  0.11614900  0.03028443  1
  Ti  Ti73  1  0.89983636  0.06037306  0.34979992  1
  Ti  Ti74  1  0.94682176  0.12463433  0.70933972  1
  Ti  Ti75  1  0.90973024  0.38017453  0.07751708  1
  Ti  Ti76  1  0.91835609  0.38242509  0.40768753  1
  Ti  Ti77  1  0.99776685  0.41571720  0.70211642  1
  Ti  Ti78  1  0.90521030  0.75584644  0.10824620  1
  Ti  Ti79  1  0.92686524  0.86112162  0.44773951  1
  Ti  Ti80  1  0.91947675  0.82019726  0.78454753  1
  Ti  Ti81  1  0.29614003  0.20912770  0.25220517  1
  Ti  Ti82  1  0.22388909  0.21262207  0.58577700  1
  Ti  Ti83  1  0.22156624  0.24915581  0.84906455  1
  Ti  Ti84  1  0.19429034  0.58310470  0.25970308  1
  Ti  Ti85  1  0.15222143  0.63601469  0.58423143  1
  Ti  Ti86  1  0.31523150  0.56076197  0.95946487  1
  Ti  Ti87  1  0.26219717  0.84872609  0.28136445  1
  Ti  Ti88  1  0.28428293  0.88410193  0.67129927  1
  Ti  Ti89  1  0.20670700  0.86858078  0.99425840  1
  Ti  Ti90  1  0.64559358  0.20496420  0.23494784  1
  Ti  Ti91  1  0.64038956  0.23463158  0.56062675  1
  Ti  Ti92  1  0.59736048  0.21494245  0.86801309  1
  Ti  Ti93  1  0.65836358  0.50117669  0.25843456  1
  Ti  Ti94  1  0.58374679  0.56437050  0.59700148  1
  Ti  Ti95  1  0.49590763  0.49858905  0.90694445  1
  Ti  Ti96  1  0.55805533  0.90524117  0.20190462  1
  Ti  Ti97  1  0.54696375  0.90409250  0.54517714  1
  Ti  Ti98  1  0.63470903  0.89823106  0.94232457  1
  Ti  Ti99  1  0.96240324  0.25040016  0.26348974  1
  Ti  Ti100  1  0.93992062  0.28683265  0.57639806  1
  Ti  Ti101  1  0.92026730  0.36810054  0.88419883  1
  Ti  Ti102  1  0.90306124  0.51206212  0.26142799  1
  Ti  Ti103  1  0.95013248  0.58994738  0.60336741  1
  Ti  Ti104  1  0.86519667  0.64837953  0.88731324  1
  Ti  Ti105  1  0.89454310  0.89399305  0.26084540  1
  Ti  Ti106  1  0.86882013  0.92914389  0.62412475  1
  Ti  Ti107  1  0.91977159  0.93677363  0.92983612  1
  Co  Co108  1  0.42983455  0.00872390  0.64955570  1
  Co  Co109  1  0.84492028  0.23448679  -0.04971946  1
  Co  Co110  1  0.87075755  0.22792654  0.12806365  1
  Co  Co111  1  0.80441614  0.17595683  0.26627069  1
  Co  Co112  1  0.44418625  0.27851691  -0.05847167  1
  Co  Co113  1  0.11761386  0.16746798  -0.00611987  1
  Co  Co114  1  0.63338157  0.00393432  0.07252524  1
  Co  Co115  1  0.56167651  0.70608795  0.53039620  1
  Co  Co116  1  0.52549232  0.59658809  0.26028819  1
  Co  Co117  1  0.15433382  0.79327065  0.61261596  1
  Co  Co118  1  -0.01303732  0.74310119  -0.07148299  1
  Co  Co119  1  -0.09880938  0.53613288  0.44674943  1
  Co  Co120  1  0.57023007  0.06152246  0.57279764  1
  Co  Co121  1  0.70900317  0.10145677  0.38583081  1
  Co  Co122  1  0.61812126  0.57762260  0.41798828  1
  Co  Co123  1  0.33191666  0.27577061  0.68880131  1
  Co  Co124  1  0.77057750  0.34532478  0.48995997  1
  Co  Co125  1  0.06991094  0.87476029  0.90284248  1
  Co  Co126  1  0.82590322  0.00638704  0.48459213  1
  Co  Co127  1  0.37550556  0.89846429  0.54182892  1
  Co  Co128  1  0.44045875  0.42371451  0.03687130  1
  Co  Co129  1  0.28139282  0.71355248  0.66327156  1
  Co  Co130  1  0.36767674  0.55377513  0.25417696  1
  Co  Co131  1  0.49457973  0.07663973  0.14170777  1
  Co  Co132  1  0.10425819  0.37551809  0.81765109  1
  Co  Co133  1  0.42532090  0.02470570  0.46310958  1
  Co  Co134  1  0.05780251  0.34104462  -0.02051258  1
  Co  Co135  1  0.76367726  0.89191709  0.85051314  1
  Co  Co136  1  0.34145037  0.09470504  0.14590188  1
  Co  Co137  1  0.06177088  0.48487890  0.31118946  1
  Co  Co138  1  0.30613658  0.62557367  0.11822288  1
  Co  Co139  1  0.51818127  0.78642961  0.05114568  1
  Co  Co140  1  0.30123301  0.90865553  0.13474528  1
  Co  Co141  1  0.76059854  0.46247053  0.38109188  1
  Co  Co142  1  -0.04185645  0.92673465  0.11618191  1
  Co  Co143  1  0.70463653  0.55568221  0.88637642  1
  Co  Co144  1  0.86111685  0.67197537  0.71641993  1
  Co  Co145  1  0.34881130  0.37943631  0.27954729  1
  Co  Co146  1  0.57160680  0.06625424  0.27627704  1
  Co  Co147  1  0.88487410  0.44111233  0.58018327  1
  Co  Co148  1  0.29140093  -0.05493460  0.40518256  1
  Co  Co149  1  -0.08749503  0.09841236  0.87211147  1
  Co  Co150  1  0.07491713  -0.00769448  0.03263110  1
  Co  Co151  1  0.52224348  0.35125785  0.80915543  1
  Co  Co152  1  0.33791395  -0.05707001  -0.05535861  1
  Co  Co153  1  0.27084426  0.09366050  0.87828083  1
  Co  Co154  1  0.79371798  0.79131256  0.39895400  1
  Co  Co155  1  0.50873143  0.23887003  0.68173474  1
  Co  Co156  1  0.55168165  -0.06649042  0.36691177  1
  Co  Co157  1  0.10812075  0.52888031  0.69695095  1
  Co  Co158  1  0.75036771  0.12431914  0.10974308  1
  Co  Co159  1  0.00433002  1.00702843  0.47144105  1
  Co  Co160  1  0.72308187  0.87419893  0.55857372  1
  Co  Co161  1  0.00480966  -0.02688118  0.75719219  1
  Ni  Ni162  1  0.03340301  0.26086345  0.11426974  1
  Ni  Ni163  1  0.84448027  0.34098881  0.72928259  1
  Ni  Ni164  1  0.79446211  0.22032478  0.62813015  1
  Ni  Ni165  1  0.76874713  0.62890282  0.20329206  1
  Ni  Ni166  1  0.46787536  0.50216245  0.73000869  1
  Ni  Ni167  1  0.53990693  0.76248054  0.28402038  1
  Ni  Ni168  1  -0.10593529  0.71169642  0.28198078  1
  Ni  Ni169  1  0.46284811  0.85699466  0.71303750  1
  Ni  Ni170  1  0.07627548  0.33721216  0.36880903  1
  Ni  Ni171  1  0.49724649  0.28746821  0.47982801  1
  Ni  Ni172  1  0.75253619  0.54160249  0.53483615  1
  Ni  Ni173  1  0.31984239  0.69602403  0.32458992  1
  Ni  Ni174  1  0.68779980  0.04602961  0.81593774  1
  Ni  Ni175  1  0.12999345  0.12401905  0.74831017  1
  Ni  Ni176  1  0.76574070  0.80474560  0.70825671  1
  Ni  Ni177  1  0.66212920  0.28890244  0.72650863  1
  Ni  Ni178  1  0.58579122  0.34589158  -0.02762225  1
  Ni  Ni179  1  0.16563515  0.71961693  0.36392610  1
  Ni  Ni180  1  0.00325461  0.50838715  0.86973214  1
  Ni  Ni181  1  0.80585254  0.79586680  -0.02562385  1
  Ni  Ni182  1  0.67628992  0.83188791  0.09053158  1
  Ni  Ni183  1  0.18820524  0.35781409  0.24586097  1
  Ni  Ni184  1  -0.10876191  0.56645956  0.10881706  1
  Ni  Ni185  1  0.37377540  0.18443939  0.41088698  1
  Ni  Ni186  1  0.65478793  0.27231302  0.38874445  1
  Ni  Ni187  1  0.10367244  0.31074237  0.53243266  1
  Ni  Ni188  1  0.07381063  0.26088600  0.68837007  1
  Ni  Ni189  1  0.55262591  0.04994798  0.92001938  1
  Ni  Ni190  1  0.22510661  0.03027794  0.25865681  1
  Ni  Ni191  1  0.06165054  0.76171812  0.48336073  1
  Ni  Ni192  1  0.83578776  0.00540351  0.76440117  1
  Ni  Ni193  1  0.89500417  0.06224535  0.18393324  1
  Ni  Ni194  1  0.90439841  0.69952675  0.48395535  1
  Ni  Ni195  1  0.30376182  0.35157952  -0.01580583  1
  Ni  Ni196  1  0.48171523  0.46508776  0.36416664  1
  Ni  Ni197  1  0.70466912  0.61424549  0.70814067  1
  Ni  Ni198  1  0.58711907  0.33001290  0.14143430  1
  Ni  Ni199  1  0.22730901  -0.05673763  0.82136266  1
  Ni  Ni200  1  0.55962551  0.62723208  0.80626424  1
  Ni  Ni201  1  0.19831266  0.65512476  0.78647379  1
  Ni  Ni202  1  0.22990588  0.49664313  0.80270861  1
  Ni  Ni203  1  0.06936558  0.04828466  0.32173695  1
  Ni  Ni204  1  -0.08477984  0.11971624  0.54885484  1
  Ni  Ni205  1  0.48637480  0.85781593  0.88538684  1
  Ni  Ni206  1  -0.01522411  0.75555622  0.63495936  1
  Ni  Ni207  1  0.05774847  0.80679500  0.06359054  1
  Ni  Ni208  1  0.84002140  0.49700860  -0.03588920  1
  Ni  Ni209  1  0.03123773  0.61617402  0.19052498  1
  Ni  Ni210  1  0.59652552  0.64046442  -0.02122784  1
  Ni  Ni211  1  0.76849224  0.46204659  0.13025202  1
  Ni  Ni212  1  0.16192952  0.56901717  0.08080352  1
  Ni  Ni213  1  0.13625882  0.20134735  0.29133627  1
  Ni  Ni214  1  0.21498738  -0.01856023  0.54947813  1
