# generated using pymatgen
data_Ti108Co54Ni53
_symmetry_space_group_name_H-M   'P 1'
_cell_length_a   14.68698681
_cell_length_b   14.70790778
_cell_length_c   14.74594093
_cell_angle_alpha   89.87680058
_cell_angle_beta   90.36635293
_cell_angle_gamma   90.29803930
_symmetry_Int_Tables_number   1
_chemical_formula_structural   Ti108Co54Ni53
_chemical_formula_sum   'Ti108 Co54 Ni53'
_cell_volume   3185.22683517
_cell_formula_units_Z   1
loop_
 _symmetry_equiv_pos_site_id
 _symmetry_equiv_pos_as_xyz
  1  'x, y, z'
loop_
 _atom_site_type_symbol
 _atom_site_label
 _atom_site_symmetry_multiplicity
 _atom_site_fract_x
 _atom_site_fract_y
 _atom_site_fract_z
 _atom_site_occupancy
  Ti  Ti0  1  0.07746371  0.09391813  0.33593167  1
  Ti  Ti1  1  0.08226395  0.13268463  0.62314398  1
  Ti  Ti2  1  0.10744005  0.06274948  0.91116715  1
  Ti  Ti3  1  0.11114281  0.44537043  0.26144320  1
  Ti  Ti4  1  0.14111559  0.44932261  0.55507658  1
  Ti  Ti5  1  0.15468016  0.39829361  0.92665642  1
  Ti  Ti6  1  0.04861680  0.75194664  0.24477623  1
  Ti  Ti7  1  0.08006491  0.72180570  0.50601719  1
  Ti  Ti8  1  0.06238749  0.82010065  0.92185164  1
  Ti  Ti9  1  0.43962501  0.08144853  0.28260005  1
  Ti  Ti10  1  0.38401865  0.04675547  0.59678373  1
  Ti  Ti11  1  0.39329497  0.02098541  0.99010166  1
  Ti  Ti12  1  0.45916004  0.41299107  0.12282234  1
  Ti  Ti13  1  0.38466190  0.36927107  0.54499709  1
  Ti  Ti14  1  0.41567323  0.55013831  0.96023049  1
  Ti  Ti15  1  0.42324047  0.76678224  0.25814272  1
  Ti  Ti16  1  0.38589334  0.79793796  0.63333990  1
  Ti  Ti17  1  0.37922568  0.73074238  0.83104343  1
  Ti  Ti18  1  0.71771464  0.06625301  0.24190243  1
  Ti  Ti19  1  0.70379039  0.09862360  0.53821108  1
  Ti  Ti20  1  0.74664097  0.07843973  0.91088502  1
  Ti  Ti21  1  0.84959736  0.40282311  0.28808946  1
  Ti  Ti22  1  0.78596440  0.38542862  0.64058814  1
  Ti  Ti23  1  0.73186459  0.47201021  0.95901662  1
  Ti  Ti24  1  0.74299533  0.77518899  0.19008105  1
  Ti  Ti25  1  0.80107332  0.74903224  0.63311049  1
  Ti  Ti26  1  0.69647226  0.74870906  0.88892026  1
  Ti  Ti27  1  0.07810132  0.22662045  0.05287471  1
  Ti  Ti28  1  0.04661911  0.30763400  0.37116543  1
  Ti  Ti29  1  0.08976408  0.30710291  0.72760393  1
  Ti  Ti30  1  0.06525054  0.53965654  0.04827142  1
  Ti  Ti31  1  0.15315286  0.58517730  0.38691527  1
  Ti  Ti32  1  0.12039366  0.61145265  0.68431457  1
  Ti  Ti33  1  0.08231808  0.87470193  0.09085666  1
  Ti  Ti34  1  0.09148606  0.89388352  0.37347613  1
  Ti  Ti35  1  0.11175523  0.81463581  0.70790098  1
  Ti  Ti36  1  0.32731656  0.27436569  0.08862642  1
  Ti  Ti37  1  0.36865351  0.21154866  0.41839411  1
  Ti  Ti38  1  0.47881226  0.27226376  0.74513428  1
  Ti  Ti39  1  0.36019466  0.62660793  0.12613348  1
  Ti  Ti40  1  0.42730719  0.42895523  0.36462459  1
  Ti  Ti41  1  0.44392652  0.57370965  0.75327940  1
  Ti  Ti42  1  0.40266794  0.84252164  0.07500197  1
  Ti  Ti43  1  0.32007478  0.90579220  0.35188503  1
  Ti  Ti44  1  0.39537741  0.95471292  0.78969584  1
  Ti  Ti45  1  0.72924246  0.19149733  0.09724852  1
  Ti  Ti46  1  0.77205390  0.26930705  0.47551011  1
  Ti  Ti47  1  0.72709275  0.28302813  0.80268747  1
  Ti  Ti48  1  0.72219288  0.56434480  0.14482344  1
  Ti  Ti49  1  0.83503469  0.56947295  0.41735472  1
  Ti  Ti50  1  0.80994736  0.61468189  0.79026681  1
  Ti  Ti51  1  0.82617939  0.93808035  0.08452634  1
  Ti  Ti52  1  0.77424140  0.95297963  0.40724004  1
  Ti  Ti53  1  0.70846604  0.90203690  0.75220308  1
  Ti  Ti54  1  0.26633416  0.09124910  0.13947155  1
  Ti  Ti55  1  0.22390960  0.06289723  0.47660083  1
  Ti  Ti56  1  0.21897181  0.04777740  0.74032720  1
  Ti  Ti57  1  0.24934783  0.45457291  0.12464681  1
  Ti  Ti58  1  0.23614055  0.37004236  0.40154591  1
  Ti  Ti59  1  0.28521844  0.35036797  0.71301854  1
  Ti  Ti60  1  0.24856607  0.79472983  0.17950585  1
  Ti  Ti61  1  0.30062187  0.72832801  0.44979441  1
  Ti  Ti62  1  0.18547794  0.68925183  0.87377314  1
  Ti  Ti63  1  0.56276347  0.09760516  0.02264775  1
  Ti  Ti64  1  0.59537729  0.03130638  0.38526118  1
  Ti  Ti65  1  0.55098028  0.08792386  0.67739483  1
  Ti  Ti66  1  0.66533845  0.37351736  0.15791642  1
  Ti  Ti67  1  0.64909621  0.37561122  0.38016852  1
  Ti  Ti68  1  0.55975685  0.42077592  0.85856606  1
  Ti  Ti69  1  0.60660717  0.85821639  0.03940398  1
  Ti  Ti70  1  0.64059972  0.80782362  0.36123250  1
  Ti  Ti71  1  0.54273257  0.80369133  0.75746560  1
  Ti  Ti72  1  0.93720617  0.09596445  0.03819613  1
  Ti  Ti73  1  0.90660915  0.07543166  0.51497869  1
  Ti  Ti74  1  0.88896116  0.05123312  0.71737623  1
  Ti  Ti75  1  0.88187237  0.36990404  0.06790468  1
  Ti  Ti76  1  0.92243262  0.40437915  0.48433086  1
  Ti  Ti77  1  0.94501107  0.42616524  0.77749538  1
  Ti  Ti78  1  0.91900137  0.69599656  0.05639659  1
  Ti  Ti79  1  0.86490697  0.77934584  0.33941373  1
  Ti  Ti80  1  0.95692561  0.74765004  0.77737469  1
  Ti  Ti81  1  0.17160917  0.25781214  0.22356094  1
  Ti  Ti82  1  0.23505759  0.23647444  0.56969861  1
  Ti  Ti83  1  0.30420111  0.26840947  0.88070439  1
  Ti  Ti84  1  0.17558881  0.61942530  0.19320454  1
  Ti  Ti85  1  0.30603340  0.51852721  0.63675071  1
  Ti  Ti86  1  0.26516148  0.52999378  0.83094862  1
  Ti  Ti87  1  0.17816667  0.95802352  0.23159072  1
  Ti  Ti88  1  0.16332986  0.89619839  0.53936353  1
  Ti  Ti89  1  0.27044030  0.88522659  0.92288633  1
  Ti  Ti90  1  0.50850701  0.27462909  0.26514038  1
  Ti  Ti91  1  0.60717449  0.27510435  0.58707522  1
  Ti  Ti92  1  0.56749123  0.24390476  0.91925471  1
  Ti  Ti93  1  0.57842425  0.63920438  0.24835337  1
  Ti  Ti94  1  0.62926147  0.56535315  0.77700778  1
  Ti  Ti95  1  0.59599837  0.58875284  0.97934257  1
  Ti  Ti96  1  0.52999174  0.97411794  0.16731225  1
  Ti  Ti97  1  0.64219185  0.90988937  0.56400598  1
  Ti  Ti98  1  0.56801164  0.98000457  0.86039622  1
  Ti  Ti99  1  0.88736982  0.20938396  0.28561832  1
  Ti  Ti100  1  0.92446093  0.24962183  0.63693090  1
  Ti  Ti101  1  0.94450002  0.23119802  0.84508939  1
  Ti  Ti102  1  0.89568183  0.60495975  0.23754254  1
  Ti  Ti103  1  0.88717436  0.56002691  0.61282066  1
  Ti  Ti104  1  0.91467907  0.53067111  0.92843528  1
  Ti  Ti105  1  0.98174257  0.96800135  0.21678348  1
  Ti  Ti106  1  0.95463361  0.88438425  0.60242861  1
  Ti  Ti107  1  0.86815056  0.89067952  0.89707734  1
  Co  Co108  1  0.75760377  0.44692810  0.49580545  1
  Co  Co109  1  0.68783876  0.02083158  0.07802878  1
  Co  Co110  1  0.02475706  0.14448669  0.19294917  1
  Co  Co111  1  0.53612551  0.11147417  0.50988718  1
  Co  Co112  1  0.89062419  0.69513927  0.50223894  1
  Co  Co113  1  0.56147554  0.79995958  0.18690158  1
  Co  Co114  1  0.55245485  0.27100468  0.08492000  1
  Co  Co115  1  0.24745945  -0.06192721  0.07610191  1
  Co  Co116  1  -0.00599383  0.43321273  0.62872801  1
  Co  Co117  1  0.31721458  0.09998815  0.86059466  1
  Co  Co118  1  0.19805077  0.20145264  0.76879347  1
  Co  Co119  1  0.00276406  0.30713231  0.21293631  1
  Co  Co120  1  0.98291485  0.49253168  0.35239081  1
  Co  Co121  1  -0.00730774  0.94691381  0.80323048  1
  Co  Co122  1  0.01779504  0.56232487  0.50728169  1
  Co  Co123  1  0.66307849  -0.08563857  0.24687452  1
  Co  Co124  1  0.10006389  0.53334324  0.86696114  1
  Co  Co125  1  0.76736410  0.62814746  -0.01814412  1
  Co  Co126  1  0.72540515  0.50356663  0.29501024  1
  Co  Co127  1  0.64868328  0.70178550  0.08017414  1
  Co  Co128  1  0.42853308  0.12389121  0.12909482  1
  Co  Co129  1  0.05019359  0.00674640  0.50086783  1
  Co  Co130  1  0.07038873  -0.02060827  0.66831649  1
  Co  Co131  1  0.03975612  0.12174615  0.77593282  1
  Co  Co132  1  0.86989528  0.72336138  0.90578578  1
  Co  Co133  1  0.82526159  0.92131933  0.25831331  1
  Co  Co134  1  0.63194877  0.20225674  0.40645128  1
  Co  Co135  1  0.30848693  0.66170566  0.29485278  1
  Co  Co136  1  0.53580175  0.55147932  0.11931002  1
  Co  Co137  1  0.36354829  0.95032128  0.19796934  1
  Co  Co138  1  0.73095321  0.55178482  0.64662665  1
  Co  Co139  1  0.10836596  0.23986188  0.89241081  1
  Co  Co140  1  0.08149721  0.16646578  0.47187824  1
  Co  Co141  1  0.86090283  0.87777130  0.73312452  1
  Co  Co142  1  -0.01647122  0.58158482  0.76209541  1
  Co  Co143  1  -0.01915186  0.69778192  0.63075111  1
  Co  Co144  1  0.62570662  0.38959364  0.71271051  1
  Co  Co145  1  0.22973734  0.76440427  0.60444808  1
  Co  Co146  1  0.20922898  0.77796355  0.02545713  1
  Co  Co147  1  0.73908796  0.66184001  0.30756001  1
  Co  Co148  1  0.28516524  0.66139245  0.71567347  1
  Co  Co149  1  0.47721191  0.10941133  0.84612187  1
  Co  Co150  1  0.33091146  0.89755050  0.50851527  1
  Co  Co151  1  0.78231781  0.79348104  0.02610644  1
  Co  Co152  1  0.14953245  -0.07507833  0.82364121  1
  Co  Co153  1  0.48923159  0.70193732  0.06413721  1
  Co  Co154  1  0.86672211  0.53570699  0.08299633  1
  Co  Co155  1  0.22988953  0.57918538  0.00878716  1
  Co  Co156  1  0.14469612  0.45715792  0.73113874  1
  Co  Co157  1  0.89538064  0.22613095  0.12169758  1
  Co  Co158  1  0.91212352  0.07373022  0.87980182  1
  Co  Co159  1  -0.00607977  -0.04216491  -0.02095753  1
  Co  Co160  1  0.20349077  0.21410588  0.37930207  1
  Co  Co161  1  0.08652825  0.70077393  0.07829974  1
  Ni  Ni162  1  0.46552731  0.42552586  0.67826524  1
  Ni  Ni163  1  0.19198685  0.76930924  0.33389179  1
  Ni  Ni164  1  0.92951969  0.22816366  0.45854991  1
  Ni  Ni165  1  0.71052338  0.92053215  0.93350346  1
  Ni  Ni166  1  0.09639108  0.38203698  0.09890888  1
  Ni  Ni167  1  -0.03553464  0.83271090  0.45413799  1
  Ni  Ni168  1  0.34471575  0.17629051  0.70867552  1
  Ni  Ni169  1  0.39209046  0.04117698  0.43262539  1
  Ni  Ni170  1  -0.00835011  0.66054053  0.37127548  1
  Ni  Ni171  1  0.43944279  0.21585902  0.58508754  1
  Ni  Ni172  1  0.86691306  0.07703239  0.18808568  1
  Ni  Ni173  1  0.44890241  0.34990854  0.96748273  1
  Ni  Ni174  1  0.39226612  0.41860518  0.82669863  1
  Ni  Ni175  1  0.10607966  0.04717420  0.08345211  1
  Ni  Ni176  1  0.21131519  0.61713799  0.54153273  1
  Ni  Ni177  1  0.50852482  0.29719329  0.44982541  1
  Ni  Ni178  1  0.33501531  0.20878901  0.24996580  1
  Ni  Ni179  1  -0.00055895  0.36201897  -0.05399009  1
  Ni  Ni180  1  0.52929512  0.67886186  0.86513659  1
  Ni  Ni181  1  0.06239280  0.30269207  0.55018318  1
  Ni  Ni182  1  0.30974813  0.42504470  -0.02231235  1
  Ni  Ni183  1  0.49777355  0.90740755  0.32051656  1
  Ni  Ni184  1  0.71639311  0.05435238  0.70200089  1
  Ni  Ni185  1  -0.08611536  0.81275035  0.16933539  1
  Ni  Ni186  1  0.66932619  0.71225029  0.71611918  1
  Ni  Ni187  1  0.84190214  0.36419638  0.89921897  1
  Ni  Ni188  1  0.34153212  0.70872908  -0.01898327  1
  Ni  Ni189  1  0.69910686  0.31555033  -0.00906495  1
  Ni  Ni190  1  0.27114370  0.50342260  0.29538933  1
  Ni  Ni191  1  0.77114990  0.80935064  0.48330968  1
  Ni  Ni192  1  0.27468510  -0.07086106  0.65244134  1
  Ni  Ni193  1  0.76033379  0.45522672  0.78886650  1
  Ni  Ni194  1  0.77880945  0.12352986  0.38698256  1
  Ni  Ni195  1  0.23135770  0.15735959  -0.00900028  1
  Ni  Ni196  1  0.26852458  0.07167132  0.31636643  1
  Ni  Ni197  1  0.80002610  -0.04930242  0.59507055  1
  Ni  Ni198  1  0.46782242  0.85397311  -0.08104457  1
  Ni  Ni199  1  0.76712289  0.20547483  0.64981241  1
  Ni  Ni200  1  -0.02878307  0.46626892  0.18117669  1
  Ni  Ni201  1  0.58359335  0.14842847  0.19661118  1
  Ni  Ni202  1  0.82804113  0.21299827  -0.03915109  1
  Ni  Ni203  1  0.02101067  0.65830284  -0.07987696  1
  Ni  Ni204  1  0.49677461  -0.06351192  0.49423273  1
  Ni  Ni205  1  0.42261317  0.53859158  0.24269967  1
  Ni  Ni206  1  -0.06049180  -0.02290565  0.37813405  1
  Ni  Ni207  1  0.33614251  0.36543736  0.24082092  1
  Ni  Ni208  1  0.56509495  0.46193771  0.25990571  1
  Ni  Ni209  1  0.50688975  0.93078153  0.66253306  1
  Ni  Ni210  1  0.26580627  0.82195773  0.76515626  1
  Ni  Ni211  1  0.63420719  0.14507007  0.80569855  1
  Ni  Ni212  1  0.71567668  0.25672315  0.27374613  1
  Ni  Ni213  1  0.41268232  0.18595787  -0.02032948  1
  Ni  Ni214  1  0.30497271  0.51009998  0.46296537  1
