# generated using pymatgen
data_Ti108Co54Ni53
_symmetry_space_group_name_H-M   'P 1'
_cell_length_a   14.62055261
_cell_length_b   14.70105487
_cell_length_c   14.70857281
_cell_angle_alpha   89.79805424
_cell_angle_beta   89.82510684
_cell_angle_gamma   89.98447152
_symmetry_Int_Tables_number   1
_chemical_formula_structural   Ti108Co54Ni53
_chemical_formula_sum   'Ti108 Co54 Ni53'
_cell_volume   3161.39007515
_cell_formula_units_Z   1
loop_
 _symmetry_equiv_pos_site_id
 _symmetry_equiv_pos_as_xyz
  1  'x, y, z'
loop_
 _atom_site_type_symbol
 _atom_site_label
 _atom_site_symmetry_multiplicity
 _atom_site_fract_x
 _atom_site_fract_y
 _atom_site_fract_z
 _atom_site_occupancy
  Ti  Ti0  1  0.08501288  0.19304036  0.24544726  1
  Ti  Ti1  1  0.12424380  0.08525642  0.58214599  1
  Ti  Ti2  1  0.11286713  0.15053811  0.94659921  1
  Ti  Ti3  1  0.12142112  0.45539083  0.22684849  1
  Ti  Ti4  1  0.06709503  0.47605194  0.59874520  1
  Ti  Ti5  1  0.11473755  0.39950866  0.90711026  1
  Ti  Ti6  1  0.07948597  0.72415870  0.20245926  1
  Ti  Ti7  1  0.06017750  0.71114164  0.62779397  1
  Ti  Ti8  1  0.07045726  0.72484241  0.96399669  1
  Ti  Ti9  1  0.39790939  0.06355031  0.18665129  1
  Ti  Ti10  1  0.38913189  0.05203544  0.59076814  1
  Ti  Ti11  1  0.44464135  0.16956789  0.91629127  1
  Ti  Ti12  1  0.38373156  0.42797391  0.23934496  1
  Ti  Ti13  1  0.39616987  0.40138674  0.55615907  1
  Ti  Ti14  1  0.43864067  0.39507638  0.90405077  1
  Ti  Ti15  1  0.36044872  0.74863812  0.20483618  1
  Ti  Ti16  1  0.39068056  0.71634989  0.67132900  1
  Ti  Ti17  1  0.41420616  0.79085183  0.90699224  1
  Ti  Ti18  1  0.76976690  0.16826888  0.22994375  1
  Ti  Ti19  1  0.72484631  0.04381061  0.57162632  1
  Ti  Ti20  1  0.70416888  0.07302199  0.88570193  1
  Ti  Ti21  1  0.76890040  0.44836349  0.27476329  1
  Ti  Ti22  1  0.77011002  0.34214300  0.59191372  1
  Ti  Ti23  1  0.78066616  0.38384721  0.87631773  1
  Ti  Ti24  1  0.68648603  0.70007306  0.21956901  1
  Ti  Ti25  1  0.70014602  0.82042789  0.56207810  1
  Ti  Ti26  1  0.69818716  0.75491079  0.99214742  1
  Ti  Ti27  1  0.12141960  0.30322666  0.08940872  1
  Ti  Ti28  1  0.03919969  0.20881554  0.44132853  1
  Ti  Ti29  1  0.07240408  0.20407355  0.74384543  1
  Ti  Ti30  1  -0.01853110  0.58247873  0.09457509  1
  Ti  Ti31  1  0.13761090  0.61444557  0.46555421  1
  Ti  Ti32  1  0.10451172  0.54854100  0.78173937  1
  Ti  Ti33  1  0.10987597  0.90406745  0.05032714  1
  Ti  Ti34  1  0.11006089  0.87479466  0.50806062  1
  Ti  Ti35  1  0.08860006  0.89448018  0.71689158  1
  Ti  Ti36  1  0.33274491  0.25100829  0.12747927  1
  Ti  Ti37  1  0.43947962  0.21691917  0.48441200  1
  Ti  Ti38  1  0.35695266  0.27425736  0.77049837  1
  Ti  Ti39  1  0.43738350  0.64074550  0.05666146  1
  Ti  Ti40  1  0.44835544  0.60360029  0.50584884  1
  Ti  Ti41  1  0.46868785  0.58681486  0.79497477  1
  Ti  Ti42  1  0.33440573  0.89500382  0.05997410  1
  Ti  Ti43  1  0.42321542  0.89819076  0.46008987  1
  Ti  Ti44  1  0.43981052  0.94507057  0.76764807  1
  Ti  Ti45  1  0.74665477  0.33474786  0.06568093  1
  Ti  Ti46  1  0.75597011  0.30386469  0.39482841  1
  Ti  Ti47  1  0.79964087  0.20941361  0.77738953  1
  Ti  Ti48  1  0.75626289  0.57783289  0.08357271  1
  Ti  Ti49  1  0.72357914  0.60806933  0.38176933  1
  Ti  Ti50  1  0.79796536  0.64523126  0.67456077  1
  Ti  Ti51  1  0.69986615  0.96096593  0.02987850  1
  Ti  Ti52  1  0.77859712  0.92354734  0.42122611  1
  Ti  Ti53  1  0.76595014  0.94655928  0.75360784  1
  Ti  Ti54  1  0.30613636  0.08730836  0.02572941  1
  Ti  Ti55  1  0.33571726  0.05855277  0.39389762  1
  Ti  Ti56  1  0.24352123  0.02052906  0.71600679  1
  Ti  Ti57  1  0.27971523  0.43789457  0.07072303  1
  Ti  Ti58  1  0.28674784  0.37637675  0.40069015  1
  Ti  Ti59  1  0.24053683  0.41432022  0.71220066  1
  Ti  Ti60  1  0.25182486  0.71303612  0.05796146  1
  Ti  Ti61  1  0.32986855  0.73222754  0.41556834  1
  Ti  Ti62  1  0.25496996  0.69474037  0.82872295  1
  Ti  Ti63  1  0.58892018  0.08159101  0.16270248  1
  Ti  Ti64  1  0.64036999  0.04485860  0.36086592  1
  Ti  Ti65  1  0.52320679  0.15613103  0.69960882  1
  Ti  Ti66  1  0.52454007  0.37171949  0.08004678  1
  Ti  Ti67  1  0.58959195  0.38935808  0.49440519  1
  Ti  Ti68  1  0.61513246  0.42193953  0.74974554  1
  Ti  Ti69  1  0.53805878  0.80098716  0.06794628  1
  Ti  Ti70  1  0.55782352  0.71459737  0.38801945  1
  Ti  Ti71  1  0.59332943  0.77578847  0.72773101  1
  Ti  Ti72  1  0.87949373  0.05062849  0.08626338  1
  Ti  Ti73  1  0.89789167  0.06645751  0.47908295  1
  Ti  Ti74  1  0.91250202  0.06008163  0.70984208  1
  Ti  Ti75  1  0.94719605  0.38560303  0.02391287  1
  Ti  Ti76  1  0.91842817  0.37939990  0.41960918  1
  Ti  Ti77  1  0.88591581  0.45492362  0.70313545  1
  Ti  Ti78  1  0.87722254  0.70682137  -0.02682535  1
  Ti  Ti79  1  0.89533241  0.73859655  0.38267156  1
  Ti  Ti80  1  0.92900307  0.78847662  0.78266419  1
  Ti  Ti81  1  0.34401805  0.22708078  0.30966264  1
  Ti  Ti82  1  0.19339107  0.28382718  0.57461911  1
  Ti  Ti83  1  0.27342677  0.27436949  0.95681860  1
  Ti  Ti84  1  0.23335976  0.61743880  0.28836471  1
  Ti  Ti85  1  0.22934908  0.60634029  0.63493427  1
  Ti  Ti86  1  0.19504579  0.56551998  0.95698197  1
  Ti  Ti87  1  0.30744596  0.91546548  0.27564026  1
  Ti  Ti88  1  0.28880925  0.87106963  0.60420413  1
  Ti  Ti89  1  0.22175320  0.97311077  0.89611154  1
  Ti  Ti90  1  0.60336279  0.23684892  0.32897293  1
  Ti  Ti91  1  0.62696206  0.19892098  0.53292116  1
  Ti  Ti92  1  0.63084039  0.23780397  0.93391478  1
  Ti  Ti93  1  0.54830610  0.54960328  0.25308728  1
  Ti  Ti94  1  0.63179882  0.63194963  0.56804489  1
  Ti  Ti95  1  0.65063574  0.57281224  0.91304292  1
  Ti  Ti96  1  0.60546915  0.88259047  0.25607133  1
  Ti  Ti97  1  0.56490415  0.95776336  0.57261380  1
  Ti  Ti98  1  0.58896674  0.89841258  0.89082565  1
  Ti  Ti99  1  0.92136913  0.30901789  0.20715223  1
  Ti  Ti100  1  0.96968667  0.30763238  0.60890036  1
  Ti  Ti101  1  0.86072820  0.19885546  0.97001721  1
  Ti  Ti102  1  0.88213386  0.63163484  0.23557439  1
  Ti  Ti103  1  0.92069887  0.59004614  0.52431795  1
  Ti  Ti104  1  0.91321286  0.60127571  0.83147782  1
  Ti  Ti105  1  0.83567957  0.86502030  0.23770198  1
  Ti  Ti106  1  0.90494850  0.79544234  0.57487595  1
  Ti  Ti107  1  0.93398190  0.88880469  0.95041401  1
  Co  Co108  1  0.03179849  0.63231943  0.32792571  1
  Co  Co109  1  0.00924911  0.03431849  -0.03339269  1
  Co  Co110  1  0.45838104  -0.09926537  0.18227754  1
  Co  Co111  1  0.37314740  0.54097408  0.63541052  1
  Co  Co112  1  0.21524762  0.74316569  0.52869078  1
  Co  Co113  1  0.23346735  0.17894414  0.69244023  1
  Co  Co114  1  0.58996030  0.53617288  0.43276419  1
  Co  Co115  1  0.25399965  0.88183759  0.42573005  1
  Co  Co116  1  0.38201742  0.09924289  0.76455270  1
  Co  Co117  1  0.44575719  0.48426605  0.38506104  1
  Co  Co118  1  0.51069465  0.31378805  0.63213882  1
  Co  Co119  1  0.91007835  0.20813747  0.33295820  1
  Co  Co120  1  0.24706535  0.00299798  0.52327952  1
  Co  Co121  1  0.07845190  0.87898236  0.87435183  1
  Co  Co122  1  0.40714934  0.62101696  0.30904164  1
  Co  Co123  1  0.53175266  0.76408612  0.54611007  1
  Co  Co124  1  0.83887592  0.88702740  0.07605939  1
  Co  Co125  1  0.18933219  0.28920791  0.81611589  1
  Co  Co126  1  -0.03003905  0.60191862  0.68239540  1
  Co  Co127  1  0.61923885  0.39586709  -0.07067155  1
  Co  Co128  1  0.45477505  0.81508777  0.32073910  1
  Co  Co129  1  0.30154934  0.55108379  0.77701815  1
  Co  Co130  1  0.05475922  0.33703765  0.31713477  1
  Co  Co131  1  0.02284246  0.55905528  -0.05659044  1
  Co  Co132  1  0.48228852  -0.02457472  0.32419287  1
  Co  Co133  1  0.78492901  0.69288799  0.50617313  1
  Co  Co134  1  0.69868747  0.83975578  0.13692757  1
  Co  Co135  1  0.52362072  0.71328632  0.21222302  1
  Co  Co136  1  0.03214547  0.73731432  0.46461935  1
  Co  Co137  1  0.44898030  0.86355629  0.63573114  1
  Co  Co138  1  0.62379917  0.61344068  0.74242115  1
  Co  Co139  1  0.77954366  0.86326144  0.89330255  1
  Co  Co140  1  0.57930636  0.08416092  -0.00498580  1
  Co  Co141  1  0.56584800  0.72672866  0.88449621  1
  Co  Co142  1  -0.02241992  0.78208513  0.09320804  1
  Co  Co143  1  0.06877946  0.38204387  0.73294467  1
  Co  Co144  1  0.80075117  0.17786213  0.61673639  1
  Co  Co145  1  0.87534262  0.23549550  0.49048764  1
  Co  Co146  1  0.78028547  0.80177620  0.70972309  1
  Co  Co147  1  0.26983561  0.16688052  0.49876629  1
  Co  Co148  1  0.51518744  0.07167232  0.46705184  1
  Co  Co149  1  0.31021508  0.55874077  0.44102916  1
  Co  Co150  1  0.54269259  0.06612765  0.83998815  1
  Co  Co151  1  0.37039224  0.21647700  0.62491702  1
  Co  Co152  1  -0.04439499  0.14202465  0.84694356  1
  Co  Co153  1  -0.02413020  0.15037641  0.59432801  1
  Co  Co154  1  0.24465220  0.12183382  0.24776424  1
  Co  Co155  1  0.18810064  0.24357267  0.37959871  1
  Co  Co156  1  0.21965856  0.31665509  0.22840284  1
  Co  Co157  1  0.52975871  0.29536439  0.80703958  1
  Co  Co158  1  0.39299112  -0.00673832  -0.08815591  1
  Co  Co159  1  0.83636405  -0.06537225  0.59503182  1
  Co  Co160  1  0.73017390  0.13686901  0.06557176  1
  Co  Co161  1  0.07440327  0.70904220  0.80019050  1
  Ni  Ni162  1  0.51018918  0.51769350  -0.02282393  1
  Ni  Ni163  1  0.30178795  0.85653647  0.78672261  1
  Ni  Ni164  1  0.09866966  0.36642792  0.47179067  1
  Ni  Ni165  1  0.43219701  0.42535433  0.73470390  1
  Ni  Ni166  1  0.25335231  0.13765599  0.85509997  1
  Ni  Ni167  1  0.65697264  0.44923277  0.15061277  1
  Ni  Ni168  1  0.60576290  -0.03921374  0.72864246  1
  Ni  Ni169  1  0.17140522  0.14883500  0.10464439  1
  Ni  Ni170  1  0.84181557  0.04082098  0.31336873  1
  Ni  Ni171  1  0.71650405  0.49912392  0.63345837  1
  Ni  Ni172  1  0.16332858  0.75726212  0.35968693  1
  Ni  Ni173  1  0.48411436  0.13395492  0.31279871  1
  Ni  Ni174  1  0.75612029  0.14159438  0.42147373  1
  Ni  Ni175  1  -0.00434184  -0.03560115  0.59566160  1
  Ni  Ni176  1  0.85225293  0.45972910  0.13424257  1
  Ni  Ni177  1  0.49336955  0.95695032  0.03285395  1
  Ni  Ni178  1  0.20611464  0.83041994  0.17621726  1
  Ni  Ni179  1  0.59582900  0.60888148  0.09621101  1
  Ni  Ni180  1  0.17412946  0.48437378  0.37573079  1
  Ni  Ni181  1  0.63232985  0.25190503  0.15332151  1
  Ni  Ni182  1  0.16219251  0.59396163  0.13014489  1
  Ni  Ni183  1  -0.04112693  0.47214462  0.26028029  1
  Ni  Ni184  1  0.87255706  0.54609247  0.37785460  1
  Ni  Ni185  1  0.82320618  0.73324892  0.12403762  1
  Ni  Ni186  1  0.92854896  0.30255081  0.78023323  1
  Ni  Ni187  1  0.22190466  0.81626851  -0.06429169  1
  Ni  Ni188  1  0.08623195  0.04077453  0.80548429  1
  Ni  Ni189  1  -0.04507213  0.43723272  0.85918423  1
  Ni  Ni190  1  0.85769734  0.02252673  0.88945816  1
  Ni  Ni191  1  0.66027232  0.26759355  0.69252823  1
  Ni  Ni192  1  0.02289703  0.49954973  0.41707789  1
  Ni  Ni193  1  0.48133011  0.28027605  0.21833624  1
  Ni  Ni194  1  0.22394682  -0.00600636  0.14372752  1
  Ni  Ni195  1  0.60759164  0.40644259  0.31823747  1
  Ni  Ni196  1  0.33009662  0.56870753  0.15994311  1
  Ni  Ni197  1  0.27799925  0.43055092  -0.11796040  1
  Ni  Ni198  1  0.75042628  0.70031395  0.83694708  1
  Ni  Ni199  1  0.75852973  0.53063407  0.79583903  1
  Ni  Ni200  1  0.68101968  0.10638107  0.71845786  1
  Ni  Ni201  1  0.72190597  0.77841678  0.36850228  1
  Ni  Ni202  1  0.20081534  0.76648431  0.69240700  1
  Ni  Ni203  1  0.59720124  0.88128186  0.42490628  1
  Ni  Ni204  1  0.35885662  0.58058162  -0.07257628  1
  Ni  Ni205  1  0.84882638  0.51502260  -0.03553161  1
  Ni  Ni206  1  0.48799585  0.19666153  0.07632060  1
  Ni  Ni207  1  0.22849682  0.45924087  0.54224024  1
  Ni  Ni208  1  0.75122084  0.46164005  0.46607985  1
  Ni  Ni209  1  0.46702199  0.33270708  0.37533308  1
  Ni  Ni210  1  0.01173684  0.27542154  -0.07879820  1
  Ni  Ni211  1  0.73920781  0.00012169  0.19239130  1
  Ni  Ni212  1  0.53828700  0.49861145  0.62217348  1
  Ni  Ni213  1  0.09808447  0.46433512  0.06047365  1
  Ni  Ni214  1  -0.00744062  0.18982026  0.08094356  1
