# generated using pymatgen
data_Ti108Co54Ni53
_symmetry_space_group_name_H-M   'P 1'
_cell_length_a   14.62509143
_cell_length_b   14.68300820
_cell_length_c   14.64844040
_cell_angle_alpha   89.72168747
_cell_angle_beta   90.13884935
_cell_angle_gamma   90.11185948
_symmetry_Int_Tables_number   1
_chemical_formula_structural   Ti108Co54Ni53
_chemical_formula_sum   'Ti108 Co54 Ni53'
_cell_volume   3145.55876489
_cell_formula_units_Z   1
loop_
 _symmetry_equiv_pos_site_id
 _symmetry_equiv_pos_as_xyz
  1  'x, y, z'
loop_
 _atom_site_type_symbol
 _atom_site_label
 _atom_site_symmetry_multiplicity
 _atom_site_fract_x
 _atom_site_fract_y
 _atom_site_fract_z
 _atom_site_occupancy
  Ti  Ti0  1  0.13483856  0.10319223  0.17272475  1
  Ti  Ti1  1  0.04693508  0.05492364  0.51861741  1
  Ti  Ti2  1  0.13794206  0.09265184  0.97141516  1
  Ti  Ti3  1  0.10998417  0.41892691  0.22667222  1
  Ti  Ti4  1  0.11564849  0.36244175  0.63718056  1
  Ti  Ti5  1  0.12535379  0.41127529  0.95275658  1
  Ti  Ti6  1  0.14276661  0.69402211  0.21271156  1
  Ti  Ti7  1  0.03187182  0.71378441  0.60452975  1
  Ti  Ti8  1  0.09350095  0.73530110  0.92081889  1
  Ti  Ti9  1  0.45008326  0.05378554  0.29804323  1
  Ti  Ti10  1  0.41548355  0.05188735  0.64075306  1
  Ti  Ti11  1  0.31943029  0.08946891  0.84151795  1
  Ti  Ti12  1  0.43546518  0.39406140  0.30119688  1
  Ti  Ti13  1  0.45700519  0.44254643  0.61109213  1
  Ti  Ti14  1  0.45548789  0.43206261  0.93035728  1
  Ti  Ti15  1  0.45309528  0.74603172  0.26346823  1
  Ti  Ti16  1  0.35528772  0.74924610  0.54656396  1
  Ti  Ti17  1  0.33570582  0.74396842  0.89458881  1
  Ti  Ti18  1  0.81473888  0.11253639  0.20618738  1
  Ti  Ti19  1  0.72329096  0.13609626  0.61510585  1
  Ti  Ti20  1  0.78654272  0.06139151  0.91283114  1
  Ti  Ti21  1  0.81997807  0.50904408  0.25252877  1
  Ti  Ti22  1  0.78206163  0.49531707  0.60204968  1
  Ti  Ti23  1  0.74146666  0.49979979  0.97147509  1
  Ti  Ti24  1  0.73362343  0.77010410  0.29413401  1
  Ti  Ti25  1  0.70355373  0.77898378  0.59388116  1
  Ti  Ti26  1  0.75784753  0.80078194  0.90465285  1
  Ti  Ti27  1  0.04627362  0.27868966  0.09104580  1
  Ti  Ti28  1  0.05442130  0.24069360  0.45409891  1
  Ti  Ti29  1  0.08193286  0.18362014  0.79170268  1
  Ti  Ti30  1  0.05497929  0.52024207  0.08921217  1
  Ti  Ti31  1  0.10757536  0.56520362  0.38194725  1
  Ti  Ti32  1  0.14101815  0.50708745  0.75930695  1
  Ti  Ti33  1  0.03598218  0.93145093  0.08948989  1
  Ti  Ti34  1  0.01895619  0.91430590  0.36403131  1
  Ti  Ti35  1  0.06008619  0.90261357  0.65731869  1
  Ti  Ti36  1  0.37116829  0.28972219  0.08234569  1
  Ti  Ti37  1  0.37134637  0.21901678  0.38619159  1
  Ti  Ti38  1  0.37837748  0.27253721  0.65356216  1
  Ti  Ti39  1  0.42990721  0.47782144  0.11948460  1
  Ti  Ti40  1  0.34848826  0.53850582  0.48608480  1
  Ti  Ti41  1  0.45258440  0.58984338  0.83201505  1
  Ti  Ti42  1  0.34473794  0.88646311  0.13320155  1
  Ti  Ti43  1  0.45727225  0.94196619  0.49709952  1
  Ti  Ti44  1  0.39994141  0.85025578  0.70564955  1
  Ti  Ti45  1  0.69341446  0.27212539  0.16678787  1
  Ti  Ti46  1  0.74183384  0.22065850  0.35944206  1
  Ti  Ti47  1  0.79718659  0.30741342  0.71514230  1
  Ti  Ti48  1  0.68044016  0.61941040  0.12787794  1
  Ti  Ti49  1  0.69665352  0.55055351  0.39650964  1
  Ti  Ti50  1  0.78383365  0.51058009  0.78647929  1
  Ti  Ti51  1  0.74690895  0.83552149  0.09649178  1
  Ti  Ti52  1  0.79772243  0.91673594  0.42352372  1
  Ti  Ti53  1  0.75196500  0.95189881  0.75289589  1
  Ti  Ti54  1  0.35854837  0.07769920  0.13656520  1
  Ti  Ti55  1  0.21042276  0.12173518  0.44933717  1
  Ti  Ti56  1  0.18613641  0.08075265  0.65847447  1
  Ti  Ti57  1  0.25094520  0.48841236  0.07886692  1
  Ti  Ti58  1  0.25928302  0.44662854  0.35115286  1
  Ti  Ti59  1  0.30043220  0.38061249  0.79031641  1
  Ti  Ti60  1  0.31651186  0.70349459  0.08954598  1
  Ti  Ti61  1  0.28897240  0.68968982  0.38015622  1
  Ti  Ti62  1  0.20566505  0.82558533  0.76737780  1
  Ti  Ti63  1  0.63840465  0.00940402  0.11959087  1
  Ti  Ti64  1  0.64421066  0.05042243  0.41023009  1
  Ti  Ti65  1  0.58622921  0.08527642  0.75435547  1
  Ti  Ti66  1  0.60192603  0.41224438  0.05449794  1
  Ti  Ti67  1  0.60714889  0.35650393  0.43389995  1
  Ti  Ti68  1  0.58476871  0.53097613  0.71617428  1
  Ti  Ti69  1  0.50530592  0.76317801  0.07315857  1
  Ti  Ti70  1  0.61495736  0.73663317  0.42477324  1
  Ti  Ti71  1  0.53616664  0.72187743  0.71797206  1
  Ti  Ti72  1  0.94325588  0.10791235  0.05624404  1
  Ti  Ti73  1  0.92001205  0.08988148  0.37219113  1
  Ti  Ti74  1  0.87993036  0.13504718  0.74556045  1
  Ti  Ti75  1  0.90686819  0.40301194  0.01860644  1
  Ti  Ti76  1  0.82092603  0.40613106  0.42746788  1
  Ti  Ti77  1  0.95518557  0.48951919  0.69174460  1
  Ti  Ti78  1  0.92484351  0.76391012  0.10719944  1
  Ti  Ti79  1  0.86476910  0.74728963  0.48068119  1
  Ti  Ti80  1  0.91188952  0.78934045  0.76311776  1
  Ti  Ti81  1  0.20419023  0.25652391  0.27301040  1
  Ti  Ti82  1  0.24861448  0.32906494  0.48747391  1
  Ti  Ti83  1  0.22131053  0.25385640  0.92654230  1
  Ti  Ti84  1  0.29100681  0.57743720  0.22894066  1
  Ti  Ti85  1  0.23392135  0.60974221  0.62941888  1
  Ti  Ti86  1  0.27513766  0.55561841  0.90430628  1
  Ti  Ti87  1  0.23083355  0.94732434  0.28902175  1
  Ti  Ti88  1  0.25450123  0.92345495  0.55934642  1
  Ti  Ti89  1  0.20720899  0.88970217  0.96605513  1
  Ti  Ti90  1  0.55074980  0.22440248  0.31003003  1
  Ti  Ti91  1  0.60191877  0.30101711  0.64196115  1
  Ti  Ti92  1  0.66309128  0.31922745  0.87321938  1
  Ti  Ti93  1  0.59824163  0.47219645  0.24109811  1
  Ti  Ti94  1  0.57574711  0.60782390  0.54992822  1
  Ti  Ti95  1  0.64827436  0.64088505  0.86369437  1
  Ti  Ti96  1  0.56661197  0.91047592  0.31155708  1
  Ti  Ti97  1  0.57588745  0.91061592  0.66463798  1
  Ti  Ti98  1  0.56665984  0.87485350  0.86512670  1
  Ti  Ti99  1  0.93979060  0.31700956  0.29787370  1
  Ti  Ti100  1  0.92463972  0.32899512  0.58033341  1
  Ti  Ti101  1  0.85105601  0.23725691  0.91811214  1
  Ti  Ti102  1  0.97091471  0.61811500  0.24157907  1
  Ti  Ti103  1  0.93272258  0.56490119  0.49469914  1
  Ti  Ti104  1  0.92224282  0.58159403  0.92370997  1
  Ti  Ti105  1  0.87233376  0.91252835  0.22556732  1
  Ti  Ti106  1  0.88699822  0.99520122  0.59378560  1
  Ti  Ti107  1  0.89638283  0.90891635  0.94557613  1
  Co  Co108  1  0.29981352  0.38625885  0.20774771  1
  Co  Co109  1  0.12646548  0.34154554  0.80277049  1
  Co  Co110  1  0.61411214  0.88645490  0.48094059  1
  Co  Co111  1  -0.03230200  0.48027821  0.34133208  1
  Co  Co112  1  0.03734789  0.21038640  0.63417577  1
  Co  Co113  1  0.52259434  0.16732366  0.62743940  1
  Co  Co114  1  0.30353243  0.39004093  -0.03752848  1
  Co  Co115  1  0.79273201  0.08711684  0.47103945  1
  Co  Co116  1  0.58642964  0.03977195  0.57021065  1
  Co  Co117  1  0.16115830  -0.04587664  0.43657954  1
  Co  Co118  1  0.64320929  0.10656794  0.25091893  1
  Co  Co119  1  0.10813876  0.37455317  0.38192654  1
  Co  Co120  1  0.33752836  0.02746718  0.42106674  1
  Co  Co121  1  0.43245624  0.61451455  0.62625186  1
  Co  Co122  1  0.20130470  0.77899076  0.62029078  1
  Co  Co123  1  0.51476872  0.77190458  0.56406595  1
  Co  Co124  1  0.30180837  0.02058838  -0.01074525  1
  Co  Co125  1  0.81741532  0.68174683  0.19873929  1
  Co  Co126  1  0.15562012  0.80144211  0.34968392  1
  Co  Co127  1  0.28621015  0.77955895  0.24702759  1
  Co  Co128  1  0.45916113  0.81424487  0.40738182  1
  Co  Co129  1  0.75145660  0.32038783  0.01346870  1
  Co  Co130  1  0.52157887  0.32914172  0.17322647  1
  Co  Co131  1  0.70508311  0.63864490  0.68550007  1
  Co  Co132  1  0.27668800  0.11286225  0.28391516  1
  Co  Co133  1  0.60257646  0.47559263  0.87305061  1
  Co  Co134  1  -0.05328550  0.42745138  0.17550792  1
  Co  Co135  1  0.75120419  0.30769501  0.54390113  1
  Co  Co136  1  0.19648123  0.65806634  0.79540518  1
  Co  Co137  1  0.45894793  -0.01195849  0.78810845  1
  Co  Co138  1  0.92403870  0.74435906  -0.07507825  1
  Co  Co139  1  0.40464624  0.60502028  0.00218196  1
  Co  Co140  1  0.84541101  0.39105359  0.86641277  1
  Co  Co141  1  0.67197547  0.40626417  0.73601736  1
  Co  Co142  1  0.01713004  0.66269912  0.05035741  1
  Co  Co143  1  0.56567547  0.57709532  0.00100360  1
  Co  Co144  1  0.84839020  0.62293916  0.36767049  1
  Co  Co145  1  0.75321705  0.63525501  0.52072223  1
  Co  Co146  1  0.77024190  0.15383624  0.05566659  1
  Co  Co147  1  0.90766453  -0.03152909  0.78908836  1
  Co  Co148  1  0.07081784  0.55480415  0.60136223  1
  Co  Co149  1  0.33977768  0.70313536  0.72997820  1
  Co  Co150  1  0.87979305  0.64367715  0.65016679  1
  Co  Co151  1  0.63341673  0.19408096  0.48957532  1
  Co  Co152  1  0.29068491  0.42553651  0.61780712  1
  Co  Co153  1  0.39708270  0.22063688  0.22717101  1
  Co  Co154  1  0.01702055  0.42918964  0.49989392  1
  Co  Co155  1  0.40139849  0.38791167  0.46058780  1
  Co  Co156  1  0.48501222  0.10709957  0.45679959  1
  Co  Co157  1  0.49296594  -0.06206009  0.16129489  1
  Co  Co158  1  0.24548774  0.16590029  0.06596322  1
  Co  Co159  1  0.71648459  0.38031212  0.29875888  1
  Co  Co160  1  0.30249579  0.85874067  0.40940564  1
  Co  Co161  1  0.18022165  0.48701091  0.50712263  1
  Ni  Ni162  1  0.04861347  0.86171089  0.81992417  1
  Ni  Ni163  1  0.03895004  0.82420810  0.22760188  1
  Ni  Ni164  1  -0.02001427  0.87031613  0.51453551  1
  Ni  Ni165  1  0.72719332  -0.04025592  0.57571721  1
  Ni  Ni166  1  0.04202232  -0.02722736  -0.07257575  1
  Ni  Ni167  1  0.81560678  0.66760750  0.81435720  1
  Ni  Ni168  1  0.61154750  0.81967254  0.18412185  1
  Ni  Ni169  1  0.17934079  0.63815809  0.03967435  1
  Ni  Ni170  1  0.33143294  0.91243649  0.85916628  1
  Ni  Ni171  1  0.81726028  -0.00859655  0.08005311  1
  Ni  Ni172  1  -0.03675721  0.10886020  0.89060395  1
  Ni  Ni173  1  -0.00245828  0.44640678  0.85154341  1
  Ni  Ni174  1  0.16188874  0.67503324  0.49326129  1
  Ni  Ni175  1  0.29153702  -0.02667560  0.71880439  1
  Ni  Ni176  1  0.53036981  0.50520784  0.42115440  1
  Ni  Ni177  1  0.17565677  -0.00583000  0.83087012  1
  Ni  Ni178  1  0.87186289  0.56536085  0.09157890  1
  Ni  Ni179  1  0.49589810  0.38047456  0.76936655  1
  Ni  Ni180  1  0.76010091  0.43152918  0.12863183  1
  Ni  Ni181  1  -0.01203642  0.02468934  0.22135854  1
  Ni  Ni182  1  0.19740249  0.22516544  0.59749850  1
  Ni  Ni183  1  0.09408589  0.57170594  -0.08923294  1
  Ni  Ni184  1  0.02039979  0.71525225  0.40870280  1
  Ni  Ni185  1  0.68738811  0.79087241  0.75834316  1
  Ni  Ni186  1  0.34356204  0.15762702  0.54242541  1
  Ni  Ni187  1  0.33222654  0.53245803  0.73778110  1
  Ni  Ni188  1  0.64812316  0.72951541  0.00471812  1
  Ni  Ni189  1  0.41497099  0.87249690  -0.01348338  1
  Ni  Ni190  1  0.43316495  0.57050957  0.30326425  1
  Ni  Ni191  1  0.01645023  0.27987413  -0.08052083  1
  Ni  Ni192  1  0.59455134  0.64261422  0.28412341  1
  Ni  Ni193  1  -0.00401280  0.18419946  0.22702290  1
  Ni  Ni194  1  0.72151486  0.17331163  0.79508537  1
  Ni  Ni195  1  0.24711021  0.22163990  0.75852464  1
  Ni  Ni196  1  0.90164639  0.77547981  0.31515402  1
  Ni  Ni197  1  0.87832125  0.24106295  0.44195832  1
  Ni  Ni198  1  0.85351279  0.84076288  0.62183251  1
  Ni  Ni199  1  0.01776238  0.63716670  0.76839705  1
  Ni  Ni200  1  0.49563272  0.61763467  0.15456480  1
  Ni  Ni201  1  0.50358158  0.72815967  0.91191024  1
  Ni  Ni202  1  0.89637996  0.16008407  0.57854657  1
  Ni  Ni203  1  0.09032672  0.08629846  0.33988295  1
  Ni  Ni204  1  0.48405161  0.26503065  0.50678631  1
  Ni  Ni205  1  0.20057388  0.32519222  0.09252834  1
  Ni  Ni206  1  0.46020444  0.65782767  0.43641078  1
  Ni  Ni207  1  0.63862771  0.45081040  0.55820905  1
  Ni  Ni208  1  0.13034010  0.79423146  0.08466726  1
  Ni  Ni209  1  -0.03488004  0.31263792  0.75239558  1
  Ni  Ni210  1  0.72096939  -0.04420848  0.25816401  1
  Ni  Ni211  1  0.20035045  -0.03104560  0.11165484  1
  Ni  Ni212  1  0.69160225  -0.06009176  -0.03315437  1
  Ni  Ni213  1  0.01750383  0.05664116  0.69404486  1
  Ni  Ni214  1  0.87855266  0.26311912  0.12605963  1
