# generated using pymatgen
data_Ti108Co54Ni53
_symmetry_space_group_name_H-M   'P 1'
_cell_length_a   14.65171432
_cell_length_b   14.65665133
_cell_length_c   14.67232094
_cell_angle_alpha   90.02144529
_cell_angle_beta   89.78227654
_cell_angle_gamma   89.54482993
_symmetry_Int_Tables_number   1
_chemical_formula_structural   Ti108Co54Ni53
_chemical_formula_sum   'Ti108 Co54 Ni53'
_cell_volume   3150.68613159
_cell_formula_units_Z   1
loop_
 _symmetry_equiv_pos_site_id
 _symmetry_equiv_pos_as_xyz
  1  'x, y, z'
loop_
 _atom_site_type_symbol
 _atom_site_label
 _atom_site_symmetry_multiplicity
 _atom_site_fract_x
 _atom_site_fract_y
 _atom_site_fract_z
 _atom_site_occupancy
  Ti  Ti0  1  0.09903738  0.04327077  0.24943456  1
  Ti  Ti1  1  0.05097867  0.01011731  0.59602570  1
  Ti  Ti2  1  0.18227089  0.08330528  0.92744608  1
  Ti  Ti3  1  0.22955202  0.43750532  0.22333677  1
  Ti  Ti4  1  0.14023645  0.43979352  0.58979434  1
  Ti  Ti5  1  0.10558331  0.42352051  0.97102991  1
  Ti  Ti6  1  0.07276077  0.80072862  0.23019675  1
  Ti  Ti7  1  0.05345787  0.80220431  0.60590023  1
  Ti  Ti8  1  0.14266744  0.80940479  0.87707740  1
  Ti  Ti9  1  0.45145444  0.09761774  0.32756635  1
  Ti  Ti10  1  0.42180133  0.11614836  0.53243163  1
  Ti  Ti11  1  0.38863519  0.11774748  0.87195380  1
  Ti  Ti12  1  0.35752315  0.41565775  0.35362068  1
  Ti  Ti13  1  0.45612335  0.40790671  0.62728118  1
  Ti  Ti14  1  0.43069359  0.49676666  0.93687451  1
  Ti  Ti15  1  0.40615457  0.75066396  0.23433572  1
  Ti  Ti16  1  0.37718055  0.80580552  0.59809296  1
  Ti  Ti17  1  0.43595408  0.74297924  0.91479919  1
  Ti  Ti18  1  0.71846350  -0.01251311  0.20256281  1
  Ti  Ti19  1  0.71337210  0.10353134  0.61715379  1
  Ti  Ti20  1  0.73199013  0.08896219  0.92146651  1
  Ti  Ti21  1  0.77153205  0.39705037  0.24067292  1
  Ti  Ti22  1  0.65310521  0.41708067  0.62207384  1
  Ti  Ti23  1  0.70076210  0.38428644  0.95600759  1
  Ti  Ti24  1  0.73524651  0.67383398  0.26049248  1
  Ti  Ti25  1  0.72027927  0.74464580  0.63395422  1
  Ti  Ti26  1  0.74284833  0.78924460  0.93279812  1
  Ti  Ti27  1  0.05585445  0.24163986  0.02839101  1
  Ti  Ti28  1  0.11453267  0.22461563  0.45589170  1
  Ti  Ti29  1  0.09294254  0.25864167  0.70090096  1
  Ti  Ti30  1  0.09422344  0.60840840  -0.00257436  1
  Ti  Ti31  1  0.06844162  0.61975866  0.49116898  1
  Ti  Ti32  1  -0.02495651  0.60979598  0.74360309  1
  Ti  Ti33  1  0.05035375  0.88539281  0.04403184  1
  Ti  Ti34  1  0.13748906  0.88604769  0.46383546  1
  Ti  Ti35  1  0.16366723  0.92705728  0.73444554  1
  Ti  Ti36  1  0.42595335  0.32424265  0.09425770  1
  Ti  Ti37  1  0.34616715  0.24736430  0.40592492  1
  Ti  Ti38  1  0.42902168  0.21302734  0.70508203  1
  Ti  Ti39  1  0.44853380  0.61108423  0.09172906  1
  Ti  Ti40  1  0.45705188  0.53709272  0.46542290  1
  Ti  Ti41  1  0.36218066  0.55809240  0.78022370  1
  Ti  Ti42  1  0.40555901  0.89445128  0.09890013  1
  Ti  Ti43  1  0.43224263  0.93619730  0.45122833  1
  Ti  Ti44  1  0.46902317  0.90533436  0.78213713  1
  Ti  Ti45  1  0.61257316  0.22284767  0.03652176  1
  Ti  Ti46  1  0.76545975  0.17560554  0.44278459  1
  Ti  Ti47  1  0.74731402  0.29386273  0.73169509  1
  Ti  Ti48  1  0.75486353  0.53483621  0.08279069  1
  Ti  Ti49  1  0.65063454  0.54195148  0.40095170  1
  Ti  Ti50  1  0.80438179  0.54521719  0.65206359  1
  Ti  Ti51  1  0.82573815  0.99526871  0.03857200  1
  Ti  Ti52  1  0.73417689  0.88431105  0.36540949  1
  Ti  Ti53  1  0.77821607  0.95333682  0.75302166  1
  Ti  Ti54  1  0.32547345  0.08703995  0.06617285  1
  Ti  Ti55  1  0.27282638  0.01897333  0.35715554  1
  Ti  Ti56  1  0.23850458  0.11784247  0.73440845  1
  Ti  Ti57  1  0.28627922  0.45443075  0.04555306  1
  Ti  Ti58  1  0.22719429  0.53413422  0.43094579  1
  Ti  Ti59  1  0.14282044  0.49431258  0.76470919  1
  Ti  Ti60  1  0.23352055  0.62490154  0.14018048  1
  Ti  Ti61  1  0.20297525  0.72071284  0.36117183  1
  Ti  Ti62  1  0.23452500  0.71060143  0.72524446  1
  Ti  Ti63  1  0.52944809  0.05041268  0.10520838  1
  Ti  Ti64  1  0.64141779  0.06514244  0.35403193  1
  Ti  Ti65  1  0.61247944  0.11560126  0.78332342  1
  Ti  Ti66  1  0.58164456  0.42794382  0.15150484  1
  Ti  Ti67  1  0.63594840  0.34847112  0.40183681  1
  Ti  Ti68  1  0.57634083  0.45206507  0.80357274  1
  Ti  Ti69  1  0.66246883  0.81079884  0.11267676  1
  Ti  Ti70  1  0.61115417  0.74414105  0.45002358  1
  Ti  Ti71  1  0.61106991  0.75929149  0.79223522  1
  Ti  Ti72  1  0.97977302  0.07332417  -0.00410308  1
  Ti  Ti73  1  0.87080434  0.04101105  0.33890701  1
  Ti  Ti74  1  1.03137356  0.08284112  0.77473333  1
  Ti  Ti75  1  0.89951365  0.37386056  0.02445973  1
  Ti  Ti76  1  0.91326594  0.47151471  0.47698653  1
  Ti  Ti77  1  0.95537831  0.40219257  0.73876655  1
  Ti  Ti78  1  0.95349042  0.72330245  0.06233759  1
  Ti  Ti79  1  0.88240107  0.67723406  0.38495580  1
  Ti  Ti80  1  0.88403775  0.77958018  0.75085308  1
  Ti  Ti81  1  0.30327699  0.23186170  0.21454125  1
  Ti  Ti82  1  0.27447352  0.27372601  0.59829436  1
  Ti  Ti83  1  0.24867835  0.26265122  0.96799599  1
  Ti  Ti84  1  0.34164063  0.59213219  0.29314811  1
  Ti  Ti85  1  0.31177298  0.58108400  0.59968909  1
  Ti  Ti86  1  0.27207502  0.67562263  0.93585995  1
  Ti  Ti87  1  0.23310310  0.92990852  0.16360478  1
  Ti  Ti88  1  0.26049154  0.99848238  0.55415287  1
  Ti  Ti89  1  0.26300170  0.89683940  0.97649132  1
  Ti  Ti90  1  0.62355305  0.23368532  0.23597397  1
  Ti  Ti91  1  0.58207910  0.23392325  0.56558552  1
  Ti  Ti92  1  0.53176165  0.26257075  0.87500624  1
  Ti  Ti93  1  0.53451972  0.62432406  0.27635480  1
  Ti  Ti94  1  0.61492092  0.59625746  0.57700574  1
  Ti  Ti95  1  0.68914360  0.59200723  0.89441440  1
  Ti  Ti96  1  0.52074770  0.91651967  0.25394461  1
  Ti  Ti97  1  0.64653050  0.92019080  0.56054329  1
  Ti  Ti98  1  0.54927653  0.87834958  0.96833678  1
  Ti  Ti99  1  0.87607255  0.23904057  0.17608426  1
  Ti  Ti100  1  0.90148263  0.20696054  0.61727654  1
  Ti  Ti101  1  0.90596922  0.20658837  0.87206113  1
  Ti  Ti102  1  0.91419982  0.56440300  0.20341831  1
  Ti  Ti103  1  0.90768011  0.69346057  0.57372907  1
  Ti  Ti104  1  0.87775043  0.64013048  0.91793394  1
  Ti  Ti105  1  0.93000074  0.92796432  0.19078927  1
  Ti  Ti106  1  0.92287749  0.91642544  0.48953399  1
  Ti  Ti107  1  0.91665690  0.87731350  0.90734569  1
  Co  Co108  1  0.29707301  0.84201543  0.44941315  1
  Co  Co109  1  0.59403306  0.70596106  -0.02575490  1
  Co  Co110  1  0.64574999  0.58257630  0.72993261  1
  Co  Co111  1  0.37675760  0.02955847  0.20601491  1
  Co  Co112  1  0.00849469  0.33452324  -0.12187239  1
  Co  Co113  1  -0.01048423  0.50278245  0.88056908  1
  Co  Co114  1  0.33170087  0.42829306  0.53206174  1
  Co  Co115  1  0.41047838  -0.03649810  -0.05836025  1
  Co  Co116  1  0.72103964  0.24191683  0.88114181  1
  Co  Co117  1  0.56739270  0.05315875  0.49533547  1
  Co  Co118  1  0.08227988  -0.03788856  -0.10162064  1
  Co  Co119  1  0.11730446  0.61749956  0.64889405  1
  Co  Co120  1  -0.01273223  0.51237618  0.61323740  1
  Co  Co121  1  0.18598833  0.88547143  0.31317701  1
  Co  Co122  1  -0.05288753  0.53717792  0.04804516  1
  Co  Co123  1  0.18198639  0.33376869  0.10539555  1
  Co  Co124  1  0.84651101  0.38896512  0.61998651  1
  Co  Co125  1  0.77775933  0.66535348  0.77757835  1
  Co  Co126  1  0.19421221  0.15603555  0.31814475  1
  Co  Co127  1  0.58089193  -0.09086578  0.39957250  1
  Co  Co128  1  0.05793117  0.64574532  0.15996431  1
  Co  Co129  1  0.44701708  0.18096444  0.00922485  1
  Co  Co130  1  0.33709308  0.74740282  0.06674920  1
  Co  Co131  1  0.52092335  0.61301984  0.84529569  1
  Co  Co132  1  0.48900582  0.55693562  0.67599779  1
  Co  Co133  1  0.56047890  0.79655712  0.64075527  1
  Co  Co134  1  0.59853767  0.77693130  0.27611758  1
  Co  Co135  1  0.31602557  0.81938069  0.81375277  1
  Co  Co136  1  0.74143963  0.28271306  0.55522726  1
  Co  Co137  1  0.25958895  0.13692265  0.47176581  1
  Co  Co138  1  0.86415800  0.07816723  0.17335086  1
  Co  Co139  1  0.50702775  0.76449196  0.10465843  1
  Co  Co140  1  0.53938266  0.08626682  0.65189491  1
  Co  Co141  1  0.29741200  0.25419221  0.79225946  1
  Co  Co142  1  0.74962738  0.45970899  0.77788086  1
  Co  Co143  1  0.62398547  0.64513456  0.13384466  1
  Co  Co144  1  0.20784644  0.70179325  0.53481053  1
  Co  Co145  1  0.77118414  0.17192684  0.28007682  1
  Co  Co146  1  0.53729896  0.38415331  -0.01529908  1
  Co  Co147  1  0.20421338  0.31336053  0.31560082  1
  Co  Co148  1  0.79427894  0.68710306  0.09852136  1
  Co  Co149  1  0.21825438  0.84522541  0.60787108  1
  Co  Co150  1  0.09909086  0.20152331  0.86252712  1
  Co  Co151  1  0.24949305  0.77361953  0.20897490  1
  Co  Co152  1  0.84810403  0.35376497  0.85468021  1
  Co  Co153  1  0.35445165  -0.10954127  0.29236697  1
  Co  Co154  1  0.06108098  0.75642004  0.74464203  1
  Co  Co155  1  0.15907917  0.57277437  0.28259090  1
  Co  Co156  1  0.56713926  0.29896666  0.71825646  1
  Co  Co157  1  0.61552223  -0.05060755  0.71423882  1
  Co  Co158  1  0.73719766  0.32144297  0.10408336  1
  Co  Co159  1  0.38771628  0.32116730  -0.06612991  1
  Co  Co160  1  0.67318674  0.52380752  0.24187583  1
  Co  Co161  1  0.10997975  0.05536512  0.43756952  1
  Ni  Ni162  1  0.32786883  -0.04859592  0.69250239  1
  Ni  Ni163  1  0.47302707  0.67959036  0.55577685  1
  Ni  Ni164  1  0.01166570  0.13289849  0.14901043  1
  Ni  Ni165  1  0.46930113  0.30378610  0.28461870  1
  Ni  Ni166  1  0.54950663  0.06755191  0.93458973  1
  Ni  Ni167  1  0.01320766  0.77663418  0.43842056  1
  Ni  Ni168  1  0.78082715  0.00996219  0.49435982  1
  Ni  Ni169  1  0.27833483  0.40769351  0.69843655  1
  Ni  Ni170  1  0.80544772  0.32823590  0.38406532  1
  Ni  Ni171  1  0.89389092  0.84412708  0.34043346  1
  Ni  Ni172  1  0.15081264  0.13506073  0.59493423  1
  Ni  Ni173  1  0.12747051  0.02346928  0.06897097  1
  Ni  Ni174  1  0.78614587  0.82845575  0.21806005  1
  Ni  Ni175  1  0.66123046  -0.01912195  0.03676115  1
  Ni  Ni176  1  0.81183615  0.52518723  0.34860932  1
  Ni  Ni177  1  -0.08548791  0.73116908  0.22168293  1
  Ni  Ni178  1  0.75170666  0.44367814  0.49124117  1
  Ni  Ni179  1  0.66136793  0.93963344  0.86992668  1
  Ni  Ni180  1  0.46685149  0.17975622  0.17603720  1
  Ni  Ni181  1  0.18014622  0.16572679  0.12388770  1
  Ni  Ni182  1  0.83033421  0.87471184  0.61691758  1
  Ni  Ni183  1  0.47575894  0.35442064  0.46158003  1
  Ni  Ni184  1  0.34537223  0.67061156  0.45008670  1
  Ni  Ni185  1  0.28512882  -0.01680204  0.83892617  1
  Ni  Ni186  1  0.09641397  0.49006157  0.12827955  1
  Ni  Ni187  1  0.23779923  0.52064319  0.90188864  1
  Ni  Ni188  1  0.00000272  0.73802871  -0.10385165  1
  Ni  Ni189  1  0.84052047  0.84044520  0.06468970  1
  Ni  Ni190  1  0.03375187  0.66301079  0.32136757  1
  Ni  Ni191  1  0.77148167  0.61464049  0.49676260  1
  Ni  Ni192  1  -0.11438305  0.03809150  0.64161300  1
  Ni  Ni193  1  0.82968673  0.49002425  -0.06878995  1
  Ni  Ni194  1  0.43239648  0.71489159  0.73427969  1
  Ni  Ni195  1  0.02308530  -0.06383880  0.34662384  1
  Ni  Ni196  1  0.40747884  0.46850912  0.19077250  1
  Ni  Ni197  1  -0.06725604  0.09210429  0.49382925  1
  Ni  Ni198  1  0.16228341  0.76265067  0.06284203  1
  Ni  Ni199  1  0.58305224  0.53757332  0.01008084  1
  Ni  Ni200  1  0.42201703  0.37804076  0.78673866  1
  Ni  Ni201  1  0.54245112  0.20550597  0.40713486  1
  Ni  Ni202  1  0.71379685  0.13242946  0.12575625  1
  Ni  Ni203  1  0.78536947  0.78423001  0.48304855  1
  Ni  Ni204  1  0.82534043  0.19934876  0.02010276  1
  Ni  Ni205  1  0.00388722  0.33928657  0.57498008  1
  Ni  Ni206  1  0.45917011  0.77928150  0.39346159  1
  Ni  Ni207  1  0.20928631  0.36450210  0.46044675  1
  Ni  Ni208  1  0.89533369  0.02852521  0.84946453  1
  Ni  Ni209  1  0.16786044  0.34455030  0.82276384  1
  Ni  Ni210  1  0.47345922  -0.05277350  0.61149038  1
  Ni  Ni211  1  -0.01262559  0.91891124  0.74464108  1
  Ni  Ni212  1  0.11846802  0.63582520  0.83852771  1
  Ni  Ni213  1  0.52344055  0.45800373  0.31827044  1
  Ni  Ni214  1  0.79520805  0.13049308  0.76296870  1
