# generated using pymatgen
data_Ti108Co54Ni53
_symmetry_space_group_name_H-M   'P 1'
_cell_length_a   14.65195598
_cell_length_b   14.59975419
_cell_length_c   14.66916501
_cell_angle_alpha   89.90625982
_cell_angle_beta   89.77250006
_cell_angle_gamma   90.11147863
_symmetry_Int_Tables_number   1
_chemical_formula_structural   Ti108Co54Ni53
_chemical_formula_sum   'Ti108 Co54 Ni53'
_cell_volume   3137.91886807
_cell_formula_units_Z   1
loop_
 _symmetry_equiv_pos_site_id
 _symmetry_equiv_pos_as_xyz
  1  'x, y, z'
loop_
 _atom_site_type_symbol
 _atom_site_label
 _atom_site_symmetry_multiplicity
 _atom_site_fract_x
 _atom_site_fract_y
 _atom_site_fract_z
 _atom_site_occupancy
  Ti  Ti0  1  0.10711684  0.13703578  0.27967122  1
  Ti  Ti1  1  0.05263627  -0.01381281  0.56070360  1
  Ti  Ti2  1  0.09918759  0.09387014  0.84886204  1
  Ti  Ti3  1  0.10230707  0.49237115  0.25583782  1
  Ti  Ti4  1  0.09435518  0.38445633  0.59474624  1
  Ti  Ti5  1  0.11079340  0.40274002  0.94174079  1
  Ti  Ti6  1  0.13247916  0.79203878  0.20569886  1
  Ti  Ti7  1  0.06246794  0.74195222  0.54180005  1
  Ti  Ti8  1  0.09084761  0.74789289  0.86437075  1
  Ti  Ti9  1  0.43773928  0.14791784  0.25363233  1
  Ti  Ti10  1  0.36680523  0.04376869  0.59896946  1
  Ti  Ti11  1  0.40925787  -0.03139446  0.89212227  1
  Ti  Ti12  1  0.43340034  0.48833010  0.24519676  1
  Ti  Ti13  1  0.47731850  0.35291278  0.58377038  1
  Ti  Ti14  1  0.42363847  0.40499408  0.86691250  1
  Ti  Ti15  1  0.44902184  0.71950516  0.21464766  1
  Ti  Ti16  1  0.37230273  0.81831709  0.54271642  1
  Ti  Ti17  1  0.41834669  0.74576016  0.88275857  1
  Ti  Ti18  1  0.77670463  0.09328908  0.29495375  1
  Ti  Ti19  1  0.72652752  0.11454858  0.64923754  1
  Ti  Ti20  1  0.77732818  0.19389547  0.93827098  1
  Ti  Ti21  1  0.75474946  0.45965791  0.27883700  1
  Ti  Ti22  1  0.78738825  0.39379087  0.59051991  1
  Ti  Ti23  1  0.72633074  0.49123304  0.99924441  1
  Ti  Ti24  1  0.67210797  0.76714032  0.23602791  1
  Ti  Ti25  1  0.70443723  0.80137699  0.58792772  1
  Ti  Ti26  1  0.77211971  0.78338016  0.89014917  1
  Ti  Ti27  1  0.11002275  0.26256548  0.11252215  1
  Ti  Ti28  1  0.06221246  0.26848104  0.42512692  1
  Ti  Ti29  1  0.02411704  0.21983845  0.70011284  1
  Ti  Ti30  1  0.02446420  0.58201405  0.10505170  1
  Ti  Ti31  1  0.07786176  0.58572375  0.43724077  1
  Ti  Ti32  1  0.10664978  0.55576869  0.78912344  1
  Ti  Ti33  1  0.05454203  0.94464902  0.07451135  1
  Ti  Ti34  1  0.10123306  0.94360670  0.37252821  1
  Ti  Ti35  1  0.17942976  0.91592320  0.78283469  1
  Ti  Ti36  1  0.40146933  0.39194889  0.08049506  1
  Ti  Ti37  1  0.40431297  0.31580757  0.38685239  1
  Ti  Ti38  1  0.40806393  0.18341778  0.74483113  1
  Ti  Ti39  1  0.36363417  0.58385272  0.08962019  1
  Ti  Ti40  1  0.47260240  0.52116306  0.44754251  1
  Ti  Ti41  1  0.42980771  0.58746852  0.76949420  1
  Ti  Ti42  1  0.40003038  0.89979446  0.09205566  1
  Ti  Ti43  1  0.39230724  0.98691173  0.40381871  1
  Ti  Ti44  1  0.35887847  0.85834411  0.72661550  1
  Ti  Ti45  1  0.72701174  0.19323216  0.13257102  1
  Ti  Ti46  1  0.75541994  0.21992223  0.44409030  1
  Ti  Ti47  1  0.82503902  0.24860575  0.74457065  1
  Ti  Ti48  1  0.83043203  0.65384422  0.02355660  1
  Ti  Ti49  1  0.79513904  0.52629246  0.46314094  1
  Ti  Ti50  1  0.78944947  0.67897720  0.72239088  1
  Ti  Ti51  1  0.75064187  0.87982888  0.06315839  1
  Ti  Ti52  1  0.77501625  0.89306347  0.41876120  1
  Ti  Ti53  1  0.76235690  0.92416553  0.75305560  1
  Ti  Ti54  1  0.25905421  0.06683770  0.15753316  1
  Ti  Ti55  1  0.28463188  0.17020771  0.43501955  1
  Ti  Ti56  1  0.18269424  0.08554054  0.66148922  1
  Ti  Ti57  1  0.19633690  0.46299064  0.08871672  1
  Ti  Ti58  1  0.25642734  0.49663131  0.40009109  1
  Ti  Ti59  1  0.23330513  0.37519962  0.78458635  1
  Ti  Ti60  1  0.24777396  0.72432996  0.00133802  1
  Ti  Ti61  1  0.23990935  0.71868269  0.40015793  1
  Ti  Ti62  1  0.18874145  0.71095085  0.69076175  1
  Ti  Ti63  1  0.57193445  0.00640555  0.08044771  1
  Ti  Ti64  1  0.59787967  0.05009985  0.36747296  1
  Ti  Ti65  1  0.58408761  0.03890098  0.78297709  1
  Ti  Ti66  1  0.61483860  0.42819630  0.14969727  1
  Ti  Ti67  1  0.57446817  0.40746258  0.34086442  1
  Ti  Ti68  1  0.57143725  0.47229174  0.71808650  1
  Ti  Ti69  1  0.62341450  0.71519160  0.04541626  1
  Ti  Ti70  1  0.66257716  0.72038755  0.42126898  1
  Ti  Ti71  1  0.50993181  0.73288963  0.68263747  1
  Ti  Ti72  1  0.88225958  0.04322073  0.10457372  1
  Ti  Ti73  1  0.91613118  0.04858983  0.43630330  1
  Ti  Ti74  1  0.90299828  0.06064664  0.74455521  1
  Ti  Ti75  1  0.84432099  0.35084067  0.07889233  1
  Ti  Ti76  1  0.92850600  0.40804367  0.26595741  1
  Ti  Ti77  1  0.85883680  0.46889259  0.77419714  1
  Ti  Ti78  1  0.94983962  0.78728309  0.12080234  1
  Ti  Ti79  1  0.89661551  0.70804728  0.44413835  1
  Ti  Ti80  1  0.93721948  0.83575666  0.77696176  1
  Ti  Ti81  1  0.21563806  0.32764144  0.29834178  1
  Ti  Ti82  1  0.29480020  0.27995519  0.61598350  1
  Ti  Ti83  1  0.24472702  0.21006604  0.93446476  1
  Ti  Ti84  1  0.25176028  0.61874172  0.24679643  1
  Ti  Ti85  1  0.24633911  0.50022365  0.61009333  1
  Ti  Ti86  1  0.28600381  0.53641312  0.92295701  1
  Ti  Ti87  1  0.30908407  0.88338708  0.26316961  1
  Ti  Ti88  1  0.20923813  0.88584703  0.58819933  1
  Ti  Ti89  1  0.22847544  0.92845452  1.01484581  1
  Ti  Ti90  1  0.62624065  0.23629189  0.30253506  1
  Ti  Ti91  1  0.63769956  0.27762018  0.61957440  1
  Ti  Ti92  1  0.62298425  0.34082031  0.87815547  1
  Ti  Ti93  1  0.58671747  0.59940457  0.26837167  1
  Ti  Ti94  1  0.60276132  0.61539189  0.57509924  1
  Ti  Ti95  1  0.53852946  0.57599500  0.93144172  1
  Ti  Ti96  1  0.53445539  0.85790711  0.33423959  1
  Ti  Ti97  1  0.53297402  0.91808338  0.63038802  1
  Ti  Ti98  1  0.65039090  0.92311614  0.91042750  1
  Ti  Ti99  1  0.92558849  0.21619368  0.19932818  1
  Ti  Ti100  1  0.90247010  0.26247854  0.54581979  1
  Ti  Ti101  1  0.94135247  0.31730971  0.89700077  1
  Ti  Ti102  1  0.88663203  0.62107030  0.23490254  1
  Ti  Ti103  1  0.92666573  0.57292907  0.61209092  1
  Ti  Ti104  1  0.94373713  0.50980008  0.94436983  1
  Ti  Ti105  1  0.83329246  0.91526962  0.23990875  1
  Ti  Ti106  1  0.87206211  0.92532951  0.59586322  1
  Ti  Ti107  1  0.86771407  0.97860323  0.92070164  1
  Co  Co108  1  0.56588039  0.29680879  0.45912204  1
  Co  Co109  1  0.26335551  0.28992833  0.11066692  1
  Co  Co110  1  0.89707252  0.76555699  0.60894726  1
  Co  Co111  1  0.52464335  0.30898062  0.20321317  1
  Co  Co112  1  0.21675641  0.34547431  0.47051160  1
  Co  Co113  1  0.72229343  0.04542572  -0.00698145  1
  Co  Co114  1  0.05753271  0.31719532  0.25913489  1
  Co  Co115  1  0.76126074  0.62100547  0.33265048  1
  Co  Co116  1  0.27681101  0.18599534  0.26077573  1
  Co  Co117  1  0.04406874  0.09857894  0.13518527  1
  Co  Co118  1  0.23687033  0.01828273  0.50081885  1
  Co  Co119  1  -0.06820996  0.16169140  0.86339613  1
  Co  Co120  1  0.71266148  0.36148386  0.73985815  1
  Co  Co121  1  0.25035355  0.04091878  0.89145490  1
  Co  Co122  1  0.78519737  0.29147257  0.27270129  1
  Co  Co123  1  0.57953066  0.73605293  0.88173575  1
  Co  Co124  1  0.24343241  0.18863236  0.76499120  1
  Co  Co125  1  0.37381871  0.31042707  0.22656022  1
  Co  Co126  1  0.28336462  0.45365391  0.21815259  1
  Co  Co127  1  0.87265755  0.10537078  0.59344255  1
  Co  Co128  1  0.25135479  0.87659402  0.41974382  1
  Co  Co129  1  0.08862045  0.57131224  0.61287117  1
  Co  Co130  1  0.08376898  0.42747524  0.40077228  1
  Co  Co131  1  0.64074988  0.54492148  0.41286222  1
  Co  Co132  1  0.15247725  -0.03828559  0.21383235  1
  Co  Co133  1  -0.04310863  0.86788939  0.46908558  1
  Co  Co134  1  0.93538413  0.53618449  0.37034522  1
  Co  Co135  1  0.70963781  0.37249962  0.42589757  1
  Co  Co136  1  0.12117848  0.10087766  0.43581698  1
  Co  Co137  1  0.59721251  0.10017237  0.21088845  1
  Co  Co138  1  0.79123546  0.37283358  0.89906409  1
  Co  Co139  1  -0.00488577  0.06219530  -0.02537083  1
  Co  Co140  1  -0.00327230  0.91493370  0.22566145  1
  Co  Co141  1  0.86120296  0.50748225  0.11400111  1
  Co  Co142  1  0.53899745  0.78577848  0.51621087  1
  Co  Co143  1  0.77950514  0.66082757  0.55629888  1
  Co  Co144  1  0.24779341  0.03555102  0.33242368  1
  Co  Co145  1  0.17113973  0.64009092  0.11625316  1
  Co  Co146  1  0.09878385  0.78836683  0.02753441  1
  Co  Co147  1  0.79565584  0.74902709  0.14527081  1
  Co  Co148  1  0.44584207  0.53621583  0.61087799  1
  Co  Co149  1  0.42909078  0.19789219  0.55306405  1
  Co  Co150  1  0.43709362  0.66691086  0.50863411  1
  Co  Co151  1  0.86606928  0.36505927  0.40985897  1
  Co  Co152  1  0.12869540  0.58160534  -0.04319147  1
  Co  Co153  1  0.72677599  0.02692213  0.14995896  1
  Co  Co154  1  0.65957476  -0.05974573  0.26360800  1
  Co  Co155  1  0.61940519  0.62764313  0.76061255  1
  Co  Co156  1  0.91237930  0.19382417  0.03719336  1
  Co  Co157  1  0.52742715  0.57313563  0.10319806  1
  Co  Co158  1  0.28085189  0.53878826  0.75869943  1
  Co  Co159  1  0.47299933  0.16017224  0.40776526  1
  Co  Co160  1  -0.06293797  0.36897258  0.66725635  1
  Co  Co161  1  0.74866712  0.07722123  0.82626284  1
  Ni  Ni162  1  0.05474646  0.65295716  0.27069783  1
  Ni  Ni163  1  -0.00710763  0.67516200  -0.02182617  1
  Ni  Ni164  1  0.04307984  -0.01195880  0.72769527  1
  Ni  Ni165  1  0.32204544  0.02675693  0.75306043  1
  Ni  Ni166  1  -0.05399592  0.06279128  0.27321467  1
  Ni  Ni167  1  0.54576999  0.42646934  -0.00021602  1
  Ni  Ni168  1  0.90019999  0.66225939  0.84649408  1
  Ni  Ni169  1  0.34614254  0.67161023  0.64817876  1
  Ni  Ni170  1  0.11137933  0.27055667  0.82504151  1
  Ni  Ni171  1  0.15921711  0.21452536  0.55872915  1
  Ni  Ni172  1  0.73098581  0.53089093  0.66302499  1
  Ni  Ni173  1  0.05606734  0.91684454  0.90139819  1
  Ni  Ni174  1  0.64233394  0.20147071  0.77782455  1
  Ni  Ni175  1  0.51565968  0.30952240  0.75043873  1
  Ni  Ni176  1  0.44753306  0.72141858  0.04381311  1
  Ni  Ni177  1  0.55833395  0.84973190  0.14314663  1
  Ni  Ni178  1  0.28404057  0.36977984  -0.03867757  1
  Ni  Ni179  1  0.51666803  -0.12946381  0.80087309  1
  Ni  Ni180  1  0.68835843  -0.03386228  0.60967844  1
  Ni  Ni181  1  0.35313895  0.05921552  0.01984618  1
  Ni  Ni182  1  0.82941099  0.76845301  0.30810276  1
  Ni  Ni183  1  0.51645215  0.85843647  -0.02213439  1
  Ni  Ni184  1  0.38094929  0.41002159  0.70738761  1
  Ni  Ni185  1  0.39158598  0.62714283  0.34664877  1
  Ni  Ni186  1  0.21879222  0.64569137  0.53888951  1
  Ni  Ni187  1  0.61493485  0.15267235  0.50443570  1
  Ni  Ni188  1  0.92667702  0.81947030  -0.04798389  1
  Ni  Ni189  1  0.62025640  0.91672963  0.46935974  1
  Ni  Ni190  1  0.01196407  0.41060872  0.10331590  1
  Ni  Ni191  1  0.07799537  0.77729647  0.37968188  1
  Ni  Ni192  1  0.06249589  0.21350329  -0.03301952  1
  Ni  Ni193  1  0.05841646  0.83942948  0.66769431  1
  Ni  Ni194  1  0.70718482  0.63356953  -0.09492945  1
  Ni  Ni195  1  0.74822974  0.04933556  0.47853960  1
  Ni  Ni196  1  -0.03961572  0.44190334  0.51592685  1
  Ni  Ni197  1  0.03305375  0.41262793  0.78707029  1
  Ni  Ni198  1  0.25169486  0.67939636  0.83826408  1
  Ni  Ni199  1  0.68342768  0.32363670  0.03174006  1
  Ni  Ni200  1  0.61854649  0.44690346  0.54626218  1
  Ni  Ni201  1  0.69621120  0.49349523  0.83039103  1
  Ni  Ni202  1  0.54191407  0.12772515  0.65259456  1
  Ni  Ni203  1  0.91341895  0.20645571  0.36286621  1
  Ni  Ni204  1  0.01674035  0.14849069  0.54512526  1
  Ni  Ni205  1  0.71105010  0.59333082  0.15078068  1
  Ni  Ni206  1  0.39669434  0.78933826  0.38348985  1
  Ni  Ni207  1  0.46642515  -0.02384270  0.23274920  1
  Ni  Ni208  1  0.16442171  0.09050773  0.02153286  1
  Ni  Ni209  1  0.50736511  0.03352941  0.51605093  1
  Ni  Ni210  1  0.30197223  0.75772084  0.14853023  1
  Ni  Ni211  1  0.27946832  0.84165793  0.88167830  1
  Ni  Ni212  1  0.35099068  0.42321081  0.51650256  1
  Ni  Ni213  1  0.00922734  0.68485615  0.71442300  1
  Ni  Ni214  1  0.65796809  0.79802856  0.75098529  1
