# generated using pymatgen
data_Ti108Co54Ni53
_symmetry_space_group_name_H-M   'P 1'
_cell_length_a   14.52582233
_cell_length_b   14.54885305
_cell_length_c   14.58056024
_cell_angle_alpha   89.91858576
_cell_angle_beta   90.20435682
_cell_angle_gamma   89.99759121
_symmetry_Int_Tables_number   1
_chemical_formula_structural   Ti108Co54Ni53
_chemical_formula_sum   'Ti108 Co54 Ni53'
_cell_volume   3081.34619736
_cell_formula_units_Z   1
loop_
 _symmetry_equiv_pos_site_id
 _symmetry_equiv_pos_as_xyz
  1  'x, y, z'
loop_
 _atom_site_type_symbol
 _atom_site_label
 _atom_site_symmetry_multiplicity
 _atom_site_fract_x
 _atom_site_fract_y
 _atom_site_fract_z
 _atom_site_occupancy
  Ti  Ti0  1  0.16024062  0.06731142  0.18331657  1
  Ti  Ti1  1  0.15291532  0.09075773  0.53528441  1
  Ti  Ti2  1  0.16615954  0.12189031  0.94400754  1
  Ti  Ti3  1  0.06970288  0.45013702  0.28918371  1
  Ti  Ti4  1  0.07127810  0.37522488  0.55637551  1
  Ti  Ti5  1  0.00040565  0.39907751  0.94111582  1
  Ti  Ti6  1  0.05619506  0.77593023  0.21836197  1
  Ti  Ti7  1  0.11814940  0.68843200  0.55712794  1
  Ti  Ti8  1  0.02845395  0.71707095  0.88357669  1
  Ti  Ti9  1  0.45734745  0.11537593  0.25944363  1
  Ti  Ti10  1  0.36117936  0.07425838  0.59216901  1
  Ti  Ti11  1  0.36168002  0.10584616  0.88021830  1
  Ti  Ti12  1  0.43739967  0.48737633  0.29644893  1
  Ti  Ti13  1  0.44711713  0.35942544  0.60421489  1
  Ti  Ti14  1  0.43077775  0.43784337  0.83374317  1
  Ti  Ti15  1  0.37404120  0.77831011  0.24271861  1
  Ti  Ti16  1  0.35856630  0.74919757  0.61239153  1
  Ti  Ti17  1  0.38060193  0.78660663  0.93351333  1
  Ti  Ti18  1  0.71089258  0.13254820  0.28639851  1
  Ti  Ti19  1  0.75040090  0.09570192  0.52821288  1
  Ti  Ti20  1  0.72429147  0.03550704  0.97717725  1
  Ti  Ti21  1  0.77111838  0.43650902  0.33642725  1
  Ti  Ti22  1  0.86521871  0.43847663  0.57348928  1
  Ti  Ti23  1  0.77823461  0.43018119  0.91851422  1
  Ti  Ti24  1  0.79064309  0.74304062  0.29899011  1
  Ti  Ti25  1  0.75786777  0.73008468  0.55940107  1
  Ti  Ti26  1  0.80282218  0.73073447  0.94116059  1
  Ti  Ti27  1  0.13830287  0.26316934  0.07489180  1
  Ti  Ti28  1  0.04936793  0.23203298  0.38815556  1
  Ti  Ti29  1  0.02843402  0.20476763  0.75953863  1
  Ti  Ti30  1  0.09640435  0.59044203  0.15722713  1
  Ti  Ti31  1  0.06803908  0.62161175  0.37170006  1
  Ti  Ti32  1  0.12157174  0.60978805  0.76699221  1
  Ti  Ti33  1  0.02377752  0.92312335  0.09333836  1
  Ti  Ti34  1  0.08303613  0.94173992  0.44660259  1
  Ti  Ti35  1  0.08689297  0.87628634  0.77834935  1
  Ti  Ti36  1  0.31379268  0.31388828  0.10843459  1
  Ti  Ti37  1  0.39154077  0.32278405  0.40584907  1
  Ti  Ti38  1  0.39028171  0.24934557  0.74627174  1
  Ti  Ti39  1  0.45132957  0.55473637  0.04086012  1
  Ti  Ti40  1  0.39192364  0.62288417  0.48636184  1
  Ti  Ti41  1  0.42655454  0.63869276  0.75613243  1
  Ti  Ti42  1  0.49121713  0.84075969  0.09459419  1
  Ti  Ti43  1  0.40529996  0.93495180  0.37652845  1
  Ti  Ti44  1  0.44438474  0.90516919  0.68552773  1
  Ti  Ti45  1  0.71597653  0.30905015  0.18756434  1
  Ti  Ti46  1  0.68452418  0.25759486  0.41251013  1
  Ti  Ti47  1  0.81995347  0.20552343  0.71531573  1
  Ti  Ti48  1  0.66418004  0.57037664  0.02614839  1
  Ti  Ti49  1  0.69582779  0.59328784  0.39330618  1
  Ti  Ti50  1  0.74331405  0.44162157  0.73235963  1
  Ti  Ti51  1  0.82814146  0.90520126  0.07476817  1
  Ti  Ti52  1  0.74496714  0.88881854  0.39716245  1
  Ti  Ti53  1  0.75626244  0.89045346  0.68044856  1
  Ti  Ti54  1  0.35432452  0.02886475  0.10428469  1
  Ti  Ti55  1  0.30894346  0.14807415  0.39951400  1
  Ti  Ti56  1  0.15496561  0.06112845  0.75011584  1
  Ti  Ti57  1  0.22299617  0.45677675  0.00834160  1
  Ti  Ti58  1  0.19165738  0.41660250  0.42313279  1
  Ti  Ti59  1  0.15826046  0.37735829  0.74082012  1
  Ti  Ti60  1  0.22173562  0.73764261  0.09426147  1
  Ti  Ti61  1  0.24093072  0.72836022  0.42507512  1
  Ti  Ti62  1  0.29475180  0.84722277  0.78686207  1
  Ti  Ti63  1  0.60084373  -0.00348663  0.12046325  1
  Ti  Ti64  1  0.59435262  0.01729584  0.41214714  1
  Ti  Ti65  1  0.61893971  0.14799431  0.76045604  1
  Ti  Ti66  1  0.51974993  0.34353378  0.10201341  1
  Ti  Ti67  1  0.53014366  0.49604155  0.46948485  1
  Ti  Ti68  1  0.55532944  0.48652160  0.69753911  1
  Ti  Ti69  1  0.65232680  0.74297529  0.10837634  1
  Ti  Ti70  1  0.57449683  0.73571825  0.46820228  1
  Ti  Ti71  1  0.58161187  0.77326247  0.66542753  1
  Ti  Ti72  1  0.92178912  0.09040281  0.06074010  1
  Ti  Ti73  1  0.98532414  0.07016171  0.32182553  1
  Ti  Ti74  1  0.93188363  0.01986725  0.75999662  1
  Ti  Ti75  1  0.86008679  0.36828614  0.06963585  1
  Ti  Ti76  1  0.94297146  0.37896702  0.39934470  1
  Ti  Ti77  1  0.96882371  0.47833961  0.74109954  1
  Ti  Ti78  1  0.87399136  0.72264267  0.11519914  1
  Ti  Ti79  1  0.91971288  0.74059088  0.45007726  1
  Ti  Ti80  1  0.83871477  0.69703743  0.75956330  1
  Ti  Ti81  1  0.20299223  0.27154595  0.27889413  1
  Ti  Ti82  1  0.24435899  0.23223502  0.62645572  1
  Ti  Ti83  1  0.27036565  0.30741413  0.90320161  1
  Ti  Ti84  1  0.28848683  0.56777247  0.16957373  1
  Ti  Ti85  1  0.26230208  0.55302058  0.64096475  1
  Ti  Ti86  1  0.28827758  0.61280661  0.92805746  1
  Ti  Ti87  1  0.21045062  0.89057345  0.31572606  1
  Ti  Ti88  1  0.21044807  0.91697088  0.61231036  1
  Ti  Ti89  1  0.20645491  0.89132168  0.98444548  1
  Ti  Ti90  1  0.55417182  0.28746428  0.27733201  1
  Ti  Ti91  1  0.66456293  0.30133472  0.61207774  1
  Ti  Ti92  1  0.66126283  0.26642083  0.96868801  1
  Ti  Ti93  1  0.60459978  0.51535509  0.20554593  1
  Ti  Ti94  1  0.67464642  0.56483026  0.57976613  1
  Ti  Ti95  1  0.57210839  0.60137567  0.86174653  1
  Ti  Ti96  1  0.56364270  0.83486022  0.29350581  1
  Ti  Ti97  1  0.57673128  1.01652956  0.61115841  1
  Ti  Ti98  1  0.56807925  0.89255744  0.91091276  1
  Ti  Ti99  1  0.88386305  0.21669032  0.21549739  1
  Ti  Ti100  1  0.90387481  0.23198697  0.54533674  1
  Ti  Ti101  1  0.88050267  0.22654717  0.90572556  1
  Ti  Ti102  1  0.90898231  0.54714748  0.18888866  1
  Ti  Ti103  1  0.95242582  0.62520329  0.60429196  1
  Ti  Ti104  1  0.92228465  0.56467954  0.90134972  1
  Ti  Ti105  1  0.84855275  0.98918095  0.23920943  1
  Ti  Ti106  1  0.89200957  0.93907745  0.53270177  1
  Ti  Ti107  1  0.91854449  0.96558039  0.92326286  1
  Co  Co108  1  0.39048523  -0.05949497  -0.01960597  1
  Co  Co109  1  0.82309656  0.56116619  0.03543517  1
  Co  Co110  1  0.00491414  0.12200726  0.90103836  1
  Co  Co111  1  0.64780389  0.72675140  -0.07153483  1
  Co  Co112  1  0.69124379  -0.13263960  0.01074008  1
  Co  Co113  1  0.62910677  0.43526895  0.84932240  1
  Co  Co114  1  0.46572463  -0.04628783  0.22692559  1
  Co  Co115  1  0.20456504  0.55211686  0.31612313  1
  Co  Co116  1  0.51233927  0.70377642  -0.00577801  1
  Co  Co117  1  0.21662080  0.21051416  0.78733360  1
  Co  Co118  1  0.59834225  0.15788113  0.52637346  1
  Co  Co119  1  0.60773617  0.42305906  0.34316083  1
  Co  Co120  1  0.39405139  0.44620154  0.15006245  1
  Co  Co121  1  0.69002276  0.79926965  0.79591777  1
  Co  Co122  1  0.92854400  0.89101455  0.37798120  1
  Co  Co123  1  0.41482899  0.21253907  0.52666212  1
  Co  Co124  1  0.43374527  0.95390822  0.83609424  1
  Co  Co125  1  0.67437329  0.40431212  0.05592737  1
  Co  Co126  1  0.75657055  0.07144563  0.13667260  1
  Co  Co127  1  0.68468959  0.43178326  0.49237813  1
  Co  Co128  1  0.55025054  0.32595642  0.75105559  1
  Co  Co129  1  0.44845826  0.05749517  0.46498428  1
  Co  Co130  1  0.33136846  0.86832044  0.11351777  1
  Co  Co131  1  0.28465484  0.41652992  0.28129013  1
  Co  Co132  1  0.01570244  0.73560139  0.71903846  1
  Co  Co133  1  0.27755853  0.67563210  0.77113585  1
  Co  Co134  1  0.05153424  -0.06360560  0.26226079  1
  Co  Co135  1  0.51731846  0.20420741  0.64884097  1
  Co  Co136  1  0.07812916  0.78813799  0.39255744  1
  Co  Co137  1  0.54785207  0.31983350  0.47766813  1
  Co  Co138  1  -0.05923546  0.68591977  0.28011871  1
  Co  Co139  1  0.20090311  0.56439307  0.48636164  1
  Co  Co140  1  0.25650897  -0.00086527  0.44499745  1
  Co  Co141  1  0.74486152  0.05458940  0.68967297  1
  Co  Co142  1  0.25529765  -0.01468920  0.87249198  1
  Co  Co143  1  0.82057163  0.03305959  0.39571657  1
  Co  Co144  1  0.19255546  0.74667306  0.89862107  1
  Co  Co145  1  0.65766283  -0.01384875  0.27073349  1
  Co  Co146  1  0.74587352  0.58549522  0.86466039  1
  Co  Co147  1  0.82603451  0.57836209  0.49780069  1
  Co  Co148  1  0.76428887  0.46485994  0.16715850  1
  Co  Co149  1  0.81590574  0.56827934  0.67144647  1
  Co  Co150  1  0.39819210  0.29816326  0.24641488  1
  Co  Co151  1  0.77573436  -0.02990479  0.82617848  1
  Co  Co152  1  0.38823042  0.40095028  -0.01138137  1
  Co  Co153  1  0.51876619  0.63608832  0.60151587  1
  Co  Co154  1  0.51612510  0.18116209  0.39341127  1
  Co  Co155  1  -0.09410517  0.84274941  0.22404233  1
  Co  Co156  1  0.01456494  0.51687132  0.47838416  1
  Co  Co157  1  0.50578832  0.77846855  0.81243054  1
  Co  Co158  1  -0.02500190  0.62276468  0.04253262  1
  Co  Co159  1  0.80404969  0.32644699  0.47448602  1
  Co  Co160  1  0.41141019  0.51567453  0.62088424  1
  Co  Co161  1  0.15330354  0.08969799  0.35062315  1
  Ni  Ni162  1  0.08606047  -0.01804412  -0.09437862  1
  Ni  Ni163  1  0.54479847  0.44346587  -0.02711091  1
  Ni  Ni164  1  0.19270913  0.25604307  0.47059905  1
  Ni  Ni165  1  0.31163092  0.00965810  0.72753293  1
  Ni  Ni166  1  0.63431852  0.68993513  0.27562400  1
  Ni  Ni167  1  0.20286308  0.70849839  0.26073522  1
  Ni  Ni168  1  0.34304562  0.63584794  0.32041739  1
  Ni  Ni169  1  0.12124814  0.47671765  0.86775463  1
  Ni  Ni170  1  0.27600224  0.49702672  0.80363495  1
  Ni  Ni171  1  0.07332801  0.75472144  0.04589215  1
  Ni  Ni172  1  -0.01733103  0.09052121  0.48534013  1
  Ni  Ni173  1  0.29759462  0.17029586  0.03057239  1
  Ni  Ni174  1  0.89849586  0.08447010  0.62226595  1
  Ni  Ni175  1  0.79217120  0.20351084  0.05348540  1
  Ni  Ni176  1  0.70702850  0.29202035  0.80730852  1
  Ni  Ni177  1  -0.03591358  0.32531530  0.67350677  1
  Ni  Ni178  1  0.87475755  0.35367120  0.80332957  1
  Ni  Ni179  1  0.72467509  0.86437946  0.19742617  1
  Ni  Ni180  1  0.48782417  0.88736611  0.52110259  1
  Ni  Ni181  1  0.06319401  0.21067356  0.59199174  1
  Ni  Ni182  1  0.50808216  0.66820493  0.16985219  1
  Ni  Ni183  1  0.75139612  0.13937827  0.86133146  1
  Ni  Ni184  1  0.10044430  0.27657792  0.89749654  1
  Ni  Ni185  1  0.04194663  0.30624630  0.21231992  1
  Ni  Ni186  1  0.29935890  0.16742953  0.19991183  1
  Ni  Ni187  1  0.17840463  -0.09894907  0.15596656  1
  Ni  Ni188  1  0.17906317  0.76858062  0.68369025  1
  Ni  Ni189  1  0.74967914  0.62144431  0.18442598  1
  Ni  Ni190  1  0.09454786  0.52242868  0.62294204  1
  Ni  Ni191  1  0.65318484  0.88019273  0.53390497  1
  Ni  Ni192  1  0.31567467  0.86227348  0.50132189  1
  Ni  Ni193  1  0.03090867  0.15282032  0.16883373  1
  Ni  Ni194  1  0.30376424  0.02265003  0.27382188  1
  Ni  Ni195  1  0.01851671  0.43839271  0.10270847  1
  Ni  Ni196  1  0.04376896  -0.00806956  0.62540245  1
  Ni  Ni197  1  0.94212078  0.81431143  -0.02205052  1
  Ni  Ni198  1  0.90157382  0.38700741  0.23322136  1
  Ni  Ni199  1  0.04488182  0.83342708  0.56969659  1
  Ni  Ni200  1  0.86378643  0.19366137  0.38222035  1
  Ni  Ni201  1  0.90219228  0.54868165  0.36094257  1
  Ni  Ni202  1  0.37565378  0.70024061  0.08032269  1
  Ni  Ni203  1  0.12796641  0.59905505  -0.01352868  1
  Ni  Ni204  1  -0.01897927  0.24881229  0.03950231  1
  Ni  Ni205  1  0.50191562  0.64167328  0.34299054  1
  Ni  Ni206  1  0.46271472  0.08105459  0.73942202  1
  Ni  Ni207  1  0.41801114  0.77040925  0.40974625  1
  Ni  Ni208  1  0.27309625  0.38912524  0.58741200  1
  Ni  Ni209  1  0.34621815  0.47140594  0.46298296  1
  Ni  Ni210  1  -0.09671851  0.84504049  0.80156875  1
  Ni  Ni211  1  0.17185061  0.41206853  0.16130981  1
  Ni  Ni212  1  0.67163743  0.64149138  0.72672987  1
  Ni  Ni213  1  0.61623078  0.17685693  0.13512815  1
  Ni  Ni214  1  0.89504811  0.79963105  0.62799304  1
