# generated using pymatgen
data_Ti108Co54Ni53
_symmetry_space_group_name_H-M   'P 1'
_cell_length_a   14.64745301
_cell_length_b   14.66584209
_cell_length_c   14.67170469
_cell_angle_alpha   90.41234457
_cell_angle_beta   89.88193560
_cell_angle_gamma   90.15446919
_symmetry_Int_Tables_number   1
_chemical_formula_structural   Ti108Co54Ni53
_chemical_formula_sum   'Ti108 Co54 Ni53'
_cell_volume   3151.63536286
_cell_formula_units_Z   1
loop_
 _symmetry_equiv_pos_site_id
 _symmetry_equiv_pos_as_xyz
  1  'x, y, z'
loop_
 _atom_site_type_symbol
 _atom_site_label
 _atom_site_symmetry_multiplicity
 _atom_site_fract_x
 _atom_site_fract_y
 _atom_site_fract_z
 _atom_site_occupancy
  Ti  Ti0  1  -0.03017438  0.09818392  0.25474502  1
  Ti  Ti1  1  0.12279641  0.08661402  0.55038146  1
  Ti  Ti2  1  0.08402163  0.08769085  0.94683481  1
  Ti  Ti3  1  0.10038637  0.37689187  0.30474590  1
  Ti  Ti4  1  0.13954072  0.42953880  0.63908545  1
  Ti  Ti5  1  0.06263759  0.35942021  0.93587524  1
  Ti  Ti6  1  0.08678713  0.77734922  0.26607884  1
  Ti  Ti7  1  0.13383446  0.74825933  0.57279953  1
  Ti  Ti8  1  0.10061605  0.79775248  0.88585693  1
  Ti  Ti9  1  0.44025675  0.07541450  0.18977021  1
  Ti  Ti10  1  0.40762586  0.23137547  0.59780945  1
  Ti  Ti11  1  0.42428584  0.07866059  0.85609400  1
  Ti  Ti12  1  0.48717090  0.40339017  0.28074929  1
  Ti  Ti13  1  0.35880762  0.46109353  0.67996862  1
  Ti  Ti14  1  0.37612955  0.43616085  0.93940431  1
  Ti  Ti15  1  0.35462607  0.71173785  0.22115789  1
  Ti  Ti16  1  0.44596636  0.77639746  0.53322046  1
  Ti  Ti17  1  0.45908861  0.66377025  0.93037208  1
  Ti  Ti18  1  0.76601763  0.07418243  0.14594949  1
  Ti  Ti19  1  0.77140168  0.09344225  0.61658172  1
  Ti  Ti20  1  0.74495264  0.01624703  0.94774062  1
  Ti  Ti21  1  0.70652479  0.43501940  0.29379207  1
  Ti  Ti22  1  0.81118782  0.46071120  0.50830716  1
  Ti  Ti23  1  0.71936118  0.36672377  0.95240089  1
  Ti  Ti24  1  0.75588301  0.73339899  0.25676892  1
  Ti  Ti25  1  0.80444995  0.67715304  0.58779939  1
  Ti  Ti26  1  0.78470406  0.67477710  0.91414280  1
  Ti  Ti27  1  0.14196805  0.22172087  0.08587017  1
  Ti  Ti28  1  0.02661328  0.20658963  0.41392721  1
  Ti  Ti29  1  0.14747984  0.24267527  0.73494162  1
  Ti  Ti30  1  0.03674471  0.51905128  0.06297020  1
  Ti  Ti31  1  0.08847895  0.59162664  0.38998001  1
  Ti  Ti32  1  0.07876270  0.63407956  0.75508138  1
  Ti  Ti33  1  0.10922423  0.91623646  0.08934835  1
  Ti  Ti34  1  0.11908049  0.89418613  0.42969239  1
  Ti  Ti35  1  0.08265137  0.96744639  0.77442663  1
  Ti  Ti36  1  0.34288767  0.24249589  0.06453471  1
  Ti  Ti37  1  0.41057786  0.29595452  0.42332317  1
  Ti  Ti38  1  0.46324759  0.32772194  0.75088042  1
  Ti  Ti39  1  0.41311197  0.55292668  0.07956196  1
  Ti  Ti40  1  0.37082350  0.55659914  0.38646598  1
  Ti  Ti41  1  0.43229661  0.63999798  0.70979951  1
  Ti  Ti42  1  0.31573040  0.86135153  0.07574462  1
  Ti  Ti43  1  0.35563689  0.87275501  0.35472957  1
  Ti  Ti44  1  0.50351786  0.91393030  0.78283329  1
  Ti  Ti45  1  0.74264725  0.28752223  0.17145342  1
  Ti  Ti46  1  0.78625948  0.29186168  0.38182546  1
  Ti  Ti47  1  0.72122932  0.29250216  0.75916619  1
  Ti  Ti48  1  0.74165649  0.56442361  0.07449231  1
  Ti  Ti49  1  0.70969163  0.61446553  0.42774315  1
  Ti  Ti50  1  0.80421206  0.57856221  0.74471375  1
  Ti  Ti51  1  0.77403965  0.88748258  0.13243416  1
  Ti  Ti52  1  0.75434760  0.93587887  0.46927773  1
  Ti  Ti53  1  0.81940721  0.97806211  0.75909934  1
  Ti  Ti54  1  0.27502536  0.04102661  0.08045255  1
  Ti  Ti55  1  0.19099284  0.11375656  0.36460776  1
  Ti  Ti56  1  0.22830747  0.08098390  0.79347066  1
  Ti  Ti57  1  0.22801443  0.41556474  0.14215664  1
  Ti  Ti58  1  0.21050309  0.46273026  0.45710799  1
  Ti  Ti59  1  0.22856277  0.41713582  0.82300772  1
  Ti  Ti60  1  0.15361707  0.74027376  0.06283576  1
  Ti  Ti61  1  0.23222225  0.70465176  0.37840790  1
  Ti  Ti62  1  0.24023624  0.72607550  0.75291596  1
  Ti  Ti63  1  0.59321433  0.11432282  0.04035082  1
  Ti  Ti64  1  0.63895589  0.13514404  0.38514760  1
  Ti  Ti65  1  0.63354009  0.08370561  0.81334893  1
  Ti  Ti66  1  0.59479286  0.44376466  0.12832979  1
  Ti  Ti67  1  0.61490261  0.35110553  0.45316423  1
  Ti  Ti68  1  0.58683173  0.48347394  0.69546978  1
  Ti  Ti69  1  0.49675023  0.78190176  0.09470765  1
  Ti  Ti70  1  0.59177993  0.76983676  0.39025419  1
  Ti  Ti71  1  0.60876582  0.69228258  0.80732837  1
  Ti  Ti72  1  0.91867757  0.06423625  0.03093380  1
  Ti  Ti73  1  0.84370541  0.10394893  0.42510325  1
  Ti  Ti74  1  0.96854668  0.11268993  0.70401333  1
  Ti  Ti75  1  0.88486951  0.38963597  0.04288453  1
  Ti  Ti76  1  0.92112594  0.46551850  0.33295320  1
  Ti  Ti77  1  0.98936190  0.37215285  0.75321880  1
  Ti  Ti78  1  0.95161404  0.78707732  0.08549832  1
  Ti  Ti79  1  0.84920776  0.76475854  0.42319929  1
  Ti  Ti80  1  0.81281306  0.78353360  0.76907166  1
  Ti  Ti81  1  0.33051285  0.24016628  0.25464121  1
  Ti  Ti82  1  0.22660101  0.26782307  0.53863322  1
  Ti  Ti83  1  0.31718854  0.25476197  0.86851805  1
  Ti  Ti84  1  0.19995158  0.60835994  0.17276008  1
  Ti  Ti85  1  0.30323061  0.63973566  0.55777050  1
  Ti  Ti86  1  0.24650206  0.62896576  0.93659363  1
  Ti  Ti87  1  0.21361937  0.96273210  0.25544706  1
  Ti  Ti88  1  0.23000769  0.92860117  0.61934134  1
  Ti  Ti89  1  0.30074628  0.90571537  0.80089199  1
  Ti  Ti90  1  0.51281074  0.25542167  0.15854881  1
  Ti  Ti91  1  0.60275156  0.23394212  0.61930694  1
  Ti  Ti92  1  0.50865145  0.24855161  0.92830514  1
  Ti  Ti93  1  0.52177933  0.62762624  0.25344212  1
  Ti  Ti94  1  0.59396841  0.65745268  0.58856137  1
  Ti  Ti95  1  0.61415986  0.52884161  0.92121620  1
  Ti  Ti96  1  0.59002361  0.92650548  0.22767754  1
  Ti  Ti97  1  0.60055421  0.88301017  0.59343235  1
  Ti  Ti98  1  0.63609527  0.84273534  0.95551312  1
  Ti  Ti99  1  0.92302710  0.28863007  0.23911234  1
  Ti  Ti100  1  0.85988537  0.26553001  0.56885241  1
  Ti  Ti101  1  0.84420411  0.17513573  0.87063063  1
  Ti  Ti102  1  0.94692293  0.65030658  0.30012104  1
  Ti  Ti103  1  0.96401968  0.55019022  0.61105644  1
  Ti  Ti104  1  0.94922350  0.53162060  0.87376968  1
  Ti  Ti105  1  0.85788036  0.95161850  0.30069846  1
  Ti  Ti106  1  0.93401524  0.83385119  0.60033448  1
  Ti  Ti107  1  0.86064158  0.87099840  0.94419246  1
  Co  Co108  1  0.35761798  0.18060614  0.74130721  1
  Co  Co109  1  0.42927689  0.11717069  0.01768582  1
  Co  Co110  1  0.01667993  -0.08035871  -0.04217606  1
  Co  Co111  1  0.34167260  0.79697134  0.65603368  1
  Co  Co112  1  0.80307883  0.57249574  0.31155185  1
  Co  Co113  1  0.89473267  0.59832821  0.45791662  1
  Co  Co114  1  0.51823484  0.39920922  0.00000501  1
  Co  Co115  1  0.51503999  0.77934052  0.69637135  1
  Co  Co116  1  0.15173618  0.22567434  0.89770186  1
  Co  Co117  1  0.87369401  0.35715190  0.86804124  1
  Co  Co118  1  0.05447343  0.51084228  0.22629831  1
  Co  Co119  1  0.34058609  0.69967215  0.05540560  1
  Co  Co120  1  0.09363990  0.81730057  0.71101002  1
  Co  Co121  1  0.93614108  0.02852798  0.86085562  1
  Co  Co122  1  0.34192004  0.05249477  0.31510767  1
  Co  Co123  1  -0.05488920  0.89381752  0.43218502  1
  Co  Co124  1  -0.08216585  0.63496789  0.01095321  1
  Co  Co125  1  0.71541338  0.21543055  0.50971112  1
  Co  Co126  1  -0.01974531  0.19237474  0.12175104  1
  Co  Co127  1  0.50948423  0.37561559  0.58576088  1
  Co  Co128  1  0.28647581  0.31629300  0.68853866  1
  Co  Co129  1  0.67396866  0.59280495  0.22058480  1
  Co  Co130  1  0.00201622  0.22130911  0.83107062  1
  Co  Co131  1  0.76925454  0.88940211  0.63157430  1
  Co  Co132  1  0.20668363  0.51748005  0.30087414  1
  Co  Co133  1  0.59422641  0.52169175  0.35128015  1
  Co  Co134  1  0.07949513  0.62734503  0.93338023  1
  Co  Co135  1  0.36508090  0.01998818  0.70298441  1
  Co  Co136  1  0.49300234  0.80000742  0.26796926  1
  Co  Co137  1  0.92657923  -0.05033850  0.13610100  1
  Co  Co138  1  0.63817458  0.75411637  0.15363950  1
  Co  Co139  1  0.23853625  0.13071684  0.20200772  1
  Co  Co140  1  0.09827048  0.21663966  0.24670641  1
  Co  Co141  1  0.72015050  0.45271559  0.79177242  1
  Co  Co142  1  0.55275158  -0.01128645  0.92899897  1
  Co  Co143  1  0.09866859  0.49171252  0.82105553  1
  Co  Co144  1  0.35645858  -0.03329703  -0.05571743  1
  Co  Co145  1  0.87623442  0.25077840  0.72706688  1
  Co  Co146  1  0.39109086  0.91765629  0.20750149  1
  Co  Co147  1  0.62454855  0.50622097  0.52353715  1
  Co  Co148  1  0.70808541  0.00559556  0.30645402  1
  Co  Co149  1  0.70423794  0.78085819  0.50939768  1
  Co  Co150  1  0.23152478  0.80583003  0.21400148  1
  Co  Co151  1  0.01655211  0.48301557  0.47147952  1
  Co  Co152  1  0.40150155  0.71526189  0.39132591  1
  Co  Co153  1  0.26598149  0.12129487  -0.05123985  1
  Co  Co154  1  0.65093105  0.00615648  0.67998894  1
  Co  Co155  1  0.45716648  0.84290018  -0.05924923  1
  Co  Co156  1  0.61683372  0.11986484  0.21693102  1
  Co  Co157  1  0.88564008  -0.01513427  0.56505471  1
  Co  Co158  1  0.56572959  0.60166423  0.09084622  1
  Co  Co159  1  -0.04588310  0.12136773  0.54372695  1
  Co  Co160  1  0.63428043  0.68889581  -0.01550451  1
  Co  Co161  1  0.52213421  0.62834112  0.44479665  1
  Ni  Ni162  1  0.94817964  0.70851653  0.86376217  1
  Ni  Ni163  1  0.34773626  0.41370221  0.52548839  1
  Ni  Ni164  1  0.31467608  0.39541478  0.31549637  1
  Ni  Ni165  1  0.09055495  0.06650599  0.14495081  1
  Ni  Ni166  1  0.27971345  0.81405765  0.50125738  1
  Ni  Ni167  1  0.03978939  0.35554855  0.13144942  1
  Ni  Ni168  1  0.39797995  0.76481279  0.81332358  1
  Ni  Ni169  1  0.03007676  0.65862018  0.15032863  1
  Ni  Ni170  1  0.25807083  0.12646680  0.63022073  1
  Ni  Ni171  1  0.18822639  -0.04812805  0.93002235  1
  Ni  Ni172  1  0.25999197  -0.02100752  0.44826223  1
  Ni  Ni173  1  0.21280221  0.27816260  0.37358676  1
  Ni  Ni174  1  0.13185108  0.58114155  0.56085212  1
  Ni  Ni175  1  0.68155670  0.76095900  0.67823548  1
  Ni  Ni176  1  0.47097514  -0.04422761  0.06945462  1
  Ni  Ni177  1  0.91839914  0.81161887  0.25044864  1
  Ni  Ni178  1  0.67972202  0.20505754  0.91356902  1
  Ni  Ni179  1  0.48421453  0.45332937  0.44271719  1
  Ni  Ni180  1  0.27496285  0.79686527  -0.07135768  1
  Ni  Ni181  1  -0.04341594  0.86301826  0.79889257  1
  Ni  Ni182  1  0.51607994  0.16423029  0.73862831  1
  Ni  Ni183  1  0.35484198  0.52562709  0.22526043  1
  Ni  Ni184  1  0.18412614  0.49333022  -0.00846049  1
  Ni  Ni185  1  0.63683375  -0.03825078  0.07462026  1
  Ni  Ni186  1  0.09405523  0.34525174  0.47832561  1
  Ni  Ni187  1  0.03823735  0.94007665  0.26613412  1
  Ni  Ni188  1  0.62041358  0.27874319  0.29067553  1
  Ni  Ni189  1  -0.05524227  0.70175596  0.69657364  1
  Ni  Ni190  1  0.79461843  0.20396440  0.03590343  1
  Ni  Ni191  1  0.78482241  0.73855350  0.06519203  1
  Ni  Ni192  1  0.22638454  0.56713734  0.69524005  1
  Ni  Ni193  1  0.97425818  0.38270928  0.58813302  1
  Ni  Ni194  1  0.69455230  0.38075624  0.60946271  1
  Ni  Ni195  1  0.86427538  0.62305569  0.16299398  1
  Ni  Ni196  1  0.63205352  0.27880363  0.05209948  1
  Ni  Ni197  1  0.67659695  0.88976363  0.79780291  1
  Ni  Ni198  1  0.05543714  -0.05697619  0.59091434  1
  Ni  Ni199  1  -0.06503784  0.33825105  0.43008448  1
  Ni  Ni200  1  0.48110279  0.50790068  0.82391072  1
  Ni  Ni201  1  0.05536815  0.23998738  0.60046695  1
  Ni  Ni202  1  0.02139942  0.03378711  0.41100048  1
  Ni  Ni203  1  0.78322311  0.15812901  0.28063080  1
  Ni  Ni204  1  0.84184959  0.42324725  0.68114552  1
  Ni  Ni205  1  0.45436594  0.54736301  0.57090794  1
  Ni  Ni206  1  0.40103412  0.38821499  0.13508255  1
  Ni  Ni207  1  0.58540546  0.37597213  0.84578922  1
  Ni  Ni208  1  0.80097840  0.50622747  -0.07353319  1
  Ni  Ni209  1  0.02441375  0.74430829  0.43855578  1
  Ni  Ni210  1  0.48468687  0.18421209  0.31785886  1
  Ni  Ni211  1  -0.05050119  0.24810707  -0.01845287  1
  Ni  Ni212  1  0.83066343  0.45387365  0.18550881  1
  Ni  Ni213  1  0.22944449  0.34038288  -0.01446959  1
  Ni  Ni214  1  0.33306873  0.56598660  0.82058226  1
