# generated using pymatgen
data_Ti108Co54Ni53
_symmetry_space_group_name_H-M   'P 1'
_cell_length_a   14.61290991
_cell_length_b   14.71814488
_cell_length_c   14.62841397
_cell_angle_alpha   90.14072432
_cell_angle_beta   89.59060084
_cell_angle_gamma   89.59844778
_symmetry_Int_Tables_number   1
_chemical_formula_structural   Ti108Co54Ni53
_chemical_formula_sum   'Ti108 Co54 Ni53'
_cell_volume   3146.03757551
_cell_formula_units_Z   1
loop_
 _symmetry_equiv_pos_site_id
 _symmetry_equiv_pos_as_xyz
  1  'x, y, z'
loop_
 _atom_site_type_symbol
 _atom_site_label
 _atom_site_symmetry_multiplicity
 _atom_site_fract_x
 _atom_site_fract_y
 _atom_site_fract_z
 _atom_site_occupancy
  Ti  Ti0  1  -0.00001932  0.11307311  0.23428107  1
  Ti  Ti1  1  0.00631377  0.09945596  0.63166832  1
  Ti  Ti2  1  0.00835952  0.05467972  0.84417980  1
  Ti  Ti3  1  0.09800818  0.43968181  0.23396396  1
  Ti  Ti4  1  0.03562800  0.40608614  0.57827922  1
  Ti  Ti5  1  0.07566002  0.41509964  0.90083001  1
  Ti  Ti6  1  0.08824601  0.73452562  0.23148854  1
  Ti  Ti7  1  0.08971230  0.71103594  0.63305740  1
  Ti  Ti8  1  0.02169035  0.73556627  0.91748842  1
  Ti  Ti9  1  0.43274581  0.09889237  0.16774136  1
  Ti  Ti10  1  0.39345086  0.06081448  0.67769868  1
  Ti  Ti11  1  0.52217961  0.04773566  0.92561949  1
  Ti  Ti12  1  0.36119680  0.41193318  0.28300272  1
  Ti  Ti13  1  0.42625441  0.36713984  0.57710764  1
  Ti  Ti14  1  0.38916660  0.45555899  0.95578342  1
  Ti  Ti15  1  0.38186338  0.68660992  0.32277978  1
  Ti  Ti16  1  0.37178865  0.75224852  0.51505747  1
  Ti  Ti17  1  0.42625848  0.76273451  0.87598154  1
  Ti  Ti18  1  0.76727776  0.13807192  0.21817113  1
  Ti  Ti19  1  0.72257579  0.00286256  0.56259846  1
  Ti  Ti20  1  0.81826098  0.09244291  0.93788767  1
  Ti  Ti21  1  0.71035955  0.42044950  0.21590614  1
  Ti  Ti22  1  0.79633802  0.42241027  0.57425088  1
  Ti  Ti23  1  0.78968872  0.45323501  0.89085111  1
  Ti  Ti24  1  0.70047923  0.71187701  0.20276310  1
  Ti  Ti25  1  0.73125932  0.73113884  0.61856870  1
  Ti  Ti26  1  0.72007359  0.71931354  0.99060164  1
  Ti  Ti27  1  0.11232066  0.27848082  0.04561630  1
  Ti  Ti28  1  0.09436714  0.32428127  0.40397996  1
  Ti  Ti29  1  0.06682524  0.24414289  0.73502120  1
  Ti  Ti30  1  0.01292112  0.59276410  0.12520439  1
  Ti  Ti31  1  0.11155041  0.56209841  0.47291988  1
  Ti  Ti32  1  0.10195404  0.57884610  0.76741707  1
  Ti  Ti33  1  0.12105033  0.92972523  0.13124626  1
  Ti  Ti34  1  0.03669546  0.96875013  0.38258369  1
  Ti  Ti35  1  0.11523342  0.88210530  0.81175804  1
  Ti  Ti36  1  0.44719181  0.31526906  0.09276361  1
  Ti  Ti37  1  0.35584099  0.27173803  0.40708561  1
  Ti  Ti38  1  0.36619605  0.27999456  0.74391372  1
  Ti  Ti39  1  0.37451758  0.63751479  0.09796438  1
  Ti  Ti40  1  0.37589132  0.55317526  0.47350376  1
  Ti  Ti41  1  0.45162880  0.61143957  0.73348775  1
  Ti  Ti42  1  0.39869558  0.93804707  0.06117321  1
  Ti  Ti43  1  0.44185387  0.94847113  0.49991141  1
  Ti  Ti44  1  0.48986168  0.91735529  0.73143644  1
  Ti  Ti45  1  0.77227019  0.30028987  0.02303399  1
  Ti  Ti46  1  0.75620171  0.24354723  0.47161765  1
  Ti  Ti47  1  0.75154382  0.13681264  0.74107912  1
  Ti  Ti48  1  0.79249528  0.54650137  0.08259424  1
  Ti  Ti49  1  0.70795811  0.68263113  0.43215901  1
  Ti  Ti50  1  0.80029906  0.56155399  0.72495194  1
  Ti  Ti51  1  0.75576097  0.90496667  0.06083199  1
  Ti  Ti52  1  0.83897652  0.92032850  0.41709362  1
  Ti  Ti53  1  0.77011155  0.86232629  0.74574619  1
  Ti  Ti54  1  0.19410197  0.09253127  0.07538014  1
  Ti  Ti55  1  0.27316060  0.07074674  0.40893656  1
  Ti  Ti56  1  0.24202997  0.13822962  0.76860623  1
  Ti  Ti57  1  0.25315987  0.36736029  0.12326546  1
  Ti  Ti58  1  0.24852140  0.40231048  0.50236621  1
  Ti  Ti59  1  0.25056729  0.44703245  0.77468384  1
  Ti  Ti60  1  0.24609246  0.79162458  0.11480308  1
  Ti  Ti61  1  0.22563661  0.87172668  0.44386462  1
  Ti  Ti62  1  0.28320485  0.78291399  0.75291430  1
  Ti  Ti63  1  0.64050864  0.12687612  0.07302666  1
  Ti  Ti64  1  0.58389853  0.12374651  0.43651723  1
  Ti  Ti65  1  0.55978013  0.11953313  0.74621861  1
  Ti  Ti66  1  0.63235725  0.43373256  0.03167912  1
  Ti  Ti67  1  0.61826389  0.39795351  0.39936658  1
  Ti  Ti68  1  0.55252677  0.31801510  0.75592891  1
  Ti  Ti69  1  0.56106444  0.65466393  0.04381372  1
  Ti  Ti70  1  0.55037540  0.78896051  0.36899191  1
  Ti  Ti71  1  0.59479710  0.76982410  0.75978005  1
  Ti  Ti72  1  0.99378852  0.08597415  0.04879331  1
  Ti  Ti73  1  0.94415292  0.13934746  0.44432441  1
  Ti  Ti74  1  0.87483430  0.00336669  0.71346514  1
  Ti  Ti75  1  0.94528384  0.39828054  0.09867934  1
  Ti  Ti76  1  0.82744749  0.40266648  0.36603132  1
  Ti  Ti77  1  0.90617895  0.37347728  0.75786273  1
  Ti  Ti78  1  0.88696500  0.74451958  0.07716216  1
  Ti  Ti79  1  1.07079470  0.74435814  0.42091583  1
  Ti  Ti80  1  0.91837008  0.72247439  0.73634530  1
  Ti  Ti81  1  0.25175099  0.18934502  0.25670680  1
  Ti  Ti82  1  0.32373387  0.19775625  0.57489025  1
  Ti  Ti83  1  0.29045280  0.23059499  0.94413775  1
  Ti  Ti84  1  0.22900945  0.57854705  0.19875580  1
  Ti  Ti85  1  0.26813719  0.62442209  0.64043014  1
  Ti  Ti86  1  0.23117864  0.56278528  0.95204897  1
  Ti  Ti87  1  0.30128495  0.95048867  0.24760928  1
  Ti  Ti88  1  0.22588990  1.00442692  0.59536360  1
  Ti  Ti89  1  0.26794004  0.89976738  0.93296094  1
  Ti  Ti90  1  0.53467378  0.26799745  0.27423433  1
  Ti  Ti91  1  0.61952594  0.33879494  0.58447888  1
  Ti  Ti92  1  0.56785719  0.25655092  0.95063611  1
  Ti  Ti93  1  0.48516453  0.54788034  0.25541802  1
  Ti  Ti94  1  0.60579297  0.55886925  0.55872580  1
  Ti  Ti95  1  0.56425635  0.50465583  0.85921287  1
  Ti  Ti96  1  0.50846728  0.89684452  0.21773985  1
  Ti  Ti97  1  0.55063529  0.77528005  0.56302084  1
  Ti  Ti98  1  0.55985062  0.86155715  0.96099359  1
  Ti  Ti99  1  0.96312713  0.30589906  0.27879268  1
  Ti  Ti100  1  0.90060597  0.26234367  0.61321144  1
  Ti  Ti101  1  0.95368582  0.23051141  0.92357925  1
  Ti  Ti102  1  0.91583501  0.61544121  0.34796243  1
  Ti  Ti103  1  0.92553309  0.68282168  0.54796104  1
  Ti  Ti104  1  0.87219812  0.62441961  0.90210116  1
  Ti  Ti105  1  0.94951693  0.90739489  0.19486386  1
  Ti  Ti106  1  1.02713924  0.89864861  0.63306295  1
  Ti  Ti107  1  0.94982115  0.91116307  0.98327525  1
  Co  Co108  1  0.82195947  0.30166220  0.19365302  1
  Co  Co109  1  0.94391568  0.52095567  -0.00294167  1
  Co  Co110  1  0.45266818  0.16329977  0.02027626  1
  Co  Co111  1  0.12057693  0.03330014  0.72643520  1
  Co  Co112  1  0.85313481  0.20705384  0.33639065  1
  Co  Co113  1  0.09267570  0.15802471  0.36014504  1
  Co  Co114  1  0.61189401  0.82073294  0.11344222  1
  Co  Co115  1  0.83819709  0.17010418  0.07580780  1
  Co  Co116  1  0.49875305  0.50994095  0.06034344  1
  Co  Co117  1  -0.00366810  0.46028057  0.37000229  1
  Co  Co118  1  0.20708592  0.21749664  0.46294680  1
  Co  Co119  1  0.31133096  0.20111060  0.10390415  1
  Co  Co120  1  0.11304028  0.26178071  0.21126055  1
  Co  Co121  1  0.42861570  0.10808099  0.48669485  1
  Co  Co122  1  0.09772888  -0.01953414  -0.02317248  1
  Co  Co123  1  0.85871958  0.01757396  0.12126411  1
  Co  Co124  1  0.74804984  0.70008552  0.80024916  1
  Co  Co125  1  0.23581663  0.38719154  -0.04212559  1
  Co  Co126  1  0.69554639  0.84146292  0.48674064  1
  Co  Co127  1  0.43119463  0.75791581  0.68229111  1
  Co  Co128  1  -0.02286852  0.84856418  0.49167494  1
  Co  Co129  1  0.21656312  0.32411325  0.65103199  1
  Co  Co130  1  0.81686271  -0.04750031  0.87573950  1
  Co  Co131  1  0.06954289  0.58479900  -0.06785594  1
  Co  Co132  1  0.30726449  0.60269554  0.81035382  1
  Co  Co133  1  -0.10437909  0.47592562  0.23322357  1
  Co  Co134  1  0.56067588  -0.01260447  0.08702604  1
  Co  Co135  1  -0.08134378  0.37664756  -0.06445690  1
  Co  Co136  1  0.26335744  -0.05267243  0.75312306  1
  Co  Co137  1  0.51021172  0.65065448  0.45582212  1
  Co  Co138  1  0.36694453  0.47957275  0.13701312  1
  Co  Co139  1  0.03915656  0.78542311  0.09029606  1
  Co  Co140  1  -0.04251268  0.51299347  0.81933276  1
  Co  Co141  1  0.42592031  0.30704142  0.89779951  1
  Co  Co142  1  -0.08969611  0.17374670  0.76838918  1
  Co  Co143  1  0.34947910  0.48738123  0.64709000  1
  Co  Co144  1  0.86660369  0.64291782  0.19497504  1
  Co  Co145  1  0.05331181  0.23617201  0.53558781  1
  Co  Co146  1  0.69468635  0.84191437  0.88861303  1
  Co  Co147  1  0.08258407  0.40911064  0.73283312  1
  Co  Co148  1  0.69998014  0.57793498  -0.08420916  1
  Co  Co149  1  0.52035884  0.71041812  0.20335793  1
  Co  Co150  1  0.84512767  0.76064202  0.43897699  1
  Co  Co151  1  0.22060278  0.34393484  0.31120285  1
  Co  Co152  1  0.08628363  0.58736825  0.30700078  1
  Co  Co153  1  0.92066068  -0.00523424  0.54022160  1
  Co  Co154  1  0.92714181  0.33040762  0.46533238  1
  Co  Co155  1  0.17571087  0.49071917  0.61988318  1
  Co  Co156  1  0.14308066  0.81842217  -0.02160493  1
  Co  Co157  1  0.67801246  -0.00357585  -0.03750386  1
  Co  Co158  1  0.65207680  -0.01476810  0.80005096  1
  Co  Co159  1  0.20085280  0.03595257  0.87790539  1
  Co  Co160  1  0.57625358  0.67793475  0.88032807  1
  Co  Co161  1  0.63005405  0.56191378  0.16583045  1
  Ni  Ni162  1  0.35123196  0.88854158  0.62379489  1
  Ni  Ni163  1  0.42010569  0.43605927  0.78944402  1
  Ni  Ni164  1  0.42807109  0.15383136  0.32591055  1
  Ni  Ni165  1  0.51624108  0.26897851  0.45829502  1
  Ni  Ni166  1  0.75632044  0.56622472  0.28581279  1
  Ni  Ni167  1  0.79662961  0.26199509  0.85565739  1
  Ni  Ni168  1  0.70107448  0.27101660  0.31181517  1
  Ni  Ni169  1  0.82438375  0.12592398  0.57820233  1
  Ni  Ni170  1  0.60576360  0.62766906  0.32036140  1
  Ni  Ni171  1  0.62857584  0.60278145  0.72925372  1
  Ni  Ni172  1  -0.07772407  0.51278548  0.49940300  1
  Ni  Ni173  1  -0.12473444  0.03460204  0.29923534  1
  Ni  Ni174  1  0.38040977  0.85219428  0.36784008  1
  Ni  Ni175  1  0.45694252  0.41954750  0.41559164  1
  Ni  Ni176  1  0.37638303  0.80035369  0.20801238  1
  Ni  Ni177  1  0.23412621  0.50980592  0.35868544  1
  Ni  Ni178  1  0.55156560  0.04618246  0.59087032  1
  Ni  Ni179  1  0.12122006  0.47267897  0.05968252  1
  Ni  Ni180  1  0.67935903  0.44362517  0.72058908  1
  Ni  Ni181  1  0.33102090  0.06592185  -0.01820658  1
  Ni  Ni182  1  0.79033947  0.58975839  0.56096715  1
  Ni  Ni183  1  0.43897206  0.00007643  0.34146411  1
  Ni  Ni184  1  0.40912599  0.14368541  0.84356084  1
  Ni  Ni185  1  0.19097952  0.84255549  0.62669307  1
  Ni  Ni186  1  0.53979564  0.41120454  0.19002051  1
  Ni  Ni187  1  0.65936471  0.16825184  0.59652624  1
  Ni  Ni188  1  -0.02874663  0.23859128  0.12190247  1
  Ni  Ni189  1  0.15452524  0.66405854  0.05944957  1
  Ni  Ni190  1  0.74385673  0.29692512  0.69401564  1
  Ni  Ni191  1  0.66719269  0.14252722  0.88626594  1
  Ni  Ni192  1  0.15873415  0.04109377  0.25862513  1
  Ni  Ni193  1  0.66450782  0.35910614  -0.13087477  1
  Ni  Ni194  1  0.10901543  0.06832280  0.49378211  1
  Ni  Ni195  1  0.17373694  0.70515982  0.85310306  1
  Ni  Ni196  1  0.52436462  0.46827970  0.66979010  1
  Ni  Ni197  1  0.29376034  0.72447008  -0.03565241  1
  Ni  Ni198  1  0.63423409  -0.10236087  0.64367057  1
  Ni  Ni199  1  0.44243632  0.77984392  0.05999264  1
  Ni  Ni200  1  -0.02852706  0.54816527  0.65619638  1
  Ni  Ni201  1  0.39604014  0.96698345  0.85587839  1
  Ni  Ni202  1  0.85190781  0.79264940  -0.09235135  1
  Ni  Ni203  1  0.16695841  0.16228314  0.62023398  1
  Ni  Ni204  1  0.14379483  0.87505070  0.29682341  1
  Ni  Ni205  1  0.49391870  0.20746132  0.61468174  1
  Ni  Ni206  1  0.11683955  0.17051107  -0.08461679  1
  Ni  Ni207  1  0.83857620  0.85475413  0.58571878  1
  Ni  Ni208  1  0.72554037  0.51107636  0.43884361  1
  Ni  Ni209  1  0.21068607  0.71385821  0.51264759  1
  Ni  Ni210  1  0.19194943  0.29845199  0.82027925  1
  Ni  Ni211  1  0.64052746  0.28417332  0.13569607  1
  Ni  Ni212  1  0.21874660  0.67809107  0.35248892  1
  Ni  Ni213  1  0.95192278  0.80601891  0.32231000  1
  Ni  Ni214  1  -0.05046251  0.87543395  0.80069350  1
