# generated using pymatgen
data_Ti108Co54Ni53
_symmetry_space_group_name_H-M   'P 1'
_cell_length_a   14.64184540
_cell_length_b   14.62154942
_cell_length_c   14.63024139
_cell_angle_alpha   90.28565474
_cell_angle_beta   90.01533013
_cell_angle_gamma   89.77841392
_symmetry_Int_Tables_number   1
_chemical_formula_structural   Ti108Co54Ni53
_chemical_formula_sum   'Ti108 Co54 Ni53'
_cell_volume   3132.07423086
_cell_formula_units_Z   1
loop_
 _symmetry_equiv_pos_site_id
 _symmetry_equiv_pos_as_xyz
  1  'x, y, z'
loop_
 _atom_site_type_symbol
 _atom_site_label
 _atom_site_symmetry_multiplicity
 _atom_site_fract_x
 _atom_site_fract_y
 _atom_site_fract_z
 _atom_site_occupancy
  Ti  Ti0  1  0.08112715  0.15197387  0.29395371  1
  Ti  Ti1  1  0.06996482  0.04734730  0.66364979  1
  Ti  Ti2  1  0.11577406  0.06489659  0.97789591  1
  Ti  Ti3  1  0.18625602  0.42550328  0.22338671  1
  Ti  Ti4  1  0.11861666  0.37612525  0.63022048  1
  Ti  Ti5  1  0.09601591  0.38878634  0.94333103  1
  Ti  Ti6  1  0.05793406  0.73669947  0.17090212  1
  Ti  Ti7  1  0.00475503  0.74826971  0.62837608  1
  Ti  Ti8  1  0.02048048  0.72534265  0.86451659  1
  Ti  Ti9  1  0.42821394  0.08367588  0.23960214  1
  Ti  Ti10  1  0.39061760  0.09215088  0.57873489  1
  Ti  Ti11  1  0.44812621  0.06364918  0.92027924  1
  Ti  Ti12  1  0.41504508  0.40377422  0.12641531  1
  Ti  Ti13  1  0.44300209  0.38235558  0.52098043  1
  Ti  Ti14  1  0.44885075  0.39910306  0.92087018  1
  Ti  Ti15  1  0.38962608  0.73941661  0.21250792  1
  Ti  Ti16  1  0.37291115  0.79200185  0.53284782  1
  Ti  Ti17  1  0.48084293  0.73494364  0.84924512  1
  Ti  Ti18  1  0.78997602  0.05083042  0.27788865  1
  Ti  Ti19  1  0.78211938  0.07465197  0.61620841  1
  Ti  Ti20  1  0.78393663  0.05062156  0.95355641  1
  Ti  Ti21  1  0.79869574  0.39829413  0.29251004  1
  Ti  Ti22  1  0.80353924  0.39937520  0.57622213  1
  Ti  Ti23  1  0.75981147  0.40753109  0.85378689  1
  Ti  Ti24  1  0.68687734  0.79127851  0.23021527  1
  Ti  Ti25  1  0.79726729  0.73520248  0.65160084  1
  Ti  Ti26  1  0.67947751  0.73593547  0.93204308  1
  Ti  Ti27  1  0.04724306  0.24577905  0.05684202  1
  Ti  Ti28  1  0.07546636  0.26278642  0.46483095  1
  Ti  Ti29  1  0.08606024  0.22918024  0.75693004  1
  Ti  Ti30  1  0.02637806  0.56043897  0.05316467  1
  Ti  Ti31  1  0.03173276  0.62147500  0.46573704  1
  Ti  Ti32  1  0.03467670  0.56327943  0.71546888  1
  Ti  Ti33  1  0.13567035  0.89187013  0.07535916  1
  Ti  Ti34  1  0.06037217  0.96185871  0.39434231  1
  Ti  Ti35  1  0.02611855  0.89070418  0.75825345  1
  Ti  Ti36  1  0.48727049  0.24379384  0.08871436  1
  Ti  Ti37  1  0.38145770  0.23292328  0.39780513  1
  Ti  Ti38  1  0.37642551  0.24052173  0.82289238  1
  Ti  Ti39  1  0.41641857  0.59095767  0.06792447  1
  Ti  Ti40  1  0.44410895  0.60992772  0.35953529  1
  Ti  Ti41  1  0.41273752  0.55940860  0.77161356  1
  Ti  Ti42  1  0.46496644  0.89703563  0.09669454  1
  Ti  Ti43  1  0.45711775  0.92216742  0.40635804  1
  Ti  Ti44  1  0.41546876  0.86902227  0.72402971  1
  Ti  Ti45  1  0.75645991  0.23377472  0.19236088  1
  Ti  Ti46  1  0.74828423  0.22369595  0.40504091  1
  Ti  Ti47  1  0.70016926  0.20033736  0.80761065  1
  Ti  Ti48  1  0.82689444  0.63607356  0.06994680  1
  Ti  Ti49  1  0.82747218  0.61361772  0.39921076  1
  Ti  Ti50  1  0.73412238  0.56818743  0.73831642  1
  Ti  Ti51  1  0.74380028  0.88711030  0.04835413  1
  Ti  Ti52  1  0.67290098  0.90420389  0.39044025  1
  Ti  Ti53  1  0.66040772  0.94689094  0.72371134  1
  Ti  Ti54  1  0.24609041  0.04542521  0.15013375  1
  Ti  Ti55  1  0.22117271  0.09841360  0.43714409  1
  Ti  Ti56  1  0.26848566  0.09346815  0.75401751  1
  Ti  Ti57  1  0.24531749  0.36382478  0.05379507  1
  Ti  Ti58  1  0.24581271  0.39038097  0.41512515  1
  Ti  Ti59  1  0.23448887  0.54228520  0.69128248  1
  Ti  Ti60  1  0.25050014  0.69953079  0.05776214  1
  Ti  Ti61  1  0.18225303  0.78813146  0.45349624  1
  Ti  Ti62  1  0.29376515  0.73282183  0.79270524  1
  Ti  Ti63  1  0.61676776  0.13881317  0.01701862  1
  Ti  Ti64  1  0.53116132  0.09510514  0.44719441  1
  Ti  Ti65  1  0.58339855  0.10290842  0.66107214  1
  Ti  Ti66  1  0.61714920  0.38509002  0.17511150  1
  Ti  Ti67  1  0.50848597  0.41804397  0.34704708  1
  Ti  Ti68  1  0.47514964  0.38578329  0.70940683  1
  Ti  Ti69  1  0.63719512  0.62496521  0.08831521  1
  Ti  Ti70  1  0.53520722  0.75793451  0.39094593  1
  Ti  Ti71  1  0.64158968  0.77218372  0.75439218  1
  Ti  Ti72  1  0.90996562  0.10886440  0.10976537  1
  Ti  Ti73  1  0.91751657  0.11055352  0.42369778  1
  Ti  Ti74  1  0.89551518  0.16650066  0.76302558  1
  Ti  Ti75  1  0.88806311  0.44640784  0.11941337  1
  Ti  Ti76  1  0.95217632  0.44890933  0.40976725  1
  Ti  Ti77  1  0.96828641  0.38024752  0.80459320  1
  Ti  Ti78  1  0.90226052  0.81331059  0.09721425  1
  Ti  Ti79  1  0.99190428  0.79469624  0.43262970  1
  Ti  Ti80  1  0.84219147  0.85099230  0.79200848  1
  Ti  Ti81  1  0.30495969  0.24983442  0.20522642  1
  Ti  Ti82  1  0.30015172  0.26519622  0.60843338  1
  Ti  Ti83  1  0.19492656  0.23172692  0.90281152  1
  Ti  Ti84  1  0.25688271  0.61319069  0.30730673  1
  Ti  Ti85  1  0.27258410  0.60800322  0.49899261  1
  Ti  Ti86  1  0.26537119  0.53261288  0.90929924  1
  Ti  Ti87  1  0.25408553  0.87513581  0.27052712  1
  Ti  Ti88  1  0.20540711  0.89872632  0.68705320  1
  Ti  Ti89  1  0.25010064  0.92864828  0.89041671  1
  Ti  Ti90  1  0.59464103  0.17572861  0.24352095  1
  Ti  Ti91  1  0.61902522  0.28916998  0.60138561  1
  Ti  Ti92  1  0.63058078  0.34186836  0.97149164  1
  Ti  Ti93  1  0.63700148  0.56629612  0.28161593  1
  Ti  Ti94  1  0.55090381  0.54260029  0.61271453  1
  Ti  Ti95  1  0.53555699  0.57811255  0.92924348  1
  Ti  Ti96  1  0.61436776  0.97951424  0.19954512  1
  Ti  Ti97  1  0.56610050  0.81584869  0.57256036  1
  Ti  Ti98  1  0.55673393  0.89303766  0.90088328  1
  Ti  Ti99  1  0.97926520  0.32710282  0.24313288  1
  Ti  Ti100  1  0.95876798  0.18100480  0.59263530  1
  Ti  Ti101  1  0.87500963  0.26011722  0.93345663  1
  Ti  Ti102  1  1.03532817  0.54322273  0.25671751  1
  Ti  Ti103  1  0.87836162  0.58017518  0.58815942  1
  Ti  Ti104  1  0.88961452  0.56313379  0.89034391  1
  Ti  Ti105  1  0.90362335  0.87882010  0.28508617  1
  Ti  Ti106  1  0.85986450  0.92053132  0.48739454  1
  Ti  Ti107  1  0.95222409  1.02337637  0.86889856  1
  Co  Co108  1  0.35920280  0.66131826  -0.07254469  1
  Co  Co109  1  -0.02758555  -0.02580548  0.03149346  1
  Co  Co110  1  0.73632684  0.51169502  0.16543327  1
  Co  Co111  1  0.51375039  0.22468515  -0.08433767  1
  Co  Co112  1  0.55615179  0.25994820  0.41796271  1
  Co  Co113  1  0.72554307  0.90726384  0.88394564  1
  Co  Co114  1  -0.06908669  0.40950230  -0.03007407  1
  Co  Co115  1  0.47429929  0.22722448  0.54840508  1
  Co  Co116  1  0.13908629  0.26696740  0.19192215  1
  Co  Co117  1  0.49990608  0.06107113  0.09982940  1
  Co  Co118  1  0.85045732  -0.03669136  0.14863051  1
  Co  Co119  1  0.61412465  -0.02235998  0.01681616  1
  Co  Co120  1  0.26536621  0.42594550  0.56529271  1
  Co  Co121  1  0.28509445  0.10312249  0.92829422  1
  Co  Co122  1  -0.02657014  0.70161084  0.01128288  1
  Co  Co123  1  0.35870567  0.27374981  -0.01133778  1
  Co  Co124  1  0.76696599  0.04836047  0.44445692  1
  Co  Co125  1  0.16349304  -0.05940740  0.53469353  1
  Co  Co126  1  0.70076069  0.58376897  -0.10058117  1
  Co  Co127  1  0.06335347  0.40528396  0.11397674  1
  Co  Co128  1  -0.09884065  0.65818928  0.75268043  1
  Co  Co129  1  0.66080512  -0.02664656  0.54607697  1
  Co  Co130  1  0.65984729  0.15075437  0.51975180  1
  Co  Co131  1  0.45586216  0.64978711  0.52148532  1
  Co  Co132  1  0.01363286  0.90676040  0.57868545  1
  Co  Co133  1  0.31530850  0.39583911  0.71565410  1
  Co  Co134  1  0.78320980  0.04103236  0.78813026  1
  Co  Co135  1  0.91761003  0.86381796  -0.06755191  1
  Co  Co136  1  0.13467203  -0.01247045  0.25404216  1
  Co  Co137  1  0.20555100  0.18597457  0.06756654  1
  Co  Co138  1  0.21144413  0.24540416  0.34302861  1
  Co  Co139  1  0.72925859  0.06797491  0.12167807  1
  Co  Co140  1  0.89362754  0.28178389  0.10797958  1
  Co  Co141  1  0.86885921  0.47387641  0.71799061  1
  Co  Co142  1  0.07642882  0.08009525  0.13388985  1
  Co  Co143  1  0.07905309  0.90064771  0.91844187  1
  Co  Co144  1  0.83746235  0.72428987  0.91436654  1
  Co  Co145  1  0.38744328  0.51760795  0.60940455  1
  Co  Co146  1  0.09298823  0.82761701  0.29664724  1
  Co  Co147  1  -0.04067782  0.04310647  0.26751796  1
  Co  Co148  1  0.75180088  0.35898903  0.08438771  1
  Co  Co149  1  0.77216256  0.49137440  0.00189936  1
  Co  Co150  1  0.52269925  0.85790976  0.25961995  1
  Co  Co151  1  0.87296347  0.72682945  0.51125511  1
  Co  Co152  1  0.01531331  0.92069612  0.17677051  1
  Co  Co153  1  0.05209955  0.53223261  0.89152322  1
  Co  Co154  1  0.23072265  0.07263464  0.60018872  1
  Co  Co155  1  0.01858448  0.18709724  0.89403180  1
  Co  Co156  1  0.33828473  0.75999311  0.37518106  1
  Co  Co157  1  0.36983264  0.49654440  0.43726392  1
  Co  Co158  1  0.58268371  0.30544075  0.80133128  1
  Co  Co159  1  0.48649181  0.71730699  0.67779751  1
  Co  Co160  1  0.63989750  0.06201508  0.34791797  1
  Co  Co161  1  -0.08757328  -0.00055975  0.68966953  1
  Ni  Ni162  1  0.67706497  0.41214494  0.69466365  1
  Ni  Ni163  1  0.16284919  0.61200621  0.17504580  1
  Ni  Ni164  1  0.13410014  0.75922455  0.74396434  1
  Ni  Ni165  1  0.18402689  0.51659001  0.04837579  1
  Ni  Ni166  1  0.60563208  0.80451778  0.08291956  1
  Ni  Ni167  1  -0.05261569  0.32745236  0.64906127  1
  Ni  Ni168  1  0.58005420  0.61755175  0.76922195  1
  Ni  Ni169  1  0.59436681  0.46462175  0.82423565  1
  Ni  Ni170  1  0.80944150  0.78440193  0.37104178  1
  Ni  Ni171  1  0.36879314  0.06089014  0.38736309  1
  Ni  Ni172  1  0.12845868  0.03167954  0.81732258  1
  Ni  Ni173  1  0.79691630  0.23379514  0.57500631  1
  Ni  Ni174  1  0.79240732  0.89870403  0.63260020  1
  Ni  Ni175  1  0.34088688  -0.01442942  0.02630198  1
  Ni  Ni176  1  0.89138980  0.19879443  0.28653623  1
  Ni  Ni177  1  0.14722112  0.42457170  0.78813657  1
  Ni  Ni178  1  0.80772289  0.30754516  0.72981886  1
  Ni  Ni179  1  0.30525995  0.53149245  0.16492871  1
  Ni  Ni180  1  0.16677201  0.69398130  0.59832864  1
  Ni  Ni181  1  0.50194727  -0.00400403  0.76714223  1
  Ni  Ni182  1  -0.04875158  0.69549655  0.29810664  1
  Ni  Ni183  1  0.14387670  0.20294377  0.60494841  1
  Ni  Ni184  1  0.54424805  0.69777228  0.20708291  1
  Ni  Ni185  1  0.67887552  0.69091053  0.38287411  1
  Ni  Ni186  1  0.65418541  0.33570109  0.32421700  1
  Ni  Ni187  1  0.79248377  0.67340499  0.23518430  1
  Ni  Ni188  1  0.48005602  0.53842380  0.21372729  1
  Ni  Ni189  1  0.90304601  0.29503992  0.46149510  1
  Ni  Ni190  1  0.55164923  0.47893699  0.06209715  1
  Ni  Ni191  1  0.35317619  0.41910820  0.28533541  1
  Ni  Ni192  1  -0.01779130  0.45689284  0.56762240  1
  Ni  Ni193  1  0.12905246  0.52940586  0.55848991  1
  Ni  Ni194  1  0.18706648  0.76878225  -0.08010157  1
  Ni  Ni195  1  0.76137412  0.20591950  0.02900366  1
  Ni  Ni196  1  0.33584538  0.67278863  0.64451176  1
  Ni  Ni197  1  0.09126413  0.37242210  0.34604746  1
  Ni  Ni198  1  0.07053888  0.08705278  0.50187008  1
  Ni  Ni199  1  0.47073460  0.73977879  0.02633042  1
  Ni  Ni200  1  0.14097751  0.52407834  0.38669587  1
  Ni  Ni201  1  0.28785297  0.92049611  0.42965638  1
  Ni  Ni202  1  0.46807005  0.28205566  0.25853226  1
  Ni  Ni203  1  0.47645702  0.21607792  0.70297555  1
  Ni  Ni204  1  0.71979279  0.79901568  0.51211471  1
  Ni  Ni205  1  0.39078750  0.85504736  0.92916564  1
  Ni  Ni206  1  0.62705129  0.05589848  0.86008340  1
  Ni  Ni207  1  0.28386583  0.37510546  0.87452929  1
  Ni  Ni208  1  0.49873701  -0.03568836  0.59671289  1
  Ni  Ni209  1  0.30009172  0.84999131  0.10436744  1
  Ni  Ni210  1  0.64657113  0.67301160  0.61129314  1
  Ni  Ni211  1  0.87570522  0.53945710  0.25919710  1
  Ni  Ni212  1  0.36160733  0.14121657  0.07670869  1
  Ni  Ni213  1  0.32980779  -0.05776746  0.59255554  1
  Ni  Ni214  1  0.16010627  0.62340663  0.82452216  1
