# generated using pymatgen
data_Ti108Co54Ni53
_symmetry_space_group_name_H-M   'P 1'
_cell_length_a   14.64980933
_cell_length_b   14.75550390
_cell_length_c   14.68392574
_cell_angle_alpha   90.25161689
_cell_angle_beta   90.15363327
_cell_angle_gamma   89.91784360
_symmetry_Int_Tables_number   1
_chemical_formula_structural   Ti108Co54Ni53
_chemical_formula_sum   'Ti108 Co54 Ni53'
_cell_volume   3174.11026024
_cell_formula_units_Z   1
loop_
 _symmetry_equiv_pos_site_id
 _symmetry_equiv_pos_as_xyz
  1  'x, y, z'
loop_
 _atom_site_type_symbol
 _atom_site_label
 _atom_site_symmetry_multiplicity
 _atom_site_fract_x
 _atom_site_fract_y
 _atom_site_fract_z
 _atom_site_occupancy
  Ti  Ti0  1  0.12017245  0.13752920  0.28973110  1
  Ti  Ti1  1  0.02564794  0.09704218  0.56923475  1
  Ti  Ti2  1  0.06239029  0.14174766  0.96392426  1
  Ti  Ti3  1  0.01715069  0.44924649  0.25637876  1
  Ti  Ti4  1  0.03363752  0.41516732  0.56526437  1
  Ti  Ti5  1  0.11738317  0.42755801  0.87299262  1
  Ti  Ti6  1  0.04157867  0.74454242  0.19235893  1
  Ti  Ti7  1  0.06860033  0.79926253  0.59107506  1
  Ti  Ti8  1  0.13084267  0.69815142  0.86882761  1
  Ti  Ti9  1  0.39352407  0.10109228  0.19538548  1
  Ti  Ti10  1  0.45786347  0.12818255  0.61561400  1
  Ti  Ti11  1  0.37920654  0.07129081  0.92875779  1
  Ti  Ti12  1  0.48782838  0.42665577  0.29444654  1
  Ti  Ti13  1  0.47891371  0.42597908  0.62641941  1
  Ti  Ti14  1  0.45687025  0.37730478  0.95129197  1
  Ti  Ti15  1  0.38366587  0.75574327  0.21215765  1
  Ti  Ti16  1  0.52124446  0.67497653  0.62489342  1
  Ti  Ti17  1  0.42849420  0.81395236  0.86463842  1
  Ti  Ti18  1  0.73340166  0.10022340  0.16635482  1
  Ti  Ti19  1  0.66409639  0.06719385  0.57449439  1
  Ti  Ti20  1  0.70350843  0.08338008  0.92497624  1
  Ti  Ti21  1  0.74119961  0.41451683  0.25231915  1
  Ti  Ti22  1  0.77435519  0.38723383  0.58061413  1
  Ti  Ti23  1  0.76422519  0.41514748  0.90929332  1
  Ti  Ti24  1  0.69463235  0.70776651  0.27609054  1
  Ti  Ti25  1  0.72479042  0.74152941  0.59985975  1
  Ti  Ti26  1  0.71223662  0.78439637  0.97603791  1
  Ti  Ti27  1  0.06181778  0.28039614  0.13815153  1
  Ti  Ti28  1  0.08378753  0.24623638  0.47858201  1
  Ti  Ti29  1  0.04371704  0.22304070  0.79743002  1
  Ti  Ti30  1  0.15859372  0.58333245  0.16755457  1
  Ti  Ti31  1  0.00984254  0.55130697  0.42698545  1
  Ti  Ti32  1  0.05129666  0.55608251  0.73802914  1
  Ti  Ti33  1  0.12487635  0.85564068  0.07624289  1
  Ti  Ti34  1  0.04943873  0.99974344  0.39304235  1
  Ti  Ti35  1  0.01056030  0.88641821  0.80189908  1
  Ti  Ti36  1  0.45894909  0.28367596  0.15383138  1
  Ti  Ti37  1  0.40043747  0.24907842  0.33746604  1
  Ti  Ti38  1  0.39845531  0.24228352  0.76255659  1
  Ti  Ti39  1  0.35284292  0.57490576  0.11049556  1
  Ti  Ti40  1  0.32919498  0.55706942  0.41035211  1
  Ti  Ti41  1  0.40828653  0.52563520  0.81692914  1
  Ti  Ti42  1  0.43370142  0.93910925  0.11438400  1
  Ti  Ti43  1  0.43875295  0.95290465  0.32676386  1
  Ti  Ti44  1  0.45335733  0.97582070  0.76657324  1
  Ti  Ti45  1  0.76149053  0.28132284  0.08389571  1
  Ti  Ti46  1  0.75512874  0.26516853  0.40429675  1
  Ti  Ti47  1  0.72789130  0.21429135  0.72480214  1
  Ti  Ti48  1  0.76882807  0.58389350  0.14693060  1
  Ti  Ti49  1  0.77766540  0.60881189  0.44755395  1
  Ti  Ti50  1  0.81256899  0.57095556  0.79482338  1
  Ti  Ti51  1  0.79592607  0.94447218  0.06916341  1
  Ti  Ti52  1  0.77677974  0.93930235  0.41977070  1
  Ti  Ti53  1  0.80096807  0.86319181  0.77008436  1
  Ti  Ti54  1  0.23991128  0.02431237  0.06743459  1
  Ti  Ti55  1  0.21791332  0.08929362  0.47546602  1
  Ti  Ti56  1  0.22501991  0.12775528  0.81963277  1
  Ti  Ti57  1  0.21686761  0.42775888  0.05984901  1
  Ti  Ti58  1  0.16490342  0.40825053  0.41470191  1
  Ti  Ti59  1  0.29391068  0.40456432  0.71213285  1
  Ti  Ti60  1  0.24005156  0.71101455  0.05228078  1
  Ti  Ti61  1  0.14985855  0.69902235  0.35662982  1
  Ti  Ti62  1  0.29366833  0.70824517  0.75493172  1
  Ti  Ti63  1  0.55419099  0.08068946  0.07131473  1
  Ti  Ti64  1  0.65234400  0.07755969  0.37992504  1
  Ti  Ti65  1  0.59514412  0.08887356  0.75378083  1
  Ti  Ti66  1  0.60881747  0.50468771  0.02100821  1
  Ti  Ti67  1  0.58284926  0.47437594  0.44734754  1
  Ti  Ti68  1  0.65231439  0.40117267  0.74947180  1
  Ti  Ti69  1  0.56541763  0.79467464  0.13318730  1
  Ti  Ti70  1  0.57393724  0.67131648  0.43293511  1
  Ti  Ti71  1  0.62003103  0.78930440  0.79385126  1
  Ti  Ti72  1  0.94550853  0.07344212  0.12737153  1
  Ti  Ti73  1  0.84970389  0.10984450  0.47724910  1
  Ti  Ti74  1  0.93209087  0.04352028  0.72972872  1
  Ti  Ti75  1  0.90899106  0.41833656  0.03094010  1
  Ti  Ti76  1  0.91406855  0.38528458  0.38868540  1
  Ti  Ti77  1  0.91054514  0.44104193  0.69599027  1
  Ti  Ti78  1  0.88713517  0.74484619  0.05139874  1
  Ti  Ti79  1  0.92869034  0.71578077  0.37175721  1
  Ti  Ti80  1  0.96080052  0.71880791  0.76363361  1
  Ti  Ti81  1  0.25093417  0.24414051  0.20063215  1
  Ti  Ti82  1  0.25487931  0.21695617  0.62104190  1
  Ti  Ti83  1  0.19901265  0.26222921  0.97013097  1
  Ti  Ti84  1  0.31549091  0.44682665  0.23981378  1
  Ti  Ti85  1  0.20824606  0.53858498  0.59272133  1
  Ti  Ti86  1  0.26023735  0.55790001  0.92398420  1
  Ti  Ti87  1  0.24097556  0.94595701  0.25049569  1
  Ti  Ti88  1  0.22060002  0.95879789  0.66674460  1
  Ti  Ti89  1  0.18173211  0.93823380  0.90044999  1
  Ti  Ti90  1  0.59165222  0.20452470  0.26034397  1
  Ti  Ti91  1  0.55671983  0.22101770  0.47719232  1
  Ti  Ti92  1  0.57487523  0.24538140  0.86987537  1
  Ti  Ti93  1  0.55811065  0.57631556  0.19708621  1
  Ti  Ti94  1  0.65394474  0.54125193  0.59656338  1
  Ti  Ti95  1  0.55537885  0.65936692  0.92275078  1
  Ti  Ti96  1  0.66373983  0.90348915  0.25564441  1
  Ti  Ti97  1  0.58855041  0.88900050  0.55669890  1
  Ti  Ti98  1  0.55216173  0.92257220  0.94651608  1
  Ti  Ti99  1  0.90798836  0.23375228  0.26264352  1
  Ti  Ti100  1  0.91187316  0.23624075  0.65112104  1
  Ti  Ti101  1  0.90297638  0.25441187  0.92945281  1
  Ti  Ti102  1  0.95975176  0.57583416  0.11839445  1
  Ti  Ti103  1  0.94045165  0.64479516  0.58343988  1
  Ti  Ti104  1  0.97031748  0.59396670  0.92427995  1
  Ti  Ti105  1  0.94090332  0.89378604  0.24246856  1
  Ti  Ti106  1  0.92593557  0.93661019  0.55684790  1
  Ti  Ti107  1  0.91742733  1.01973458  0.92246501  1
  Co  Co108  1  0.80267639  0.58117430  0.63595071  1
  Co  Co109  1  0.21393270  0.77143130  0.21583712  1
  Co  Co110  1  0.05905737  -0.04963801  0.66466408  1
  Co  Co111  1  0.51406537  0.04170307  0.49162924  1
  Co  Co112  1  0.82242933  0.09420289  0.63339690  1
  Co  Co113  1  0.53361565  0.08192308  0.90182707  1
  Co  Co114  1  0.38021589  0.57063465  0.66038069  1
  Co  Co115  1  0.33940915  0.44975219  0.54016647  1
  Co  Co116  1  0.14782430  0.10211296  0.66161895  1
  Co  Co117  1  -0.04485862  0.89227241  0.07614183  1
  Co  Co118  1  0.89792904  0.28999424  0.50901355  1
  Co  Co119  1  0.74751915  0.79469830  0.14552231  1
  Co  Co120  1  0.06800427  0.29466367  0.31917557  1
  Co  Co121  1  0.80548051  -0.01904245  0.24962453  1
  Co  Co122  1  0.65301472  0.66911502  0.07707878  1
  Co  Co123  1  0.23044648  0.55398944  0.76056663  1
  Co  Co124  1  0.34823954  -0.07439350  -0.04111416  1
  Co  Co125  1  0.48056552  0.10741142  0.35067572  1
  Co  Co126  1  0.20098360  0.36470612  0.56707908  1
  Co  Co127  1  0.01162334  0.61099660  0.27525437  1
  Co  Co128  1  0.39301726  0.28991265  0.58181260  1
  Co  Co129  1  0.84800120  0.54639898  0.30608065  1
  Co  Co130  1  0.29561209  0.62850789  0.26099257  1
  Co  Co131  1  0.46565335  0.56219145  0.51367425  1
  Co  Co132  1  -0.14480213  0.15395906  0.81372632  1
  Co  Co133  1  0.12130786  0.41622644  0.70492345  1
  Co  Co134  1  0.44553413  0.53126035  -0.01817451  1
  Co  Co135  1  0.63649051  -0.06056164  0.08677858  1
  Co  Co136  1  -0.11572769  0.49070000  0.52365521  1
  Co  Co137  1  0.70788741  0.92709427  0.89429008  1
  Co  Co138  1  0.79319012  0.12706511  0.31740650  1
  Co  Co139  1  0.04473297  0.31787354  -0.03154903  1
  Co  Co140  1  0.73650887  0.21864274  0.55584422  1
  Co  Co141  1  0.47066857  0.59219788  0.33453947  1
  Co  Co142  1  0.12996142  0.68116336  0.68668541  1
  Co  Co143  1  0.74750229  0.43989543  0.08063750  1
  Co  Co144  1  0.75540308  0.44577009  0.41884778  1
  Co  Co145  1  0.48388959  0.37957628  0.78645909  1
  Co  Co146  1  0.63190724  0.34680201  -0.01177281  1
  Co  Co147  1  0.88839517  0.38975976  0.18641258  1
  Co  Co148  1  -0.02630278  0.17209506  0.40126468  1
  Co  Co149  1  0.29557549  0.39367710  0.88449343  1
  Co  Co150  1  0.29994752  0.09780708  0.32716968  1
  Co  Co151  1  0.80865793  0.81954142  0.31283858  1
  Co  Co152  1  0.26152983  0.78854733  -0.08764685  1
  Co  Co153  1  0.15487101  0.82474420  0.75674929  1
  Co  Co154  1  -0.07813591  0.23768754  0.09361207  1
  Co  Co155  1  0.47368532  0.35741063  0.45949443  1
  Co  Co156  1  0.28739690  0.86633359  0.10274165  1
  Co  Co157  1  0.60723531  0.37854487  0.16419319  1
  Co  Co158  1  0.58380939  -0.06735056  0.39751682  1
  Co  Co159  1  0.12155489  0.55901743  0.00072484  1
  Co  Co160  1  0.20743348  0.28554601  0.78983384  1
  Co  Co161  1  0.06217114  0.69415550  0.04115761  1
  Ni  Ni162  1  0.46557412  0.67938975  0.77551592  1
  Ni  Ni163  1  0.30458914  0.90074402  0.79671713  1
  Ni  Ni164  1  0.16309623  0.53845180  0.32400771  1
  Ni  Ni165  1  0.47396030  0.20835933  0.00359683  1
  Ni  Ni166  1  0.38098566  0.66786723  -0.07064838  1
  Ni  Ni167  1  0.37300404  0.15570516  0.47197253  1
  Ni  Ni168  1  0.22782225  0.24288746  0.37715722  1
  Ni  Ni169  1  0.80564179  0.57004302  -0.02022338  1
  Ni  Ni170  1  0.49467147  0.82985399  0.69292318  1
  Ni  Ni171  1  -0.05757161  0.06204670  0.28768111  1
  Ni  Ni172  1  -0.05899123  0.43718439  0.86395737  1
  Ni  Ni173  1  0.73868145  0.24887205  0.90105820  1
  Ni  Ni174  1  0.84457838  0.71012865  0.88526430  1
  Ni  Ni175  1  0.05903375  0.43944120  0.09411380  1
  Ni  Ni176  1  0.87056169  0.69688377  0.21628048  1
  Ni  Ni177  1  0.41575960  0.79435799  0.03309357  1
  Ni  Ni178  1  0.75660133  0.02752116  0.76768097  1
  Ni  Ni179  1  -0.00363689  0.84783767  0.43342408  1
  Ni  Ni180  1  0.10399208  0.64699047  0.52229937  1
  Ni  Ni181  1  0.67836683  0.79823238  0.42391499  1
  Ni  Ni182  1  0.67103177  0.64603985  0.73168043  1
  Ni  Ni183  1  0.76278746  -0.07402947  0.60722947  1
  Ni  Ni184  1  0.61793360  0.34864242  0.56825585  1
  Ni  Ni185  1  0.88771502  0.80133917  0.64003596  1
  Ni  Ni186  1  0.10277144  0.85872228  0.30526332  1
  Ni  Ni187  1  0.65996006  0.54024888  0.86023531  1
  Ni  Ni188  1  0.13121694  0.13338557  0.12027133  1
  Ni  Ni189  1  0.06703723  -0.00127454  0.03150169  1
  Ni  Ni190  1  0.61122471  0.22722815  0.09607264  1
  Ni  Ni191  1  0.84240094  0.32111886  0.78431602  1
  Ni  Ni192  1  0.32628814  0.38373931  0.39279438  1
  Ni  Ni193  1  0.48579864  0.65900566  0.07501066  1
  Ni  Ni194  1  0.33949086  0.32943572  0.05494840  1
  Ni  Ni195  1  0.08040395  0.04670063  0.80791828  1
  Ni  Ni196  1  0.31974423  0.16830985  0.06130428  1
  Ni  Ni197  1  0.08545906  -0.00877195  0.20270510  1
  Ni  Ni198  1  0.82794865  0.12697425  0.01781035  1
  Ni  Ni199  1  0.66460235  0.55067156  0.32431005  1
  Ni  Ni200  1  0.63409060  -0.07013365  0.71516993  1
  Ni  Ni201  1  0.09148777  0.26391018  0.64918723  1
  Ni  Ni202  1  0.55578787  0.25532532  0.69002868  1
  Ni  Ni203  1  0.55975497  0.02786716  0.22781841  1
  Ni  Ni204  1  0.53569007  0.79030393  0.30875021  1
  Ni  Ni205  1  0.45628558  0.44605766  0.12286270  1
  Ni  Ni206  1  0.16704119  0.39044583  0.22335435  1
  Ni  Ni207  1  0.83474403  0.79480940  0.48328322  1
  Ni  Ni208  1  0.61806245  0.33978450  0.34765095  1
  Ni  Ni209  1  0.54911181  0.53843559  0.73658480  1
  Ni  Ni210  1  0.34621130  0.23829620  0.91081189  1
  Ni  Ni211  1  0.86164563  0.86632008  -0.07230515  1
  Ni  Ni212  1  0.33205291  0.07688806  0.70997341  1
  Ni  Ni213  1  0.13260733  -0.05227174  0.52169331  1
  Ni  Ni214  1  0.01265349  0.80408592  0.93932543  1
