# generated using pymatgen
data_Ti108Co54Ni53
_symmetry_space_group_name_H-M   'P 1'
_cell_length_a   14.59303300
_cell_length_b   14.59985452
_cell_length_c   14.65868812
_cell_angle_alpha   90.06385588
_cell_angle_beta   90.10537185
_cell_angle_gamma   89.88938543
_symmetry_Int_Tables_number   1
_chemical_formula_structural   Ti108Co54Ni53
_chemical_formula_sum   'Ti108 Co54 Ni53'
_cell_volume   3123.11075464
_cell_formula_units_Z   1
loop_
 _symmetry_equiv_pos_site_id
 _symmetry_equiv_pos_as_xyz
  1  'x, y, z'
loop_
 _atom_site_type_symbol
 _atom_site_label
 _atom_site_symmetry_multiplicity
 _atom_site_fract_x
 _atom_site_fract_y
 _atom_site_fract_z
 _atom_site_occupancy
  Ti  Ti0  1  0.06213174  0.06194853  0.31673486  1
  Ti  Ti1  1  0.02137230  0.03603872  0.58226905  1
  Ti  Ti2  1  0.06829510  0.11156317  0.89486060  1
  Ti  Ti3  1  0.07379805  0.42913608  0.28507562  1
  Ti  Ti4  1  0.10031384  0.41149844  0.61868004  1
  Ti  Ti5  1  0.05772175  0.36895489  0.96294349  1
  Ti  Ti6  1  0.08472316  0.63003811  0.23031786  1
  Ti  Ti7  1  0.05930830  0.75559734  0.63565608  1
  Ti  Ti8  1  0.06750394  0.76448156  0.94555134  1
  Ti  Ti9  1  0.36887458  0.16493393  0.23950650  1
  Ti  Ti10  1  0.41947435  0.01207293  0.63168228  1
  Ti  Ti11  1  0.31658352  0.08954858  0.93233603  1
  Ti  Ti12  1  0.30341352  0.39580622  0.26208937  1
  Ti  Ti13  1  0.43451203  0.49477547  0.54668573  1
  Ti  Ti14  1  0.39450972  0.38183997  0.93485815  1
  Ti  Ti15  1  0.42886074  0.80429137  0.30203629  1
  Ti  Ti16  1  0.35690573  0.70317735  0.59899657  1
  Ti  Ti17  1  0.47888443  0.74640732  0.87370069  1
  Ti  Ti18  1  0.74992028  0.11333061  0.24849354  1
  Ti  Ti19  1  0.71986626  0.14447678  0.61066327  1
  Ti  Ti20  1  0.73900393  0.02254948  0.91837373  1
  Ti  Ti21  1  0.73910100  0.51709231  0.23865439  1
  Ti  Ti22  1  0.68598629  0.44072647  0.54524939  1
  Ti  Ti23  1  0.75135102  0.37040755  0.95259473  1
  Ti  Ti24  1  0.79963529  0.76280152  0.25848347  1
  Ti  Ti25  1  0.82116913  0.72444733  0.48579344  1
  Ti  Ti26  1  0.72727271  0.72601072  0.88012549  1
  Ti  Ti27  1  0.08214567  0.21689409  0.06681277  1
  Ti  Ti28  1  0.01271097  0.25994394  0.36119234  1
  Ti  Ti29  1  0.04599364  0.24138799  0.70160454  1
  Ti  Ti30  1  0.03506093  0.58021303  0.04240508  1
  Ti  Ti31  1  0.19682050  0.56400527  0.36922862  1
  Ti  Ti32  1  0.02258638  0.63607959  0.78611428  1
  Ti  Ti33  1  0.06936777  0.98470575  0.11015005  1
  Ti  Ti34  1  0.07353539  0.88231346  0.37400936  1
  Ti  Ti35  1  0.13203372  0.92384013  0.70835641  1
  Ti  Ti36  1  0.44724565  0.23002740  0.07529423  1
  Ti  Ti37  1  0.44986953  0.15572553  0.44326998  1
  Ti  Ti38  1  0.50068645  0.25680508  0.78085298  1
  Ti  Ti39  1  0.46197201  0.62469669  0.05387791  1
  Ti  Ti40  1  0.38189045  0.60469847  0.39114055  1
  Ti  Ti41  1  0.48065121  0.58926937  0.74115032  1
  Ti  Ti42  1  0.47251453  0.88447924  0.13338619  1
  Ti  Ti43  1  0.42994192  0.96489452  0.42088095  1
  Ti  Ti44  1  0.41070966  0.93241164  0.83030469  1
  Ti  Ti45  1  0.75157326  0.24658170  0.11673202  1
  Ti  Ti46  1  0.81380039  0.27858109  0.37341500  1
  Ti  Ti47  1  0.72994359  0.19561776  0.79368812  1
  Ti  Ti48  1  0.77678285  0.60947419  0.06459836  1
  Ti  Ti49  1  0.71803101  0.59071822  0.39971310  1
  Ti  Ti50  1  0.68514047  0.57639526  0.74186813  1
  Ti  Ti51  1  0.78470966  0.93874201  0.11842115  1
  Ti  Ti52  1  0.73717789  0.91685219  0.44203643  1
  Ti  Ti53  1  0.75238797  0.88645568  0.76068394  1
  Ti  Ti54  1  0.31474698  0.02195573  0.11692861  1
  Ti  Ti55  1  0.26423496  0.06448272  0.36686138  1
  Ti  Ti56  1  0.27290892  0.09093482  0.73527826  1
  Ti  Ti57  1  0.21361928  0.48031693  0.02239652  1
  Ti  Ti58  1  0.17497469  0.36465293  0.43382813  1
  Ti  Ti59  1  0.18750603  0.51425813  0.77614041  1
  Ti  Ti60  1  0.20746863  0.82665127  0.07398406  1
  Ti  Ti61  1  0.27133027  0.79834985  0.44168116  1
  Ti  Ti62  1  0.20034089  0.70620888  0.75237420  1
  Ti  Ti63  1  0.64132350  0.05408387  0.09545044  1
  Ti  Ti64  1  0.63855622  0.11024642  0.42304270  1
  Ti  Ti65  1  0.58488885  -0.02078923  0.73134081  1
  Ti  Ti66  1  0.61213993  0.37329128  0.12797281  1
  Ti  Ti67  1  0.63824249  0.40143133  0.35550921  1
  Ti  Ti68  1  0.62655113  0.40085925  0.78934089  1
  Ti  Ti69  1  0.60888655  0.73333742  0.03812359  1
  Ti  Ti70  1  0.56617222  0.69273964  0.36055983  1
  Ti  Ti71  1  0.59570047  0.75838906  0.71998782  1
  Ti  Ti72  1  0.90355785  0.13761332  0.04207744  1
  Ti  Ti73  1  0.82766757  0.09724965  0.45089675  1
  Ti  Ti74  1  0.91376097  0.10109726  0.72029629  1
  Ti  Ti75  1  0.90393590  0.47529692  0.15825942  1
  Ti  Ti76  1  0.96951529  0.42074030  0.46156705  1
  Ti  Ti77  1  0.91345132  0.46320272  0.82321431  1
  Ti  Ti78  1  0.92194619  0.81604841  0.06619188  1
  Ti  Ti79  1  1.01509427  0.68613798  0.45988140  1
  Ti  Ti80  1  0.89724062  0.77433877  0.76954189  1
  Ti  Ti81  1  0.17849700  0.23183201  0.25337850  1
  Ti  Ti82  1  0.17100027  0.16268987  0.56977893  1
  Ti  Ti83  1  0.23758423  0.26015293  0.96055031  1
  Ti  Ti84  1  0.32243059  0.61099201  0.19725817  1
  Ti  Ti85  1  0.23925251  0.53262626  0.55076150  1
  Ti  Ti86  1  0.31182794  0.63171214  0.93584330  1
  Ti  Ti87  1  0.25210436  0.89769297  0.25681346  1
  Ti  Ti88  1  0.24438799  0.96335813  0.55330152  1
  Ti  Ti89  1  0.24077990  0.84380046  0.87999290  1
  Ti  Ti90  1  0.49250374  0.28530713  0.31774155  1
  Ti  Ti91  1  0.56355632  0.26809594  0.58875951  1
  Ti  Ti92  1  0.62552747  0.20994848  0.97278800  1
  Ti  Ti93  1  0.51952967  0.54355252  0.23493687  1
  Ti  Ti94  1  0.63327923  0.63846087  0.56463492  1
  Ti  Ti95  1  0.61911131  0.51442336  0.95875088  1
  Ti  Ti96  1  0.60221198  0.96260684  0.26975358  1
  Ti  Ti97  1  0.56695854  0.85653624  0.55410874  1
  Ti  Ti98  1  0.51650975  1.03053479  0.95662960  1
  Ti  Ti99  1  0.92499577  0.27001693  0.19496445  1
  Ti  Ti100  1  0.90348120  0.24196509  0.55072996  1
  Ti  Ti101  1  0.93206744  0.26378010  0.86180363  1
  Ti  Ti102  1  0.91378648  0.58316496  0.32760699  1
  Ti  Ti103  1  0.94226191  0.54066090  0.63394228  1
  Ti  Ti104  1  0.89619872  0.65847523  0.93422063  1
  Ti  Ti105  1  0.94456644  0.91158606  0.24156396  1
  Ti  Ti106  1  0.94260062  0.87087447  0.53326106  1
  Ti  Ti107  1  0.95704206  0.94424201  0.85360669  1
  Co  Co108  1  0.11701393  0.85237201  0.51876609  1
  Co  Co109  1  -0.05980747  -0.08694737  0.69462372  1
  Co  Co110  1  -0.09226640  0.70002809  0.62018019  1
  Co  Co111  1  0.79031534  0.21153556  -0.04923804  1
  Co  Co112  1  0.02657506  0.14046823  0.18558321  1
  Co  Co113  1  -0.06507887  -0.01323241  0.40874771  1
  Co  Co114  1  0.75670393  0.44480833  0.08742206  1
  Co  Co115  1  0.29839841  -0.09887394  0.72009317  1
  Co  Co116  1  0.23248359  0.80233180  0.61563211  1
  Co  Co117  1  0.89270681  0.05088187  0.17433038  1
  Co  Co118  1  0.31507961  0.44291367  0.42785379  1
  Co  Co119  1  0.05964187  0.81614845  0.79885315  1
  Co  Co120  1  0.70551313  0.26494277  0.48954936  1
  Co  Co121  1  0.89190532  0.83231764  0.38160555  1
  Co  Co122  1  0.59027873  0.63649658  0.87054649  1
  Co  Co123  1  0.67207642  0.76497621  0.45820129  1
  Co  Co124  1  0.76538892  0.53545105  0.88529155  1
  Co  Co125  1  0.85649753  0.25343808  0.69883513  1
  Co  Co126  1  0.26568734  0.18807002  0.10420785  1
  Co  Co127  1  0.76642600  0.03796924  0.74479352  1
  Co  Co128  1  -0.02452770  0.74284998  0.27903051  1
  Co  Co129  1  0.06481517  0.27810674  0.52791783  1
  Co  Co130  1  0.56331296  0.53203446  0.44287884  1
  Co  Co131  1  0.15755058  0.18666795  0.41370026  1
  Co  Co132  1  0.76340588  0.35449341  0.23613750  1
  Co  Co133  1  0.90239483  0.64913577  0.16504572  1
  Co  Co134  1  0.17846088  0.68175071  0.51227313  1
  Co  Co135  1  0.19090576  0.07684205  0.20243193  1
  Co  Co136  1  0.70724379  0.31548987  0.65725815  1
  Co  Co137  1  0.79818934  0.44532090  0.40666066  1
  Co  Co138  1  0.07707316  0.53460336  0.47866477  1
  Co  Co139  1  0.16973667  0.08242727  0.02001883  1
  Co  Co140  1  0.12393348  0.01735927  0.46178563  1
  Co  Co141  1  0.19663591  0.00262012  0.85365368  1
  Co  Co142  1  0.33494550  0.33740553  0.09306709  1
  Co  Co143  1  0.76784049  0.76906311  0.06732186  1
  Co  Co144  1  0.85182837  0.61435709  0.76611272  1
  Co  Co145  1  0.43225369  0.08964233  0.79346785  1
  Co  Co146  1  0.40968220  -0.01407141  0.26259048  1
  Co  Co147  1  0.90747675  0.13167396  0.31306262  1
  Co  Co148  1  0.56660277  0.86866546  0.39082375  1
  Co  Co149  1  0.35204495  0.49580506  0.10338678  1
  Co  Co150  1  0.79218412  0.46524780  0.70275279  1
  Co  Co151  1  0.62122790  0.56081273  0.11359778  1
  Co  Co152  1  0.51183408  0.71567335  0.18605479  1
  Co  Co153  1  0.55859250  0.34878496  0.93565233  1
  Co  Co154  1  0.08879085  0.92716925  -0.04305481  1
  Co  Co155  1  0.10274868  0.84324340  0.21320730  1
  Co  Co156  1  -0.08846918  0.40371325  0.30286275  1
  Co  Co157  1  0.60092458  0.87072209  0.84767205  1
  Co  Co158  1  0.22611299  0.40153791  -0.11711442  1
  Co  Co159  1  0.78689135  0.35050411  0.80497167  1
  Co  Co160  1  -0.04816201  0.37760831  0.69147740  1
  Co  Co161  1  0.00145234  0.13510407  0.46135553  1
  Ni  Ni162  1  0.53097230  0.11268915  0.29105554  1
  Ni  Ni163  1  0.68843540  -0.02082929  0.59493136  1
  Ni  Ni164  1  0.84208495  0.39522078  0.56646264  1
  Ni  Ni165  1  -0.09334997  0.32063269  0.03494463  1
  Ni  Ni166  1  0.82205251  0.85836214  -0.06871951  1
  Ni  Ni167  1  0.46037008  0.19203340  -0.07884394  1
  Ni  Ni168  1  0.18101877  0.33952404  0.12928765  1
  Ni  Ni169  1  0.84758909  0.00698212  0.59188243  1
  Ni  Ni170  1  0.31084179  0.25486022  0.37548736  1
  Ni  Ni171  1  0.37351025  0.77197921  -0.00147558  1
  Ni  Ni172  1  0.32311027  0.11228872  0.53349517  1
  Ni  Ni173  1  0.33380076  0.22772403  0.82300521  1
  Ni  Ni174  1  0.86919012  0.56457150  0.49288645  1
  Ni  Ni175  1  0.15508170  0.63319712  0.91573821  1
  Ni  Ni176  1  0.04879311  0.73407421  0.11185807  1
  Ni  Ni177  1  0.89787387  0.48552373  -0.01290969  1
  Ni  Ni178  1  0.48394614  0.66257436  0.51191775  1
  Ni  Ni179  1  0.59492665  0.11287517  0.83130725  1
  Ni  Ni180  1  0.13058368  0.73315263  0.35574452  1
  Ni  Ni181  1  0.65566752  0.23934239  0.31094202  1
  Ni  Ni182  1  0.35696600  0.73396026  0.76824473  1
  Ni  Ni183  1  0.64676981  0.83780251  0.16547902  1
  Ni  Ni184  1  0.45962941  0.84632593  0.69846647  1
  Ni  Ni185  1  0.58782198  0.20199954  0.16336679  1
  Ni  Ni186  1  0.35377689  0.51198961  0.83745578  1
  Ni  Ni187  1  0.56266724  0.46926742  0.64601510  1
  Ni  Ni188  1  0.19409539  0.65243610  0.08401865  1
  Ni  Ni189  1  -0.11630823  0.09412800  0.87935055  1
  Ni  Ni190  1  0.48156953  0.06702770  0.13649346  1
  Ni  Ni191  1  0.50756093  0.86934923  -0.02159161  1
  Ni  Ni192  1  0.66893942  0.67272097  0.22313154  1
  Ni  Ni193  1  0.38568557  0.86351843  0.55332112  1
  Ni  Ni194  1  0.32435119  0.57075221  0.69033035  1
  Ni  Ni195  1  -0.07906809  -0.02354927  0.01107328  1
  Ni  Ni196  1  0.04974123  0.42654514  0.11684019  1
  Ni  Ni197  1  0.10325569  0.08813972  0.73119069  1
  Ni  Ni198  1  0.35067910  -0.07103649  -0.01164146  1
  Ni  Ni199  1  0.18921960  0.50164039  0.18661992  1
  Ni  Ni200  1  0.05836928  0.51254383  0.89240774  1
  Ni  Ni201  1  0.27423133  0.72661620  0.29506518  1
  Ni  Ni202  1  0.75280185  0.71718229  0.68160702  1
  Ni  Ni203  1  0.55037426  0.03800965  0.53599271  1
  Ni  Ni204  1  0.45354960  0.44964527  0.34814995  1
  Ni  Ni205  1  0.79205883  -0.04029556  0.29432850  1
  Ni  Ni206  1  0.52330505  0.36558864  0.47101630  1
  Ni  Ni207  1  0.66469581  -0.10206151  0.00476702  1
  Ni  Ni208  1  0.08442952  0.37417499  0.79563411  1
  Ni  Ni209  1  0.10675898  0.59038612  0.63809881  1
  Ni  Ni210  1  0.54160140  0.13050202  0.67401424  1
  Ni  Ni211  1  0.34669558  0.77172205  0.15481111  1
  Ni  Ni212  1  0.78718007  0.84912669  0.60010527  1
  Ni  Ni213  1  0.45672626  0.38440574  0.19286535  1
  Ni  Ni214  1  0.49297269  0.45288811  0.05089527  1
