# generated using pymatgen
data_Ti108Co54Ni53
_symmetry_space_group_name_H-M   'P 1'
_cell_length_a   14.61496538
_cell_length_b   14.68044444
_cell_length_c   14.61047785
_cell_angle_alpha   89.89918513
_cell_angle_beta   89.59210511
_cell_angle_gamma   90.03098308
_symmetry_Int_Tables_number   1
_chemical_formula_structural   Ti108Co54Ni53
_chemical_formula_sum   'Ti108 Co54 Ni53'
_cell_volume   3134.65442985
_cell_formula_units_Z   1
loop_
 _symmetry_equiv_pos_site_id
 _symmetry_equiv_pos_as_xyz
  1  'x, y, z'
loop_
 _atom_site_type_symbol
 _atom_site_label
 _atom_site_symmetry_multiplicity
 _atom_site_fract_x
 _atom_site_fract_y
 _atom_site_fract_z
 _atom_site_occupancy
  Ti  Ti0  1  0.08802220  0.06123418  0.17222737  1
  Ti  Ti1  1  0.01897223  0.08627092  0.57997832  1
  Ti  Ti2  1  0.11711123  0.10815803  0.93444400  1
  Ti  Ti3  1  0.11377740  0.41771127  0.25684987  1
  Ti  Ti4  1  0.08230445  0.39083454  0.53074595  1
  Ti  Ti5  1  0.11818761  0.40602545  0.86957491  1
  Ti  Ti6  1  0.06690845  0.71367074  0.18302350  1
  Ti  Ti7  1  0.07014551  0.76507836  0.68079908  1
  Ti  Ti8  1  0.16377631  0.76676148  0.86147068  1
  Ti  Ti9  1  0.42727078  0.11614354  0.20507388  1
  Ti  Ti10  1  0.42067692  0.07457293  0.48896614  1
  Ti  Ti11  1  0.43690859  0.12499029  0.91474962  1
  Ti  Ti12  1  0.34324244  0.46043388  0.25033839  1
  Ti  Ti13  1  0.37789365  0.41948819  0.55149228  1
  Ti  Ti14  1  0.40684290  0.43229860  0.90861593  1
  Ti  Ti15  1  0.34978065  0.79243610  0.27540943  1
  Ti  Ti16  1  0.34871380  0.75535109  0.58058597  1
  Ti  Ti17  1  0.46581140  0.72713840  0.97376804  1
  Ti  Ti18  1  0.77096337  0.12775545  0.26523905  1
  Ti  Ti19  1  0.70486741  0.09618120  0.64454474  1
  Ti  Ti20  1  0.68747977  0.06940125  0.95629916  1
  Ti  Ti21  1  0.79386985  0.40597101  0.25733666  1
  Ti  Ti22  1  0.71672348  0.42322658  0.61389721  1
  Ti  Ti23  1  0.80362681  0.37771023  0.88533221  1
  Ti  Ti24  1  0.69421351  0.68374382  0.26548052  1
  Ti  Ti25  1  0.79535525  0.73982988  0.58479987  1
  Ti  Ti26  1  0.75446169  0.65944783  0.96775273  1
  Ti  Ti27  1  0.10429158  0.35472059  0.05922557  1
  Ti  Ti28  1  0.14750944  0.19742235  0.47807009  1
  Ti  Ti29  1  0.01847947  0.16813258  0.75819125  1
  Ti  Ti30  1  0.04982940  0.55279101  0.04525434  1
  Ti  Ti31  1  0.07710512  0.67439294  0.40655847  1
  Ti  Ti32  1  0.08497208  0.51043802  0.69237521  1
  Ti  Ti33  1  0.08604937  0.88831015  0.00837113  1
  Ti  Ti34  1  0.13002784  0.91727195  0.55176402  1
  Ti  Ti35  1  0.15550859  0.92648934  0.76462086  1
  Ti  Ti36  1  0.43607013  0.25237457  0.05685431  1
  Ti  Ti37  1  0.48417774  0.22489292  0.35680473  1
  Ti  Ti38  1  0.35655623  0.25015742  0.77833262  1
  Ti  Ti39  1  0.35161320  0.57398376  0.07855476  1
  Ti  Ti40  1  0.45943753  0.60508895  0.45766106  1
  Ti  Ti41  1  0.44367281  0.56115107  0.72282093  1
  Ti  Ti42  1  0.37366057  0.89479410  0.09344772  1
  Ti  Ti43  1  0.38280681  0.89567462  0.44358156  1
  Ti  Ti44  1  0.45530611  0.82164638  0.72855707  1
  Ti  Ti45  1  0.71072153  0.30743940  0.05359719  1
  Ti  Ti46  1  0.69932363  0.27466190  0.38213105  1
  Ti  Ti47  1  0.81377088  0.24685194  0.74297020  1
  Ti  Ti48  1  0.67483642  0.56682829  0.10112902  1
  Ti  Ti49  1  0.80363620  0.57080787  0.36373203  1
  Ti  Ti50  1  0.79189041  0.58981836  0.70622760  1
  Ti  Ti51  1  0.72118760  0.88132111  0.03264057  1
  Ti  Ti52  1  0.72060959  0.90031728  0.48517226  1
  Ti  Ti53  1  0.74559322  0.94019266  0.80708621  1
  Ti  Ti54  1  0.29805284  0.07638739  0.03616549  1
  Ti  Ti55  1  0.25096667  0.05024980  0.41703012  1
  Ti  Ti56  1  0.19297650  0.10504256  0.72749911  1
  Ti  Ti57  1  0.26521161  0.31511717  0.14211401  1
  Ti  Ti58  1  0.23048058  0.38356678  0.40323863  1
  Ti  Ti59  1  0.23150922  0.37569190  0.69898836  1
  Ti  Ti60  1  0.27770197  0.75177353  0.00472973  1
  Ti  Ti61  1  0.28075632  0.69411548  0.42109382  1
  Ti  Ti62  1  0.31361286  0.67794592  0.76934061  1
  Ti  Ti63  1  0.58517945  0.03818676  0.11644469  1
  Ti  Ti64  1  0.59855504  0.14306818  0.48832740  1
  Ti  Ti65  1  0.55266531  0.14354422  0.77423230  1
  Ti  Ti66  1  0.54553312  0.42688594  0.15343904  1
  Ti  Ti67  1  0.55931517  0.41227205  0.46804826  1
  Ti  Ti68  1  0.57423566  0.42837900  0.78725496  1
  Ti  Ti69  1  0.56771731  0.80094342  0.17989853  1
  Ti  Ti70  1  0.58623888  0.76278646  0.42700326  1
  Ti  Ti71  1  0.66118862  0.74515627  0.73507257  1
  Ti  Ti72  1  0.85790050  0.10925436  0.07147264  1
  Ti  Ti73  1  0.82809797  0.16312351  0.46671474  1
  Ti  Ti74  1  0.88207248  0.04132999  0.73762350  1
  Ti  Ti75  1  0.83452240  0.44752365  0.06692251  1
  Ti  Ti76  1  0.94299647  0.39412571  0.40518212  1
  Ti  Ti77  1  0.92103448  0.45067835  0.75209621  1
  Ti  Ti78  1  0.92411170  0.73627608  0.03644361  1
  Ti  Ti79  1  0.87426704  0.73822808  0.42445789  1
  Ti  Ti80  1  0.88692684  0.81708537  0.73092480  1
  Ti  Ti81  1  0.28097618  0.22900612  0.30245598  1
  Ti  Ti82  1  0.32354036  0.19098015  0.60378293  1
  Ti  Ti83  1  0.26818820  0.28152327  0.94974285  1
  Ti  Ti84  1  0.21017593  0.59908192  0.26876917  1
  Ti  Ti85  1  0.18977570  0.63422067  0.59280528  1
  Ti  Ti86  1  0.20965013  0.58093176  0.92632725  1
  Ti  Ti87  1  0.30264360  0.97214594  0.26444543  1
  Ti  Ti88  1  0.33732596  0.95077906  0.64015971  1
  Ti  Ti89  1  0.30538301  0.98499783  0.85175571  1
  Ti  Ti90  1  0.59929308  0.24225923  0.19478561  1
  Ti  Ti91  1  0.52648508  0.30405959  0.64750545  1
  Ti  Ti92  1  0.64211527  0.26194570  0.88822180  1
  Ti  Ti93  1  0.51427846  0.61536582  0.19786191  1
  Ti  Ti94  1  0.64885037  0.60993715  0.54240072  1
  Ti  Ti95  1  0.59652252  0.59384806  0.88976041  1
  Ti  Ti96  1  0.63422323  0.95949212  0.29446182  1
  Ti  Ti97  1  0.56053130  0.96679776  0.63203218  1
  Ti  Ti98  1  0.57730759  0.85341129  0.88228080  1
  Ti  Ti99  1  0.96481370  0.28673371  0.20711529  1
  Ti  Ti100  1  0.95118007  0.29959092  0.62108543  1
  Ti  Ti101  1  0.92301404  0.28704651  1.00881331  1
  Ti  Ti102  1  0.87015705  0.59656431  0.16631012  1
  Ti  Ti103  1  0.95738196  0.62682985  0.59360625  1
  Ti  Ti104  1  0.88593406  0.55662017  0.90303410  1
  Ti  Ti105  1  0.88633425  0.79831161  0.22569870  1
  Ti  Ti106  1  0.92202146  0.89885216  0.56225749  1
  Ti  Ti107  1  0.89454914  0.89016636  0.92855385  1
  Co  Co108  1  0.50809184  0.68111380  0.61269599  1
  Co  Co109  1  0.80589298  0.56916143  0.52820766  1
  Co  Co110  1  0.24760107  0.43762397  -0.01577892  1
  Co  Co111  1  0.11733327  0.51187573  0.40266861  1
  Co  Co112  1  -0.02273354  0.23397053  0.47864040  1
  Co  Co113  1  0.72951679  0.46700012  0.78411038  1
  Co  Co114  1  0.23933687  0.31840746  0.55105443  1
  Co  Co115  1  0.14352800  0.12443709  0.31842592  1
  Co  Co116  1  0.80463663  0.26722353  0.17779984  1
  Co  Co117  1  0.60500018  0.12435894  0.30563548  1
  Co  Co118  1  0.23443503  0.80270763  0.68712955  1
  Co  Co119  1  0.27069121  0.14050358  0.87233704  1
  Co  Co120  1  0.72226352  0.12125594  0.80361931  1
  Co  Co121  1  0.31601481  0.82535306  0.83542901  1
  Co  Co122  1  0.30498682  0.53001543  0.41332063  1
  Co  Co123  1  0.12701875  0.22559343  0.63590979  1
  Co  Co124  1  0.46242210  0.03251471  0.34132925  1
  Co  Co125  1  -0.02968016  0.63962774  0.75117610  1
  Co  Co126  1  -0.02611315  0.42758140  -0.05489017  1
  Co  Co127  1  0.47265240  -0.04837190  0.20027354  1
  Co  Co128  1  0.21064418  0.47853855  0.13522587  1
  Co  Co129  1  0.66387009  0.29442816  0.73113493  1
  Co  Co130  1  0.87431961  0.16023623  0.62067191  1
  Co  Co131  1  0.53961547  0.01187015  -0.06107414  1
  Co  Co132  1  0.48351324  0.84485726  0.55700772  1
  Co  Co133  1  0.00192402  0.76804697  0.52950235  1
  Co  Co134  1  -0.04372444  0.14813650  0.90669041  1
  Co  Co135  1  0.22524838  0.80243871  0.15472294  1
  Co  Co136  1  0.17255484  0.77280306  0.30514042  1
  Co  Co137  1  0.61911075  0.58507476  0.71350902  1
  Co  Co138  1  0.48651660  0.29500739  0.85667261  1
  Co  Co139  1  0.70479392  0.15503135  0.10953670  1
  Co  Co140  1  0.84435635  0.03889624  0.90965115  1
  Co  Co141  1  0.35427711  0.59036723  0.58003379  1
  Co  Co142  1  0.06598806  0.35028481  0.72306792  1
  Co  Co143  1  0.63149464  0.79809417  0.58743176  1
  Co  Co144  1  0.61113677  -0.00311620  0.78650200  1
  Co  Co145  1  0.53046634  0.49433212  0.60442426  1
  Co  Co146  1  0.15483262  0.63660507  0.76080022  1
  Co  Co147  1  0.86764106  0.26380656  0.34036771  1
  Co  Co148  1  0.12768363  0.23972095  0.20454501  1
  Co  Co149  1  0.32523189  0.22228294  0.44703929  1
  Co  Co150  1  0.75229766  0.00750002  0.14171485  1
  Co  Co151  1  0.61591200  0.72729224  0.02834150  1
  Co  Co152  1  0.46255339  0.26244571  0.51135840  1
  Co  Co153  1  0.24504991  0.90802390  -0.02335407  1
  Co  Co154  1  0.41755117  -0.10682215  -0.06368153  1
  Co  Co155  1  0.56873984  0.18362054  0.01783208  1
  Co  Co156  1  0.18282519  0.19275125  0.05961886  1
  Co  Co157  1  0.16788525  0.77207521  0.51748439  1
  Co  Co158  1  0.23166974  0.87480590  0.40896422  1
  Co  Co159  1  0.61116513  0.59275144  0.38643684  1
  Co  Co160  1  0.50740727  0.69268627  0.79966945  1
  Co  Co161  1  0.45845889  -0.03207662  0.79369753  1
  Ni  Ni162  1  0.05600511  0.87705978  0.17032387  1
  Ni  Ni163  1  0.37849156  0.62482010  0.29370511  1
  Ni  Ni164  1  0.74153044  0.80120062  0.88729287  1
  Ni  Ni165  1  0.19218877  0.63696632  0.10097059  1
  Ni  Ni166  1  0.05046380  0.55996976  0.86735437  1
  Ni  Ni167  1  -0.05337486  0.65995017  0.29969567  1
  Ni  Ni168  1  0.55044792  0.36992872  -0.00741332  1
  Ni  Ni169  1  0.56195383  -0.04104074  0.45821461  1
  Ni  Ni170  1  -0.02116570  0.44079363  0.13946041  1
  Ni  Ni171  1  0.42955683  0.31377834  0.22137819  1
  Ni  Ni172  1  -0.01160422  0.02309040  0.01740512  1
  Ni  Ni173  1  0.20645183  -0.04058574  0.12431202  1
  Ni  Ni174  1  0.21659749  0.05140101  0.57867537  1
  Ni  Ni175  1  0.80181644  0.20714211  -0.07719625  1
  Ni  Ni176  1  0.89156302  0.90573469  0.09776533  1
  Ni  Ni177  1  0.01254799  -0.05324671  0.69266343  1
  Ni  Ni178  1  0.39114418  0.72404980  0.13654421  1
  Ni  Ni179  1  0.91767373  0.45915413  0.58022548  1
  Ni  Ni180  1  0.49065685  0.13636278  0.62497692  1
  Ni  Ni181  1  0.27969833  0.50377753  0.79590602  1
  Ni  Ni182  1  0.58438692  0.36882112  0.30844252  1
  Ni  Ni183  1  0.76416665  0.72642999  0.11737176  1
  Ni  Ni184  1  0.65905699  0.50965621  0.25923703  1
  Ni  Ni185  1  0.49908578  0.86362644  0.33073020  1
  Ni  Ni186  1  0.25086130  0.11550602  0.18943322  1
  Ni  Ni187  1  0.01582805  -0.00086689  0.85245636  1
  Ni  Ni188  1  0.21811191  0.48332568  0.55149526  1
  Ni  Ni189  1  0.71612872  0.44573170  0.42693190  1
  Ni  Ni190  1  0.40338793  0.37175716  0.38573841  1
  Ni  Ni191  1  0.01859234  0.83332169  0.83468210  1
  Ni  Ni192  1  0.17200331  0.25377353  0.80651775  1
  Ni  Ni193  1  0.08603022  0.71287998  -0.00159367  1
  Ni  Ni194  1  0.83559454  0.69589242  0.82179216  1
  Ni  Ni195  1  0.95078755  0.29999671  0.83489335  1
  Ni  Ni196  1  0.82362547  0.33414504  0.50383921  1
  Ni  Ni197  1  0.48946624  0.50105580  0.32410814  1
  Ni  Ni198  1  0.82196097  0.02276804  0.55091036  1
  Ni  Ni199  1  0.39146550  0.41248732  0.07785097  1
  Ni  Ni200  1  0.37411629  0.09156194  0.73589072  1
  Ni  Ni201  1  0.07523902  0.28513504  0.35627423  1
  Ni  Ni202  1  0.70141653  0.25118879  0.57129824  1
  Ni  Ni203  1  0.73353322  0.86306920  0.19854275  1
  Ni  Ni204  1  0.51062040  0.53555464  0.02531134  1
  Ni  Ni205  1  0.71193951  0.05034953  0.41591878  1
  Ni  Ni206  1  0.69086452  0.47432255  -0.03985572  1
  Ni  Ni207  1  0.74638937  0.81152468  0.35043820  1
  Ni  Ni208  1  0.02256728  0.17995300  0.07996160  1
  Ni  Ni209  1  0.75547953  0.89989763  0.64834598  1
  Ni  Ni210  1  0.54310393  0.88781368  0.04531418  1
  Ni  Ni211  1  0.39691460  0.59515267  -0.10208669  1
  Ni  Ni212  1  0.40949116  0.39841909  0.72514898  1
  Ni  Ni213  1  0.96083523  0.50243677  0.28463153  1
  Ni  Ni214  1  -0.04463023  0.55818208  0.44233944  1
