# generated using pymatgen
data_Ti108Co54Ni53
_symmetry_space_group_name_H-M   'P 1'
_cell_length_a   14.61714690
_cell_length_b   14.65867820
_cell_length_c   14.63341295
_cell_angle_alpha   90.15889509
_cell_angle_beta   90.10809806
_cell_angle_gamma   90.01653128
_symmetry_Int_Tables_number   1
_chemical_formula_structural   Ti108Co54Ni53
_chemical_formula_sum   'Ti108 Co54 Ni53'
_cell_volume   3135.45512331
_cell_formula_units_Z   1
loop_
 _symmetry_equiv_pos_site_id
 _symmetry_equiv_pos_as_xyz
  1  'x, y, z'
loop_
 _atom_site_type_symbol
 _atom_site_label
 _atom_site_symmetry_multiplicity
 _atom_site_fract_x
 _atom_site_fract_y
 _atom_site_fract_z
 _atom_site_occupancy
  Ti  Ti0  1  0.03920146  0.09594094  0.25703426  1
  Ti  Ti1  1  0.09953324  0.04006320  0.56541655  1
  Ti  Ti2  1  0.06777041  0.15192868  0.92134725  1
  Ti  Ti3  1  0.13513308  0.38381521  0.26116581  1
  Ti  Ti4  1  0.06434270  0.43386723  0.56201533  1
  Ti  Ti5  1  0.04226867  0.46130509  0.91112499  1
  Ti  Ti6  1  0.08909017  0.74173455  0.18828980  1
  Ti  Ti7  1  0.06921921  0.78337555  0.53482008  1
  Ti  Ti8  1  0.05662689  0.72631433  0.97168991  1
  Ti  Ti9  1  0.45490841  0.07357152  0.33786418  1
  Ti  Ti10  1  0.39228236  0.10747521  0.59980736  1
  Ti  Ti11  1  0.42408023  0.12620240  0.91523908  1
  Ti  Ti12  1  0.45934126  0.39851874  0.18576693  1
  Ti  Ti13  1  0.46169478  0.35732566  0.52167582  1
  Ti  Ti14  1  0.31878237  0.38511376  0.97355498  1
  Ti  Ti15  1  0.40352715  0.72312273  0.16971906  1
  Ti  Ti16  1  0.38957504  0.75324810  0.67045469  1
  Ti  Ti17  1  0.38563810  0.81070088  0.86526597  1
  Ti  Ti18  1  0.77646249  0.00763687  0.15805356  1
  Ti  Ti19  1  0.74275869  0.14688809  0.65351787  1
  Ti  Ti20  1  0.65793652  0.02630907  0.89647965  1
  Ti  Ti21  1  0.76623013  0.48965474  0.27313940  1
  Ti  Ti22  1  0.75565177  0.44501169  0.61018911  1
  Ti  Ti23  1  0.75954587  0.49603876  0.94636815  1
  Ti  Ti24  1  0.79573731  0.69600820  0.27138122  1
  Ti  Ti25  1  0.74770672  0.75742922  0.51330836  1
  Ti  Ti26  1  0.73231537  0.77826781  0.81885195  1
  Ti  Ti27  1  0.03193758  0.24984740  0.13280435  1
  Ti  Ti28  1  0.03130144  0.21722857  0.44232618  1
  Ti  Ti29  1  0.15600339  0.28139110  0.71759691  1
  Ti  Ti30  1  0.05867287  0.55563599  0.10357227  1
  Ti  Ti31  1  0.14045011  0.53339195  0.41151628  1
  Ti  Ti32  1  0.07824832  0.55455320  0.71862079  1
  Ti  Ti33  1  0.12611264  0.88369505  0.05196363  1
  Ti  Ti34  1  0.16878635  0.92778189  0.40569857  1
  Ti  Ti35  1  0.06916974  0.86351910  0.81015987  1
  Ti  Ti36  1  0.43817437  0.20301867  0.13313656  1
  Ti  Ti37  1  0.41669112  0.25703266  0.34436643  1
  Ti  Ti38  1  0.44292673  0.25181802  0.77502049  1
  Ti  Ti39  1  0.40020980  0.54692105  0.06516155  1
  Ti  Ti40  1  0.36945000  0.57710868  0.42501562  1
  Ti  Ti41  1  0.36468118  0.54901402  0.71172366  1
  Ti  Ti42  1  0.41615465  0.92863225  0.18844396  1
  Ti  Ti43  1  0.37498810  0.86999110  0.37504362  1
  Ti  Ti44  1  0.37709347  0.99046774  0.77835327  1
  Ti  Ti45  1  0.81351713  0.25113913  0.10737325  1
  Ti  Ti46  1  0.75606107  0.36448469  0.43090690  1
  Ti  Ti47  1  0.75595705  0.35374105  0.78533574  1
  Ti  Ti48  1  0.72733951  0.60744817  0.10432381  1
  Ti  Ti49  1  0.68289898  0.59670798  0.41521368  1
  Ti  Ti50  1  0.70178729  0.55445463  0.76238396  1
  Ti  Ti51  1  0.77037403  0.88097835  -0.01065127  1
  Ti  Ti52  1  0.73803494  0.94506177  0.43542826  1
  Ti  Ti53  1  0.86335305  0.91131261  0.79054915  1
  Ti  Ti54  1  0.24079428  0.09711359  0.01739711  1
  Ti  Ti55  1  0.23844912  0.14124163  0.40938135  1
  Ti  Ti56  1  0.13047825  0.07792652  0.75206970  1
  Ti  Ti57  1  0.24910046  0.47074245  0.14464831  1
  Ti  Ti58  1  0.28128131  0.38408434  0.42544921  1
  Ti  Ti59  1  0.21734248  0.44279170  0.81030554  1
  Ti  Ti60  1  0.27806362  0.73233814  0.00040192  1
  Ti  Ti61  1  0.22832669  0.72860736  0.43959654  1
  Ti  Ti62  1  0.22342894  0.70222970  0.78470320  1
  Ti  Ti63  1  0.56890007  0.06653796  0.17453243  1
  Ti  Ti64  1  0.64833705  0.16863532  0.37334498  1
  Ti  Ti65  1  0.55752099  0.08163827  0.74542862  1
  Ti  Ti66  1  0.58949491  0.44502860  0.03660366  1
  Ti  Ti67  1  0.57950263  0.38295778  0.35543618  1
  Ti  Ti68  1  0.57628784  0.38827512  0.70901218  1
  Ti  Ti69  1  0.57978383  0.74530321  0.08989087  1
  Ti  Ti70  1  0.52420722  0.73058524  0.44304900  1
  Ti  Ti71  1  0.56485495  0.70900868  0.75365092  1
  Ti  Ti72  1  0.91458612  0.10549464  0.03258872  1
  Ti  Ti73  1  0.90899215  0.06685569  0.47179614  1
  Ti  Ti74  1  0.90629134  0.08964675  0.79008677  1
  Ti  Ti75  1  0.91208717  0.40871328  0.06061192  1
  Ti  Ti76  1  0.94664766  0.40962775  0.38216135  1
  Ti  Ti77  1  0.96338230  0.37463394  0.73238141  1
  Ti  Ti78  1  0.91134985  0.83093302  0.15236424  1
  Ti  Ti79  1  0.95046725  0.78515708  0.36174204  1
  Ti  Ti80  1  0.89848791  0.73278936  0.71415610  1
  Ti  Ti81  1  0.24524189  0.26806893  0.14049943  1
  Ti  Ti82  1  0.19169471  0.28982368  0.54130351  1
  Ti  Ti83  1  0.25891298  0.24153347  0.86328101  1
  Ti  Ti84  1  0.23318548  0.64279937  0.26146481  1
  Ti  Ti85  1  0.23371375  0.59536855  0.57979165  1
  Ti  Ti86  1  0.31165151  0.57455752  0.90445538  1
  Ti  Ti87  1  0.20796777  0.97080179  0.20120878  1
  Ti  Ti88  1  0.27945786  0.87774307  0.56954586  1
  Ti  Ti89  1  0.31518732  0.93589716  0.99040376  1
  Ti  Ti90  1  0.62517632  0.26639749  0.10143957  1
  Ti  Ti91  1  0.64050384  0.27338352  0.55271422  1
  Ti  Ti92  1  0.60710974  0.24715666  0.90117851  1
  Ti  Ti93  1  0.52490291  0.58782313  0.29194091  1
  Ti  Ti94  1  0.60284307  0.60323482  0.59180025  1
  Ti  Ti95  1  0.58641123  0.61459511  0.92817260  1
  Ti  Ti96  1  0.63250456  0.87504504  0.21294442  1
  Ti  Ti97  1  0.59608576  0.82967817  0.61958218  1
  Ti  Ti98  1  0.57097840  0.82717437  0.91852973  1
  Ti  Ti99  1  0.84261805  0.23085223  0.33610633  1
  Ti  Ti100  1  0.87844966  0.26826411  0.55890505  1
  Ti  Ti101  1  0.85707950  0.24053495  0.90356518  1
  Ti  Ti102  1  0.96032095  0.58896730  0.28280216  1
  Ti  Ti103  1  0.89254040  0.58922578  0.59085504  1
  Ti  Ti104  1  0.91159073  0.59907495  0.97264435  1
  Ti  Ti105  1  0.91333124  0.96628644  0.31007599  1
  Ti  Ti106  1  0.91114569  0.88356759  0.57480313  1
  Ti  Ti107  1  0.96286585  0.93090045  0.96340791  1
  Co  Co108  1  0.33984396  0.22873755  0.00787219  1
  Co  Co109  1  0.14959310  0.22409966  0.30284392  1
  Co  Co110  1  0.49334978  0.48651458  0.62080697  1
  Co  Co111  1  0.66360039  0.01253855  0.29909976  1
  Co  Co112  1  0.19956542  0.83408995  -0.09689808  1
  Co  Co113  1  0.00554510  0.91989651  0.44121277  1
  Co  Co114  1  0.80762664  0.64151267  0.85460750  1
  Co  Co115  1  0.00752964  0.21755740  0.77766270  1
  Co  Co116  1  0.86713338  0.74993507  0.01415900  1
  Co  Co117  1  0.81906282  0.51371592  0.44040409  1
  Co  Co118  1  -0.06001542  0.67513936  0.13885140  1
  Co  Co119  1  -0.07541321  0.77812820  0.87437372  1
  Co  Co120  1  0.61894238  0.23157682  0.72823567  1
  Co  Co121  1  0.85907573  0.24234466  0.72069512  1
  Co  Co122  1  0.07574837  0.62643709  0.56575903  1
  Co  Co123  1  0.48160115  0.87413260  0.74535637  1
  Co  Co124  1  0.42569326  0.43810659  0.35066311  1
  Co  Co125  1  0.07562385  0.06264413  0.40267080  1
  Co  Co126  1  0.37164931  0.75224838  0.50436160  1
  Co  Co127  1  0.26322127  0.49499289  0.31143729  1
  Co  Co128  1  0.88638496  0.41151153  0.89397391  1
  Co  Co129  1  0.10500381  0.35601822  0.41381797  1
  Co  Co130  1  0.51214224  0.77920900  0.27840150  1
  Co  Co131  1  0.10203567  0.32096497  0.86456936  1
  Co  Co132  1  0.45290377  0.68126102  -0.00953095  1
  Co  Co133  1  0.35104146  0.23072946  0.50534664  1
  Co  Co134  1  0.38146905  0.56328857  0.22864774  1
  Co  Co135  1  0.73377018  0.16057077  0.82170250  1
  Co  Co136  1  -0.02093589  0.63427003  0.82306901  1
  Co  Co137  1  0.82247417  0.03651455  0.91645342  1
  Co  Co138  1  0.16733120  0.25909626  0.00143333  1
  Co  Co139  1  0.70953567  0.71408570  -0.02437162  1
  Co  Co140  1  0.90471441  0.42729709  0.54884460  1
  Co  Co141  1  0.43120110  0.83825822  0.04015494  1
  Co  Co142  1  0.86578129  0.53468769  0.14937468  1
  Co  Co143  1  -0.00825747  0.28886511  -0.02008731  1
  Co  Co144  1  0.21929417  0.15091790  0.60457490  1
  Co  Co145  1  0.54153470  0.59062463  0.12392387  1
  Co  Co146  1  0.75019299  0.78310928  0.12927303  1
  Co  Co147  1  0.72543177  0.15101924  0.00519993  1
  Co  Co148  1  0.80073762  0.07496066  0.34022957  1
  Co  Co149  1  0.64189581  0.68197986  0.23641353  1
  Co  Co150  1  0.37501217  0.71033439  0.33324975  1
  Co  Co151  1  0.74622662  0.41288851  0.11042721  1
  Co  Co152  1  0.76947008  0.16732840  0.48251388  1
  Co  Co153  1  0.30727755  0.00854361  0.32503280  1
  Co  Co154  1  0.63004127  0.89761333  0.77769435  1
  Co  Co155  1  0.21114389  0.74387486  0.62615916  1
  Co  Co156  1  0.49331363  0.23231250  0.62452506  1
  Co  Co157  1  0.46804722  0.33891137  0.02590307  1
  Co  Co158  1  0.41787827  0.04662192  0.06263441  1
  Co  Co159  1  0.73329295  0.33030246  -0.03293214  1
  Co  Co160  1  -0.00695961  0.27582242  0.28585241  1
  Co  Co161  1  0.10377865  0.38915965  0.08183490  1
  Ni  Ni162  1  -0.01961959  0.56412834  0.45035504  1
  Ni  Ni163  1  0.32857187  0.09579727  0.19195727  1
  Ni  Ni164  1  0.13243955  0.60504492  0.88181987  1
  Ni  Ni165  1  0.95766988  -0.01475055  0.14344378  1
  Ni  Ni166  1  0.06777238  0.72547708  0.70458887  1
  Ni  Ni167  1  0.80155941  0.00317270  0.58888486  1
  Ni  Ni168  1  -0.00405698  0.43867465  0.20900974  1
  Ni  Ni169  1  0.73774905  0.00980956  0.74540534  1
  Ni  Ni170  1  0.31087347  0.01249259  0.48685011  1
  Ni  Ni171  1  0.08499893  0.68846154  0.36469053  1
  Ni  Ni172  1  0.51058864  0.18768153  0.46700072  1
  Ni  Ni173  1  -0.06622669  0.11009856  0.62782455  1
  Ni  Ni174  1  0.06189070  0.89871844  0.25296120  1
  Ni  Ni175  1  -0.00751987  -0.02838457  0.69746071  1
  Ni  Ni176  1  0.85534803  0.66930559  0.43222302  1
  Ni  Ni177  1  0.38936349  0.40774906  0.79396072  1
  Ni  Ni178  1  0.52602339  0.53862678  0.77592070  1
  Ni  Ni179  1  0.04606386  0.22147872  0.61296090  1
  Ni  Ni180  1  0.48544174  -0.03337659  0.91510835  1
  Ni  Ni181  1  0.20843282  0.81248384  0.29141085  1
  Ni  Ni182  1  0.85892695  0.36242100  0.22745690  1
  Ni  Ni183  1  0.78895817  0.86398169  0.28196549  1
  Ni  Ni184  1  0.66092987  0.79576021  0.36923150  1
  Ni  Ni185  1  0.71197838  0.15567668  0.21311652  1
  Ni  Ni186  1  0.75935491  0.85728444  0.66104180  1
  Ni  Ni187  1  0.19024275  0.50378289  -0.00745843  1
  Ni  Ni188  1  0.70241855  0.31930156  0.25603152  1
  Ni  Ni189  1  0.73079060  0.69057602  0.66691704  1
  Ni  Ni190  1  0.46110727  0.48414219  -0.08005071  1
  Ni  Ni191  1  0.42600369  0.65952542  0.82793251  1
  Ni  Ni192  1  0.20523056  0.63525156  0.10024959  1
  Ni  Ni193  1  0.56077793  0.11526293  0.01034790  1
  Ni  Ni194  1  0.53310935  -0.07241742  0.34059138  1
  Ni  Ni195  1  0.61817451  0.46450639  0.20403298  1
  Ni  Ni196  1  0.55693912  0.23236681  0.25168525  1
  Ni  Ni197  1  0.16401266  0.13195749  0.16011563  1
  Ni  Ni198  1  0.30914405  0.14278196  0.74714535  1
  Ni  Ni199  1  0.07736397  0.04259012  0.05429802  1
  Ni  Ni200  1  0.63979998  -0.03077662  0.05410354  1
  Ni  Ni201  1  0.86970704  0.51491745  0.75958274  1
  Ni  Ni202  1  0.14241355  -0.00921772  0.90896093  1
  Ni  Ni203  1  0.12590873  0.88953143  0.65505973  1
  Ni  Ni204  1  0.31222163  0.34934539  0.26109017  1
  Ni  Ni205  1  0.32583039  0.30228676  0.66047329  1
  Ni  Ni206  1  0.27092109  0.82545919  0.13667711  1
  Ni  Ni207  1  0.43648267  0.62596923  0.57426874  1
  Ni  Ni208  1  0.62010641  0.43572813  0.86969218  1
  Ni  Ni209  1  0.21175740  0.43508793  0.64619692  1
  Ni  Ni210  1  -0.11376047  0.13086952  0.20390042  1
  Ni  Ni211  1  0.61861969  0.44506200  0.51398141  1
  Ni  Ni212  1  0.34441199  0.46912116  0.55901020  1
  Ni  Ni213  1  0.26452858  0.86323679  0.74695545  1
  Ni  Ni214  1  0.25538886  0.00773838  0.66193449  1
