# generated using pymatgen
data_Ti108Co54Ni53
_symmetry_space_group_name_H-M   'P 1'
_cell_length_a   14.58235589
_cell_length_b   14.61559028
_cell_length_c   14.67954819
_cell_angle_alpha   90.08472733
_cell_angle_beta   90.08591136
_cell_angle_gamma   89.87836719
_symmetry_Int_Tables_number   1
_chemical_formula_structural   Ti108Co54Ni53
_chemical_formula_sum   'Ti108 Co54 Ni53'
_cell_volume   3128.63430027
_cell_formula_units_Z   1
loop_
 _symmetry_equiv_pos_site_id
 _symmetry_equiv_pos_as_xyz
  1  'x, y, z'
loop_
 _atom_site_type_symbol
 _atom_site_label
 _atom_site_symmetry_multiplicity
 _atom_site_fract_x
 _atom_site_fract_y
 _atom_site_fract_z
 _atom_site_occupancy
  Ti  Ti0  1  0.13034812  0.10526267  0.21603843  1
  Ti  Ti1  1  0.04545448  0.06873357  0.58655888  1
  Ti  Ti2  1  0.06379970  0.13417188  0.93601796  1
  Ti  Ti3  1  0.01295723  0.38651991  0.30092436  1
  Ti  Ti4  1  0.02988112  0.50971576  0.56214126  1
  Ti  Ti5  1  0.06826946  0.37023902  0.98459228  1
  Ti  Ti6  1  0.05444248  0.79645344  0.31143303  1
  Ti  Ti7  1  0.07701950  0.69501492  0.66868110  1
  Ti  Ti8  1  0.14410754  0.74146981  0.89339310  1
  Ti  Ti9  1  0.43102088  -0.02055898  0.25873644  1
  Ti  Ti10  1  0.42108207  0.11450621  0.54724477  1
  Ti  Ti11  1  0.46176681  0.09986256  0.93007155  1
  Ti  Ti12  1  0.38462844  0.45300590  0.25442721  1
  Ti  Ti13  1  0.39107776  0.34380513  0.55848492  1
  Ti  Ti14  1  0.32867309  0.42159646  0.91363251  1
  Ti  Ti15  1  0.45611805  0.78613692  0.20169652  1
  Ti  Ti16  1  0.44904256  0.81183794  0.54673953  1
  Ti  Ti17  1  0.40711678  0.76911581  0.97857069  1
  Ti  Ti18  1  0.78732410  0.07876382  0.12921032  1
  Ti  Ti19  1  0.82325872  0.00391935  0.62920443  1
  Ti  Ti20  1  0.80281317  0.09845033  0.91504147  1
  Ti  Ti21  1  0.68011085  0.39909698  0.19454261  1
  Ti  Ti22  1  0.69912556  0.44191589  0.55097765  1
  Ti  Ti23  1  0.66756454  0.45796127  0.87810848  1
  Ti  Ti24  1  0.80884614  0.79161810  0.21451601  1
  Ti  Ti25  1  0.77652177  0.71009839  0.65592734  1
  Ti  Ti26  1  0.70569623  0.78998785  0.89495106  1
  Ti  Ti27  1  0.12624403  0.32119500  0.16548988  1
  Ti  Ti28  1  0.09216497  0.21263075  0.40172096  1
  Ti  Ti29  1  0.06428120  0.32071912  0.67372021  1
  Ti  Ti30  1  0.09300029  0.59375867  0.03006301  1
  Ti  Ti31  1  0.13053211  0.53567449  0.35946408  1
  Ti  Ti32  1  0.07416270  0.57162993  0.83531391  1
  Ti  Ti33  1  0.04020430  0.86620594  0.00463688  1
  Ti  Ti34  1  0.07291169  0.98317520  0.39472007  1
  Ti  Ti35  1  0.09500918  0.91039555  0.82088973  1
  Ti  Ti36  1  0.40237870  0.18154401  0.11676669  1
  Ti  Ti37  1  0.45643864  0.27217529  0.39686870  1
  Ti  Ti38  1  0.40112162  0.32647697  0.76127077  1
  Ti  Ti39  1  0.45182185  0.56634807  0.00016696  1
  Ti  Ti40  1  0.47331712  0.49448146  0.43070731  1
  Ti  Ti41  1  0.40824728  0.52429638  0.69058572  1
  Ti  Ti42  1  0.49107850  0.94250495  0.02424905  1
  Ti  Ti43  1  0.32570749  0.94216412  0.42043315  1
  Ti  Ti44  1  0.40118048  0.88886053  0.73675987  1
  Ti  Ti45  1  0.79984712  0.26995015  0.05885227  1
  Ti  Ti46  1  0.71725499  0.18975042  0.38340586  1
  Ti  Ti47  1  0.74207561  0.24515646  0.76635063  1
  Ti  Ti48  1  0.76416858  0.50712613  0.06388397  1
  Ti  Ti49  1  0.79401487  0.56383563  0.42547951  1
  Ti  Ti50  1  0.75129030  0.55950698  0.75551428  1
  Ti  Ti51  1  0.70052757  0.90398316  0.06196915  1
  Ti  Ti52  1  0.66532066  0.91004548  0.50037792  1
  Ti  Ti53  1  0.70464850  0.88775617  0.71736578  1
  Ti  Ti54  1  0.30813634  0.00818367  0.08354682  1
  Ti  Ti55  1  0.22648773  0.07547255  0.51409268  1
  Ti  Ti56  1  0.22112370  0.10217797  0.82294509  1
  Ti  Ti57  1  0.31626459  0.34676765  0.09892312  1
  Ti  Ti58  1  0.18141826  0.39297701  0.49768119  1
  Ti  Ti59  1  0.24591809  0.38944159  0.67262438  1
  Ti  Ti60  1  0.17930397  0.76498219  0.11214058  1
  Ti  Ti61  1  0.22759032  0.76341701  0.50484890  1
  Ti  Ti62  1  0.26896647  0.76321555  0.68800212  1
  Ti  Ti63  1  0.56007047  0.07152554  0.15982363  1
  Ti  Ti64  1  0.56386200  0.07127670  0.39191464  1
  Ti  Ti65  1  0.53439933  0.15680284  0.75877532  1
  Ti  Ti66  1  0.62139302  0.35706045  0.03495665  1
  Ti  Ti67  1  0.64710826  0.38948586  0.38581614  1
  Ti  Ti68  1  0.58257123  0.38690043  0.70194955  1
  Ti  Ti69  1  0.69007056  0.69184229  0.07452374  1
  Ti  Ti70  1  0.59242717  0.73213079  0.38829666  1
  Ti  Ti71  1  0.47840842  0.70423413  0.71176996  1
  Ti  Ti72  1  0.98744810  0.02963882  0.10506922  1
  Ti  Ti73  1  0.88344097  0.10305731  0.46342184  1
  Ti  Ti74  1  0.94054576  0.12995497  0.75956960  1
  Ti  Ti75  1  0.95780880  0.49348015  0.10269759  1
  Ti  Ti76  1  0.82932796  0.38642864  0.33616102  1
  Ti  Ti77  1  0.92694048  0.46876658  0.72066033  1
  Ti  Ti78  1  0.97978978  0.71659789  0.13039169  1
  Ti  Ti79  1  0.87422379  0.77500052  0.39916715  1
  Ti  Ti80  1  0.90288323  0.83218816  0.72038785  1
  Ti  Ti81  1  0.28665921  0.25289478  0.29064197  1
  Ti  Ti82  1  0.29046183  0.19037809  0.66080085  1
  Ti  Ti83  1  0.22003159  0.26200287  0.94908292  1
  Ti  Ti84  1  0.23559608  0.59118126  0.18109636  1
  Ti  Ti85  1  0.22141406  0.57655127  0.60991726  1
  Ti  Ti86  1  0.26546044  0.60817490  0.95880551  1
  Ti  Ti87  1  0.22610749  0.93132809  0.24756093  1
  Ti  Ti88  1  0.22343684  0.98153634  0.68350467  1
  Ti  Ti89  1  0.32892177  0.95521883  0.89060046  1
  Ti  Ti90  1  0.58361011  0.25112861  0.25116874  1
  Ti  Ti91  1  0.67209208  0.23283864  0.58567344  1
  Ti  Ti92  1  0.53799176  0.30070646  0.87994926  1
  Ti  Ti93  1  0.62123071  0.59025408  0.23182993  1
  Ti  Ti94  1  0.63432134  0.60644985  0.59498856  1
  Ti  Ti95  1  0.56947571  0.65265486  0.88877103  1
  Ti  Ti96  1  0.69213205  0.95768956  0.25502420  1
  Ti  Ti97  1  0.57610011  1.02656183  0.63206952  1
  Ti  Ti98  1  0.65056975  0.98294261  0.87620324  1
  Ti  Ti99  1  0.93938973  0.21570174  0.20470936  1
  Ti  Ti100  1  0.88311880  0.35252118  0.57121841  1
  Ti  Ti101  1  0.90861249  0.27234730  0.89975329  1
  Ti  Ti102  1  0.92978235  0.57091088  0.27362460  1
  Ti  Ti103  1  0.92863275  0.67745833  0.54551290  1
  Ti  Ti104  1  0.89055764  0.56661252  0.91577557  1
  Ti  Ti105  1  0.89081994  0.95777350  0.29373570  1
  Ti  Ti106  1  0.97545437  0.88570187  0.55352554  1
  Ti  Ti107  1  0.88135729  0.87144239  0.91271173  1
  Co  Co108  1  0.72707657  0.61499152  -0.07710450  1
  Co  Co109  1  0.72773747  0.84285815  0.36377155  1
  Co  Co110  1  0.71003403  0.08336544  0.54227724  1
  Co  Co111  1  0.11350764  0.49007546  0.70255846  1
  Co  Co112  1  0.52076518  -0.01011459  0.79269327  1
  Co  Co113  1  0.31316467  0.90401940  0.57846771  1
  Co  Co114  1  0.73104727  0.30381840  -0.08412313  1
  Co  Co115  1  0.62646541  0.57035353  0.41882123  1
  Co  Co116  1  0.75755488  0.39191909  0.69159544  1
  Co  Co117  1  0.56022618  -0.09454931  0.17002300  1
  Co  Co118  1  -0.02881152  0.00672640  -0.09449144  1
  Co  Co119  1  0.36418341  0.18605337  0.83012936  1
  Co  Co120  1  0.08918483  0.49648013  0.19056361  1
  Co  Co121  1  0.49305188  0.45979222  0.85125949  1
  Co  Co122  1  0.82638232  -0.01871840  0.80269543  1
  Co  Co123  1  0.73571439  0.02375623  0.39377851  1
  Co  Co124  1  0.82557085  0.10781852  0.28583093  1
  Co  Co125  1  0.85071869  -0.07549346  0.12257042  1
  Co  Co126  1  0.20761357  0.09295075  0.36052417  1
  Co  Co127  1  0.80837050  0.83427702  0.56558010  1
  Co  Co128  1  0.11235168  0.63411242  0.50316558  1
  Co  Co129  1  0.55058836  0.86271620  0.68615998  1
  Co  Co130  1  0.61222742  0.53741611  0.03062265  1
  Co  Co131  1  0.57237852  0.56027694  0.74619808  1
  Co  Co132  1  0.36116011  0.66212050  0.58838895  1
  Co  Co133  1  0.87276459  0.41080742  -0.01411458  1
  Co  Co134  1  0.33930660  0.49479646  0.53632894  1
  Co  Co135  1  0.22510406  0.27463790  0.78463294  1
  Co  Co136  1  0.06227895  0.78610882  0.47582409  1
  Co  Co137  1  0.64329198  0.71868510  0.75310737  1
  Co  Co138  1  0.35003797  0.68052195  0.10047571  1
  Co  Co139  1  0.18681354  0.86243652  0.38394389  1
  Co  Co140  1  -0.09146740  0.29136611  0.73191168  1
  Co  Co141  1  0.91669643  0.14672212  0.02480541  1
  Co  Co142  1  -0.01028500  0.42341339  0.85797308  1
  Co  Co143  1  0.15233534  -0.06988016  0.52576155  1
  Co  Co144  1  0.37510897  0.09790574  0.39870577  1
  Co  Co145  1  -0.03801456  0.30527855  0.07445220  1
  Co  Co146  1  0.39094273  0.26000874  -0.03552439  1
  Co  Co147  1  0.74228564  0.67445056  0.31099756  1
  Co  Co148  1  0.70273692  0.08256665  0.73882742  1
  Co  Co149  1  0.16806185  0.35903625  0.34189506  1
  Co  Co150  1  0.77362052  0.52022867  0.24875367  1
  Co  Co151  1  0.85623766  -0.06216482  0.45277691  1
  Co  Co152  1  0.82458254  0.41027707  0.83428415  1
  Co  Co153  1  0.29677545  0.11897194  -0.02940546  1
  Co  Co154  1  0.21161371  0.64406555  0.77916804  1
  Co  Co155  1  0.77703736  0.30663415  0.47007688  1
  Co  Co156  1  0.07376978  0.19107780  0.08098900  1
  Co  Co157  1  0.34304963  0.50613296  0.09274821  1
  Co  Co158  1  0.23373681  0.43102997  0.21911704  1
  Co  Co159  1  0.00100012  0.75197056  0.81296441  1
  Co  Co160  1  0.52150078  0.48888061  0.58203882  1
  Co  Co161  1  0.63359356  0.77228111  0.22370847  1
  Ni  Ni162  1  0.14651812  -0.05785044  0.10684542  1
  Ni  Ni163  1  0.15619470  0.40917372  0.84620329  1
  Ni  Ni164  1  0.10923645  0.85465026  0.66129868  1
  Ni  Ni165  1  0.55385632  0.89302046  0.34405942  1
  Ni  Ni166  1  0.83441610  0.63595323  0.14900849  1
  Ni  Ni167  1  0.61667778  0.76967752  0.57860993  1
  Ni  Ni168  1  0.57196775  0.79845959  0.01662674  1
  Ni  Ni169  1  0.27325305  0.50307331  0.78678022  1
  Ni  Ni170  1  -0.02139905  0.70534731  -0.03717180  1
  Ni  Ni171  1  0.28965086  0.23402644  0.46231583  1
  Ni  Ni172  1  0.15376987  0.23061910  0.56119985  1
  Ni  Ni173  1  0.23529062  0.19150174  0.11822298  1
  Ni  Ni174  1  0.73541819  0.70937012  0.47929317  1
  Ni  Ni175  1  0.50038617  0.64823272  0.51300967  1
  Ni  Ni176  1  0.38002370  0.05740492  0.72995302  1
  Ni  Ni177  1  0.19407281  0.45957667  0.04675772  1
  Ni  Ni178  1  0.50245052  0.23651523  0.62493619  1
  Ni  Ni179  1  0.11614890  0.15592148  0.70637254  1
  Ni  Ni180  1  0.64330743  0.16310857  0.89119605  1
  Ni  Ni181  1  0.66754867  0.20046701  0.12156199  1
  Ni  Ni182  1  0.83706770  0.17395309  0.62193146  1
  Ni  Ni183  1  0.84117280  0.77382642  0.04247848  1
  Ni  Ni184  1  0.83766788  0.70877908  0.83382441  1
  Ni  Ni185  1  0.52593198  0.66878984  0.10958025  1
  Ni  Ni186  1  0.32649763  0.84996781  0.11779498  1
  Ni  Ni187  1  -0.01315049  0.22229385  0.54350369  1
  Ni  Ni188  1  0.32361964  0.39136778  0.40183785  1
  Ni  Ni189  1  -0.05513527  0.48056030  0.42866609  1
  Ni  Ni190  1  -0.01375724  -0.02173734  0.71678846  1
  Ni  Ni191  1  0.77164241  0.25484580  0.23600527  1
  Ni  Ni192  1  0.31240928  0.76582885  0.84829515  1
  Ni  Ni193  1  0.54337591  0.44532637  0.27818152  1
  Ni  Ni194  1  0.48309458  -0.03513854  0.48774708  1
  Ni  Ni195  1  0.45648118  0.15186939  0.27450389  1
  Ni  Ni196  1  0.16338263  -0.00189682  0.94899094  1
  Ni  Ni197  1  0.30623486  0.08895184  0.23524019  1
  Ni  Ni198  1  0.47938969  0.33833697  0.16576838  1
  Ni  Ni199  1  -0.08682254  0.24272731  0.37688690  1
  Ni  Ni200  1  -0.00346624  0.65017070  0.39485614  1
  Ni  Ni201  1  0.08973215  0.65263158  0.23830216  1
  Ni  Ni202  1  0.39581451  0.61227618  0.84172013  1
  Ni  Ni203  1  0.23164576  0.85381139  -0.01994346  1
  Ni  Ni204  1  0.83497128  0.53954194  0.59647631  1
  Ni  Ni205  1  0.53904227  0.82934437  0.85164637  1
  Ni  Ni206  1  0.64377924  0.06571689  0.02044290  1
  Ni  Ni207  1  0.85524169  0.38768129  0.17058255  1
  Ni  Ni208  1  -0.01323067  0.10029128  0.31288772  1
  Ni  Ni209  1  0.06302252  0.26373093  0.82875897  1
  Ni  Ni210  1  0.46498278  0.39813955  0.01358160  1
  Ni  Ni211  1  -0.07491889  0.63360938  0.71327181  1
  Ni  Ni212  1  0.55703229  0.34117427  0.51500024  1
  Ni  Ni213  1  0.53814105  0.21066415  0.03049406  1
  Ni  Ni214  1  0.00591988  0.87836090  0.17700119  1
