# generated using pymatgen
data_Ti108Co54Ni53
_symmetry_space_group_name_H-M   'P 1'
_cell_length_a   14.65695244
_cell_length_b   14.65386472
_cell_length_c   14.66549132
_cell_angle_alpha   90.27711264
_cell_angle_beta   89.99929490
_cell_angle_gamma   90.15567586
_symmetry_Int_Tables_number   1
_chemical_formula_structural   Ti108Co54Ni53
_chemical_formula_sum   'Ti108 Co54 Ni53'
_cell_volume   3149.82039817
_cell_formula_units_Z   1
loop_
 _symmetry_equiv_pos_site_id
 _symmetry_equiv_pos_as_xyz
  1  'x, y, z'
loop_
 _atom_site_type_symbol
 _atom_site_label
 _atom_site_symmetry_multiplicity
 _atom_site_fract_x
 _atom_site_fract_y
 _atom_site_fract_z
 _atom_site_occupancy
  Ti  Ti0  1  0.05515552  0.07248410  0.27802296  1
  Ti  Ti1  1  0.10267482  0.09102953  0.62256646  1
  Ti  Ti2  1  0.05080684  0.10133427  0.95212103  1
  Ti  Ti3  1  0.04556150  0.40427408  0.22229855  1
  Ti  Ti4  1  0.08573979  0.40019099  0.53320716  1
  Ti  Ti5  1  0.07207707  0.49592223  0.88124371  1
  Ti  Ti6  1  0.07867672  0.69505995  0.20927796  1
  Ti  Ti7  1  0.10426914  0.77177017  0.53364163  1
  Ti  Ti8  1  0.05588119  0.75176693  0.89024465  1
  Ti  Ti9  1  0.49576348  0.09599385  0.20596820  1
  Ti  Ti10  1  0.41634665  0.09460524  0.55610880  1
  Ti  Ti11  1  0.41907996  0.12116532  1.02607008  1
  Ti  Ti12  1  0.33776499  0.43865231  0.23035558  1
  Ti  Ti13  1  0.41140855  0.42934553  0.55193880  1
  Ti  Ti14  1  0.38556816  0.44102111  0.79975525  1
  Ti  Ti15  1  0.40897653  0.80745519  0.35465565  1
  Ti  Ti16  1  0.38440054  0.67118193  0.55718344  1
  Ti  Ti17  1  0.42760250  0.64509794  0.95905336  1
  Ti  Ti18  1  0.80295995  0.07783582  0.25423241  1
  Ti  Ti19  1  0.74607282  0.18895455  0.57834654  1
  Ti  Ti20  1  0.77908557  0.09502177  0.91420351  1
  Ti  Ti21  1  0.72114210  0.41302703  0.33296652  1
  Ti  Ti22  1  0.75911622  0.40172452  0.65371866  1
  Ti  Ti23  1  0.82704905  0.38269583  0.93982382  1
  Ti  Ti24  1  0.78067566  0.74304516  0.19631260  1
  Ti  Ti25  1  0.77875923  0.72793996  0.57258483  1
  Ti  Ti26  1  0.74831485  0.73911376  1.01285170  1
  Ti  Ti27  1  0.06636806  0.27425981  0.06969915  1
  Ti  Ti28  1  0.12663050  0.22555845  0.41831112  1
  Ti  Ti29  1  0.10132206  0.29796525  0.84957975  1
  Ti  Ti30  1  0.16989936  0.55208038  0.11173520  1
  Ti  Ti31  1  0.15286632  0.58480759  0.42292335  1
  Ti  Ti32  1  0.08314902  0.60831522  0.64737260  1
  Ti  Ti33  1  0.05043383  0.86494435  0.11813953  1
  Ti  Ti34  1  0.14104551  0.94762498  0.42764535  1
  Ti  Ti35  1  0.09502289  0.95806560  0.79722167  1
  Ti  Ti36  1  0.37076170  0.30916622  0.09403568  1
  Ti  Ti37  1  0.43203603  0.17600742  0.36698095  1
  Ti  Ti38  1  0.44157956  0.22366701  0.78808762  1
  Ti  Ti39  1  0.45928595  0.54650160  0.12844031  1
  Ti  Ti40  1  0.41362473  0.54115167  0.37719463  1
  Ti  Ti41  1  0.32459630  0.63002407  0.77324733  1
  Ti  Ti42  1  0.48019077  0.92809129  0.10435188  1
  Ti  Ti43  1  0.33342194  0.96710887  0.42552137  1
  Ti  Ti44  1  0.30236393  0.97761812  0.78645356  1
  Ti  Ti45  1  0.72563338  0.24227644  0.05513880  1
  Ti  Ti46  1  0.77624820  0.23332433  0.38312119  1
  Ti  Ti47  1  0.75954859  0.26392249  0.80067421  1
  Ti  Ti48  1  0.74026209  0.54618786  -0.02377472  1
  Ti  Ti49  1  0.73387374  0.59165209  0.42513608  1
  Ti  Ti50  1  0.79603995  0.55308382  0.76460950  1
  Ti  Ti51  1  0.72733320  0.93645857  0.01666586  1
  Ti  Ti52  1  0.79136469  0.90646773  0.36572207  1
  Ti  Ti53  1  0.77421162  0.95268229  0.77392641  1
  Ti  Ti54  1  0.28767682  0.01120446  0.09002077  1
  Ti  Ti55  1  0.23570538  0.09716578  0.32131429  1
  Ti  Ti56  1  0.21594846  0.15722171  0.77872503  1
  Ti  Ti57  1  0.23596106  0.40022366  -0.03577692  1
  Ti  Ti58  1  0.19334233  0.41061220  0.36193784  1
  Ti  Ti59  1  0.19590217  0.34907423  0.68630474  1
  Ti  Ti60  1  0.32571902  0.80331241  0.03315800  1
  Ti  Ti61  1  0.19878543  0.77084432  0.36111755  1
  Ti  Ti62  1  0.23211560  0.79512336  0.82530972  1
  Ti  Ti63  1  0.60332522  0.07671707  0.02493803  1
  Ti  Ti64  1  0.62644485  0.08745994  0.34350029  1
  Ti  Ti65  1  0.63063121  0.11108230  0.73440373  1
  Ti  Ti66  1  0.67420683  0.44609577  0.13452539  1
  Ti  Ti67  1  0.53412589  0.38656584  0.40015701  1
  Ti  Ti68  1  0.58461196  0.48367180  0.70658676  1
  Ti  Ti69  1  0.62048602  0.64764978  0.11733607  1
  Ti  Ti70  1  0.63860568  0.77391141  0.45639016  1
  Ti  Ti71  1  0.63046779  0.71312649  0.75381377  1
  Ti  Ti72  1  0.90340778  0.02854054  0.05262655  1
  Ti  Ti73  1  0.89710942  0.03748045  0.53139688  1
  Ti  Ti74  1  0.86572126  0.12156733  0.71767734  1
  Ti  Ti75  1  0.87189067  0.41472447  0.12503801  1
  Ti  Ti76  1  0.89060183  0.44347984  0.44140721  1
  Ti  Ti77  1  0.93282711  0.39442111  0.77087938  1
  Ti  Ti78  1  0.94231782  0.70364666  0.07118825  1
  Ti  Ti79  1  0.94089886  0.80136214  0.42996068  1
  Ti  Ti80  1  0.92333140  0.71350897  0.73401983  1
  Ti  Ti81  1  0.26429347  0.26540759  0.26422524  1
  Ti  Ti82  1  0.33738595  0.24569837  0.62221324  1
  Ti  Ti83  1  0.22966884  0.19100011  0.99799688  1
  Ti  Ti84  1  0.27998854  0.62170915  0.25539050  1
  Ti  Ti85  1  0.25170733  0.52583530  0.63263580  1
  Ti  Ti86  1  0.23306254  0.61981250  0.94407560  1
  Ti  Ti87  1  0.20891799  0.92488544  0.23242724  1
  Ti  Ti88  1  0.21366719  0.90627018  0.61845523  1
  Ti  Ti89  1  0.16280603  0.89349728  0.97487713  1
  Ti  Ti90  1  0.60690031  0.28216893  0.24874456  1
  Ti  Ti91  1  0.60196142  0.32034549  0.56284143  1
  Ti  Ti92  1  0.52787696  0.27061337  0.96221081  1
  Ti  Ti93  1  0.58064091  0.55641280  0.29850228  1
  Ti  Ti94  1  0.55904367  0.56596467  0.52364033  1
  Ti  Ti95  1  0.55455809  0.50169335  0.95367460  1
  Ti  Ti96  1  0.59191422  0.82258522  0.24845949  1
  Ti  Ti97  1  0.60916390  0.96665914  0.55524537  1
  Ti  Ti98  1  0.55170479  0.83571972  0.94675384  1
  Ti  Ti99  1  0.92671792  0.23150439  0.24436396  1
  Ti  Ti100  1  0.95923232  0.23844159  0.53264705  1
  Ti  Ti101  1  0.92619468  0.21772737  0.87711849  1
  Ti  Ti102  1  0.91316012  0.58250937  0.28194764  1
  Ti  Ti103  1  0.87372832  0.55724850  0.59738962  1
  Ti  Ti104  1  0.90748947  0.62018547  0.90772910  1
  Ti  Ti105  1  0.92707756  0.93836466  0.23130501  1
  Ti  Ti106  1  0.90334789  0.86626022  0.61753005  1
  Ti  Ti107  1  0.86599180  0.83558666  0.90982385  1
  Co  Co108  1  0.88276320  0.85912061  0.07986164  1
  Co  Co109  1  0.28037648  0.82000261  0.49617412  1
  Co  Co110  1  -0.03099348  0.56022936  0.76447269  1
  Co  Co111  1  0.47277749  -0.02054841  -0.05273936  1
  Co  Co112  1  0.80684784  0.33005625  0.51687688  1
  Co  Co113  1  0.53527581  0.38408129  0.08775772  1
  Co  Co114  1  0.94528851  0.41101576  0.60738373  1
  Co  Co115  1  0.32463400  0.65541807  0.10285810  1
  Co  Co116  1  0.34889243  0.15358726  0.18212030  1
  Co  Co117  1  0.43792032  0.28348358  0.24560067  1
  Co  Co118  1  0.61542266  0.24339423  0.41161335  1
  Co  Co119  1  0.63321361  0.82845762  0.09596795  1
  Co  Co120  1  0.64878167  0.18789698  0.88885653  1
  Co  Co121  1  0.07474990  0.43775145  0.04893377  1
  Co  Co122  1  0.88652567  0.63252700  0.44585982  1
  Co  Co123  1  0.71164072  0.42283851  0.82086538  1
  Co  Co124  1  0.51715164  0.10481117  0.86557515  1
  Co  Co125  1  0.46876508  0.35276343  0.68025435  1
  Co  Co126  1  0.15813952  0.73590492  0.03576291  1
  Co  Co127  1  0.75768552  0.89308889  0.52239870  1
  Co  Co128  1  0.22222386  0.48350657  0.81064516  1
  Co  Co129  1  0.87413582  0.27471321  0.66932813  1
  Co  Co130  1  0.31515028  0.49625772  0.07255481  1
  Co  Co131  1  0.06428562  0.61215128  -0.00273174  1
  Co  Co132  1  0.32633275  0.67507735  0.40392670  1
  Co  Co133  1  0.51516990  0.19598594  0.64359092  1
  Co  Co134  1  0.78193641  0.79643899  0.73118258  1
  Co  Co135  1  0.36448911  0.26467666  -0.06512900  1
  Co  Co136  1  0.23074032  0.07837133  0.49247363  1
  Co  Co137  1  -0.01486688  0.35175103  -0.04988449  1
  Co  Co138  1  0.09942961  0.24660395  0.24892899  1
  Co  Co139  1  0.22830957  0.66223139  0.53173546  1
  Co  Co140  1  0.63786238  -0.00422112  -0.12216991  1
  Co  Co141  1  0.32546192  0.93401962  0.93987025  1
  Co  Co142  1  0.53780146  0.21985418  0.11377428  1
  Co  Co143  1  0.59875739  0.67640803  -0.05133387  1
  Co  Co144  1  0.22828654  0.72356529  0.67358854  1
  Co  Co145  1  0.13814407  0.64266044  0.79633635  1
  Co  Co146  1  0.08173224  0.45409408  0.70922693  1
  Co  Co147  1  0.18619494  0.14871016  0.15243206  1
  Co  Co148  1  0.29040742  0.51455843  0.46928919  1
  Co  Co149  1  -0.03933134  0.70353480  0.57247370  1
  Co  Co150  1  0.05750886  0.08998997  0.46470467  1
  Co  Co151  1  -0.00856135  0.55219398  0.14089185  1
  Co  Co152  1  0.03297143  0.68294874  0.37117470  1
  Co  Co153  1  0.04142134  0.27720269  0.68133397  1
  Co  Co154  1  0.49251803  0.59818820  0.81742687  1
  Co  Co155  1  0.69089680  0.83949620  0.86336597  1
  Co  Co156  1  0.00001323  -0.07787876  -0.03887835  1
  Co  Co157  1  0.77413498  0.28857047  0.20548193  1
  Co  Co158  1  0.93026726  0.50342589  0.00087876  1
  Co  Co159  1  0.82049567  0.59466096  0.10252768  1
  Co  Co160  1  0.45774113  0.26204765  0.50234334  1
  Co  Co161  1  0.16931782  0.22607194  0.57654862  1
  Ni  Ni162  1  0.50977900  0.42661538  0.24052053  1
  Ni  Ni163  1  0.04237625  0.13496344  0.78224258  1
  Ni  Ni164  1  0.69910933  0.58441343  0.61515593  1
  Ni  Ni165  1  0.04453650  0.93696339  0.55794573  1
  Ni  Ni166  1  0.74693409  0.56293806  0.24551821  1
  Ni  Ni167  1  0.63184829  -0.07203935  0.39420148  1
  Ni  Ni168  1  0.64967590  0.57371234  0.83543514  1
  Ni  Ni169  1  -0.02793558  0.00569523  0.69094190  1
  Ni  Ni170  1  -0.05015411  0.87556592  0.78306218  1
  Ni  Ni171  1  0.74770012  0.05522651  0.45186810  1
  Ni  Ni172  1  0.41615214  0.42086513  -0.03185374  1
  Ni  Ni173  1  0.20281515  0.04539939  0.91516520  1
  Ni  Ni174  1  0.76549634  -0.09127586  0.18763454  1
  Ni  Ni175  1  0.76359552  0.69302707  0.85712332  1
  Ni  Ni176  1  0.66205922  0.37193034  -0.03104777  1
  Ni  Ni177  1  0.08132229  0.80336705  0.70450908  1
  Ni  Ni178  1  0.48126738  0.74816242  0.09643998  1
  Ni  Ni179  1  0.25192981  0.36558557  0.52269719  1
  Ni  Ni180  1  0.80027661  0.73722253  0.36321133  1
  Ni  Ni181  1  0.36247136  0.36430550  0.39091224  1
  Ni  Ni182  1  0.74767679  0.02576984  0.62335472  1
  Ni  Ni183  1  0.62348127  0.29703947  0.72487639  1
  Ni  Ni184  1  0.35003279  0.10483309  0.88275748  1
  Ni  Ni185  1  0.10649533  0.54625475  0.27130228  1
  Ni  Ni186  1  0.49768446  0.02018081  0.43287467  1
  Ni  Ni187  1  0.69013109  0.45282888  0.50019174  1
  Ni  Ni188  1  0.67423170  0.14504925  0.17969012  1
  Ni  Ni189  1  -0.03134010  -0.03289649  0.39638395  1
  Ni  Ni190  1  0.88157554  0.38648089  0.28867338  1
  Ni  Ni191  1  0.35751987  0.00416477  0.25765732  1
  Ni  Ni192  1  0.62719220  -0.01397186  0.18179197  1
  Ni  Ni193  1  0.92500853  0.02836014  0.85627714  1
  Ni  Ni194  1  0.11343432  0.01499217  0.08693276  1
  Ni  Ni195  1  0.53898537  0.37802891  0.83643301  1
  Ni  Ni196  1  0.37235411  0.84482896  0.19734345  1
  Ni  Ni197  1  0.27631840  0.07136334  0.64832697  1
  Ni  Ni198  1  0.01288269  0.55337825  0.49679918  1
  Ni  Ni199  1  0.06437728  0.85956607  0.29980929  1
  Ni  Ni200  1  0.43648772  0.54990121  0.66686220  1
  Ni  Ni201  1  0.29591821  0.22315757  0.45005512  1
  Ni  Ni202  1  0.65522111  0.69297891  0.30604973  1
  Ni  Ni203  1  0.89545319  0.23540652  0.05199844  1
  Ni  Ni204  1  -0.06691990  0.76796449  0.25309842  1
  Ni  Ni205  1  0.50064324  0.94847728  0.29104619  1
  Ni  Ni206  1  0.50791615  0.68227739  0.40882831  1
  Ni  Ni207  1  0.46209621  0.68033165  0.24804848  1
  Ni  Ni208  1  0.59911399  0.13120116  0.51842860  1
  Ni  Ni209  1  0.20152225  0.36580694  0.13916108  1
  Ni  Ni210  1  0.01650732  0.34081194  0.37739223  1
  Ni  Ni211  1  0.90765234  0.12324334  0.38514861  1
  Ni  Ni212  1  0.00584932  0.13104310  0.13197774  1
  Ni  Ni213  1  0.27128139  0.31029307  0.82182888  1
  Ni  Ni214  1  0.22430952  0.77050590  0.17879216  1
