# generated using pymatgen
data_Ti108Co54Ni53
_symmetry_space_group_name_H-M   'P 1'
_cell_length_a   14.62014820
_cell_length_b   14.64451727
_cell_length_c   14.67990837
_cell_angle_alpha   90.00084236
_cell_angle_beta   90.18567230
_cell_angle_gamma   90.05085618
_symmetry_Int_Tables_number   1
_chemical_formula_structural   Ti108Co54Ni53
_chemical_formula_sum   'Ti108 Co54 Ni53'
_cell_volume   3143.02422712
_cell_formula_units_Z   1
loop_
 _symmetry_equiv_pos_site_id
 _symmetry_equiv_pos_as_xyz
  1  'x, y, z'
loop_
 _atom_site_type_symbol
 _atom_site_label
 _atom_site_symmetry_multiplicity
 _atom_site_fract_x
 _atom_site_fract_y
 _atom_site_fract_z
 _atom_site_occupancy
  Ti  Ti0  1  0.00235769  0.04727785  0.27945740  1
  Ti  Ti1  1  0.06572182  0.06245746  0.55430612  1
  Ti  Ti2  1  0.10422959  0.11803623  0.87238072  1
  Ti  Ti3  1  0.10706156  0.41470372  0.27558619  1
  Ti  Ti4  1  0.06144038  0.39932982  0.71914496  1
  Ti  Ti5  1  0.09479119  0.45717868  0.91327447  1
  Ti  Ti6  1  0.08239953  0.83653186  0.23826274  1
  Ti  Ti7  1  0.08281741  0.81288962  0.56557850  1
  Ti  Ti8  1  0.05782645  0.76351319  0.89144030  1
  Ti  Ti9  1  0.38860075  0.11244061  0.15915070  1
  Ti  Ti10  1  0.41711652  0.05996979  0.57937467  1
  Ti  Ti11  1  0.43141701  0.10197029  0.93768179  1
  Ti  Ti12  1  0.41402806  0.45415776  0.28317019  1
  Ti  Ti13  1  0.44110560  0.46330157  0.52315190  1
  Ti  Ti14  1  0.42559807  0.43696707  0.97278847  1
  Ti  Ti15  1  0.32565202  0.78571348  0.27105077  1
  Ti  Ti16  1  0.45703492  0.75715835  0.56681995  1
  Ti  Ti17  1  0.38548979  0.76600486  0.86278008  1
  Ti  Ti18  1  0.80060972  0.09608289  0.27180767  1
  Ti  Ti19  1  0.74695431  0.12693856  0.59917955  1
  Ti  Ti20  1  0.76229705  0.03045853  0.94869863  1
  Ti  Ti21  1  0.75359398  0.29088593  0.26658380  1
  Ti  Ti22  1  0.73598476  0.38219489  0.63774334  1
  Ti  Ti23  1  0.78498141  0.39982428  0.92181352  1
  Ti  Ti24  1  0.71877923  0.67931508  0.25641081  1
  Ti  Ti25  1  0.63974028  0.70203471  0.62447761  1
  Ti  Ti26  1  0.74879768  0.80950598  0.92815028  1
  Ti  Ti27  1  0.10646548  0.28921819  0.10817493  1
  Ti  Ti28  1  0.12755661  0.25980620  0.44977238  1
  Ti  Ti29  1  0.16750143  0.24193739  0.73764234  1
  Ti  Ti30  1  0.02500610  0.54585115  0.09717461  1
  Ti  Ti31  1  0.11978164  0.49765910  0.44910313  1
  Ti  Ti32  1  0.10118350  0.63636092  0.67659461  1
  Ti  Ti33  1  0.08988499  0.93541571  0.00326881  1
  Ti  Ti34  1  0.10090401  0.95121609  0.40665393  1
  Ti  Ti35  1  0.06292653  0.94415100  0.80944533  1
  Ti  Ti36  1  0.38723603  0.29480971  0.10709162  1
  Ti  Ti37  1  0.44832127  0.20807251  0.41649508  1
  Ti  Ti38  1  0.36061525  0.24307004  0.77797926  1
  Ti  Ti39  1  0.42833357  0.59010347  0.07599414  1
  Ti  Ti40  1  0.38515420  0.62313793  0.40946765  1
  Ti  Ti41  1  0.42000129  0.55876217  0.79271889  1
  Ti  Ti42  1  0.40760830  0.89120058  0.11706716  1
  Ti  Ti43  1  0.41619242  0.87169715  0.41224450  1
  Ti  Ti44  1  0.34578308  0.93632603  0.76809025  1
  Ti  Ti45  1  0.76077680  0.21017996  0.06222188  1
  Ti  Ti46  1  0.76969646  0.32479230  0.45881544  1
  Ti  Ti47  1  0.81319756  0.25507019  0.74419864  1
  Ti  Ti48  1  0.73287292  0.60449198  0.03347738  1
  Ti  Ti49  1  0.71164229  0.61817527  0.44068510  1
  Ti  Ti50  1  0.73720110  0.62865994  0.83339380  1
  Ti  Ti51  1  0.66240676  0.90682409  0.10104649  1
  Ti  Ti52  1  0.72382168  0.95439087  0.41650810  1
  Ti  Ti53  1  0.77041965  0.81078553  0.71886973  1
  Ti  Ti54  1  0.25071821  0.03824873  0.03518124  1
  Ti  Ti55  1  0.30448767  0.03414472  0.40223994  1
  Ti  Ti56  1  0.23672445  0.07457601  0.70148462  1
  Ti  Ti57  1  0.23431469  0.40230837  0.03216818  1
  Ti  Ti58  1  0.29298300  0.36873155  0.40613380  1
  Ti  Ti59  1  0.27514721  0.42460717  0.71114348  1
  Ti  Ti60  1  0.27957603  0.70347094  0.09233599  1
  Ti  Ti61  1  0.26185403  0.75367305  0.47316960  1
  Ti  Ti62  1  0.25284994  0.77844662  0.67065509  1
  Ti  Ti63  1  0.55733673  0.05635712  0.09757148  1
  Ti  Ti64  1  0.59766519  0.10218255  0.48652520  1
  Ti  Ti65  1  0.59840092  0.07587713  0.74737774  1
  Ti  Ti66  1  0.65759233  0.38728563  0.09704736  1
  Ti  Ti67  1  0.62977809  0.42561342  0.30194616  1
  Ti  Ti68  1  0.55254972  0.40285964  0.71882018  1
  Ti  Ti69  1  0.58482672  0.74095602  0.12184769  1
  Ti  Ti70  1  0.60433121  0.79046546  0.41729813  1
  Ti  Ti71  1  0.57240918  0.73683047  0.80204941  1
  Ti  Ti72  1  0.93065996  0.04208767  0.09936065  1
  Ti  Ti73  1  0.88385724  0.05126229  0.45172043  1
  Ti  Ti74  1  0.89434684  0.07554422  0.80115746  1
  Ti  Ti75  1  0.95156730  0.37027963  0.02047940  1
  Ti  Ti76  1  0.94802536  0.37486795  0.38003872  1
  Ti  Ti77  1  0.86933230  0.48104263  0.74946530  1
  Ti  Ti78  1  0.93864454  0.73332402  0.05569794  1
  Ti  Ti79  1  0.89728953  0.76824077  0.44239037  1
  Ti  Ti80  1  0.91542458  0.67040425  0.72054624  1
  Ti  Ti81  1  0.24348176  0.21324776  0.26543125  1
  Ti  Ti82  1  0.31693076  0.23718622  0.58527806  1
  Ti  Ti83  1  0.24934945  0.23125530  0.94559739  1
  Ti  Ti84  1  0.19917480  0.54837198  0.17965611  1
  Ti  Ti85  1  0.30191655  0.60091254  0.62234393  1
  Ti  Ti86  1  0.20819287  0.63866040  0.84538864  1
  Ti  Ti87  1  0.23282261  1.00060415  0.23751452  1
  Ti  Ti88  1  0.23824210  0.93476170  0.54716592  1
  Ti  Ti89  1  0.24661480  0.83546856  0.97621555  1
  Ti  Ti90  1  0.55001968  0.26595176  0.22491428  1
  Ti  Ti91  1  0.57402006  0.30074310  0.54665225  1
  Ti  Ti92  1  0.54899044  0.24087254  0.84038198  1
  Ti  Ti93  1  0.56103270  0.57494145  0.21576832  1
  Ti  Ti94  1  0.62448828  0.52339128  0.58929222  1
  Ti  Ti95  1  0.59510011  0.46024288  0.89554044  1
  Ti  Ti96  1  0.57849271  0.98141649  0.29127453  1
  Ti  Ti97  1  0.63133470  0.90636657  0.62378446  1
  Ti  Ti98  1  0.54467054  0.88305789  0.95348030  1
  Ti  Ti99  1  0.93594179  0.23907496  0.20625798  1
  Ti  Ti100  1  0.91866726  0.23865459  0.53128867  1
  Ti  Ti101  1  0.88488610  0.22336729  0.90954371  1
  Ti  Ti102  1  0.88524632  0.51541068  0.24991414  1
  Ti  Ti103  1  0.94838123  0.51355239  0.56615159  1
  Ti  Ti104  1  0.90970545  0.55995886  0.92627108  1
  Ti  Ti105  1  0.82166779  0.89730846  0.23369714  1
  Ti  Ti106  1  0.93673066  0.95186043  0.66535292  1
  Ti  Ti107  1  0.92108188  0.90336952  0.93996004  1
  Co  Co108  1  0.54600381  0.64665465  0.49031014  1
  Co  Co109  1  0.65651688  0.15645961  0.17151178  1
  Co  Co110  1  0.07366545  0.78936074  0.72338941  1
  Co  Co111  1  0.34249581  0.63079657  -0.06027629  1
  Co  Co112  1  0.75469402  0.15485623  0.44039881  1
  Co  Co113  1  0.25437316  0.50635277  0.33318629  1
  Co  Co114  1  0.66359350  0.83960100  0.24905536  1
  Co  Co115  1  -0.02683362  0.39980233  0.18522231  1
  Co  Co116  1  0.75159909  0.58366943  0.67892039  1
  Co  Co117  1  0.07200595  0.25973104  0.29423028  1
  Co  Co118  1  0.21423419  -0.03135893  0.87498988  1
  Co  Co119  1  -0.02493838  0.87810762  0.12643482  1
  Co  Co120  1  0.64292005  0.42635716  0.46596164  1
  Co  Co121  1  0.87792091  0.22538424  0.35968430  1
  Co  Co122  1  0.79369692  0.49149903  0.53274076  1
  Co  Co123  1  0.70918683  0.46374270  0.78094324  1
  Co  Co124  1  0.22899444  0.86986132  0.36362403  1
  Co  Co125  1  0.49010439  0.36449012  0.39926434  1
  Co  Co126  1  0.05694363  0.08230484  0.71243043  1
  Co  Co127  1  0.41885271  0.09483964  0.74836236  1
  Co  Co128  1  0.73051074  0.51069215  0.19056345  1
  Co  Co129  1  0.50409471  0.42174472  0.14789321  1
  Co  Co130  1  0.20804979  0.81299517  0.82004684  1
  Co  Co131  1  0.76405587  0.79444511  0.36552682  1
  Co  Co132  1  0.10800146  0.12419054  0.03149496  1
  Co  Co133  1  0.42492484  0.38969169  0.81677779  1
  Co  Co134  1  0.43681642  0.71981508  0.17129274  1
  Co  Co135  1  0.42000694  0.27470529  -0.05916779  1
  Co  Co136  1  0.65219036  0.12356057  0.32629475  1
  Co  Co137  1  0.16818998  0.92647831  0.69221107  1
  Co  Co138  1  0.43319124  0.76281778  0.01279808  1
  Co  Co139  1  0.51980398  0.68597242  0.32429368  1
  Co  Co140  1  0.49645959  0.12368959  0.27385066  1
  Co  Co141  1  0.27633365  0.51005212  0.49712979  1
  Co  Co142  1  0.10723394  0.76148723  0.07525313  1
  Co  Co143  1  0.18923357  0.71357835  0.22823982  1
  Co  Co144  1  0.62404539  0.26854277  0.38980893  1
  Co  Co145  1  0.88010597  0.71457173  0.89811087  1
  Co  Co146  1  -0.03250160  0.06320883  -0.05564422  1
  Co  Co147  1  0.20292275  0.35284640  0.84611607  1
  Co  Co148  1  0.24563822  0.19664767  0.10249115  1
  Co  Co149  1  0.34345202  0.46834271  0.13300445  1
  Co  Co150  1  0.15436290  0.10706768  0.36497480  1
  Co  Co151  1  0.94665083  0.37531658  0.84552921  1
  Co  Co152  1  0.59078695  0.57496664  0.75735417  1
  Co  Co153  1  0.81320764  -0.06928430  0.82430435  1
  Co  Co154  1  0.16125338  0.64392883  0.52567510  1
  Co  Co155  1  0.28812564  0.10400882  0.85546638  1
  Co  Co156  1  0.22136980  0.86577213  0.14348614  1
  Co  Co157  1  0.46679499  0.03972554  0.40733315  1
  Co  Co158  1  0.39309688  0.28192250  0.28054226  1
  Co  Co159  1  0.24576606  0.36673449  0.21327528  1
  Co  Co160  1  0.81782425  0.35060755  0.12813535  1
  Co  Co161  1  0.05948608  0.62435409  -0.04087897  1
  Ni  Ni162  1  0.38892140  0.89930620  0.59378484  1
  Ni  Ni163  1  0.07198014  0.22548674  0.60926979  1
  Ni  Ni164  1  0.54145469  0.21555203  0.04497757  1
  Ni  Ni165  1  0.03468076  0.37244167  0.53879831  1
  Ni  Ni166  1  -0.07088020  0.82606929  0.78394265  1
  Ni  Ni167  1  0.40008918  -0.02651834  0.26810186  1
  Ni  Ni168  1  0.85676373  0.49770832  0.07627675  1
  Ni  Ni169  1  0.65685150  0.29896950  -0.04890860  1
  Ni  Ni170  1  0.49393641  0.85408524  0.71875974  1
  Ni  Ni171  1  0.80335668  -0.05973512  0.56410582  1
  Ni  Ni172  1  0.82126174  0.88813089  0.06548424  1
  Ni  Ni173  1  0.20493421  0.56517965  0.00736853  1
  Ni  Ni174  1  -0.00426546  0.66900880  0.54132647  1
  Ni  Ni175  1  -0.08904710  0.35651420  0.64727927  1
  Ni  Ni176  1  0.82905858  0.65517833  0.56237260  1
  Ni  Ni177  1  0.60031359  0.06850435  -0.06747875  1
  Ni  Ni178  1  0.53504157  0.52866403  0.39004202  1
  Ni  Ni179  1  0.19609624  0.35009918  0.57529382  1
  Ni  Ni180  1  -0.03730426  0.91349680  0.50096693  1
  Ni  Ni181  1  0.37858232  -0.06142982  -0.04762282  1
  Ni  Ni182  1  0.76174430  0.03899635  0.12051435  1
  Ni  Ni183  1  -0.01377419  0.23072674  0.75724884  1
  Ni  Ni184  1  0.47706116  0.59545401  0.63201900  1
  Ni  Ni185  1  0.74173522  0.79395493  0.53054627  1
  Ni  Ni186  1  0.64744552  0.23705687  0.69508092  1
  Ni  Ni187  1  0.84422158  0.64372034  0.15209610  1
  Ni  Ni188  1  0.06518903  0.27977820  -0.08456165  1
  Ni  Ni189  1  0.54783910  -0.06520991  0.49283516  1
  Ni  Ni190  1  0.64526688  0.90528820  0.80542642  1
  Ni  Ni191  1  0.34355518  0.61205309  0.24283733  1
  Ni  Ni192  1  0.74803615  0.00328343  0.70480976  1
  Ni  Ni193  1  0.28572962  0.48623344  0.87620785  1
  Ni  Ni194  1  0.71735847  0.17121425  0.86104872  1
  Ni  Ni195  1  0.00780294  0.15168973  0.40901253  1
  Ni  Ni196  1  0.77993967  0.47161018  0.36810810  1
  Ni  Ni197  1  0.41768789  0.35250083  0.64523703  1
  Ni  Ni198  1  0.15020329  0.49758619  0.61254596  1
  Ni  Ni199  1  0.61701467  0.72097280  -0.03582657  1
  Ni  Ni200  1  0.09817148  -0.01214714  0.14955137  1
  Ni  Ni201  1  0.49233489  0.19483346  0.64506059  1
  Ni  Ni202  1  0.58379904  0.53378538  0.04812012  1
  Ni  Ni203  1  0.40100831  0.71196295  0.71421711  1
  Ni  Ni204  1  0.22319926  0.10513593  0.53528455  1
  Ni  Ni205  1  0.49516361  -0.02495651  0.83170101  1
  Ni  Ni206  1  0.10984303  0.13985236  0.19368499  1
  Ni  Ni207  1  -0.05439292  -0.10270168  0.33702424  1
  Ni  Ni208  1  0.90532783  0.79802394  0.61048253  1
  Ni  Ni209  1  0.90820168  0.11968171  0.64120246  1
  Ni  Ni210  1  0.49946182  0.83719736  0.26097197  1
  Ni  Ni211  1  0.96577543  0.19926379  0.04747716  1
  Ni  Ni212  1  0.28551346  0.20022068  0.42405614  1
  Ni  Ni213  1  0.50832177  0.61187369  0.91863379  1
  Ni  Ni214  1  0.02608001  0.55727058  0.80147422  1
