# generated using pymatgen
data_Ti108Co54Ni53
_symmetry_space_group_name_H-M   'P 1'
_cell_length_a   14.61000888
_cell_length_b   14.72415031
_cell_length_c   14.57613145
_cell_angle_alpha   90.00851116
_cell_angle_beta   89.48806104
_cell_angle_gamma   90.15800969
_symmetry_Int_Tables_number   1
_chemical_formula_structural   Ti108Co54Ni53
_chemical_formula_sum   'Ti108 Co54 Ni53'
_cell_volume   3135.47980261
_cell_formula_units_Z   1
loop_
 _symmetry_equiv_pos_site_id
 _symmetry_equiv_pos_as_xyz
  1  'x, y, z'
loop_
 _atom_site_type_symbol
 _atom_site_label
 _atom_site_symmetry_multiplicity
 _atom_site_fract_x
 _atom_site_fract_y
 _atom_site_fract_z
 _atom_site_occupancy
  Ti  Ti0  1  0.03911489  0.10294475  0.31678677  1
  Ti  Ti1  1  0.01650278  0.06165903  0.57047215  1
  Ti  Ti2  1  0.08120369  0.12267378  0.87702555  1
  Ti  Ti3  1  0.10655769  0.36696788  0.24877889  1
  Ti  Ti4  1  0.02238656  0.42675809  0.58305306  1
  Ti  Ti5  1  0.09841544  0.46247818  0.91924055  1
  Ti  Ti6  1  0.11667801  0.70201288  0.25076634  1
  Ti  Ti7  1  0.05645033  0.74440973  0.53760372  1
  Ti  Ti8  1  0.10272719  0.70846349  0.87472679  1
  Ti  Ti9  1  0.45964064  0.01100269  0.21456093  1
  Ti  Ti10  1  0.38276695  0.00352028  0.55364718  1
  Ti  Ti11  1  0.50665824  0.08246162  0.85507925  1
  Ti  Ti12  1  0.34234436  0.38036435  0.18114596  1
  Ti  Ti13  1  0.36591342  0.44298718  0.61917649  1
  Ti  Ti14  1  0.42839207  0.40483061  0.86689259  1
  Ti  Ti15  1  0.47275043  0.74062257  0.21460255  1
  Ti  Ti16  1  0.45879516  0.77393464  0.53546367  1
  Ti  Ti17  1  0.38356566  0.74403900  0.91311236  1
  Ti  Ti18  1  0.74647996  0.06091232  0.24127666  1
  Ti  Ti19  1  0.79634810  0.11811296  0.55542046  1
  Ti  Ti20  1  0.75444579  0.09754214  0.90545566  1
  Ti  Ti21  1  0.74565676  0.41764224  0.31284618  1
  Ti  Ti22  1  0.70664981  0.42779285  0.60434735  1
  Ti  Ti23  1  0.76823099  0.44017616  0.97705363  1
  Ti  Ti24  1  0.78373591  0.75119604  0.29121146  1
  Ti  Ti25  1  0.78646140  0.79800043  0.54498461  1
  Ti  Ti26  1  0.81094460  0.76246269  0.94770885  1
  Ti  Ti27  1  0.10025525  0.27121823  0.03973284  1
  Ti  Ti28  1  0.12097681  0.25762474  0.46736821  1
  Ti  Ti29  1  0.07150205  0.22809831  0.70718532  1
  Ti  Ti30  1  0.03226114  0.60000190  0.05633414  1
  Ti  Ti31  1  0.15775975  0.52397044  0.46994320  1
  Ti  Ti32  1  0.07784256  0.55584616  0.74838390  1
  Ti  Ti33  1  0.08525981  0.86641070  0.02438017  1
  Ti  Ti34  1  0.13004171  0.91612483  0.48144544  1
  Ti  Ti35  1  0.12091111  0.90397185  0.82433941  1
  Ti  Ti36  1  0.47483334  0.31000842  0.04109662  1
  Ti  Ti37  1  0.41771914  0.30226339  0.51828650  1
  Ti  Ti38  1  0.38611222  0.24817190  0.72739667  1
  Ti  Ti39  1  0.42936411  0.56627462  0.17922841  1
  Ti  Ti40  1  0.44263419  0.61602744  0.39051567  1
  Ti  Ti41  1  0.40360590  0.67094896  0.73234243  1
  Ti  Ti42  1  0.49943672  0.87208025  0.08121000  1
  Ti  Ti43  1  0.47721096  0.91693601  0.40134800  1
  Ti  Ti44  1  0.37886036  0.93544591  0.78546825  1
  Ti  Ti45  1  0.72963906  0.24564227  0.20500414  1
  Ti  Ti46  1  0.81970217  0.22774938  0.37538961  1
  Ti  Ti47  1  0.73394504  0.26129927  0.70864332  1
  Ti  Ti48  1  0.69743223  0.62251215  0.01280436  1
  Ti  Ti49  1  0.79149896  0.58733766  0.37172284  1
  Ti  Ti50  1  0.75138756  0.55662215  0.73859091  1
  Ti  Ti51  1  0.76051035  0.94272834  0.05323314  1
  Ti  Ti52  1  0.69264405  0.98087509  0.45057036  1
  Ti  Ti53  1  0.66271862  0.95631607  0.80201439  1
  Ti  Ti54  1  0.31825435  0.08007392  0.06767413  1
  Ti  Ti55  1  0.20981196  0.07228917  0.41546187  1
  Ti  Ti56  1  0.29354475  0.09314637  0.85925953  1
  Ti  Ti57  1  0.27579646  0.38072764  -0.00654405  1
  Ti  Ti58  1  0.26432455  0.37165261  0.36774298  1
  Ti  Ti59  1  0.25678622  0.46971489  0.79003524  1
  Ti  Ti60  1  0.27338309  0.72107066  0.11120800  1
  Ti  Ti61  1  0.27289417  0.70877767  0.46486502  1
  Ti  Ti62  1  0.17379758  0.74830979  0.68174534  1
  Ti  Ti63  1  0.60092111  0.12300152  0.07645986  1
  Ti  Ti64  1  0.48472509  0.10395588  0.40544211  1
  Ti  Ti65  1  0.58692273  0.11389178  0.65456205  1
  Ti  Ti66  1  0.57258389  0.47037725  0.02050781  1
  Ti  Ti67  1  0.52609660  0.41780571  0.41428258  1
  Ti  Ti68  1  0.58155936  0.40889241  0.75556853  1
  Ti  Ti69  1  0.66380495  0.77549872  0.11675005  1
  Ti  Ti70  1  0.63463253  0.67453675  0.44387798  1
  Ti  Ti71  1  0.58347366  0.75887014  0.80006116  1
  Ti  Ti72  1  0.92194065  0.17367592  0.07287050  1
  Ti  Ti73  1  0.88508871  0.01772685  0.39503439  1
  Ti  Ti74  1  0.92500584  0.04445671  0.75141416  1
  Ti  Ti75  1  0.95491599  0.40647288  0.03639912  1
  Ti  Ti76  1  0.95361539  0.44274248  0.36578853  1
  Ti  Ti77  1  0.91478866  0.35154575  0.73451754  1
  Ti  Ti78  1  0.85427785  0.73437470  0.11967342  1
  Ti  Ti79  1  0.91723307  0.73485063  0.41759664  1
  Ti  Ti80  1  0.82374995  0.74706355  0.76698290  1
  Ti  Ti81  1  0.33223807  0.17800912  0.25753759  1
  Ti  Ti82  1  0.26980801  0.18744237  0.58109090  1
  Ti  Ti83  1  0.19926957  0.28392619  0.84699808  1
  Ti  Ti84  1  0.26616037  0.56169137  0.29408153  1
  Ti  Ti85  1  0.26111022  0.60135015  0.62858289  1
  Ti  Ti86  1  0.23297999  0.58888056  0.97934998  1
  Ti  Ti87  1  0.25354059  0.89196873  0.30783307  1
  Ti  Ti88  1  0.24562698  0.93905921  0.66878333  1
  Ti  Ti89  1  0.31021385  0.90894401  0.97987736  1
  Ti  Ti90  1  0.53012708  0.29861760  0.24072347  1
  Ti  Ti91  1  0.64236834  0.26353450  0.52072269  1
  Ti  Ti92  1  0.64495601  0.29341157  0.92236386  1
  Ti  Ti93  1  0.60041817  0.53445580  0.28409975  1
  Ti  Ti94  1  0.56977221  0.57873023  0.59695488  1
  Ti  Ti95  1  0.51423545  0.59772380  0.90164307  1
  Ti  Ti96  1  0.62234382  0.85989243  0.28927903  1
  Ti  Ti97  1  0.60805187  0.85403158  0.62855178  1
  Ti  Ti98  1  0.50660277  0.88856412  0.89795139  1
  Ti  Ti99  1  0.91763841  0.32255948  0.21007799  1
  Ti  Ti100  1  0.85657142  0.31126206  0.53893220  1
  Ti  Ti101  1  0.84014909  0.28114678  0.90994000  1
  Ti  Ti102  1  0.93910221  0.60884624  0.24361279  1
  Ti  Ti103  1  0.90781248  0.64291645  0.62857272  1
  Ti  Ti104  1  0.94120045  0.62440322  0.87077704  1
  Ti  Ti105  1  0.94036960  0.88755633  0.25230740  1
  Ti  Ti106  1  0.94625775  0.87056615  0.66301724  1
  Ti  Ti107  1  0.84788639  0.92664147  0.87338866  1
  Co  Co108  1  0.80726039  0.87400616  0.39396042  1
  Co  Co109  1  0.45523692  0.16426442  -0.01946056  1
  Co  Co110  1  0.45592910  0.16196494  0.14585013  1
  Co  Co111  1  0.65334511  0.50373597  0.45629995  1
  Co  Co112  1  0.91860864  0.88540765  0.04465191  1
  Co  Co113  1  0.75973591  0.39458597  0.80191773  1
  Co  Co114  1  0.08653036  0.03351977  0.72643329  1
  Co  Co115  1  0.18359234  0.05231011  0.58132638  1
  Co  Co116  1  0.41238501  0.46678160  0.31290530  1
  Co  Co117  1  0.80601549  0.56779358  0.89249226  1
  Co  Co118  1  0.85225931  0.47288645  0.20229204  1
  Co  Co119  1  0.00170464  0.26247134  0.57202976  1
  Co  Co120  1  0.28618911  0.52777124  0.11567997  1
  Co  Co121  1  0.32237062  0.79138096  0.62016501  1
  Co  Co122  1  0.46033287  0.82110803  0.71188119  1
  Co  Co123  1  0.55084179  0.27357334  0.66537312  1
  Co  Co124  1  0.66206867  0.29480085  0.35137717  1
  Co  Co125  1  0.52241839  -0.02736053  0.71143125  1
  Co  Co126  1  0.21520499  0.17700998  -0.01829792  1
  Co  Co127  1  0.32192543  0.51406479  0.46234051  1
  Co  Co128  1  0.62256121  -0.03494369  0.15316643  1
  Co  Co129  1  0.58514159  0.59652351  0.75270678  1
  Co  Co130  1  0.00754162  0.47639220  0.17562975  1
  Co  Co131  1  0.52829033  0.24307347  0.40851550  1
  Co  Co132  1  0.75704175  0.61022589  0.19972851  1
  Co  Co133  1  0.07844425  0.60039698  0.59571000  1
  Co  Co134  1  0.36090810  0.55670121  0.88505649  1
  Co  Co135  1  0.35037939  0.02075781  0.35891360  1
  Co  Co136  1  0.08474927  0.39395968  0.76394858  1
  Co  Co137  1  0.45667721  0.15840210  0.56773104  1
  Co  Co138  1  0.14627534  0.57745671  0.16071319  1
  Co  Co139  1  0.45574664  0.01144198  0.01495558  1
  Co  Co140  1  0.32953982  0.18457046  0.42727588  1
  Co  Co141  1  0.66069228  0.82514393  0.94737991  1
  Co  Co142  1  0.53963992  0.72883136  0.00221979  1
  Co  Co143  1  -0.03153373  0.82468574  0.85788700  1
  Co  Co144  1  0.21020403  0.14341615  0.73074996  1
  Co  Co145  1  0.58498346  0.61336582  0.13078511  1
  Co  Co146  1  0.69623467  0.67053958  -0.14782748  1
  Co  Co147  1  0.40216768  0.64196330  0.03938605  1
  Co  Co148  1  0.59853776  0.01375564  0.31566207  1
  Co  Co149  1  0.59339911  0.15232761  0.24851776  1
  Co  Co150  1  0.54777635  -0.00903950  0.54004365  1
  Co  Co151  1  0.34945178  0.25080628  0.90274247  1
  Co  Co152  1  0.09475085  0.89499606  0.63806301  1
  Co  Co153  1  -0.03294209  0.88627202  0.44939788  1
  Co  Co154  1  0.44231263  0.51427218  0.73447499  1
  Co  Co155  1  0.04728260  0.21610040  0.19191164  1
  Co  Co156  1  0.85338462  -0.04006482  0.55281909  1
  Co  Co157  1  0.33224341  0.24046127  0.07240531  1
  Co  Co158  1  0.40825300  0.47477662  0.02382022  1
  Co  Co159  1  0.52890201  0.43781960  0.17192227  1
  Co  Co160  1  0.40028811  0.30214554  0.33871940  1
  Co  Co161  1  0.64928273  0.49817868  0.87412252  1
  Ni  Ni162  1  -0.06394369  0.19005153  0.82277283  1
  Ni  Ni163  1  0.10397414  0.51858002  0.30857547  1
  Ni  Ni164  1  0.00476293  -0.02034970  -0.07992066  1
  Ni  Ni165  1  0.76535591  0.09006603  0.73175435  1
  Ni  Ni166  1  0.01192747  0.72926702  0.72862273  1
  Ni  Ni167  1  0.17040888  0.21237227  0.31469605  1
  Ni  Ni168  1  0.78426659  0.89435673  0.70343846  1
  Ni  Ni169  1  0.62178556  -0.01107373  -0.02892440  1
  Ni  Ni170  1  -0.02297051  0.73954306  -0.00603212  1
  Ni  Ni171  1  0.02080844  0.30896117  -0.10427639  1
  Ni  Ni172  1  0.37105610  0.08490337  0.69889104  1
  Ni  Ni173  1  0.81170296  0.32050360  0.07815489  1
  Ni  Ni174  1  0.01005896  0.77343326  0.15189144  1
  Ni  Ni175  1  0.81209862  0.45280006  0.46877489  1
  Ni  Ni176  1  0.85917493  0.56676257  0.06203231  1
  Ni  Ni177  1  0.69642264  -0.00612717  0.61802074  1
  Ni  Ni178  1  0.62686080  0.69106222  0.27385281  1
  Ni  Ni179  1  0.62455700  0.83326930  0.46271876  1
  Ni  Ni180  1  0.35389073  0.85696086  0.17628923  1
  Ni  Ni181  1  0.24234961  0.64203807  0.80835490  1
  Ni  Ni182  1  0.24250496  0.36382553  0.52660051  1
  Ni  Ni183  1  0.69685770  0.46987347  0.14243419  1
  Ni  Ni184  1  0.41305451  0.61308436  0.56055834  1
  Ni  Ni185  1  0.89172810  0.18929607  0.66623995  1
  Ni  Ni186  1  0.13975850  0.77867758  0.39180193  1
  Ni  Ni187  1  -0.05960902  0.55763939  0.49212197  1
  Ni  Ni188  1  -0.07343871  0.44840574  0.87102588  1
  Ni  Ni189  1  0.14495865  0.43171713  0.08640882  1
  Ni  Ni190  1  0.53983461  0.41449487  0.58132690  1
  Ni  Ni191  1  0.30685715  0.88245900  0.47018011  1
  Ni  Ni192  1  -0.05110318  0.15981701  0.46071139  1
  Ni  Ni193  1  0.04686186  0.63723333  0.39638088  1
  Ni  Ni194  1  0.75610664  0.17368422  0.04712004  1
  Ni  Ni195  1  0.67994638  0.13828465  0.39905238  1
  Ni  Ni196  1  0.27388396  0.80858234  0.79901443  1
  Ni  Ni197  1  0.22035390  0.77317442  -0.04233452  1
  Ni  Ni198  1  0.69346985  0.70421563  0.66440265  1
  Ni  Ni199  1  0.89635490  0.15195431  0.24528669  1
  Ni  Ni200  1  0.88539767  0.01810372  0.14712496  1
  Ni  Ni201  1  0.40332236  0.78073209  0.36826530  1
  Ni  Ni202  1  0.17520976  0.01024301  0.96589256  1
  Ni  Ni203  1  0.28838792  0.72532897  0.27796508  1
  Ni  Ni204  1  0.77447552  0.89917305  0.21454870  1
  Ni  Ni205  1  0.64182572  0.32280108  0.08594092  1
  Ni  Ni206  1  0.08205525  -0.06099216  0.32318304  1
  Ni  Ni207  1  0.21038651  0.26999488  0.16620106  1
  Ni  Ni208  1  0.50706972  0.25555094  0.83995425  1
  Ni  Ni209  1  0.76288382  0.59731328  0.54832085  1
  Ni  Ni210  1  0.17489283  0.46202062  0.63758523  1
  Ni  Ni211  1  0.23429159  0.31864315  0.68796240  1
  Ni  Ni212  1  0.86561870  0.47697689  0.62736720  1
  Ni  Ni213  1  0.64147096  0.16982575  0.80904539  1
  Ni  Ni214  1  -0.00606886  0.27258796  0.35334762  1
